MODEL 1
REMARK VINA RESULT:     -12.7      0.000      0.000
REMARK SMILES CCCc1cc(S(F)(F)(F)(F)F)cc2c1O[C@@H](C(F)(F)F)C(C(=O)NCCCNC(=O)c1ccc(-c3c4nc(c(-c5c(F)cc(S(=O)(=O)[O-])cc5F)c5ccc([nH]5)c(-c5c(F)cc(S(=O)(=O)[O-])cc5F)c5nc(c(-c6c(F)cc(S(=O)(=O)[O-])cc6F)c6ccc3[nH]6)C=C5)C=C4)cc1)=C2
REMARK SMILES IDX 27 1 26 2 25 3 23 4 24 5 22 7 4 8 5 9 15 10 6 11 14 12 16 13
REMARK SMILES IDX 13 14 98 15 17 16 3 17 2 18 1 19 7 20 8 21 9 22 10 23 11 24
REMARK SMILES IDX 12 25 18 26 19 27 20 28 21 29 28 30 29 31 30 32 31 34 32 35
REMARK SMILES IDX 33 36 97 37 34 38 96 39 35 40 36 41 37 42 90 43 38 44 95 45
REMARK SMILES IDX 89 46 91 47 39 48 94 49 88 50 87 51 40 53 74 54 53 55 73 56
REMARK SMILES IDX 54 57 57 58 72 59 92 60 55 61 56 62 71 64 93 65 58 66 41 67
REMARK SMILES IDX 42 68 51 69 43 70 44 71 50 72 52 73 45 74 46 75 47 76 48 77
REMARK SMILES IDX 49 78 75 79 76 80 85 81 77 82 78 83 84 84 86 85 79 86 80 87
REMARK SMILES IDX 81 88 82 89 83 90 59 91 60 92 69 93 61 94 62 95 68 96 70 97
REMARK SMILES IDX 63 98 64 99 65 100 66 101 67 102
REMARK H PARENT 25 6 29 33 91 52 57 63
REMARK Flexibility Score: inf
ROOT
ATOM      1  C   UNL A   1      39.592  22.229  26.601  1.00  0.00     0.042 C 
ENDROOT
BRANCH   1   2
ATOM      2  C   UNL A   1      38.289  22.851  26.126  1.00  0.00     0.118 C 
BRANCH   2   3
ATOM      3  N   UNL A   1      38.143  22.637  24.680  1.00  0.00    -0.352 N 
ATOM      4  C   UNL A   1      36.841  22.852  24.031  1.00  0.00     0.251 C 
ATOM      5  O   UNL A   1      36.715  22.666  22.780  1.00  0.00    -0.270 OA
ATOM      6  H   UNL A   1      38.918  22.349  24.143  1.00  0.00     0.163 HD
BRANCH   4   7
ATOM      7  C   UNL A   1      35.645  23.297  24.858  1.00  0.00     0.067 C 
ATOM      8  C   UNL A   1      32.070  24.324  26.760  1.00  0.00    -0.004 A 
ATOM      9  C   UNL A   1      31.723  25.655  26.905  1.00  0.00     0.032 A 
ATOM     10  C   UNL A   1      33.225  24.012  26.083  1.00  0.00     0.131 A 
ATOM     11  C   UNL A   1      32.509  26.648  26.382  1.00  0.00     0.108 A 
ATOM     12  C   UNL A   1      34.052  24.989  25.559  1.00  0.00     0.019 A 
ATOM     13  O   UNL A   1      33.498  22.687  25.849  1.00  0.00    -0.475 OA
ATOM     14  C   UNL A   1      33.671  26.317  25.718  1.00  0.00     0.036 A 
ATOM     15  C   UNL A   1      35.230  24.557  24.827  1.00  0.00     0.025 C 
ATOM     16  C   UNL A   1      34.899  22.306  25.741  1.00  0.00     0.314 C 
BRANCH   8  17
ATOM     17  C   UNL A   1      31.172  23.241  27.337  1.00  0.00     0.039 C 
BRANCH  17  18
ATOM     18  C   UNL A   1      29.924  23.108  26.480  1.00  0.00     0.001 C 
ATOM     19  C   UNL A   1      28.828  22.428  27.283  1.00  0.00     0.004 C 
ENDBRANCH  17  18
ENDBRANCH   8  17
BRANCH  11  20
ATOM     20  S   UNL A   1      32.024  28.383  26.562  1.00  0.00     0.310 S 
ATOM     21  F   UNL A   1      30.948  28.056  27.681  1.00  0.00    -0.094 F 
ATOM     22  F   UNL A   1      30.898  28.106  25.495  1.00  0.00    -0.094 F 
ATOM     23  F   UNL A   1      31.594  29.873  26.670  1.00  0.00    -0.094 F 
ATOM     24  F   UNL A   1      33.063  28.607  27.730  1.00  0.00    -0.094 F 
ATOM     25  F   UNL A   1      32.396  26.846  26.545  1.00  0.00    -0.094 F 
ENDBRANCH  11  20
BRANCH  16  26
ATOM     26  C   UNL A   1      34.990  20.921  25.121  1.00  0.00     0.429 C 
ATOM     27  F   UNL A   1      36.250  20.497  25.168  1.00  0.00    -0.167 F 
ATOM     28  F   UNL A   1      34.214  20.080  25.799  1.00  0.00    -0.167 F 
ATOM     29  F   UNL A   1      34.587  20.976  23.854  1.00  0.00    -0.167 F 
ENDBRANCH  16  26
ENDBRANCH   4   7
ENDBRANCH   2   3
ENDBRANCH   1   2
BRANCH   1  30
ATOM     30  C   UNL A   1      40.525  23.323  27.096  1.00  0.00     0.118 C 
BRANCH  30  31
ATOM     31  N   UNL A   1      41.112  24.024  25.944  1.00  0.00    -0.352 N 
ATOM     32  C   UNL A   1      41.427  25.456  26.039  1.00  0.00     0.251 C 
ATOM     33  H   UNL A   1      41.293  23.533  25.110  1.00  0.00     0.163 HD
ATOM     34  O   UNL A   1      41.935  26.062  25.043  1.00  0.00    -0.269 OA
BRANCH  32  35
ATOM     35  C   UNL A   1      41.147  26.213  27.327  1.00  0.00     0.039 A 
ATOM     36  C   UNL A   1      42.061  27.205  27.640  1.00  0.00     0.014 A 
ATOM     37  C   UNL A   1      40.045  26.038  28.049  1.00  0.00     0.014 A 
ATOM     38  C   UNL A   1      41.867  27.782  28.917  1.00  0.00     0.010 A 
ATOM     39  C   UNL A   1      39.858  26.736  29.218  1.00  0.00     0.010 A 
ATOM     40  C   UNL A   1      40.752  27.690  29.619  1.00  0.00    -0.014 A 
BRANCH  40  41
ATOM     41  C   UNL A   1      40.476  28.595  30.808  1.00  0.00     0.031 A 
ATOM     42  C   UNL A   1      39.543  29.629  30.712  1.00  0.00     0.074 A 
ATOM     43  C   UNL A   1      41.322  28.415  31.889  1.00  0.00     0.049 A 
ATOM     44  N   UNL A   1      39.279  30.573  31.616  1.00  0.00    -0.248 NA
ATOM     45  C   UNL A   1      38.667  29.842  29.550  1.00  0.00     0.031 C 
ATOM     46  C   UNL A   1      42.260  27.369  31.998  1.00  0.00     0.029 A 
ATOM     47  N   UNL A   1      41.417  29.184  33.027  1.00  0.00    -0.354 N 
ATOM     48  C   UNL A   1      38.308  31.375  31.174  1.00  0.00     0.074 A 
ATOM     49  C   UNL A   1      37.905  30.921  29.836  1.00  0.00     0.031 C 
ATOM     50  C   UNL A   1      42.919  27.514  33.178  1.00  0.00     0.029 A 
ATOM     51  C   UNL A   1      42.403  28.651  33.827  1.00  0.00     0.049 A 
ATOM     52  H   UNL A   1      40.873  29.979  33.232  1.00  0.00     0.167 HD
ATOM     53  C   UNL A   1      37.742  32.466  31.835  1.00  0.00     0.037 A 
ATOM     54  C   UNL A   1      42.842  29.117  35.056  1.00  0.00     0.037 A 
ATOM     55  C   UNL A   1      38.152  32.906  33.083  1.00  0.00     0.049 A 
ATOM     56  C   UNL A   1      42.316  30.244  35.692  1.00  0.00     0.074 A 
ATOM     57  C   UNL A   1      37.587  34.000  33.767  1.00  0.00     0.029 A 
ATOM     58  N   UNL A   1      39.155  32.388  33.872  1.00  0.00    -0.354 N 
ATOM     59  N   UNL A   1      41.319  31.022  35.267  1.00  0.00    -0.248 NA
ATOM     60  C   UNL A   1      42.796  30.765  36.978  1.00  0.00     0.031 C 
ATOM     61  C   UNL A   1      38.246  34.145  34.949  1.00  0.00     0.029 A 
ATOM     62  C   UNL A   1      39.234  33.144  35.021  1.00  0.00     0.049 A 
ATOM     63  H   UNL A   1      39.718  31.610  33.654  1.00  0.00     0.167 HD
ATOM     64  C   UNL A   1      41.083  31.992  36.154  1.00  0.00     0.074 A 
ATOM     65  C   UNL A   1      42.035  31.845  37.264  1.00  0.00     0.031 C 
ATOM     66  C   UNL A   1      40.110  32.990  36.083  1.00  0.00     0.037 A 
BRANCH  53  67
ATOM     67  C   UNL A   1      36.612  33.214  31.147  1.00  0.00     0.058 A 
ATOM     68  C   UNL A   1      35.303  32.968  31.530  1.00  0.00     0.135 A 
ATOM     69  C   UNL A   1      36.897  34.090  30.190  1.00  0.00     0.135 A 
ATOM     70  F   UNL A   1      34.984  32.304  32.635  1.00  0.00    -0.206 F 
ATOM     71  C   UNL A   1      34.337  33.488  30.635  1.00  0.00     0.059 A 
ATOM     72  C   UNL A   1      35.894  34.663  29.445  1.00  0.00     0.059 A 
ATOM     73  F   UNL A   1      38.165  34.414  29.950  1.00  0.00    -0.206 F 
ATOM     74  C   UNL A   1      34.580  34.418  29.728  1.00  0.00     0.060 A 
BRANCH  74  75
ATOM     75  S   UNL A   1      33.243  35.319  28.906  1.00  0.00     0.124 S 
ATOM     76  O   UNL A   1      32.452  34.358  28.015  1.00  0.00    -0.237 OA
ATOM     77  O   UNL A   1      32.311  35.923  29.960  1.00  0.00    -0.237 OA
ATOM     78  O   UNL A   1      33.905  36.572  27.948  1.00  0.00    -0.744 OA
ENDBRANCH  74  75
ENDBRANCH  53  67
BRANCH  54  79
ATOM     79  C   UNL A   1      43.962  28.359  35.751  1.00  0.00     0.058 A 
ATOM     80  C   UNL A   1      43.645  27.346  36.641  1.00  0.00     0.135 A 
ATOM     81  C   UNL A   1      45.225  28.679  35.493  1.00  0.00     0.135 A 
ATOM     82  F   UNL A   1      42.425  26.823  36.741  1.00  0.00    -0.206 F 
ATOM     83  C   UNL A   1      44.735  26.916  37.433  1.00  0.00     0.059 A 
ATOM     84  C   UNL A   1      46.249  28.118  36.216  1.00  0.00     0.059 A 
ATOM     85  F   UNL A   1      45.499  29.550  34.526  1.00  0.00    -0.206 F 
ATOM     86  C   UNL A   1      46.004  27.154  37.153  1.00  0.00     0.060 A 
BRANCH  86  87
ATOM     87  S   UNL A   1      47.345  26.249  37.965  1.00  0.00     0.124 S 
ATOM     88  O   UNL A   1      47.367  24.805  37.459  1.00  0.00    -0.237 OA
ATOM     89  O   UNL A   1      48.682  26.923  37.646  1.00  0.00    -0.237 OA
ATOM     90  O   UNL A   1      47.094  26.256  39.657  1.00  0.00    -0.744 OA
ENDBRANCH  86  87
ENDBRANCH  54  79
BRANCH  66  91
ATOM     91  C   UNL A   1      40.006  33.967  37.243  1.00  0.00     0.058 A 
ATOM     92  C   UNL A   1      40.655  35.179  37.073  1.00  0.00     0.135 A 
ATOM     93  C   UNL A   1      39.232  33.743  38.298  1.00  0.00     0.135 A 
ATOM     94  F   UNL A   1      41.226  35.541  35.927  1.00  0.00    -0.206 F 
ATOM     95  C   UNL A   1      40.654  35.998  38.227  1.00  0.00     0.059 A 
ATOM     96  C   UNL A   1      39.175  34.650  39.329  1.00  0.00     0.059 A 
ATOM     97  F   UNL A   1      38.506  32.631  38.359  1.00  0.00    -0.206 F 
ATOM     98  C   UNL A   1      39.838  35.843  39.254  1.00  0.00     0.060 A 
BRANCH  98  99
ATOM     99  S   UNL A   1      39.611  37.140  40.495  1.00  0.00     0.124 S 
ATOM    100  O   UNL A   1      40.978  37.651  40.955  1.00  0.00    -0.237 OA
ATOM    101  O   UNL A   1      38.814  38.296  39.886  1.00  0.00    -0.237 OA
ATOM    102  O   UNL A   1      38.759  36.504  41.835  1.00  0.00    -0.744 OA
ENDBRANCH  98  99
ENDBRANCH  66  91
ENDBRANCH  40  41
ENDBRANCH  32  35
ENDBRANCH  30  31
ENDBRANCH   1  30
TORSDOF 17
ENDMDL
MODEL 2
REMARK VINA RESULT:     -12.5      6.610     12.053
REMARK SMILES CCCc1cc(S(F)(F)(F)(F)F)cc2c1O[C@@H](C(F)(F)F)C(C(=O)NCCCNC(=O)c1ccc(-c3c4nc(c(-c5c(F)cc(S(=O)(=O)[O-])cc5F)c5ccc([nH]5)c(-c5c(F)cc(S(=O)(=O)[O-])cc5F)c5nc(c(-c6c(F)cc(S(=O)(=O)[O-])cc6F)c6ccc3[nH]6)C=C5)C=C4)cc1)=C2
REMARK SMILES IDX 27 1 26 2 25 3 23 4 24 5 22 7 4 8 5 9 15 10 6 11 14 12 16 13
REMARK SMILES IDX 13 14 98 15 17 16 3 17 2 18 1 19 7 20 8 21 9 22 10 23 11 24
REMARK SMILES IDX 12 25 18 26 19 27 20 28 21 29 28 30 29 31 30 32 31 34 32 35
REMARK SMILES IDX 33 36 97 37 34 38 96 39 35 40 36 41 37 42 90 43 38 44 95 45
REMARK SMILES IDX 89 46 91 47 39 48 94 49 88 50 87 51 40 53 74 54 53 55 73 56
REMARK SMILES IDX 54 57 57 58 72 59 92 60 55 61 56 62 71 64 93 65 58 66 41 67
REMARK SMILES IDX 42 68 51 69 43 70 44 71 50 72 52 73 45 74 46 75 47 76 48 77
REMARK SMILES IDX 49 78 75 79 76 80 85 81 77 82 78 83 84 84 86 85 79 86 80 87
REMARK SMILES IDX 81 88 82 89 83 90 59 91 60 92 69 93 61 94 62 95 68 96 70 97
REMARK SMILES IDX 63 98 64 99 65 100 66 101 67 102
REMARK H PARENT 25 6 29 33 91 52 57 63
REMARK Flexibility Score: inf
ROOT
ATOM      1  C   UNL A   1      35.156  29.347  27.324  1.00  0.00     0.042 C 
ENDROOT
BRANCH   1   2
ATOM      2  C   UNL A   1      33.867  29.691  26.596  1.00  0.00     0.118 C 
BRANCH   2   3
ATOM      3  N   UNL A   1      32.718  29.257  27.404  1.00  0.00    -0.352 N 
ATOM      4  C   UNL A   1      32.082  27.957  27.140  1.00  0.00     0.251 C 
ATOM      5  O   UNL A   1      31.089  27.583  27.839  1.00  0.00    -0.270 OA
ATOM      6  H   UNL A   1      32.373  29.837  28.122  1.00  0.00     0.163 HD
BRANCH   4   7
ATOM      7  C   UNL A   1      32.614  27.062  26.032  1.00  0.00     0.067 C 
ATOM      8  C   UNL A   1      33.649  24.331  23.046  1.00  0.00    -0.004 A 
ATOM      9  C   UNL A   1      34.722  23.478  23.232  1.00  0.00     0.032 A 
ATOM     10  C   UNL A   1      33.297  25.183  24.066  1.00  0.00     0.131 A 
ATOM     11  C   UNL A   1      35.422  23.475  24.410  1.00  0.00     0.108 A 
ATOM     12  C   UNL A   1      33.992  25.219  25.261  1.00  0.00     0.019 A 
ATOM     13  O   UNL A   1      32.163  25.941  23.911  1.00  0.00    -0.475 OA
ATOM     14  C   UNL A   1      35.063  24.345  25.417  1.00  0.00     0.036 A 
ATOM     15  C   UNL A   1      33.519  26.127  26.292  1.00  0.00     0.025 C 
ATOM     16  C   UNL A   1      32.121  27.221  24.600  1.00  0.00     0.314 C 
BRANCH   8  17
ATOM     17  C   UNL A   1      32.880  24.303  21.735  1.00  0.00     0.039 C 
BRANCH  17  18
ATOM     18  C   UNL A   1      32.918  25.681  21.096  1.00  0.00     0.001 C 
ATOM     19  C   UNL A   1      32.521  25.572  19.633  1.00  0.00     0.004 C 
ENDBRANCH  17  18
ENDBRANCH   8  17
BRANCH  11  20
ATOM     20  S   UNL A   1      36.809  22.334  24.643  1.00  0.00     0.310 S 
ATOM     21  F   UNL A   1      37.127  22.268  23.090  1.00  0.00    -0.094 F 
ATOM     22  F   UNL A   1      35.787  21.157  24.414  1.00  0.00    -0.094 F 
ATOM     23  F   UNL A   1      37.969  21.323  24.861  1.00  0.00    -0.094 F 
ATOM     24  F   UNL A   1      37.842  23.525  24.729  1.00  0.00    -0.094 F 
ATOM     25  F   UNL A   1      35.663  23.372  24.310  1.00  0.00    -0.094 F 
ENDBRANCH  11  20
BRANCH  16  26
ATOM     26  C   UNL A   1      30.687  27.726  24.622  1.00  0.00     0.429 C 
ATOM     27  F   UNL A   1      30.660  28.963  25.110  1.00  0.00    -0.167 F 
ATOM     28  F   UNL A   1      30.198  27.727  23.385  1.00  0.00    -0.167 F 
ATOM     29  F   UNL A   1      29.949  26.930  25.391  1.00  0.00    -0.167 F 
ENDBRANCH  16  26
ENDBRANCH   4   7
ENDBRANCH   2   3
ENDBRANCH   1   2
BRANCH   1  30
ATOM     30  C   UNL A   1      35.724  30.602  27.968  1.00  0.00     0.118 C 
BRANCH  30  31
ATOM     31  N   UNL A   1      35.529  30.538  29.424  1.00  0.00    -0.352 N 
ATOM     32  C   UNL A   1      36.657  30.199  30.302  1.00  0.00     0.251 C 
ATOM     33  H   UNL A   1      34.642  30.721  29.809  1.00  0.00     0.163 HD
ATOM     34  O   UNL A   1      36.488  30.143  31.561  1.00  0.00    -0.269 OA
BRANCH  32  35
ATOM     35  C   UNL A   1      38.026  29.914  29.706  1.00  0.00     0.039 A 
ATOM     36  C   UNL A   1      38.985  29.485  30.608  1.00  0.00     0.014 A 
ATOM     37  C   UNL A   1      38.273  29.948  28.401  1.00  0.00     0.014 A 
ATOM     38  C   UNL A   1      40.285  29.382  30.058  1.00  0.00     0.010 A 
ATOM     39  C   UNL A   1      39.538  29.704  27.923  1.00  0.00     0.010 A 
ATOM     40  C   UNL A   1      40.549  29.332  28.765  1.00  0.00    -0.014 A 
BRANCH  40  41
ATOM     41  C   UNL A   1      41.904  28.886  28.241  1.00  0.00     0.031 A 
ATOM     42  C   UNL A   1      42.148  27.540  27.959  1.00  0.00     0.074 A 
ATOM     43  C   UNL A   1      42.881  29.867  28.232  1.00  0.00     0.049 A 
ATOM     44  N   UNL A   1      43.306  26.979  27.612  1.00  0.00    -0.248 NA
ATOM     45  C   UNL A   1      41.118  26.490  28.001  1.00  0.00     0.031 C 
ATOM     46  C   UNL A   1      42.641  31.228  28.506  1.00  0.00     0.029 A 
ATOM     47  N   UNL A   1      44.224  29.721  27.967  1.00  0.00    -0.354 N 
ATOM     48  C   UNL A   1      43.140  25.670  27.405  1.00  0.00     0.074 A 
ATOM     49  C   UNL A   1      41.732  25.336  27.659  1.00  0.00     0.031 C 
ATOM     50  C   UNL A   1      43.825  31.890  28.420  1.00  0.00     0.029 A 
ATOM     51  C   UNL A   1      44.824  30.955  28.089  1.00  0.00     0.049 A 
ATOM     52  H   UNL A   1      44.677  28.879  27.732  1.00  0.00     0.167 HD
ATOM     53  C   UNL A   1      44.107  24.744  27.013  1.00  0.00     0.037 A 
ATOM     54  C   UNL A   1      46.164  31.266  27.926  1.00  0.00     0.037 A 
ATOM     55  C   UNL A   1      45.440  25.063  26.809  1.00  0.00     0.049 A 
ATOM     56  C   UNL A   1      47.144  30.328  27.592  1.00  0.00     0.074 A 
ATOM     57  C   UNL A   1      46.426  24.142  26.407  1.00  0.00     0.029 A 
ATOM     58  N   UNL A   1      46.044  26.292  26.955  1.00  0.00    -0.354 N 
ATOM     59  N   UNL A   1      46.970  29.027  27.347  1.00  0.00    -0.248 NA
ATOM     60  C   UNL A   1      48.571  30.641  27.449  1.00  0.00     0.031 C 
ATOM     61  C   UNL A   1      47.612  24.805  26.320  1.00  0.00     0.029 A 
ATOM     62  C   UNL A   1      47.384  26.150  26.667  1.00  0.00     0.049 A 
ATOM     63  H   UNL A   1      45.596  27.128  27.218  1.00  0.00     0.167 HD
ATOM     64  C   UNL A   1      48.137  28.458  27.040  1.00  0.00     0.074 A 
ATOM     65  C   UNL A   1      49.185  29.486  27.108  1.00  0.00     0.031 C 
ATOM     66  C   UNL A   1      48.370  27.124  26.702  1.00  0.00     0.037 A 
BRANCH  53  67
ATOM     67  C   UNL A   1      43.675  23.303  26.800  1.00  0.00     0.058 A 
ATOM     68  C   UNL A   1      43.465  22.841  25.510  1.00  0.00     0.135 A 
ATOM     69  C   UNL A   1      43.505  22.510  27.851  1.00  0.00     0.135 A 
ATOM     70  F   UNL A   1      43.860  23.505  24.429  1.00  0.00    -0.206 F 
ATOM     71  C   UNL A   1      42.789  21.598  25.449  1.00  0.00     0.059 A 
ATOM     72  C   UNL A   1      42.965  21.254  27.702  1.00  0.00     0.059 A 
ATOM     73  F   UNL A   1      43.858  22.935  29.061  1.00  0.00    -0.206 F 
ATOM     74  C   UNL A   1      42.677  20.757  26.462  1.00  0.00     0.060 A 
BRANCH  74  75
ATOM     75  S   UNL A   1      42.168  19.037  26.219  1.00  0.00     0.124 S 
ATOM     76  O   UNL A   1      42.292  18.277  27.542  1.00  0.00    -0.237 OA
ATOM     77  O   UNL A   1      40.714  18.997  25.740  1.00  0.00    -0.237 OA
ATOM     78  O   UNL A   1      43.174  18.305  25.044  1.00  0.00    -0.744 OA
ENDBRANCH  74  75
ENDBRANCH  53  67
BRANCH  54  79
ATOM     79  C   UNL A   1      46.594  32.711  28.125  1.00  0.00     0.058 A 
ATOM     80  C   UNL A   1      46.535  33.589  27.055  1.00  0.00     0.135 A 
ATOM     81  C   UNL A   1      47.016  33.108  29.320  1.00  0.00     0.135 A 
ATOM     82  F   UNL A   1      45.891  33.313  25.924  1.00  0.00    -0.206 F 
ATOM     83  C   UNL A   1      47.222  34.806  27.274  1.00  0.00     0.059 A 
ATOM     84  C   UNL A   1      47.552  34.361  29.491  1.00  0.00     0.059 A 
ATOM     85  F   UNL A   1      46.919  32.284  30.360  1.00  0.00    -0.206 F 
ATOM     86  C   UNL A   1      47.580  35.260  28.462  1.00  0.00     0.060 A 
BRANCH  86  87
ATOM     87  S   UNL A   1      48.082  36.982  28.713  1.00  0.00     0.124 S 
ATOM     88  O   UNL A   1      47.216  37.897  27.844  1.00  0.00    -0.237 OA
ATOM     89  O   UNL A   1      47.903  37.356  30.186  1.00  0.00    -0.237 OA
ATOM     90  O   UNL A   1      49.724  37.165  28.274  1.00  0.00    -0.744 OA
ENDBRANCH  86  87
ENDBRANCH  54  79
BRANCH  66  91
ATOM     91  C   UNL A   1      49.791  26.714  26.349  1.00  0.00     0.058 A 
ATOM     92  C   UNL A   1      50.559  26.234  27.397  1.00  0.00     0.135 A 
ATOM     93  C   UNL A   1      50.235  26.683  25.098  1.00  0.00     0.135 A 
ATOM     94  F   UNL A   1      50.068  26.011  28.614  1.00  0.00    -0.206 F 
ATOM     95  C   UNL A   1      51.913  26.001  27.057  1.00  0.00     0.059 A 
ATOM     96  C   UNL A   1      51.531  26.316  24.826  1.00  0.00     0.059 A 
ATOM     97  F   UNL A   1      49.420  27.011  24.101  1.00  0.00    -0.206 F 
ATOM     98  C   UNL A   1      52.365  25.886  25.821  1.00  0.00     0.060 A 
BRANCH  98  99
ATOM     99  S   UNL A   1      53.999  25.196  25.464  1.00  0.00     0.124 S 
ATOM    100  O   UNL A   1      53.845  23.774  24.919  1.00  0.00    -0.237 OA
ATOM    101  O   UNL A   1      54.704  26.068  24.422  1.00  0.00    -0.237 OA
ATOM    102  O   UNL A   1      54.928  25.159  26.899  1.00  0.00    -0.744 OA
ENDBRANCH  98  99
ENDBRANCH  66  91
ENDBRANCH  40  41
ENDBRANCH  32  35
ENDBRANCH  30  31
ENDBRANCH   1  30
TORSDOF 17
ENDMDL
MODEL 3
REMARK VINA RESULT:     -12.5      5.036      6.578
REMARK SMILES CCCc1cc(S(F)(F)(F)(F)F)cc2c1O[C@@H](C(F)(F)F)C(C(=O)NCCCNC(=O)c1ccc(-c3c4nc(c(-c5c(F)cc(S(=O)(=O)[O-])cc5F)c5ccc([nH]5)c(-c5c(F)cc(S(=O)(=O)[O-])cc5F)c5nc(c(-c6c(F)cc(S(=O)(=O)[O-])cc6F)c6ccc3[nH]6)C=C5)C=C4)cc1)=C2
REMARK SMILES IDX 27 1 26 2 25 3 23 4 24 5 22 7 4 8 5 9 15 10 6 11 14 12 16 13
REMARK SMILES IDX 13 14 98 15 17 16 3 17 2 18 1 19 7 20 8 21 9 22 10 23 11 24
REMARK SMILES IDX 12 25 18 26 19 27 20 28 21 29 28 30 29 31 30 32 31 34 32 35
REMARK SMILES IDX 33 36 97 37 34 38 96 39 35 40 36 41 37 42 90 43 38 44 95 45
REMARK SMILES IDX 89 46 91 47 39 48 94 49 88 50 87 51 40 53 74 54 53 55 73 56
REMARK SMILES IDX 54 57 57 58 72 59 92 60 55 61 56 62 71 64 93 65 58 66 41 67
REMARK SMILES IDX 42 68 51 69 43 70 44 71 50 72 52 73 45 74 46 75 47 76 48 77
REMARK SMILES IDX 49 78 75 79 76 80 85 81 77 82 78 83 84 84 86 85 79 86 80 87
REMARK SMILES IDX 81 88 82 89 83 90 59 91 60 92 69 93 61 94 62 95 68 96 70 97
REMARK SMILES IDX 63 98 64 99 65 100 66 101 67 102
REMARK H PARENT 25 6 29 33 91 52 57 63
REMARK Flexibility Score: inf
ROOT
ATOM      1  C   UNL A   1      35.455  23.424  26.373  1.00  0.00     0.042 C 
ENDROOT
BRANCH   1   2
ATOM      2  C   UNL A   1      34.328  22.981  25.454  1.00  0.00     0.118 C 
BRANCH   2   3
ATOM      3  N   UNL A   1      33.220  22.449  26.259  1.00  0.00    -0.352 N 
ATOM      4  C   UNL A   1      32.082  23.312  26.608  1.00  0.00     0.251 C 
ATOM      5  O   UNL A   1      31.124  22.851  27.304  1.00  0.00    -0.270 OA
ATOM      6  H   UNL A   1      33.239  21.513  26.566  1.00  0.00     0.163 HD
BRANCH   4   7
ATOM      7  C   UNL A   1      32.052  24.757  26.134  1.00  0.00     0.067 C 
ATOM      8  C   UNL A   1      32.272  28.573  24.449  1.00  0.00    -0.004 A 
ATOM      9  C   UNL A   1      32.925  29.589  25.124  1.00  0.00     0.032 A 
ATOM     10  C   UNL A   1      32.260  27.314  25.001  1.00  0.00     0.131 A 
ATOM     11  C   UNL A   1      33.554  29.350  26.317  1.00  0.00     0.108 A 
ATOM     12  C   UNL A   1      32.869  27.041  26.213  1.00  0.00     0.019 A 
ATOM     13  O   UNL A   1      31.708  26.293  24.268  1.00  0.00    -0.475 OA
ATOM     14  C   UNL A   1      33.521  28.084  26.862  1.00  0.00     0.036 A 
ATOM     15  C   UNL A   1      32.836  25.671  26.693  1.00  0.00     0.025 C 
ATOM     16  C   UNL A   1      31.122  25.186  25.008  1.00  0.00     0.314 C 
BRANCH   8  17
ATOM     17  C   UNL A   1      31.594  28.862  23.120  1.00  0.00     0.039 C 
BRANCH  17  18
ATOM     18  C   UNL A   1      30.203  29.421  23.370  1.00  0.00     0.001 C 
ATOM     19  C   UNL A   1      29.625  29.945  22.066  1.00  0.00     0.004 C 
ENDBRANCH  17  18
ENDBRANCH   8  17
BRANCH  11  20
ATOM     20  S   UNL A   1      34.424  30.688  27.172  1.00  0.00     0.310 S 
ATOM     21  F   UNL A   1      34.505  29.881  28.535  1.00  0.00    -0.094 F 
ATOM     22  F   UNL A   1      33.013  31.209  27.644  1.00  0.00    -0.094 F 
ATOM     23  F   UNL A   1      35.133  31.866  27.898  1.00  0.00    -0.094 F 
ATOM     24  F   UNL A   1      35.833  30.074  26.809  1.00  0.00    -0.094 F 
ATOM     25  F   UNL A   1      33.724  29.426  26.527  1.00  0.00    -0.094 F 
ENDBRANCH  11  20
BRANCH  16  26
ATOM     26  C   UNL A   1      30.912  24.014  24.063  1.00  0.00     0.429 C 
ATOM     27  F   UNL A   1      30.460  22.967  24.749  1.00  0.00    -0.167 F 
ATOM     28  F   UNL A   1      30.025  24.349  23.130  1.00  0.00    -0.167 F 
ATOM     29  F   UNL A   1      32.068  23.699  23.484  1.00  0.00    -0.167 F 
ENDBRANCH  16  26
ENDBRANCH   4   7
ENDBRANCH   2   3
ENDBRANCH   1   2
BRANCH   1  30
ATOM     30  C   UNL A   1      36.720  23.637  25.558  1.00  0.00     0.118 C 
BRANCH  30  31
ATOM     31  N   UNL A   1      37.574  22.443  25.656  1.00  0.00    -0.352 N 
ATOM     32  C   UNL A   1      38.925  22.551  26.223  1.00  0.00     0.251 C 
ATOM     33  H   UNL A   1      37.240  21.573  25.340  1.00  0.00     0.163 HD
ATOM     34  O   UNL A   1      39.663  21.520  26.308  1.00  0.00    -0.269 OA
BRANCH  32  35
ATOM     35  C   UNL A   1      39.440  23.896  26.709  1.00  0.00     0.039 A 
ATOM     36  C   UNL A   1      39.414  24.077  28.082  1.00  0.00     0.014 A 
ATOM     37  C   UNL A   1      39.995  24.797  25.906  1.00  0.00     0.014 A 
ATOM     38  C   UNL A   1      39.747  25.390  28.494  1.00  0.00     0.010 A 
ATOM     39  C   UNL A   1      40.423  26.006  26.400  1.00  0.00     0.010 A 
ATOM     40  C   UNL A   1      40.371  26.276  27.739  1.00  0.00    -0.014 A 
BRANCH  40  41
ATOM     41  C   UNL A   1      41.000  27.528  28.328  1.00  0.00     0.031 A 
ATOM     42  C   UNL A   1      40.199  28.559  28.822  1.00  0.00     0.074 A 
ATOM     43  C   UNL A   1      42.373  27.620  28.178  1.00  0.00     0.049 A 
ATOM     44  N   UNL A   1      40.591  29.758  29.255  1.00  0.00    -0.248 NA
ATOM     45  C   UNL A   1      38.736  28.476  28.951  1.00  0.00     0.031 C 
ATOM     46  C   UNL A   1      43.190  26.581  27.688  1.00  0.00     0.029 A 
ATOM     47  N   UNL A   1      43.185  28.695  28.462  1.00  0.00    -0.354 N 
ATOM     48  C   UNL A   1      39.538  30.465  29.670  1.00  0.00     0.074 A 
ATOM     49  C   UNL A   1      38.328  29.653  29.474  1.00  0.00     0.031 C 
ATOM     50  C   UNL A   1      44.473  27.028  27.666  1.00  0.00     0.029 A 
ATOM     51  C   UNL A   1      44.481  28.353  28.143  1.00  0.00     0.049 A 
ATOM     52  H   UNL A   1      42.890  29.559  28.830  1.00  0.00     0.167 HD
ATOM     53  C   UNL A   1      39.538  31.754  30.205  1.00  0.00     0.037 A 
ATOM     54  C   UNL A   1      45.617  29.138  28.253  1.00  0.00     0.037 A 
ATOM     55  C   UNL A   1      40.681  32.524  30.355  1.00  0.00     0.049 A 
ATOM     56  C   UNL A   1      45.611  30.450  28.734  1.00  0.00     0.074 A 
ATOM     57  C   UNL A   1      40.700  33.822  30.900  1.00  0.00     0.029 A 
ATOM     58  N   UNL A   1      41.973  32.190  30.013  1.00  0.00    -0.354 N 
ATOM     59  N   UNL A   1      44.563  31.142  29.185  1.00  0.00    -0.248 NA
ATOM     60  C   UNL A   1      46.803  31.301  28.823  1.00  0.00     0.031 C 
ATOM     61  C   UNL A   1      41.985  34.269  30.878  1.00  0.00     0.029 A 
ATOM     62  C   UNL A   1      42.789  33.258  30.319  1.00  0.00     0.049 A 
ATOM     63  H   UNL A   1      42.264  31.337  29.618  1.00  0.00     0.167 HD
ATOM     64  C   UNL A   1      44.950  32.357  29.579  1.00  0.00     0.074 A 
ATOM     65  C   UNL A   1      46.396  32.480  29.346  1.00  0.00     0.031 C 
ATOM     66  C   UNL A   1      44.157  33.365  30.128  1.00  0.00     0.037 A 
BRANCH  53  67
ATOM     67  C   UNL A   1      38.211  32.347  30.648  1.00  0.00     0.058 A 
ATOM     68  C   UNL A   1      37.465  33.089  29.747  1.00  0.00     0.135 A 
ATOM     69  C   UNL A   1      37.790  32.147  31.891  1.00  0.00     0.135 A 
ATOM     70  F   UNL A   1      37.713  33.106  28.441  1.00  0.00    -0.206 F 
ATOM     71  C   UNL A   1      36.415  33.828  30.344  1.00  0.00     0.059 A 
ATOM     72  C   UNL A   1      36.677  32.798  32.367  1.00  0.00     0.059 A 
ATOM     73  F   UNL A   1      38.451  31.308  32.685  1.00  0.00    -0.206 F 
ATOM     74  C   UNL A   1      35.926  33.594  31.548  1.00  0.00     0.060 A 
BRANCH  74  75
ATOM     75  S   UNL A   1      34.343  34.291  32.085  1.00  0.00     0.124 S 
ATOM     76  O   UNL A   1      33.493  34.630  30.858  1.00  0.00    -0.237 OA
ATOM     77  O   UNL A   1      33.604  33.270  32.953  1.00  0.00    -0.237 OA
ATOM     78  O   UNL A   1      34.626  35.712  32.994  1.00  0.00    -0.744 OA
ENDBRANCH  74  75
ENDBRANCH  53  67
BRANCH  54  79
ATOM     79  C   UNL A   1      46.947  28.538  27.824  1.00  0.00     0.058 A 
ATOM     80  C   UNL A   1      47.338  28.631  26.498  1.00  0.00     0.135 A 
ATOM     81  C   UNL A   1      47.713  27.938  28.728  1.00  0.00     0.135 A 
ATOM     82  F   UNL A   1      46.738  29.431  25.620  1.00  0.00    -0.206 F 
ATOM     83  C   UNL A   1      48.432  27.800  26.163  1.00  0.00     0.059 A 
ATOM     84  C   UNL A   1      48.843  27.257  28.344  1.00  0.00     0.059 A 
ATOM     85  F   UNL A   1      47.383  27.996  30.015  1.00  0.00    -0.206 F 
ATOM     86  C   UNL A   1      49.256  27.257  27.042  1.00  0.00     0.060 A 
BRANCH  86  87
ATOM     87  S   UNL A   1      50.848  26.552  26.545  1.00  0.00     0.124 S 
ATOM     88  O   UNL A   1      50.974  26.600  25.021  1.00  0.00    -0.237 OA
ATOM     89  O   UNL A   1      51.984  27.359  27.178  1.00  0.00    -0.237 OA
ATOM     90  O   UNL A   1      50.940  24.928  27.073  1.00  0.00    -0.744 OA
ENDBRANCH  86  87
ENDBRANCH  54  79
BRANCH  66  91
ATOM     91  C   UNL A   1      44.836  34.661  30.541  1.00  0.00     0.058 A 
ATOM     92  C   UNL A   1      44.869  35.659  29.581  1.00  0.00     0.135 A 
ATOM     93  C   UNL A   1      45.251  34.885  31.782  1.00  0.00     0.135 A 
ATOM     94  F   UNL A   1      44.238  35.564  28.413  1.00  0.00    -0.206 F 
ATOM     95  C   UNL A   1      45.632  36.791  29.955  1.00  0.00     0.059 A 
ATOM     96  C   UNL A   1      45.869  36.068  32.110  1.00  0.00     0.059 A 
ATOM     97  F   UNL A   1      45.068  33.957  32.716  1.00  0.00    -0.206 F 
ATOM     98  C   UNL A   1      45.988  37.077  31.194  1.00  0.00     0.060 A 
BRANCH  98  99
ATOM     99  S   UNL A   1      46.602  38.716  31.655  1.00  0.00     0.124 S 
ATOM    100  O   UNL A   1      47.924  38.570  32.413  1.00  0.00    -0.237 OA
ATOM    101  O   UNL A   1      46.828  39.550  30.392  1.00  0.00    -0.237 OA
ATOM    102  O   UNL A   1      45.454  39.494  32.655  1.00  0.00    -0.744 OA
ENDBRANCH  98  99
ENDBRANCH  66  91
ENDBRANCH  40  41
ENDBRANCH  32  35
ENDBRANCH  30  31
ENDBRANCH   1  30
TORSDOF 17
ENDMDL
