MODEL 1
REMARK VINA RESULT:     -10.6      0.000      0.000
REMARK SMILES C=CCN(CC(=O)NCCCNC(=O)c1ccc(-c2c3nc(c(-c4c(F)cc(S(=O)(=O)[O-])cc4F)c4ccc([nH]4)c(-c4c(F)cc(S(=O)(=O)[O-])cc4F)c4nc(c(-c5c(F)cc(S(=O)(=O)[O-])cc5F)c5ccc2[nH]5)C=C4)C=C3)cc1)C(=O)N1CC[C@@H]([NH+]2CCCCC2)C1
REMARK SMILES IDX 9 1 8 2 6 3 7 4 5 6 4 7 3 8 2 9 1 10 81 11 82 12 83 13 84 14
REMARK SMILES IDX 93 15 85 16 86 17 87 18 88 19 92 20 89 22 91 23 90 24 10 25
REMARK SMILES IDX 11 26 12 27 13 28 14 30 15 31 16 32 80 33 17 34 79 35 18 36
REMARK SMILES IDX 19 37 20 38 73 39 21 40 78 41 72 42 74 43 22 44 77 45 71 46
REMARK SMILES IDX 70 47 23 49 57 50 36 51 56 52 37 53 40 54 55 55 75 56 38 57
REMARK SMILES IDX 39 58 54 60 76 61 41 62 24 63 25 64 34 65 26 66 27 67 33 68
REMARK SMILES IDX 35 69 28 70 29 71 30 72 31 73 32 74 58 75 59 76 68 77 60 78
REMARK SMILES IDX 61 79 67 80 69 81 62 82 63 83 64 84 65 85 66 86 42 87 43 88
REMARK SMILES IDX 52 89 44 90 45 91 51 92 53 93 46 94 47 95 48 96 49 97 50 98
REMARK H PARENT 8 5 87 21 12 29 74 48 40 59
REMARK Flexibility Score: inf
ROOT
ATOM      1  C   UNL A   1      35.519  21.892  26.124  1.00  0.00     0.117 C 
ENDROOT
BRANCH   1   2
ATOM      2  N   UNL A   1      34.620  22.336  27.164  1.00  0.00    -0.354 N 
ATOM      3  C   UNL A   1      33.276  22.153  27.288  1.00  0.00     0.239 C 
ATOM      4  O   UNL A   1      32.829  22.168  28.443  1.00  0.00    -0.273 OA
ATOM      5  H   UNL A   1      35.042  22.847  27.892  1.00  0.00     0.163 HD
BRANCH   3   6
ATOM      6  C   UNL A   1      32.316  21.895  26.098  1.00  0.00     0.221 C 
BRANCH   6   7
ATOM      7  N   UNL A   1      31.778  22.995  25.272  1.00  0.00    -0.312 N 
BRANCH   7   8
ATOM      8  C   UNL A   1      31.570  22.696  23.858  1.00  0.00     0.149 C 
BRANCH   8   9
ATOM      9  C   UNL A   1      32.859  22.461  23.132  1.00  0.00    -0.013 C 
ATOM     10  C   UNL A   1      33.173  23.111  22.001  1.00  0.00     0.006 C 
ENDBRANCH   8   9
ENDBRANCH   7   8
BRANCH   7  11
ATOM     11  C   UNL A   1      31.216  24.180  25.759  1.00  0.00     0.320 C 
ATOM     12  O   UNL A   1      30.385  24.189  26.668  1.00  0.00    -0.248 OA
BRANCH  11  13
ATOM     13  N   UNL A   1      31.643  25.368  25.233  1.00  0.00    -0.318 N 
ATOM     14  C   UNL A   1      30.871  26.562  25.147  1.00  0.00     0.128 C 
ATOM     15  C   UNL A   1      33.055  25.768  25.134  1.00  0.00     0.186 C 
ATOM     16  C   UNL A   1      31.548  27.284  24.017  1.00  0.00     0.088 C 
ATOM     17  C   UNL A   1      33.032  27.160  24.388  1.00  0.00     0.205 C 
BRANCH  17  18
ATOM     18  N   UNL A   1      33.622  28.318  25.094  1.00  0.00    -0.331 N 
ATOM     19  C   UNL A   1      33.896  28.204  26.529  1.00  0.00     0.262 C 
ATOM     20  C   UNL A   1      32.975  29.606  24.805  1.00  0.00     0.262 C 
ATOM     21  H   UNL A   1      34.545  28.295  24.662  1.00  0.00     0.348 HD
ATOM     22  C   UNL A   1      32.695  28.435  27.456  1.00  0.00     0.062 C 
ATOM     23  C   UNL A   1      31.706  29.907  25.606  1.00  0.00     0.062 C 
ATOM     24  C   UNL A   1      31.870  29.668  27.105  1.00  0.00     0.012 C 
ENDBRANCH  17  18
ENDBRANCH  11  13
ENDBRANCH   7  11
ENDBRANCH   6   7
ENDBRANCH   3   6
ENDBRANCH   1   2
BRANCH   1  25
ATOM     25  C   UNL A   1      35.817  22.929  25.047  1.00  0.00     0.042 C 
BRANCH  25  26
ATOM     26  C   UNL A   1      37.130  23.689  25.226  1.00  0.00     0.118 C 
BRANCH  26  27
ATOM     27  N   UNL A   1      38.272  22.817  25.485  1.00  0.00    -0.352 N 
ATOM     28  C   UNL A   1      39.471  23.063  26.108  1.00  0.00     0.251 C 
ATOM     29  H   UNL A   1      38.165  21.895  25.157  1.00  0.00     0.163 HD
ATOM     30  O   UNL A   1      40.366  22.218  26.041  1.00  0.00    -0.269 OA
BRANCH  28  31
ATOM     31  C   UNL A   1      39.707  24.325  26.841  1.00  0.00     0.039 A 
ATOM     32  C   UNL A   1      39.100  24.514  28.087  1.00  0.00     0.014 A 
ATOM     33  C   UNL A   1      40.497  25.335  26.291  1.00  0.00     0.014 A 
ATOM     34  C   UNL A   1      39.362  25.677  28.820  1.00  0.00     0.010 A 
ATOM     35  C   UNL A   1      40.815  26.457  27.052  1.00  0.00     0.010 A 
ATOM     36  C   UNL A   1      40.260  26.636  28.329  1.00  0.00    -0.014 A 
BRANCH  36  37
ATOM     37  C   UNL A   1      40.658  27.828  29.125  1.00  0.00     0.031 A 
ATOM     38  C   UNL A   1      41.927  27.803  29.932  1.00  0.00     0.074 A 
ATOM     39  C   UNL A   1      39.824  28.884  29.207  1.00  0.00     0.049 A 
ATOM     40  N   UNL A   1      42.360  28.663  30.817  1.00  0.00    -0.248 NA
ATOM     41  C   UNL A   1      42.811  26.642  29.740  1.00  0.00     0.031 C 
ATOM     42  C   UNL A   1      38.550  29.015  28.495  1.00  0.00     0.029 A 
ATOM     43  N   UNL A   1      39.907  30.038  29.947  1.00  0.00    -0.354 N 
ATOM     44  C   UNL A   1      43.553  28.139  31.303  1.00  0.00     0.074 A 
ATOM     45  C   UNL A   1      43.752  26.865  30.646  1.00  0.00     0.031 C 
ATOM     46  C   UNL A   1      37.976  30.182  28.830  1.00  0.00     0.029 A 
ATOM     47  C   UNL A   1      38.809  30.858  29.818  1.00  0.00     0.049 A 
ATOM     48  H   UNL A   1      40.680  30.258  30.517  1.00  0.00     0.167 HD
ATOM     49  C   UNL A   1      44.409  28.679  32.203  1.00  0.00     0.037 A 
ATOM     50  C   UNL A   1      38.495  32.010  30.445  1.00  0.00     0.037 A 
ATOM     51  C   UNL A   1      44.212  29.958  32.835  1.00  0.00     0.049 A 
ATOM     52  C   UNL A   1      39.449  32.576  31.462  1.00  0.00     0.074 A 
ATOM     53  C   UNL A   1      45.048  30.617  33.719  1.00  0.00     0.029 A 
ATOM     54  N   UNL A   1      43.100  30.768  32.657  1.00  0.00    -0.354 N 
ATOM     55  N   UNL A   1      40.599  32.094  31.870  1.00  0.00    -0.248 NA
ATOM     56  C   UNL A   1      39.067  33.842  32.106  1.00  0.00     0.031 C 
ATOM     57  C   UNL A   1      44.419  31.799  34.117  1.00  0.00     0.029 A 
ATOM     58  C   UNL A   1      43.218  31.909  33.434  1.00  0.00     0.049 A 
ATOM     59  H   UNL A   1      42.340  30.563  32.067  1.00  0.00     0.167 HD
ATOM     60  C   UNL A   1      41.094  33.015  32.789  1.00  0.00     0.074 A 
ATOM     61  C   UNL A   1      40.120  34.083  32.875  1.00  0.00     0.031 C 
ATOM     62  C   UNL A   1      42.251  32.978  33.494  1.00  0.00     0.037 A 
BRANCH  49  63
ATOM     63  C   UNL A   1      45.639  27.889  32.564  1.00  0.00     0.058 A 
ATOM     64  C   UNL A   1      46.847  28.039  31.864  1.00  0.00     0.135 A 
ATOM     65  C   UNL A   1      45.623  27.005  33.656  1.00  0.00     0.135 A 
ATOM     66  F   UNL A   1      46.917  28.860  30.804  1.00  0.00    -0.206 F 
ATOM     67  C   UNL A   1      47.985  27.320  32.214  1.00  0.00     0.059 A 
ATOM     68  C   UNL A   1      46.758  26.299  34.044  1.00  0.00     0.059 A 
ATOM     69  F   UNL A   1      44.496  26.822  34.362  1.00  0.00    -0.206 F 
ATOM     70  C   UNL A   1      47.931  26.454  33.307  1.00  0.00     0.060 A 
BRANCH  70  71
ATOM     71  S   UNL A   1      49.420  25.536  33.751  1.00  0.00     0.124 S 
ATOM     72  O   UNL A   1      50.383  26.061  32.787  1.00  0.00    -0.237 OA
ATOM     73  O   UNL A   1      49.631  25.936  35.138  1.00  0.00    -0.237 OA
ATOM     74  O   UNL A   1      49.035  24.142  33.555  1.00  0.00    -0.744 OA
ENDBRANCH  70  71
ENDBRANCH  49  63
BRANCH  50  75
ATOM     75  C   UNL A   1      37.218  32.707  30.126  1.00  0.00     0.058 A 
ATOM     76  C   UNL A   1      37.159  33.676  29.114  1.00  0.00     0.135 A 
ATOM     77  C   UNL A   1      36.031  32.415  30.820  1.00  0.00     0.135 A 
ATOM     78  F   UNL A   1      38.266  33.997  28.428  1.00  0.00    -0.206 F 
ATOM     79  C   UNL A   1      35.977  34.344  28.812  1.00  0.00     0.059 A 
ATOM     80  C   UNL A   1      34.831  33.049  30.516  1.00  0.00     0.059 A 
ATOM     81  F   UNL A   1      36.029  31.485  31.787  1.00  0.00    -0.206 F 
ATOM     82  C   UNL A   1      34.816  34.021  29.517  1.00  0.00     0.060 A 
BRANCH  82  83
ATOM     83  S   UNL A   1      33.280  34.865  29.084  1.00  0.00     0.124 S 
ATOM     84  O   UNL A   1      32.588  34.894  30.368  1.00  0.00    -0.237 OA
ATOM     85  O   UNL A   1      33.766  36.151  28.592  1.00  0.00    -0.237 OA
ATOM     86  O   UNL A   1      32.692  33.996  28.070  1.00  0.00    -0.744 OA
ENDBRANCH  82  83
ENDBRANCH  50  75
BRANCH  62  87
ATOM     87  C   UNL A   1      42.569  34.148  34.385  1.00  0.00     0.058 A 
ATOM     88  C   UNL A   1      42.270  34.140  35.756  1.00  0.00     0.135 A 
ATOM     89  C   UNL A   1      43.270  35.253  33.872  1.00  0.00     0.135 A 
ATOM     90  F   UNL A   1      41.595  33.112  36.294  1.00  0.00    -0.206 F 
ATOM     91  C   UNL A   1      42.650  35.189  36.587  1.00  0.00     0.059 A 
ATOM     92  C   UNL A   1      43.684  36.299  34.690  1.00  0.00     0.059 A 
ATOM     93  F   UNL A   1      43.586  35.308  32.569  1.00  0.00    -0.206 F 
ATOM     94  C   UNL A   1      43.366  36.260  36.047  1.00  0.00     0.060 A 
BRANCH  94  95
ATOM     95  S   UNL A   1      43.915  37.578  37.152  1.00  0.00     0.124 S 
ATOM     96  O   UNL A   1      44.074  38.693  36.224  1.00  0.00    -0.237 OA
ATOM     97  O   UNL A   1      42.800  37.683  38.087  1.00  0.00    -0.237 OA
ATOM     98  O   UNL A   1      45.154  37.053  37.719  1.00  0.00    -0.744 OA
ENDBRANCH  94  95
ENDBRANCH  62  87
ENDBRANCH  36  37
ENDBRANCH  28  31
ENDBRANCH  26  27
ENDBRANCH  25  26
ENDBRANCH   1  25
TORSDOF 19
ENDMDL
MODEL 2
REMARK VINA RESULT:     -10.5      2.601      4.513
REMARK SMILES C=CCN(CC(=O)NCCCNC(=O)c1ccc(-c2c3nc(c(-c4c(F)cc(S(=O)(=O)[O-])cc4F)c4ccc([nH]4)c(-c4c(F)cc(S(=O)(=O)[O-])cc4F)c4nc(c(-c5c(F)cc(S(=O)(=O)[O-])cc5F)c5ccc2[nH]5)C=C4)C=C3)cc1)C(=O)N1CC[C@@H]([NH+]2CCCCC2)C1
REMARK SMILES IDX 9 1 8 2 6 3 7 4 5 6 4 7 3 8 2 9 1 10 81 11 82 12 83 13 84 14
REMARK SMILES IDX 93 15 85 16 86 17 87 18 88 19 92 20 89 22 91 23 90 24 10 25
REMARK SMILES IDX 11 26 12 27 13 28 14 30 15 31 16 32 80 33 17 34 79 35 18 36
REMARK SMILES IDX 19 37 20 38 73 39 21 40 78 41 72 42 74 43 22 44 77 45 71 46
REMARK SMILES IDX 70 47 23 49 57 50 36 51 56 52 37 53 40 54 55 55 75 56 38 57
REMARK SMILES IDX 39 58 54 60 76 61 41 62 24 63 25 64 34 65 26 66 27 67 33 68
REMARK SMILES IDX 35 69 28 70 29 71 30 72 31 73 32 74 58 75 59 76 68 77 60 78
REMARK SMILES IDX 61 79 67 80 69 81 62 82 63 83 64 84 65 85 66 86 42 87 43 88
REMARK SMILES IDX 52 89 44 90 45 91 51 92 53 93 46 94 47 95 48 96 49 97 50 98
REMARK H PARENT 8 5 87 21 12 29 74 48 40 59
REMARK Flexibility Score: inf
ROOT
ATOM      1  C   UNL A   1      37.163  23.786  25.773  1.00  0.00     0.117 C 
ENDROOT
BRANCH   1   2
ATOM      2  N   UNL A   1      36.263  23.485  24.684  1.00  0.00    -0.354 N 
ATOM      3  C   UNL A   1      35.137  24.137  24.281  1.00  0.00     0.239 C 
ATOM      4  O   UNL A   1      34.835  24.016  23.085  1.00  0.00    -0.273 OA
ATOM      5  H   UNL A   1      36.499  22.691  24.153  1.00  0.00     0.163 HD
BRANCH   3   6
ATOM      6  C   UNL A   1      34.265  25.027  25.205  1.00  0.00     0.221 C 
BRANCH   6   7
ATOM      7  N   UNL A   1      32.892  24.646  25.591  1.00  0.00    -0.312 N 
BRANCH   7   8
ATOM      8  C   UNL A   1      31.813  25.400  24.960  1.00  0.00     0.149 C 
BRANCH   8   9
ATOM      9  C   UNL A   1      31.448  24.850  23.615  1.00  0.00    -0.013 C 
ATOM     10  C   UNL A   1      31.645  25.541  22.482  1.00  0.00     0.006 C 
ENDBRANCH   8   9
ENDBRANCH   7   8
BRANCH   7  11
ATOM     11  C   UNL A   1      32.532  23.484  26.284  1.00  0.00     0.320 C 
ATOM     12  O   UNL A   1      31.795  23.509  27.271  1.00  0.00    -0.248 OA
BRANCH  11  13
ATOM     13  N   UNL A   1      32.981  22.280  25.816  1.00  0.00    -0.318 N 
ATOM     14  C   UNL A   1      33.746  21.335  26.558  1.00  0.00     0.128 C 
ATOM     15  C   UNL A   1      32.365  21.546  24.701  1.00  0.00     0.186 C 
ATOM     16  C   UNL A   1      34.436  20.572  25.462  1.00  0.00     0.088 C 
ATOM     17  C   UNL A   1      33.286  20.280  24.489  1.00  0.00     0.205 C 
BRANCH  17  18
ATOM     18  N   UNL A   1      32.652  18.951  24.617  1.00  0.00    -0.331 N 
ATOM     19  C   UNL A   1      33.348  17.907  25.374  1.00  0.00     0.262 C 
ATOM     20  C   UNL A   1      32.129  18.397  23.359  1.00  0.00     0.262 C 
ATOM     21  H   UNL A   1      31.874  19.218  25.220  1.00  0.00     0.348 HD
ATOM     22  C   UNL A   1      34.444  17.150  24.611  1.00  0.00     0.062 C 
ATOM     23  C   UNL A   1      33.156  17.698  22.464  1.00  0.00     0.062 C 
ATOM     24  C   UNL A   1      34.026  16.694  23.217  1.00  0.00     0.012 C 
ENDBRANCH  17  18
ENDBRANCH  11  13
ENDBRANCH   7  11
ENDBRANCH   6   7
ENDBRANCH   3   6
ENDBRANCH   1   2
BRANCH   1  25
ATOM     25  C   UNL A   1      38.272  22.764  25.991  1.00  0.00     0.042 C 
BRANCH  25  26
ATOM     26  C   UNL A   1      39.384  23.206  26.941  1.00  0.00     0.118 C 
BRANCH  26  27
ATOM     27  N   UNL A   1      40.654  23.460  26.267  1.00  0.00    -0.352 N 
ATOM     28  C   UNL A   1      41.492  24.547  26.304  1.00  0.00     0.251 C 
ATOM     29  H   UNL A   1      40.961  22.727  25.687  1.00  0.00     0.163 HD
ATOM     30  O   UNL A   1      42.421  24.615  25.497  1.00  0.00    -0.269 OA
BRANCH  28  31
ATOM     31  C   UNL A   1      41.288  25.636  27.282  1.00  0.00     0.039 A 
ATOM     32  C   UNL A   1      40.307  25.493  28.269  1.00  0.00     0.014 A 
ATOM     33  C   UNL A   1      42.038  26.812  27.211  1.00  0.00     0.014 A 
ATOM     34  C   UNL A   1      40.144  26.488  29.239  1.00  0.00     0.010 A 
ATOM     35  C   UNL A   1      41.925  27.767  28.219  1.00  0.00     0.010 A 
ATOM     36  C   UNL A   1      40.985  27.611  29.249  1.00  0.00    -0.014 A 
BRANCH  36  37
ATOM     37  C   UNL A   1      40.925  28.634  30.328  1.00  0.00     0.031 A 
ATOM     38  C   UNL A   1      41.825  28.515  31.528  1.00  0.00     0.074 A 
ATOM     39  C   UNL A   1      39.988  29.602  30.278  1.00  0.00     0.049 A 
ATOM     40  N   UNL A   1      41.810  29.197  32.643  1.00  0.00    -0.248 NA
ATOM     41  C   UNL A   1      42.861  27.470  31.477  1.00  0.00     0.031 C 
ATOM     42  C   UNL A   1      39.036  29.805  29.183  1.00  0.00     0.029 A 
ATOM     43  N   UNL A   1      39.661  30.582  31.183  1.00  0.00    -0.354 N 
ATOM     44  C   UNL A   1      42.815  28.653  33.434  1.00  0.00     0.074 A 
ATOM     45  C   UNL A   1      43.391  27.555  32.688  1.00  0.00     0.031 C 
ATOM     46  C   UNL A   1      38.238  30.843  29.479  1.00  0.00     0.029 A 
ATOM     47  C   UNL A   1      38.581  31.347  30.804  1.00  0.00     0.049 A 
ATOM     48  H   UNL A   1      40.151  30.723  32.026  1.00  0.00     0.167 HD
ATOM     49  C   UNL A   1      43.227  29.043  34.664  1.00  0.00     0.037 A 
ATOM     50  C   UNL A   1      37.925  32.325  31.459  1.00  0.00     0.037 A 
ATOM     51  C   UNL A   1      42.661  30.151  35.389  1.00  0.00     0.049 A 
ATOM     52  C   UNL A   1      38.384  32.723  32.837  1.00  0.00     0.074 A 
ATOM     53  C   UNL A   1      43.046  30.660  36.617  1.00  0.00     0.029 A 
ATOM     54  N   UNL A   1      41.588  30.917  34.958  1.00  0.00    -0.354 N 
ATOM     55  N   UNL A   1      39.371  32.233  33.549  1.00  0.00    -0.248 NA
ATOM     56  C   UNL A   1      37.644  33.806  33.502  1.00  0.00     0.031 C 
ATOM     57  C   UNL A   1      42.173  31.697  36.953  1.00  0.00     0.029 A 
ATOM     58  C   UNL A   1      41.282  31.878  35.908  1.00  0.00     0.049 A 
ATOM     59  H   UNL A   1      41.114  30.795  34.104  1.00  0.00     0.167 HD
ATOM     60  C   UNL A   1      39.393  32.971  34.728  1.00  0.00     0.074 A 
ATOM     61  C   UNL A   1      38.323  33.942  34.633  1.00  0.00     0.031 C 
ATOM     62  C   UNL A   1      40.227  32.855  35.791  1.00  0.00     0.037 A 
BRANCH  49  63
ATOM     63  C   UNL A   1      44.344  28.266  35.310  1.00  0.00     0.058 A 
ATOM     64  C   UNL A   1      45.692  28.616  35.127  1.00  0.00     0.135 A 
ATOM     65  C   UNL A   1      44.060  27.185  36.162  1.00  0.00     0.135 A 
ATOM     66  F   UNL A   1      46.022  29.632  34.314  1.00  0.00    -0.206 F 
ATOM     67  C   UNL A   1      46.718  27.907  35.741  1.00  0.00     0.059 A 
ATOM     68  C   UNL A   1      45.069  26.481  36.812  1.00  0.00     0.059 A 
ATOM     69  F   UNL A   1      42.790  26.806  36.374  1.00  0.00    -0.206 F 
ATOM     70  C   UNL A   1      46.396  26.840  36.583  1.00  0.00     0.060 A 
BRANCH  70  71
ATOM     71  S   UNL A   1      47.741  25.936  37.378  1.00  0.00     0.124 S 
ATOM     72  O   UNL A   1      47.823  24.743  36.540  1.00  0.00    -0.237 OA
ATOM     73  O   UNL A   1      48.856  26.870  37.261  1.00  0.00    -0.237 OA
ATOM     74  O   UNL A   1      47.251  25.716  38.735  1.00  0.00    -0.744 OA
ENDBRANCH  70  71
ENDBRANCH  49  63
BRANCH  50  75
ATOM     75  C   UNL A   1      36.762  33.000  30.819  1.00  0.00     0.058 A 
ATOM     76  C   UNL A   1      35.452  32.735  31.243  1.00  0.00     0.135 A 
ATOM     77  C   UNL A   1      36.935  33.926  29.777  1.00  0.00     0.135 A 
ATOM     78  F   UNL A   1      35.232  31.851  32.230  1.00  0.00    -0.206 F 
ATOM     79  C   UNL A   1      34.354  33.348  30.649  1.00  0.00     0.059 A 
ATOM     80  C   UNL A   1      35.854  34.574  29.186  1.00  0.00     0.059 A 
ATOM     81  F   UNL A   1      38.168  34.228  29.343  1.00  0.00    -0.206 F 
ATOM     82  C   UNL A   1      34.565  34.270  29.621  1.00  0.00     0.060 A 
BRANCH  82  83
ATOM     83  S   UNL A   1      33.134  35.090  28.888  1.00  0.00     0.124 S 
ATOM     84  O   UNL A   1      32.688  34.094  27.921  1.00  0.00    -0.237 OA
ATOM     85  O   UNL A   1      32.268  35.286  30.047  1.00  0.00    -0.237 OA
ATOM     86  O   UNL A   1      33.699  36.311  28.323  1.00  0.00    -0.744 OA
ENDBRANCH  82  83
ENDBRANCH  50  75
BRANCH  62  87
ATOM     87  C   UNL A   1      40.063  33.832  36.923  1.00  0.00     0.058 A 
ATOM     88  C   UNL A   1      40.679  35.092  36.912  1.00  0.00     0.135 A 
ATOM     89  C   UNL A   1      39.199  33.533  37.991  1.00  0.00     0.135 A 
ATOM     90  F   UNL A   1      41.521  35.424  35.920  1.00  0.00    -0.206 F 
ATOM     91  C   UNL A   1      40.449  36.021  37.922  1.00  0.00     0.059 A 
ATOM     92  C   UNL A   1      38.932  34.458  38.995  1.00  0.00     0.059 A 
ATOM     93  F   UNL A   1      38.579  32.344  38.047  1.00  0.00    -0.206 F 
ATOM     94  C   UNL A   1      39.565  35.699  38.954  1.00  0.00     0.060 A 
BRANCH  94  95
ATOM     95  S   UNL A   1      39.220  36.942  40.217  1.00  0.00     0.124 S 
ATOM     96  O   UNL A   1      38.318  36.217  41.106  1.00  0.00    -0.237 OA
ATOM     97  O   UNL A   1      40.550  37.221  40.750  1.00  0.00    -0.237 OA
ATOM     98  O   UNL A   1      38.612  38.034  39.462  1.00  0.00    -0.744 OA
ENDBRANCH  94  95
ENDBRANCH  62  87
ENDBRANCH  36  37
ENDBRANCH  28  31
ENDBRANCH  26  27
ENDBRANCH  25  26
ENDBRANCH   1  25
TORSDOF 19
ENDMDL
MODEL 3
REMARK VINA RESULT:     -10.5      2.494      8.716
REMARK SMILES C=CCN(CC(=O)NCCCNC(=O)c1ccc(-c2c3nc(c(-c4c(F)cc(S(=O)(=O)[O-])cc4F)c4ccc([nH]4)c(-c4c(F)cc(S(=O)(=O)[O-])cc4F)c4nc(c(-c5c(F)cc(S(=O)(=O)[O-])cc5F)c5ccc2[nH]5)C=C4)C=C3)cc1)C(=O)N1CC[C@@H]([NH+]2CCCCC2)C1
REMARK SMILES IDX 9 1 8 2 6 3 7 4 5 6 4 7 3 8 2 9 1 10 81 11 82 12 83 13 84 14
REMARK SMILES IDX 93 15 85 16 86 17 87 18 88 19 92 20 89 22 91 23 90 24 10 25
REMARK SMILES IDX 11 26 12 27 13 28 14 30 15 31 16 32 80 33 17 34 79 35 18 36
REMARK SMILES IDX 19 37 20 38 73 39 21 40 78 41 72 42 74 43 22 44 77 45 71 46
REMARK SMILES IDX 70 47 23 49 57 50 36 51 56 52 37 53 40 54 55 55 75 56 38 57
REMARK SMILES IDX 39 58 54 60 76 61 41 62 24 63 25 64 34 65 26 66 27 67 33 68
REMARK SMILES IDX 35 69 28 70 29 71 30 72 31 73 32 74 58 75 59 76 68 77 60 78
REMARK SMILES IDX 61 79 67 80 69 81 62 82 63 83 64 84 65 85 66 86 42 87 43 88
REMARK SMILES IDX 52 89 44 90 45 91 51 92 53 93 46 94 47 95 48 96 49 97 50 98
REMARK H PARENT 8 5 87 21 12 29 74 48 40 59
REMARK Flexibility Score: inf
ROOT
ATOM      1  C   UNL A   1      37.084  22.088  25.615  1.00  0.00     0.117 C 
ENDROOT
BRANCH   1   2
ATOM      2  N   UNL A   1      35.910  22.026  26.454  1.00  0.00    -0.354 N 
ATOM      3  C   UNL A   1      34.693  21.467  26.207  1.00  0.00     0.239 C 
ATOM      4  O   UNL A   1      34.051  21.097  27.200  1.00  0.00    -0.273 OA
ATOM      5  H   UNL A   1      36.004  22.451  27.337  1.00  0.00     0.163 HD
BRANCH   3   6
ATOM      6  C   UNL A   1      34.109  21.240  24.788  1.00  0.00     0.221 C 
BRANCH   6   7
ATOM      7  N   UNL A   1      33.479  22.331  24.017  1.00  0.00    -0.312 N 
BRANCH   7   8
ATOM      8  C   UNL A   1      32.034  22.237  23.831  1.00  0.00     0.149 C 
BRANCH   8   9
ATOM      9  C   UNL A   1      31.314  21.956  25.115  1.00  0.00    -0.013 C 
ATOM     10  C   UNL A   1      30.820  22.935  25.888  1.00  0.00     0.006 C 
ENDBRANCH   8   9
ENDBRANCH   7   8
BRANCH   7  11
ATOM     11  C   UNL A   1      34.082  23.549  23.685  1.00  0.00     0.320 C 
ATOM     12  O   UNL A   1      34.918  23.646  22.787  1.00  0.00    -0.248 OA
BRANCH  11  13
ATOM     13  N   UNL A   1      33.690  24.675  24.357  1.00  0.00    -0.318 N 
ATOM     14  C   UNL A   1      34.129  25.061  25.655  1.00  0.00     0.128 C 
ATOM     15  C   UNL A   1      33.177  25.889  23.704  1.00  0.00     0.186 C 
ATOM     16  C   UNL A   1      33.002  25.945  26.109  1.00  0.00     0.088 C 
ATOM     17  C   UNL A   1      32.786  26.854  24.891  1.00  0.00     0.205 C 
BRANCH  17  18
ATOM     18  N   UNL A   1      33.453  28.173  24.942  1.00  0.00    -0.331 N 
ATOM     19  C   UNL A   1      34.099  28.589  26.190  1.00  0.00     0.262 C 
ATOM     20  C   UNL A   1      32.662  29.282  24.389  1.00  0.00     0.262 C 
ATOM     21  H   UNL A   1      34.232  27.965  24.317  1.00  0.00     0.348 HD
ATOM     22  C   UNL A   1      33.167  29.182  27.256  1.00  0.00     0.062 C 
ATOM     23  C   UNL A   1      31.627  29.895  25.336  1.00  0.00     0.062 C 
ATOM     24  C   UNL A   1      32.191  30.222  26.716  1.00  0.00     0.012 C 
ENDBRANCH  17  18
ENDBRANCH  11  13
ENDBRANCH   7  11
ENDBRANCH   6   7
ENDBRANCH   3   6
ENDBRANCH   1   2
BRANCH   1  25
ATOM     25  C   UNL A   1      37.620  23.492  25.364  1.00  0.00     0.042 C 
BRANCH  25  26
ATOM     26  C   UNL A   1      38.503  24.057  26.476  1.00  0.00     0.118 C 
BRANCH  26  27
ATOM     27  N   UNL A   1      39.901  24.209  26.083  1.00  0.00    -0.352 N 
ATOM     28  C   UNL A   1      40.848  25.130  26.459  1.00  0.00     0.251 C 
ATOM     29  H   UNL A   1      40.219  23.537  25.439  1.00  0.00     0.163 HD
ATOM     30  O   UNL A   1      41.917  25.174  25.846  1.00  0.00    -0.269 OA
BRANCH  28  31
ATOM     31  C   UNL A   1      40.600  26.071  27.571  1.00  0.00     0.039 A 
ATOM     32  C   UNL A   1      39.678  25.726  28.565  1.00  0.00     0.014 A 
ATOM     33  C   UNL A   1      41.248  27.306  27.621  1.00  0.00     0.014 A 
ATOM     34  C   UNL A   1      39.478  26.578  29.656  1.00  0.00     0.010 A 
ATOM     35  C   UNL A   1      41.102  28.119  28.743  1.00  0.00     0.010 A 
ATOM     36  C   UNL A   1      40.224  27.760  29.777  1.00  0.00    -0.014 A 
BRANCH  36  37
ATOM     37  C   UNL A   1      40.129  28.635  30.976  1.00  0.00     0.031 A 
ATOM     38  C   UNL A   1      39.153  29.781  30.995  1.00  0.00     0.074 A 
ATOM     39  C   UNL A   1      40.993  28.466  31.997  1.00  0.00     0.049 A 
ATOM     40  N   UNL A   1      39.036  30.752  31.862  1.00  0.00    -0.248 NA
ATOM     41  C   UNL A   1      38.204  29.860  29.873  1.00  0.00     0.031 C 
ATOM     42  C   UNL A   1      42.005  27.410  32.083  1.00  0.00     0.029 A 
ATOM     43  N   UNL A   1      41.179  29.195  33.146  1.00  0.00    -0.354 N 
ATOM     44  C   UNL A   1      38.018  31.568  31.382  1.00  0.00     0.074 A 
ATOM     45  C   UNL A   1      37.581  31.002  30.124  1.00  0.00     0.031 C 
ATOM     46  C   UNL A   1      42.701  27.559  33.222  1.00  0.00     0.029 A 
ATOM     47  C   UNL A   1      42.225  28.747  33.922  1.00  0.00     0.049 A 
ATOM     48  H   UNL A   1      40.619  29.966  33.391  1.00  0.00     0.167 HD
ATOM     49  C   UNL A   1      37.488  32.680  31.947  1.00  0.00     0.037 A 
ATOM     50  C   UNL A   1      42.757  29.251  35.053  1.00  0.00     0.037 A 
ATOM     51  C   UNL A   1      37.916  33.223  33.210  1.00  0.00     0.049 A 
ATOM     52  C   UNL A   1      42.169  30.503  35.647  1.00  0.00     0.074 A 
ATOM     53  C   UNL A   1      37.405  34.312  33.894  1.00  0.00     0.029 A 
ATOM     54  N   UNL A   1      38.959  32.724  33.977  1.00  0.00    -0.354 N 
ATOM     55  N   UNL A   1      41.171  31.232  35.208  1.00  0.00    -0.248 NA
ATOM     56  C   UNL A   1      42.776  31.002  36.890  1.00  0.00     0.031 C 
ATOM     57  C   UNL A   1      38.173  34.505  35.045  1.00  0.00     0.029 A 
ATOM     58  C   UNL A   1      39.123  33.499  35.113  1.00  0.00     0.049 A 
ATOM     59  H   UNL A   1      39.502  31.936  33.747  1.00  0.00     0.167 HD
ATOM     60  C   UNL A   1      41.008  32.254  36.139  1.00  0.00     0.074 A 
ATOM     61  C   UNL A   1      42.007  32.047  37.165  1.00  0.00     0.031 C 
ATOM     62  C   UNL A   1      40.109  33.268  36.141  1.00  0.00     0.037 A 
BRANCH  49  63
ATOM     63  C   UNL A   1      36.387  33.389  31.204  1.00  0.00     0.058 A 
ATOM     64  C   UNL A   1      35.059  33.378  31.661  1.00  0.00     0.135 A 
ATOM     65  C   UNL A   1      36.672  34.129  30.044  1.00  0.00     0.135 A 
ATOM     66  F   UNL A   1      34.727  32.676  32.756  1.00  0.00    -0.206 F 
ATOM     67  C   UNL A   1      34.050  34.050  30.981  1.00  0.00     0.059 A 
ATOM     68  C   UNL A   1      35.684  34.836  29.365  1.00  0.00     0.059 A 
ATOM     69  F   UNL A   1      37.924  34.176  29.562  1.00  0.00    -0.206 F 
ATOM     70  C   UNL A   1      34.373  34.778  29.834  1.00  0.00     0.060 A 
BRANCH  70  71
ATOM     71  S   UNL A   1      33.051  35.651  28.969  1.00  0.00     0.124 S 
ATOM     72  O   UNL A   1      33.800  36.688  28.265  1.00  0.00    -0.237 OA
ATOM     73  O   UNL A   1      32.481  34.602  28.130  1.00  0.00    -0.237 OA
ATOM     74  O   UNL A   1      32.190  36.124  30.047  1.00  0.00    -0.744 OA
ENDBRANCH  70  71
ENDBRANCH  49  63
BRANCH  50  75
ATOM     75  C   UNL A   1      43.912  28.569  35.701  1.00  0.00     0.058 A 
ATOM     76  C   UNL A   1      43.711  27.538  36.630  1.00  0.00     0.135 A 
ATOM     77  C   UNL A   1      45.237  28.927  35.400  1.00  0.00     0.135 A 
ATOM     78  F   UNL A   1      42.464  27.163  36.957  1.00  0.00    -0.206 F 
ATOM     79  C   UNL A   1      44.778  26.898  37.252  1.00  0.00     0.059 A 
ATOM     80  C   UNL A   1      46.321  28.282  35.988  1.00  0.00     0.059 A 
ATOM     81  F   UNL A   1      45.485  29.896  34.507  1.00  0.00    -0.206 F 
ATOM     82  C   UNL A   1      46.081  27.276  36.922  1.00  0.00     0.060 A 
BRANCH  82  83
ATOM     83  S   UNL A   1      47.456  26.407  37.705  1.00  0.00     0.124 S 
ATOM     84  O   UNL A   1      47.176  25.023  37.342  1.00  0.00    -0.237 OA
ATOM     85  O   UNL A   1      48.612  27.017  37.055  1.00  0.00    -0.237 OA
ATOM     86  O   UNL A   1      47.299  26.733  39.119  1.00  0.00    -0.744 OA
ENDBRANCH  82  83
ENDBRANCH  50  75
BRANCH  62  87
ATOM     87  C   UNL A   1      40.116  34.212  37.314  1.00  0.00     0.058 A 
ATOM     88  C   UNL A   1      40.774  35.450  37.267  1.00  0.00     0.135 A 
ATOM     89  C   UNL A   1      39.372  33.906  38.467  1.00  0.00     0.135 A 
ATOM     90  F   UNL A   1      41.505  35.786  36.192  1.00  0.00    -0.206 F 
ATOM     91  C   UNL A   1      40.699  36.352  38.324  1.00  0.00     0.059 A 
ATOM     92  C   UNL A   1      39.260  34.805  39.523  1.00  0.00     0.059 A 
ATOM     93  F   UNL A   1      38.719  32.738  38.561  1.00  0.00    -0.206 F 
ATOM     94  C   UNL A   1      39.930  36.025  39.443  1.00  0.00     0.060 A 
BRANCH  94  95
ATOM     95  S   UNL A   1      39.783  37.236  40.774  1.00  0.00     0.124 S 
ATOM     96  O   UNL A   1      38.855  36.566  41.680  1.00  0.00    -0.237 OA
ATOM     97  O   UNL A   1      41.160  37.349  41.245  1.00  0.00    -0.237 OA
ATOM     98  O   UNL A   1      39.257  38.420  40.101  1.00  0.00    -0.744 OA
ENDBRANCH  94  95
ENDBRANCH  62  87
ENDBRANCH  36  37
ENDBRANCH  28  31
ENDBRANCH  26  27
ENDBRANCH  25  26
ENDBRANCH   1  25
TORSDOF 19
ENDMDL
