MODEL 1
REMARK VINA RESULT:     -12.8      0.000      0.000
REMARK SMILES COc1ccc(-n2ccnc2C[N@@H+]2Cc3[nH]cnc3C[C@H]2C(=O)NCCCNC(=O)c2ccc(-c3c4nc(c(-c5c(F)cc(S(=O)(=O)[O-])cc5F)c5ccc([nH]5)c(-c5c(F)cc(S(=O)(=O)[O-])cc5F)c5nc(c(-c6c(F)cc(S(=O)(=O)[O-])cc6F)c6ccc3[nH]6)C=C5)C=C4)cc2)cc1
REMARK SMILES IDX 25 1 24 2 22 3 23 4 21 6 13 7 14 8 15 10 20 11 16 12 19 13
REMARK SMILES IDX 17 14 18 16 12 17 11 18 7 19 8 20 9 21 10 22 6 23 3 24 4 25
REMARK SMILES IDX 98 26 5 27 97 28 2 29 1 30 26 31 27 32 28 33 29 34 30 36
REMARK SMILES IDX 31 37 32 38 96 39 33 40 95 41 34 42 35 43 36 44 89 45 37 46
REMARK SMILES IDX 94 47 88 48 90 49 38 50 93 51 87 52 86 53 39 55 73 56 52 57
REMARK SMILES IDX 72 58 53 59 56 60 71 61 91 62 54 63 55 64 70 66 92 67 57 68
REMARK SMILES IDX 40 69 41 70 50 71 42 72 43 73 49 74 51 75 44 76 45 77 46 78
REMARK SMILES IDX 47 79 48 80 74 81 75 82 84 83 76 84 77 85 83 86 85 87 78 88
REMARK SMILES IDX 79 89 80 90 81 91 82 92 58 93 59 94 68 95 60 96 61 97 67 98
REMARK SMILES IDX 69 99 62 100 63 101 64 102 65 103 66 104
REMARK H PARENT 24 5 13 9 16 15 28 35 90 54 56 65
REMARK Flexibility Score: inf
ROOT
ATOM      1  C   UNL A   1      35.922  21.692  26.130  1.00  0.00     0.118 C 
ENDROOT
BRANCH   1   2
ATOM      2  N   UNL A   1      35.125  22.148  27.257  1.00  0.00    -0.351 N 
ATOM      3  C   UNL A   1      33.786  22.321  27.428  1.00  0.00     0.278 C 
ATOM      4  O   UNL A   1      33.389  22.515  28.584  1.00  0.00    -0.268 OA
ATOM      5  H   UNL A   1      35.659  22.377  28.052  1.00  0.00     0.163 HD
BRANCH   3   6
ATOM      6  C   UNL A   1      32.773  22.299  26.271  1.00  0.00     0.280 C 
ATOM      7  N   UNL A   1      32.730  23.676  25.645  1.00  0.00    -0.313 N 
ATOM      8  C   UNL A   1      33.217  23.737  24.268  1.00  0.00     0.320 C 
ATOM      9  H   UNL A   1      33.404  24.244  26.159  1.00  0.00     0.349 HD
ATOM     10  C   UNL A   1      32.726  22.594  23.498  1.00  0.00     0.093 A 
ATOM     11  C   UNL A   1      32.892  21.007  25.402  1.00  0.00     0.134 C 
ATOM     12  N   UNL A   1      32.300  22.543  22.210  1.00  0.00    -0.344 N 
ATOM     13  C   UNL A   1      32.598  21.325  23.989  1.00  0.00     0.074 A 
ATOM     14  C   UNL A   1      31.955  21.239  21.970  1.00  0.00     0.197 A 
ATOM     15  H   UNL A   1      32.248  23.294  21.575  1.00  0.00     0.167 HD
ATOM     16  N   UNL A   1      32.126  20.477  23.032  1.00  0.00    -0.241 NA
BRANCH   7  17
ATOM     17  C   UNL A   1      31.390  24.290  25.818  1.00  0.00     0.340 C 
BRANCH  17  18
ATOM     18  C   UNL A   1      31.021  25.220  24.684  1.00  0.00     0.168 A 
ATOM     19  N   UNL A   1      31.269  26.591  24.656  1.00  0.00    -0.299 N 
ATOM     20  C   UNL A   1      30.411  27.112  23.711  1.00  0.00     0.113 A 
ATOM     21  C   UNL A   1      29.832  26.034  23.091  1.00  0.00     0.132 A 
ATOM     22  N   UNL A   1      30.235  24.872  23.677  1.00  0.00    -0.236 NA
BRANCH  19  23
ATOM     23  C   UNL A   1      32.121  27.354  25.498  1.00  0.00     0.047 A 
ATOM     24  C   UNL A   1      33.810  28.954  27.052  1.00  0.00     0.119 A 
ATOM     25  C   UNL A   1      32.429  29.014  27.229  1.00  0.00     0.048 A 
ATOM     26  C   UNL A   1      34.355  28.047  26.143  1.00  0.00     0.048 A 
ATOM     27  C   UNL A   1      31.580  28.227  26.446  1.00  0.00     0.030 A 
ATOM     28  C   UNL A   1      33.513  27.235  25.374  1.00  0.00     0.030 A 
BRANCH  24  29
ATOM     29  O   UNL A   1      34.561  29.759  27.864  1.00  0.00    -0.497 OA
ATOM     30  C   UNL A   1      34.117  31.112  27.917  1.00  0.00     0.278 C 
ENDBRANCH  24  29
ENDBRANCH  19  23
ENDBRANCH  17  18
ENDBRANCH   7  17
ENDBRANCH   3   6
ENDBRANCH   1   2
BRANCH   1  31
ATOM     31  C   UNL A   1      36.658  22.822  25.410  1.00  0.00     0.042 C 
BRANCH  31  32
ATOM     32  C   UNL A   1      38.151  22.557  25.249  1.00  0.00     0.118 C 
BRANCH  32  33
ATOM     33  N   UNL A   1      38.772  21.874  26.385  1.00  0.00    -0.352 N 
ATOM     34  C   UNL A   1      39.776  22.363  27.210  1.00  0.00     0.251 C 
ATOM     35  H   UNL A   1      38.442  20.969  26.585  1.00  0.00     0.163 HD
ATOM     36  O   UNL A   1      40.409  21.635  27.952  1.00  0.00    -0.269 OA
BRANCH  34  37
ATOM     37  C   UNL A   1      40.063  23.807  27.124  1.00  0.00     0.039 A 
ATOM     38  C   UNL A   1      39.016  24.721  27.226  1.00  0.00     0.014 A 
ATOM     39  C   UNL A   1      41.394  24.203  27.245  1.00  0.00     0.014 A 
ATOM     40  C   UNL A   1      39.307  26.025  27.616  1.00  0.00     0.010 A 
ATOM     41  C   UNL A   1      41.663  25.469  27.734  1.00  0.00     0.010 A 
ATOM     42  C   UNL A   1      40.627  26.384  27.951  1.00  0.00    -0.014 A 
BRANCH  42  43
ATOM     43  C   UNL A   1      40.856  27.619  28.723  1.00  0.00     0.031 A 
ATOM     44  C   UNL A   1      41.980  28.492  28.247  1.00  0.00     0.074 A 
ATOM     45  C   UNL A   1      40.011  28.136  29.643  1.00  0.00     0.049 A 
ATOM     46  N   UNL A   1      43.075  28.795  28.867  1.00  0.00    -0.248 NA
ATOM     47  C   UNL A   1      41.917  29.022  26.876  1.00  0.00     0.031 C 
ATOM     48  C   UNL A   1      38.686  27.643  30.026  1.00  0.00     0.029 A 
ATOM     49  N   UNL A   1      40.117  29.303  30.346  1.00  0.00    -0.354 N 
ATOM     50  C   UNL A   1      43.743  29.721  28.063  1.00  0.00     0.074 A 
ATOM     51  C   UNL A   1      43.072  29.687  26.790  1.00  0.00     0.031 C 
ATOM     52  C   UNL A   1      38.018  28.613  30.681  1.00  0.00     0.029 A 
ATOM     53  C   UNL A   1      38.928  29.715  30.932  1.00  0.00     0.049 A 
ATOM     54  H   UNL A   1      40.958  29.807  30.428  1.00  0.00     0.167 HD
ATOM     55  C   UNL A   1      44.652  30.597  28.584  1.00  0.00     0.037 A 
ATOM     56  C   UNL A   1      38.683  30.878  31.580  1.00  0.00     0.037 A 
ATOM     57  C   UNL A   1      45.038  30.201  29.918  1.00  0.00     0.049 A 
ATOM     58  C   UNL A   1      39.983  31.407  32.055  1.00  0.00     0.074 A 
ATOM     59  C   UNL A   1      45.644  29.103  30.494  1.00  0.00     0.029 A 
ATOM     60  N   UNL A   1      44.484  30.917  30.949  1.00  0.00    -0.354 N 
ATOM     61  N   UNL A   1      40.721  30.827  32.962  1.00  0.00    -0.248 NA
ATOM     62  C   UNL A   1      40.649  32.448  31.287  1.00  0.00     0.031 C 
ATOM     63  C   UNL A   1      45.072  28.994  31.796  1.00  0.00     0.029 A 
ATOM     64  C   UNL A   1      44.176  30.051  31.963  1.00  0.00     0.049 A 
ATOM     65  H   UNL A   1      44.334  31.890  30.959  1.00  0.00     0.167 HD
ATOM     66  C   UNL A   1      42.022  31.113  32.592  1.00  0.00     0.074 A 
ATOM     67  C   UNL A   1      41.910  32.238  31.673  1.00  0.00     0.031 C 
ATOM     68  C   UNL A   1      43.030  30.224  32.832  1.00  0.00     0.037 A 
BRANCH  55  69
ATOM     69  C   UNL A   1      44.905  32.022  28.099  1.00  0.00     0.058 A 
ATOM     70  C   UNL A   1      46.198  32.364  27.632  1.00  0.00     0.135 A 
ATOM     71  C   UNL A   1      44.063  33.122  28.373  1.00  0.00     0.135 A 
ATOM     72  F   UNL A   1      47.080  31.409  27.294  1.00  0.00    -0.206 F 
ATOM     73  C   UNL A   1      46.665  33.679  27.589  1.00  0.00     0.059 A 
ATOM     74  C   UNL A   1      44.492  34.445  28.286  1.00  0.00     0.059 A 
ATOM     75  F   UNL A   1      42.815  32.978  28.825  1.00  0.00    -0.206 F 
ATOM     76  C   UNL A   1      45.811  34.712  27.954  1.00  0.00     0.060 A 
BRANCH  76  77
ATOM     77  S   UNL A   1      46.448  36.393  28.067  1.00  0.00     0.124 S 
ATOM     78  O   UNL A   1      46.529  36.762  26.659  1.00  0.00    -0.237 OA
ATOM     79  O   UNL A   1      45.411  37.062  28.846  1.00  0.00    -0.237 OA
ATOM     80  O   UNL A   1      47.725  36.220  28.753  1.00  0.00    -0.744 OA
ENDBRANCH  76  77
ENDBRANCH  55  69
BRANCH  56  81
ATOM     81  C   UNL A   1      37.418  31.646  31.657  1.00  0.00     0.058 A 
ATOM     82  C   UNL A   1      36.776  31.869  32.887  1.00  0.00     0.135 A 
ATOM     83  C   UNL A   1      36.952  32.404  30.563  1.00  0.00     0.135 A 
ATOM     84  F   UNL A   1      37.163  31.201  33.983  1.00  0.00    -0.206 F 
ATOM     85  C   UNL A   1      35.773  32.831  33.038  1.00  0.00     0.059 A 
ATOM     86  C   UNL A   1      35.944  33.357  30.685  1.00  0.00     0.059 A 
ATOM     87  F   UNL A   1      37.532  32.306  29.356  1.00  0.00    -0.206 F 
ATOM     88  C   UNL A   1      35.380  33.588  31.935  1.00  0.00     0.060 A 
BRANCH  88  89
ATOM     89  S   UNL A   1      34.231  34.962  32.171  1.00  0.00     0.124 S 
ATOM     90  O   UNL A   1      33.914  35.332  30.796  1.00  0.00    -0.237 OA
ATOM     91  O   UNL A   1      33.152  34.335  32.927  1.00  0.00    -0.237 OA
ATOM     92  O   UNL A   1      35.021  35.940  32.914  1.00  0.00    -0.744 OA
ENDBRANCH  88  89
ENDBRANCH  56  81
BRANCH  68  93
ATOM     93  C   UNL A   1      42.841  29.212  33.929  1.00  0.00     0.058 A 
ATOM     94  C   UNL A   1      43.115  29.428  35.288  1.00  0.00     0.135 A 
ATOM     95  C   UNL A   1      42.245  27.988  33.580  1.00  0.00     0.135 A 
ATOM     96  F   UNL A   1      43.586  30.607  35.722  1.00  0.00    -0.206 F 
ATOM     97  C   UNL A   1      42.859  28.450  36.251  1.00  0.00     0.059 A 
ATOM     98  C   UNL A   1      41.947  27.014  34.527  1.00  0.00     0.059 A 
ATOM     99  F   UNL A   1      41.904  27.744  32.304  1.00  0.00    -0.206 F 
ATOM    100  C   UNL A   1      42.275  27.244  35.860  1.00  0.00     0.060 A 
BRANCH 100 101
ATOM    101  S   UNL A   1      41.882  26.005  37.113  1.00  0.00     0.124 S 
ATOM    102  O   UNL A   1      40.501  26.335  37.448  1.00  0.00    -0.237 OA
ATOM    103  O   UNL A   1      42.078  24.749  36.393  1.00  0.00    -0.237 OA
ATOM    104  O   UNL A   1      42.859  26.265  38.167  1.00  0.00    -0.744 OA
ENDBRANCH 100 101
ENDBRANCH  68  93
ENDBRANCH  42  43
ENDBRANCH  34  37
ENDBRANCH  32  33
ENDBRANCH  31  32
ENDBRANCH   1  31
TORSDOF 17
ENDMDL
MODEL 2
REMARK VINA RESULT:     -12.7      1.351      2.166
REMARK SMILES COc1ccc(-n2ccnc2C[N@@H+]2Cc3[nH]cnc3C[C@H]2C(=O)NCCCNC(=O)c2ccc(-c3c4nc(c(-c5c(F)cc(S(=O)(=O)[O-])cc5F)c5ccc([nH]5)c(-c5c(F)cc(S(=O)(=O)[O-])cc5F)c5nc(c(-c6c(F)cc(S(=O)(=O)[O-])cc6F)c6ccc3[nH]6)C=C5)C=C4)cc2)cc1
REMARK SMILES IDX 25 1 24 2 22 3 23 4 21 6 13 7 14 8 15 10 20 11 16 12 19 13
REMARK SMILES IDX 17 14 18 16 12 17 11 18 7 19 8 20 9 21 10 22 6 23 3 24 4 25
REMARK SMILES IDX 98 26 5 27 97 28 2 29 1 30 26 31 27 32 28 33 29 34 30 36
REMARK SMILES IDX 31 37 32 38 96 39 33 40 95 41 34 42 35 43 36 44 89 45 37 46
REMARK SMILES IDX 94 47 88 48 90 49 38 50 93 51 87 52 86 53 39 55 73 56 52 57
REMARK SMILES IDX 72 58 53 59 56 60 71 61 91 62 54 63 55 64 70 66 92 67 57 68
REMARK SMILES IDX 40 69 41 70 50 71 42 72 43 73 49 74 51 75 44 76 45 77 46 78
REMARK SMILES IDX 47 79 48 80 74 81 75 82 84 83 76 84 77 85 83 86 85 87 78 88
REMARK SMILES IDX 79 89 80 90 81 91 82 92 58 93 59 94 68 95 60 96 61 97 67 98
REMARK SMILES IDX 69 99 62 100 63 101 64 102 65 103 66 104
REMARK H PARENT 24 5 13 9 16 15 28 35 90 54 56 65
REMARK Flexibility Score: inf
ROOT
ATOM      1  C   UNL A   1      36.063  21.851  24.222  1.00  0.00     0.118 C 
ENDROOT
BRANCH   1   2
ATOM      2  N   UNL A   1      34.929  21.143  24.794  1.00  0.00    -0.351 N 
ATOM      3  C   UNL A   1      33.612  21.462  24.916  1.00  0.00     0.278 C 
ATOM      4  O   UNL A   1      32.845  20.552  25.256  1.00  0.00    -0.268 OA
ATOM      5  H   UNL A   1      35.160  20.262  25.167  1.00  0.00     0.163 HD
BRANCH   3   6
ATOM      6  C   UNL A   1      33.053  22.873  24.669  1.00  0.00     0.280 C 
ATOM      7  N   UNL A   1      33.876  23.861  25.467  1.00  0.00    -0.313 N 
ATOM      8  C   UNL A   1      34.649  24.804  24.661  1.00  0.00     0.320 C 
ATOM      9  H   UNL A   1      34.594  23.315  25.944  1.00  0.00     0.349 HD
ATOM     10  C   UNL A   1      33.852  25.293  23.536  1.00  0.00     0.093 A 
ATOM     11  C   UNL A   1      32.706  23.120  23.166  1.00  0.00     0.134 C 
ATOM     12  N   UNL A   1      33.794  26.538  22.998  1.00  0.00    -0.344 N 
ATOM     13  C   UNL A   1      32.977  24.529  22.815  1.00  0.00     0.074 A 
ATOM     14  C   UNL A   1      32.904  26.468  21.959  1.00  0.00     0.197 A 
ATOM     15  H   UNL A   1      34.292  27.333  23.296  1.00  0.00     0.167 HD
ATOM     16  N   UNL A   1      32.392  25.261  21.825  1.00  0.00    -0.241 NA
BRANCH   7  17
ATOM     17  C   UNL A   1      33.044  24.524  26.502  1.00  0.00     0.340 C 
BRANCH  17  18
ATOM     18  C   UNL A   1      31.613  24.038  26.502  1.00  0.00     0.168 A 
ATOM     19  N   UNL A   1      30.515  24.770  26.051  1.00  0.00    -0.299 N 
ATOM     20  C   UNL A   1      29.407  24.182  26.623  1.00  0.00     0.113 A 
ATOM     21  C   UNL A   1      29.857  23.035  27.226  1.00  0.00     0.132 A 
ATOM     22  N   UNL A   1      31.211  22.939  27.122  1.00  0.00    -0.236 NA
BRANCH  19  23
ATOM     23  C   UNL A   1      30.502  25.958  25.273  1.00  0.00     0.047 A 
ATOM     24  C   UNL A   1      30.358  28.338  23.808  1.00  0.00     0.119 A 
ATOM     25  C   UNL A   1      31.196  28.247  24.919  1.00  0.00     0.048 A 
ATOM     26  C   UNL A   1      29.639  27.219  23.388  1.00  0.00     0.048 A 
ATOM     27  C   UNL A   1      31.262  27.065  25.662  1.00  0.00     0.030 A 
ATOM     28  C   UNL A   1      29.720  26.022  24.111  1.00  0.00     0.030 A 
BRANCH  24  29
ATOM     29  O   UNL A   1      30.360  29.532  23.143  1.00  0.00    -0.497 OA
ATOM     30  C   UNL A   1      29.269  29.702  22.242  1.00  0.00     0.278 C 
ENDBRANCH  24  29
ENDBRANCH  19  23
ENDBRANCH  17  18
ENDBRANCH   7  17
ENDBRANCH   3   6
ENDBRANCH   1   2
BRANCH   1  31
ATOM     31  C   UNL A   1      37.415  21.283  24.656  1.00  0.00     0.042 C 
BRANCH  31  32
ATOM     32  C   UNL A   1      38.242  22.267  25.476  1.00  0.00     0.118 C 
BRANCH  32  33
ATOM     33  N   UNL A   1      39.011  21.656  26.561  1.00  0.00    -0.352 N 
ATOM     34  C   UNL A   1      40.014  22.249  27.315  1.00  0.00     0.251 C 
ATOM     35  H   UNL A   1      38.792  20.722  26.781  1.00  0.00     0.163 HD
ATOM     36  O   UNL A   1      40.772  21.593  28.007  1.00  0.00    -0.269 OA
BRANCH  34  37
ATOM     37  C   UNL A   1      40.142  23.715  27.216  1.00  0.00     0.039 A 
ATOM     38  C   UNL A   1      39.045  24.520  27.517  1.00  0.00     0.014 A 
ATOM     39  C   UNL A   1      41.429  24.240  27.118  1.00  0.00     0.014 A 
ATOM     40  C   UNL A   1      39.272  25.844  27.882  1.00  0.00     0.010 A 
ATOM     41  C   UNL A   1      41.656  25.523  27.584  1.00  0.00     0.010 A 
ATOM     42  C   UNL A   1      40.588  26.329  27.995  1.00  0.00    -0.014 A 
BRANCH  42  43
ATOM     43  C   UNL A   1      40.827  27.576  28.746  1.00  0.00     0.031 A 
ATOM     44  C   UNL A   1      41.939  28.446  28.238  1.00  0.00     0.074 A 
ATOM     45  C   UNL A   1      39.997  28.102  29.674  1.00  0.00     0.049 A 
ATOM     46  N   UNL A   1      43.044  28.761  28.834  1.00  0.00    -0.248 NA
ATOM     47  C   UNL A   1      41.849  28.957  26.861  1.00  0.00     0.031 C 
ATOM     48  C   UNL A   1      38.681  27.610  30.088  1.00  0.00     0.029 A 
ATOM     49  N   UNL A   1      40.111  29.279  30.359  1.00  0.00    -0.354 N 
ATOM     50  C   UNL A   1      43.694  29.679  28.005  1.00  0.00     0.074 A 
ATOM     51  C   UNL A   1      43.000  29.625  26.745  1.00  0.00     0.031 C 
ATOM     52  C   UNL A   1      38.021  28.587  30.742  1.00  0.00     0.029 A 
ATOM     53  C   UNL A   1      38.931  29.695  30.961  1.00  0.00     0.049 A 
ATOM     54  H   UNL A   1      40.952  29.787  30.419  1.00  0.00     0.167 HD
ATOM     55  C   UNL A   1      44.609  30.565  28.498  1.00  0.00     0.037 A 
ATOM     56  C   UNL A   1      38.694  30.866  31.597  1.00  0.00     0.037 A 
ATOM     57  C   UNL A   1      45.020  30.189  29.830  1.00  0.00     0.049 A 
ATOM     58  C   UNL A   1      40.000  31.406  32.041  1.00  0.00     0.074 A 
ATOM     59  C   UNL A   1      45.640  29.101  30.410  1.00  0.00     0.029 A 
ATOM     60  N   UNL A   1      44.482  30.917  30.861  1.00  0.00    -0.354 N 
ATOM     61  N   UNL A   1      40.756  30.841  32.943  1.00  0.00    -0.248 NA
ATOM     62  C   UNL A   1      40.648  32.439  31.248  1.00  0.00     0.031 C 
ATOM     63  C   UNL A   1      45.092  29.008  31.724  1.00  0.00     0.029 A 
ATOM     64  C   UNL A   1      44.196  30.064  31.892  1.00  0.00     0.049 A 
ATOM     65  H   UNL A   1      44.329  31.889  30.860  1.00  0.00     0.167 HD
ATOM     66  C   UNL A   1      42.049  31.127  32.546  1.00  0.00     0.074 A 
ATOM     67  C   UNL A   1      41.917  32.239  31.613  1.00  0.00     0.031 C 
ATOM     68  C   UNL A   1      43.065  30.245  32.780  1.00  0.00     0.037 A 
BRANCH  55  69
ATOM     69  C   UNL A   1      44.847  31.984  27.989  1.00  0.00     0.058 A 
ATOM     70  C   UNL A   1      46.113  32.308  27.441  1.00  0.00     0.135 A 
ATOM     71  C   UNL A   1      44.037  33.095  28.307  1.00  0.00     0.135 A 
ATOM     72  F   UNL A   1      46.962  31.341  27.055  1.00  0.00    -0.206 F 
ATOM     73  C   UNL A   1      46.591  33.618  27.361  1.00  0.00     0.059 A 
ATOM     74  C   UNL A   1      44.475  34.412  28.185  1.00  0.00     0.059 A 
ATOM     75  F   UNL A   1      42.817  32.969  28.837  1.00  0.00    -0.206 F 
ATOM     76  C   UNL A   1      45.773  34.662  27.771  1.00  0.00     0.060 A 
BRANCH  76  77
ATOM     77  S   UNL A   1      46.435  36.337  27.833  1.00  0.00     0.124 S 
ATOM     78  O   UNL A   1      45.416  37.017  28.624  1.00  0.00    -0.237 OA
ATOM     79  O   UNL A   1      47.724  36.133  28.487  1.00  0.00    -0.237 OA
ATOM     80  O   UNL A   1      46.507  36.718  26.426  1.00  0.00    -0.744 OA
ENDBRANCH  76  77
ENDBRANCH  55  69
BRANCH  56  81
ATOM     81  C   UNL A   1      37.427  31.630  31.686  1.00  0.00     0.058 A 
ATOM     82  C   UNL A   1      36.807  31.868  32.925  1.00  0.00     0.135 A 
ATOM     83  C   UNL A   1      36.939  32.372  30.591  1.00  0.00     0.135 A 
ATOM     84  F   UNL A   1      37.216  31.217  34.023  1.00  0.00    -0.206 F 
ATOM     85  C   UNL A   1      35.803  32.828  33.081  1.00  0.00     0.059 A 
ATOM     86  C   UNL A   1      35.929  33.323  30.719  1.00  0.00     0.059 A 
ATOM     87  F   UNL A   1      37.497  32.259  29.375  1.00  0.00    -0.206 F 
ATOM     88  C   UNL A   1      35.387  33.569  31.975  1.00  0.00     0.060 A 
BRANCH  88  89
ATOM     89  S   UNL A   1      34.237  34.942  32.212  1.00  0.00     0.124 S 
ATOM     90  O   UNL A   1      33.129  34.294  32.904  1.00  0.00    -0.237 OA
ATOM     91  O   UNL A   1      35.030  35.872  33.010  1.00  0.00    -0.237 OA
ATOM     92  O   UNL A   1      33.951  35.384  30.850  1.00  0.00    -0.744 OA
ENDBRANCH  88  89
ENDBRANCH  56  81
BRANCH  68  93
ATOM     93  C   UNL A   1      42.900  29.247  33.893  1.00  0.00     0.058 A 
ATOM     94  C   UNL A   1      43.215  29.477  35.242  1.00  0.00     0.135 A 
ATOM     95  C   UNL A   1      42.284  28.025  33.577  1.00  0.00     0.135 A 
ATOM     96  F   UNL A   1      43.707  30.657  35.647  1.00  0.00    -0.206 F 
ATOM     97  C   UNL A   1      42.978  28.512  36.223  1.00  0.00     0.059 A 
ATOM     98  C   UNL A   1      42.005  27.064  34.543  1.00  0.00     0.059 A 
ATOM     99  F   UNL A   1      41.903  27.768  32.314  1.00  0.00    -0.206 F 
ATOM    100  C   UNL A   1      42.374  27.306  35.863  1.00  0.00     0.060 A 
BRANCH 100 101
ATOM    101  S   UNL A   1      42.007  26.086  37.142  1.00  0.00     0.124 S 
ATOM    102  O   UNL A   1      42.303  24.830  36.460  1.00  0.00    -0.237 OA
ATOM    103  O   UNL A   1      42.927  26.459  38.213  1.00  0.00    -0.237 OA
ATOM    104  O   UNL A   1      40.595  26.317  37.438  1.00  0.00    -0.744 OA
ENDBRANCH 100 101
ENDBRANCH  68  93
ENDBRANCH  42  43
ENDBRANCH  34  37
ENDBRANCH  32  33
ENDBRANCH  31  32
ENDBRANCH   1  31
TORSDOF 17
ENDMDL
MODEL 3
REMARK VINA RESULT:     -12.5      1.294      3.671
REMARK SMILES COc1ccc(-n2ccnc2C[N@@H+]2Cc3[nH]cnc3C[C@H]2C(=O)NCCCNC(=O)c2ccc(-c3c4nc(c(-c5c(F)cc(S(=O)(=O)[O-])cc5F)c5ccc([nH]5)c(-c5c(F)cc(S(=O)(=O)[O-])cc5F)c5nc(c(-c6c(F)cc(S(=O)(=O)[O-])cc6F)c6ccc3[nH]6)C=C5)C=C4)cc2)cc1
REMARK SMILES IDX 25 1 24 2 22 3 23 4 21 6 13 7 14 8 15 10 20 11 16 12 19 13
REMARK SMILES IDX 17 14 18 16 12 17 11 18 7 19 8 20 9 21 10 22 6 23 3 24 4 25
REMARK SMILES IDX 98 26 5 27 97 28 2 29 1 30 26 31 27 32 28 33 29 34 30 36
REMARK SMILES IDX 31 37 32 38 96 39 33 40 95 41 34 42 35 43 36 44 89 45 37 46
REMARK SMILES IDX 94 47 88 48 90 49 38 50 93 51 87 52 86 53 39 55 73 56 52 57
REMARK SMILES IDX 72 58 53 59 56 60 71 61 91 62 54 63 55 64 70 66 92 67 57 68
REMARK SMILES IDX 40 69 41 70 50 71 42 72 43 73 49 74 51 75 44 76 45 77 46 78
REMARK SMILES IDX 47 79 48 80 74 81 75 82 84 83 76 84 77 85 83 86 85 87 78 88
REMARK SMILES IDX 79 89 80 90 81 91 82 92 58 93 59 94 68 95 60 96 61 97 67 98
REMARK SMILES IDX 69 99 62 100 63 101 64 102 65 103 66 104
REMARK H PARENT 24 5 13 9 16 15 28 35 90 54 56 65
REMARK Flexibility Score: inf
ROOT
ATOM      1  C   UNL A   1      36.023  21.127  25.171  1.00  0.00     0.118 C 
ENDROOT
BRANCH   1   2
ATOM      2  N   UNL A   1      35.547  21.514  26.489  1.00  0.00    -0.351 N 
ATOM      3  C   UNL A   1      34.483  22.256  26.902  1.00  0.00     0.278 C 
ATOM      4  O   UNL A   1      34.216  22.226  28.110  1.00  0.00    -0.268 OA
ATOM      5  H   UNL A   1      36.104  21.174  27.226  1.00  0.00     0.163 HD
BRANCH   3   6
ATOM      6  C   UNL A   1      33.631  23.118  25.956  1.00  0.00     0.280 C 
ATOM      7  N   UNL A   1      32.219  23.171  26.498  1.00  0.00    -0.313 N 
ATOM      8  C   UNL A   1      31.782  24.496  26.937  1.00  0.00     0.320 C 
ATOM      9  H   UNL A   1      32.223  22.627  27.361  1.00  0.00     0.349 HD
ATOM     10  C   UNL A   1      32.216  25.521  25.987  1.00  0.00     0.093 A 
ATOM     11  C   UNL A   1      34.380  24.407  25.490  1.00  0.00     0.134 C 
ATOM     12  N   UNL A   1      31.559  26.627  25.554  1.00  0.00    -0.344 N 
ATOM     13  C   UNL A   1      33.417  25.516  25.334  1.00  0.00     0.074 A 
ATOM     14  C   UNL A   1      32.401  27.258  24.677  1.00  0.00     0.197 A 
ATOM     15  H   UNL A   1      30.656  26.918  25.819  1.00  0.00     0.167 HD
ATOM     16  N   UNL A   1      33.537  26.606  24.524  1.00  0.00    -0.241 NA
BRANCH   7  17
ATOM     17  C   UNL A   1      31.270  22.527  25.556  1.00  0.00     0.340 C 
BRANCH  17  18
ATOM     18  C   UNL A   1      31.673  22.697  24.110  1.00  0.00     0.168 A 
ATOM     19  N   UNL A   1      32.301  21.726  23.331  1.00  0.00    -0.299 N 
ATOM     20  C   UNL A   1      32.881  22.401  22.278  1.00  0.00     0.113 A 
ATOM     21  C   UNL A   1      32.430  23.693  22.364  1.00  0.00     0.132 A 
ATOM     22  N   UNL A   1      31.663  23.860  23.477  1.00  0.00    -0.236 NA
BRANCH  19  23
ATOM     23  C   UNL A   1      32.450  20.339  23.596  1.00  0.00     0.047 A 
ATOM     24  C   UNL A   1      32.879  17.615  24.072  1.00  0.00     0.119 A 
ATOM     25  C   UNL A   1      32.974  18.533  25.117  1.00  0.00     0.048 A 
ATOM     26  C   UNL A   1      32.506  18.047  22.799  1.00  0.00     0.048 A 
ATOM     27  C   UNL A   1      32.774  19.896  24.882  1.00  0.00     0.030 A 
ATOM     28  C   UNL A   1      32.277  19.408  22.562  1.00  0.00     0.030 A 
BRANCH  24  29
ATOM     29  O   UNL A   1      33.090  16.303  24.396  1.00  0.00    -0.497 OA
ATOM     30  C   UNL A   1      32.437  15.884  25.592  1.00  0.00     0.278 C 
ENDBRANCH  24  29
ENDBRANCH  19  23
ENDBRANCH  17  18
ENDBRANCH   7  17
ENDBRANCH   3   6
ENDBRANCH   1   2
BRANCH   1  31
ATOM     31  C   UNL A   1      37.110  22.051  24.622  1.00  0.00     0.042 C 
BRANCH  31  32
ATOM     32  C   UNL A   1      37.825  22.846  25.709  1.00  0.00     0.118 C 
BRANCH  32  33
ATOM     33  N   UNL A   1      38.682  22.044  26.584  1.00  0.00    -0.352 N 
ATOM     34  C   UNL A   1      39.897  22.419  27.141  1.00  0.00     0.251 C 
ATOM     35  H   UNL A   1      38.361  21.139  26.801  1.00  0.00     0.163 HD
ATOM     36  O   UNL A   1      40.658  21.605  27.631  1.00  0.00    -0.269 OA
BRANCH  34  37
ATOM     37  C   UNL A   1      40.240  23.852  27.084  1.00  0.00     0.039 A 
ATOM     38  C   UNL A   1      39.219  24.800  27.037  1.00  0.00     0.014 A 
ATOM     39  C   UNL A   1      41.555  24.208  27.381  1.00  0.00     0.014 A 
ATOM     40  C   UNL A   1      39.498  26.099  27.453  1.00  0.00     0.010 A 
ATOM     41  C   UNL A   1      41.797  25.470  27.893  1.00  0.00     0.010 A 
ATOM     42  C   UNL A   1      40.771  26.419  27.960  1.00  0.00    -0.014 A 
BRANCH  42  43
ATOM     43  C   UNL A   1      40.934  27.656  28.747  1.00  0.00     0.031 A 
ATOM     44  C   UNL A   1      42.027  28.581  28.297  1.00  0.00     0.074 A 
ATOM     45  C   UNL A   1      40.054  28.127  29.658  1.00  0.00     0.049 A 
ATOM     46  N   UNL A   1      43.098  28.925  28.938  1.00  0.00    -0.248 NA
ATOM     47  C   UNL A   1      41.963  29.121  26.930  1.00  0.00     0.031 C 
ATOM     48  C   UNL A   1      38.745  27.573  30.014  1.00  0.00     0.029 A 
ATOM     49  N   UNL A   1      40.097  29.290  30.373  1.00  0.00    -0.354 N 
ATOM     50  C   UNL A   1      43.738  29.887  28.153  1.00  0.00     0.074 A 
ATOM     51  C   UNL A   1      43.090  29.837  26.869  1.00  0.00     0.031 C 
ATOM     52  C   UNL A   1      38.025  28.508  30.668  1.00  0.00     0.029 A 
ATOM     53  C   UNL A   1      38.882  29.645  30.943  1.00  0.00     0.049 A 
ATOM     54  H   UNL A   1      40.914  29.829  30.473  1.00  0.00     0.167 HD
ATOM     55  C   UNL A   1      44.600  30.796  28.697  1.00  0.00     0.037 A 
ATOM     56  C   UNL A   1      38.577  30.790  31.597  1.00  0.00     0.037 A 
ATOM     57  C   UNL A   1      44.981  30.404  30.034  1.00  0.00     0.049 A 
ATOM     58  C   UNL A   1      39.845  31.370  32.098  1.00  0.00     0.074 A 
ATOM     59  C   UNL A   1      45.625  29.328  30.609  1.00  0.00     0.029 A 
ATOM     60  N   UNL A   1      44.380  31.085  31.062  1.00  0.00    -0.354 N 
ATOM     61  N   UNL A   1      40.593  30.814  33.012  1.00  0.00    -0.248 NA
ATOM     62  C   UNL A   1      40.478  32.447  31.351  1.00  0.00     0.031 C 
ATOM     63  C   UNL A   1      45.037  29.182  31.901  1.00  0.00     0.029 A 
ATOM     64  C   UNL A   1      44.094  30.197  32.062  1.00  0.00     0.049 A 
ATOM     65  H   UNL A   1      44.188  32.051  31.078  1.00  0.00     0.167 HD
ATOM     66  C   UNL A   1      41.886  31.159  32.666  1.00  0.00     0.074 A 
ATOM     67  C   UNL A   1      41.741  32.288  31.755  1.00  0.00     0.031 C 
ATOM     68  C   UNL A   1      42.928  30.312  32.915  1.00  0.00     0.037 A 
BRANCH  55  69
ATOM     69  C   UNL A   1      44.798  32.236  28.230  1.00  0.00     0.058 A 
ATOM     70  C   UNL A   1      46.087  32.642  27.803  1.00  0.00     0.135 A 
ATOM     71  C   UNL A   1      43.898  33.292  28.485  1.00  0.00     0.135 A 
ATOM     72  F   UNL A   1      47.023  31.733  27.484  1.00  0.00    -0.206 F 
ATOM     73  C   UNL A   1      46.491  33.978  27.783  1.00  0.00     0.059 A 
ATOM     74  C   UNL A   1      44.266  34.634  28.419  1.00  0.00     0.059 A 
ATOM     75  F   UNL A   1      42.645  33.085  28.900  1.00  0.00    -0.206 F 
ATOM     76  C   UNL A   1      45.579  34.966  28.129  1.00  0.00     0.060 A 
BRANCH  76  77
ATOM     77  S   UNL A   1      46.131  36.675  28.271  1.00  0.00     0.124 S 
ATOM     78  O   UNL A   1      47.566  36.496  28.453  1.00  0.00    -0.237 OA
ATOM     79  O   UNL A   1      45.712  37.240  26.993  1.00  0.00    -0.237 OA
ATOM     80  O   UNL A   1      45.399  37.165  29.436  1.00  0.00    -0.744 OA
ENDBRANCH  76  77
ENDBRANCH  55  69
BRANCH  56  81
ATOM     81  C   UNL A   1      37.279  31.502  31.661  1.00  0.00     0.058 A 
ATOM     82  C   UNL A   1      36.663  31.784  32.892  1.00  0.00     0.135 A 
ATOM     83  C   UNL A   1      36.745  32.156  30.531  1.00  0.00     0.135 A 
ATOM     84  F   UNL A   1      37.114  31.217  34.020  1.00  0.00    -0.206 F 
ATOM     85  C   UNL A   1      35.619  32.707  33.007  1.00  0.00     0.059 A 
ATOM     86  C   UNL A   1      35.695  33.068  30.618  1.00  0.00     0.059 A 
ATOM     87  F   UNL A   1      37.293  31.997  29.316  1.00  0.00    -0.206 F 
ATOM     88  C   UNL A   1      35.158  33.362  31.866  1.00  0.00     0.060 A 
BRANCH  88  89
ATOM     89  S   UNL A   1      33.950  34.696  32.040  1.00  0.00     0.124 S 
ATOM     90  O   UNL A   1      33.003  34.124  32.989  1.00  0.00    -0.237 OA
ATOM     91  O   UNL A   1      34.773  35.792  32.542  1.00  0.00    -0.237 OA
ATOM     92  O   UNL A   1      33.444  34.874  30.682  1.00  0.00    -0.744 OA
ENDBRANCH  88  89
ENDBRANCH  56  81
BRANCH  68  93
ATOM     93  C   UNL A   1      42.766  29.282  33.999  1.00  0.00     0.058 A 
ATOM     94  C   UNL A   1      43.010  29.497  35.364  1.00  0.00     0.135 A 
ATOM     95  C   UNL A   1      42.227  28.038  33.630  1.00  0.00     0.135 A 
ATOM     96  F   UNL A   1      43.424  30.690  35.816  1.00  0.00    -0.206 F 
ATOM     97  C   UNL A   1      42.781  28.499  36.314  1.00  0.00     0.059 A 
ATOM     98  C   UNL A   1      41.956  27.043  34.563  1.00  0.00     0.059 A 
ATOM     99  F   UNL A   1      41.915  27.792  32.347  1.00  0.00    -0.206 F 
ATOM    100  C   UNL A   1      42.254  27.273  35.903  1.00  0.00     0.060 A 
BRANCH 100 101
ATOM    101  S   UNL A   1      41.895  26.006  37.138  1.00  0.00     0.124 S 
ATOM    102  O   UNL A   1      42.119  24.775  36.388  1.00  0.00    -0.237 OA
ATOM    103  O   UNL A   1      42.869  26.297  38.186  1.00  0.00    -0.237 OA
ATOM    104  O   UNL A   1      40.505  26.271  37.503  1.00  0.00    -0.744 OA
ENDBRANCH 100 101
ENDBRANCH  68  93
ENDBRANCH  42  43
ENDBRANCH  34  37
ENDBRANCH  32  33
ENDBRANCH  31  32
ENDBRANCH   1  31
TORSDOF 17
ENDMDL
