MODEL 1
REMARK VINA RESULT:     -12.4      0.000      0.000
REMARK SMILES C[C@H](C1CC1)n1c(SCC(=O)NCCCNC(=O)c2ccc(-c3c4nc(c(-c5c(F)cc(S(=O)(=O)[O-])cc5F)c5ccc([nH]5)c(-c5c(F)cc(S(=O)(=O)[O-])cc5F)c5nc(c(-c6c(F)cc(S(=O)(=O)[O-])cc6F)c6ccc3[nH]6)C=C5)C=C4)cc2)nc2cc(Cl)c(Cl)cc21
REMARK SMILES IDX 13 1 12 2 10 3 11 4 9 6 8 7 7 8 6 9 93 10 85 11 86 12 92 13
REMARK SMILES IDX 87 14 90 15 88 16 91 17 89 18 2 19 1 20 3 21 4 22 5 23 14 24
REMARK SMILES IDX 15 25 16 26 17 27 18 29 19 30 20 31 84 32 21 33 83 34 22 35
REMARK SMILES IDX 23 36 24 37 77 38 25 39 82 40 76 41 78 42 26 43 81 44 75 45
REMARK SMILES IDX 74 46 27 48 61 49 40 50 60 51 41 52 44 53 59 54 79 55 42 56
REMARK SMILES IDX 43 57 58 59 80 60 45 61 28 62 29 63 38 64 30 65 31 66 37 67
REMARK SMILES IDX 39 68 32 69 33 70 34 71 35 72 36 73 62 74 63 75 72 76 64 77
REMARK SMILES IDX 65 78 71 79 73 80 66 81 67 82 68 83 69 84 70 85 46 86 47 87
REMARK SMILES IDX 56 88 48 89 49 90 55 91 57 92 50 93 51 94 52 95 53 96 54 97
REMARK H PARENT 12 5 16 28 78 47 44 58
REMARK Flexibility Score: inf
ROOT
ATOM      1  C   UNL A   1      34.802  21.873  25.119  1.00  0.00     0.117 C 
ENDROOT
BRANCH   1   2
ATOM      2  N   UNL A   1      34.681  22.493  23.814  1.00  0.00    -0.355 N 
ATOM      3  C   UNL A   1      33.605  23.097  23.245  1.00  0.00     0.230 C 
ATOM      4  O   UNL A   1      33.768  23.645  22.152  1.00  0.00    -0.274 OA
ATOM      5  H   UNL A   1      35.495  22.476  23.261  1.00  0.00     0.163 HD
BRANCH   3   6
ATOM      6  C   UNL A   1      32.286  23.172  23.967  1.00  0.00     0.178 C 
BRANCH   6   7
ATOM      7  S   UNL A   1      31.253  24.572  23.587  1.00  0.00    -0.078 SA
BRANCH   7   8
ATOM      8  C   UNL A   1      31.638  26.049  24.407  1.00  0.00     0.169 A 
ATOM      9  N   UNL A   1      31.029  27.304  24.478  1.00  0.00    -0.316 N 
ATOM     10  C   UNL A   1      31.842  28.078  25.325  1.00  0.00     0.071 A 
ATOM     11  N   UNL A   1      32.824  26.073  24.976  1.00  0.00    -0.222 NA
ATOM     12  C   UNL A   1      32.976  27.295  25.532  1.00  0.00     0.091 A 
ATOM     13  C   UNL A   1      31.758  29.344  25.938  1.00  0.00     0.050 A 
ATOM     14  C   UNL A   1      34.078  27.782  26.255  1.00  0.00     0.052 A 
ATOM     15  C   UNL A   1      32.849  29.813  26.693  1.00  0.00     0.061 A 
ATOM     16  C   UNL A   1      34.009  29.051  26.829  1.00  0.00     0.061 A 
ATOM     17  Cl  UNL A   1      32.680  31.370  27.436  1.00  0.00    -0.083 Cl
ATOM     18  Cl  UNL A   1      35.390  29.615  27.705  1.00  0.00    -0.083 Cl
BRANCH   9  19
ATOM     19  C   UNL A   1      29.755  27.722  23.843  1.00  0.00     0.090 C 
ATOM     20  C   UNL A   1      28.651  26.650  23.885  1.00  0.00     0.032 C 
BRANCH  19  21
ATOM     21  C   UNL A   1      29.872  28.345  22.455  1.00  0.00     0.012 C 
ATOM     22  C   UNL A   1      29.522  29.797  22.198  1.00  0.00     0.006 C 
ATOM     23  C   UNL A   1      30.947  29.336  22.057  1.00  0.00     0.006 C 
ENDBRANCH  19  21
ENDBRANCH   9  19
ENDBRANCH   7   8
ENDBRANCH   6   7
ENDBRANCH   3   6
ENDBRANCH   1   2
BRANCH   1  24
ATOM     24  C   UNL A   1      36.102  22.248  25.819  1.00  0.00     0.042 C 
BRANCH  24  25
ATOM     25  C   UNL A   1      37.325  22.303  24.901  1.00  0.00     0.118 C 
BRANCH  25  26
ATOM     26  N   UNL A   1      38.509  21.642  25.417  1.00  0.00    -0.352 N 
ATOM     27  C   UNL A   1      39.516  21.974  26.279  1.00  0.00     0.251 C 
ATOM     28  H   UNL A   1      38.612  20.732  25.059  1.00  0.00     0.163 HD
ATOM     29  O   UNL A   1      40.317  21.069  26.528  1.00  0.00    -0.269 OA
BRANCH  27  30
ATOM     30  C   UNL A   1      39.735  23.315  26.889  1.00  0.00     0.039 A 
ATOM     31  C   UNL A   1      38.909  24.426  26.731  1.00  0.00     0.014 A 
ATOM     32  C   UNL A   1      40.896  23.455  27.676  1.00  0.00     0.014 A 
ATOM     33  C   UNL A   1      39.271  25.657  27.277  1.00  0.00     0.010 A 
ATOM     34  C   UNL A   1      41.247  24.675  28.249  1.00  0.00     0.010 A 
ATOM     35  C   UNL A   1      40.447  25.790  28.025  1.00  0.00    -0.014 A 
BRANCH  35  36
ATOM     36  C   UNL A   1      40.704  27.078  28.672  1.00  0.00     0.031 A 
ATOM     37  C   UNL A   1      41.813  27.868  28.067  1.00  0.00     0.074 A 
ATOM     38  C   UNL A   1      39.971  27.621  29.666  1.00  0.00     0.049 A 
ATOM     39  N   UNL A   1      42.955  28.158  28.597  1.00  0.00    -0.248 NA
ATOM     40  C   UNL A   1      41.683  28.286  26.664  1.00  0.00     0.031 C 
ATOM     41  C   UNL A   1      38.703  27.145  30.216  1.00  0.00     0.029 A 
ATOM     42  N   UNL A   1      40.182  28.790  30.341  1.00  0.00    -0.354 N 
ATOM     43  C   UNL A   1      43.611  28.975  27.681  1.00  0.00     0.074 A 
ATOM     44  C   UNL A   1      42.854  28.892  26.459  1.00  0.00     0.031 C 
ATOM     45  C   UNL A   1      38.156  28.119  30.979  1.00  0.00     0.029 A 
ATOM     46  C   UNL A   1      39.088  29.231  31.076  1.00  0.00     0.049 A 
ATOM     47  H   UNL A   1      41.036  29.280  30.310  1.00  0.00     0.167 HD
ATOM     48  C   UNL A   1      44.609  29.820  28.066  1.00  0.00     0.037 A 
ATOM     49  C   UNL A   1      38.935  30.440  31.677  1.00  0.00     0.037 A 
ATOM     50  C   UNL A   1      45.133  29.462  29.360  1.00  0.00     0.049 A 
ATOM     51  C   UNL A   1      40.296  30.989  31.918  1.00  0.00     0.074 A 
ATOM     52  C   UNL A   1      45.687  28.317  29.902  1.00  0.00     0.029 A 
ATOM     53  N   UNL A   1      44.815  30.260  30.433  1.00  0.00    -0.354 N 
ATOM     54  N   UNL A   1      41.146  30.483  32.770  1.00  0.00    -0.248 NA
ATOM     55  C   UNL A   1      40.874  31.858  30.906  1.00  0.00     0.031 C 
ATOM     56  C   UNL A   1      45.206  28.274  31.242  1.00  0.00     0.029 A 
ATOM     57  C   UNL A   1      44.441  29.423  31.451  1.00  0.00     0.049 A 
ATOM     58  H   UNL A   1      44.850  31.243  30.466  1.00  0.00     0.167 HD
ATOM     59  C   UNL A   1      42.380  30.604  32.150  1.00  0.00     0.074 A 
ATOM     60  C   UNL A   1      42.164  31.548  31.057  1.00  0.00     0.031 C 
ATOM     61  C   UNL A   1      43.395  29.725  32.402  1.00  0.00     0.037 A 
BRANCH  48  62
ATOM     62  C   UNL A   1      44.865  31.179  27.452  1.00  0.00     0.058 A 
ATOM     63  C   UNL A   1      46.085  31.411  26.779  1.00  0.00     0.135 A 
ATOM     64  C   UNL A   1      44.116  32.334  27.766  1.00  0.00     0.135 A 
ATOM     65  F   UNL A   1      46.876  30.386  26.422  1.00  0.00    -0.206 F 
ATOM     66  C   UNL A   1      46.573  32.695  26.539  1.00  0.00     0.059 A 
ATOM     67  C   UNL A   1      44.558  33.621  27.485  1.00  0.00     0.059 A 
ATOM     68  F   UNL A   1      42.969  32.278  28.452  1.00  0.00    -0.206 F 
ATOM     69  C   UNL A   1      45.812  33.794  26.920  1.00  0.00     0.060 A 
BRANCH  69  70
ATOM     70  S   UNL A   1      46.501  35.449  26.751  1.00  0.00     0.124 S 
ATOM     71  O   UNL A   1      47.237  35.326  25.497  1.00  0.00    -0.237 OA
ATOM     72  O   UNL A   1      45.299  36.274  26.711  1.00  0.00    -0.237 OA
ATOM     73  O   UNL A   1      47.317  35.596  27.952  1.00  0.00    -0.744 OA
ENDBRANCH  69  70
ENDBRANCH  48  62
BRANCH  49  74
ATOM     74  C   UNL A   1      37.694  31.257  31.804  1.00  0.00     0.058 A 
ATOM     75  C   UNL A   1      37.170  31.616  33.060  1.00  0.00     0.135 A 
ATOM     76  C   UNL A   1      37.141  31.930  30.695  1.00  0.00     0.135 A 
ATOM     77  F   UNL A   1      37.650  31.052  34.179  1.00  0.00    -0.206 F 
ATOM     78  C   UNL A   1      36.190  32.607  33.210  1.00  0.00     0.059 A 
ATOM     79  C   UNL A   1      36.154  32.908  30.818  1.00  0.00     0.059 A 
ATOM     80  F   UNL A   1      37.604  31.726  29.454  1.00  0.00    -0.206 F 
ATOM     81  C   UNL A   1      35.701  33.262  32.080  1.00  0.00     0.060 A 
BRANCH  81  82
ATOM     82  S   UNL A   1      34.557  34.650  32.272  1.00  0.00     0.124 S 
ATOM     83  O   UNL A   1      34.260  34.994  30.886  1.00  0.00    -0.237 OA
ATOM     84  O   UNL A   1      33.466  34.046  33.029  1.00  0.00    -0.237 OA
ATOM     85  O   UNL A   1      35.345  35.640  33.004  1.00  0.00    -0.744 OA
ENDBRANCH  81  82
ENDBRANCH  49  74
BRANCH  61  86
ATOM     86  C   UNL A   1      43.303  28.816  33.598  1.00  0.00     0.058 A 
ATOM     87  C   UNL A   1      43.684  29.177  34.902  1.00  0.00     0.135 A 
ATOM     88  C   UNL A   1      42.614  27.600  33.444  1.00  0.00     0.135 A 
ATOM     89  F   UNL A   1      44.256  30.363  35.154  1.00  0.00    -0.206 F 
ATOM     90  C   UNL A   1      43.410  28.356  35.998  1.00  0.00     0.059 A 
ATOM     91  C   UNL A   1      42.301  26.784  34.527  1.00  0.00     0.059 A 
ATOM     92  F   UNL A   1      42.173  27.226  32.231  1.00  0.00    -0.206 F 
ATOM     93  C   UNL A   1      42.707  27.167  35.802  1.00  0.00     0.060 A 
BRANCH  93  94
ATOM     94  S   UNL A   1      42.246  26.170  37.236  1.00  0.00     0.124 S 
ATOM     95  O   UNL A   1      43.194  26.634  38.248  1.00  0.00    -0.237 OA
ATOM     96  O   UNL A   1      40.853  26.558  37.455  1.00  0.00    -0.237 OA
ATOM     97  O   UNL A   1      42.439  24.802  36.782  1.00  0.00    -0.744 OA
ENDBRANCH  93  94
ENDBRANCH  61  86
ENDBRANCH  35  36
ENDBRANCH  27  30
ENDBRANCH  25  26
ENDBRANCH  24  25
ENDBRANCH   1  24
TORSDOF 17
ENDMDL
MODEL 2
REMARK VINA RESULT:     -12.2      1.407      2.468
REMARK SMILES C[C@H](C1CC1)n1c(SCC(=O)NCCCNC(=O)c2ccc(-c3c4nc(c(-c5c(F)cc(S(=O)(=O)[O-])cc5F)c5ccc([nH]5)c(-c5c(F)cc(S(=O)(=O)[O-])cc5F)c5nc(c(-c6c(F)cc(S(=O)(=O)[O-])cc6F)c6ccc3[nH]6)C=C5)C=C4)cc2)nc2cc(Cl)c(Cl)cc21
REMARK SMILES IDX 13 1 12 2 10 3 11 4 9 6 8 7 7 8 6 9 93 10 85 11 86 12 92 13
REMARK SMILES IDX 87 14 90 15 88 16 91 17 89 18 2 19 1 20 3 21 4 22 5 23 14 24
REMARK SMILES IDX 15 25 16 26 17 27 18 29 19 30 20 31 84 32 21 33 83 34 22 35
REMARK SMILES IDX 23 36 24 37 77 38 25 39 82 40 76 41 78 42 26 43 81 44 75 45
REMARK SMILES IDX 74 46 27 48 61 49 40 50 60 51 41 52 44 53 59 54 79 55 42 56
REMARK SMILES IDX 43 57 58 59 80 60 45 61 28 62 29 63 38 64 30 65 31 66 37 67
REMARK SMILES IDX 39 68 32 69 33 70 34 71 35 72 36 73 62 74 63 75 72 76 64 77
REMARK SMILES IDX 65 78 71 79 73 80 66 81 67 82 68 83 69 84 70 85 46 86 47 87
REMARK SMILES IDX 56 88 48 89 49 90 55 91 57 92 50 93 51 94 52 95 53 96 54 97
REMARK H PARENT 12 5 16 28 78 47 44 58
REMARK Flexibility Score: inf
ROOT
ATOM      1  C   UNL A   1      35.071  21.716  24.719  1.00  0.00     0.117 C 
ENDROOT
BRANCH   1   2
ATOM      2  N   UNL A   1      34.035  20.771  25.086  1.00  0.00    -0.355 N 
ATOM      3  C   UNL A   1      32.688  20.870  24.938  1.00  0.00     0.230 C 
ATOM      4  O   UNL A   1      32.005  19.887  25.237  1.00  0.00    -0.274 OA
ATOM      5  H   UNL A   1      34.352  19.937  25.501  1.00  0.00     0.163 HD
BRANCH   3   6
ATOM      6  C   UNL A   1      32.062  22.102  24.341  1.00  0.00     0.178 C 
BRANCH   6   7
ATOM      7  S   UNL A   1      31.732  23.446  25.462  1.00  0.00    -0.078 SA
BRANCH   7   8
ATOM      8  C   UNL A   1      31.244  24.942  24.736  1.00  0.00     0.169 A 
ATOM      9  N   UNL A   1      31.925  26.101  24.359  1.00  0.00    -0.316 N 
ATOM     10  C   UNL A   1      30.952  26.958  23.814  1.00  0.00     0.071 A 
ATOM     11  N   UNL A   1      29.943  25.111  24.638  1.00  0.00    -0.222 NA
ATOM     12  C   UNL A   1      29.739  26.330  24.090  1.00  0.00     0.091 A 
ATOM     13  C   UNL A   1      30.949  28.187  23.124  1.00  0.00     0.050 A 
ATOM     14  C   UNL A   1      28.512  26.943  23.786  1.00  0.00     0.052 A 
ATOM     15  C   UNL A   1      29.718  28.780  22.787  1.00  0.00     0.061 A 
ATOM     16  C   UNL A   1      28.511  28.178  23.137  1.00  0.00     0.061 A 
ATOM     17  Cl  UNL A   1      29.780  30.283  21.925  1.00  0.00    -0.083 Cl
ATOM     18  Cl  UNL A   1      26.979  28.901  22.787  1.00  0.00    -0.083 Cl
BRANCH   9  19
ATOM     19  C   UNL A   1      33.383  26.359  24.455  1.00  0.00     0.090 C 
ATOM     20  C   UNL A   1      34.260  25.190  23.976  1.00  0.00     0.032 C 
BRANCH  19  21
ATOM     21  C   UNL A   1      33.878  26.917  25.786  1.00  0.00     0.012 C 
ATOM     22  C   UNL A   1      34.003  28.407  26.033  1.00  0.00     0.006 C 
ATOM     23  C   UNL A   1      32.989  27.606  26.801  1.00  0.00     0.006 C 
ENDBRANCH  19  21
ENDBRANCH   9  19
ENDBRANCH   7   8
ENDBRANCH   6   7
ENDBRANCH   3   6
ENDBRANCH   1   2
BRANCH   1  24
ATOM     24  C   UNL A   1      36.265  21.660  25.663  1.00  0.00     0.042 C 
BRANCH  24  25
ATOM     25  C   UNL A   1      37.577  22.167  25.060  1.00  0.00     0.118 C 
BRANCH  25  26
ATOM     26  N   UNL A   1      38.760  21.429  25.458  1.00  0.00    -0.352 N 
ATOM     27  C   UNL A   1      39.844  21.675  26.253  1.00  0.00     0.251 C 
ATOM     28  H   UNL A   1      38.790  20.531  25.056  1.00  0.00     0.163 HD
ATOM     29  O   UNL A   1      40.615  20.722  26.403  1.00  0.00    -0.269 OA
BRANCH  27  30
ATOM     30  C   UNL A   1      40.175  22.975  26.897  1.00  0.00     0.039 A 
ATOM     31  C   UNL A   1      41.281  23.225  27.707  1.00  0.00     0.014 A 
ATOM     32  C   UNL A   1      39.266  24.028  26.670  1.00  0.00     0.014 A 
ATOM     33  C   UNL A   1      41.433  24.462  28.332  1.00  0.00     0.010 A 
ATOM     34  C   UNL A   1      39.429  25.275  27.268  1.00  0.00     0.010 A 
ATOM     35  C   UNL A   1      40.501  25.486  28.127  1.00  0.00    -0.014 A 
BRANCH  35  36
ATOM     36  C   UNL A   1      40.785  26.797  28.714  1.00  0.00     0.031 A 
ATOM     37  C   UNL A   1      41.913  27.533  28.076  1.00  0.00     0.074 A 
ATOM     38  C   UNL A   1      40.062  27.403  29.678  1.00  0.00     0.049 A 
ATOM     39  N   UNL A   1      43.060  27.822  28.596  1.00  0.00    -0.248 NA
ATOM     40  C   UNL A   1      41.795  27.887  26.654  1.00  0.00     0.031 C 
ATOM     41  C   UNL A   1      38.782  26.981  30.246  1.00  0.00     0.029 A 
ATOM     42  N   UNL A   1      40.297  28.598  30.298  1.00  0.00    -0.354 N 
ATOM     43  C   UNL A   1      43.736  28.581  27.644  1.00  0.00     0.074 A 
ATOM     44  C   UNL A   1      42.980  28.456  26.424  1.00  0.00     0.031 C 
ATOM     45  C   UNL A   1      38.255  28.002  30.960  1.00  0.00     0.029 A 
ATOM     46  C   UNL A   1      39.212  29.098  31.007  1.00  0.00     0.049 A 
ATOM     47  H   UNL A   1      41.162  29.066  30.246  1.00  0.00     0.167 HD
ATOM     48  C   UNL A   1      44.751  29.421  27.992  1.00  0.00     0.037 A 
ATOM     49  C   UNL A   1      39.084  30.336  31.550  1.00  0.00     0.037 A 
ATOM     50  C   UNL A   1      45.265  29.113  29.303  1.00  0.00     0.049 A 
ATOM     51  C   UNL A   1      40.456  30.866  31.770  1.00  0.00     0.074 A 
ATOM     52  C   UNL A   1      45.791  27.983  29.900  1.00  0.00     0.029 A 
ATOM     53  N   UNL A   1      44.962  29.968  30.336  1.00  0.00    -0.354 N 
ATOM     54  N   UNL A   1      41.293  30.382  32.648  1.00  0.00    -0.248 NA
ATOM     55  C   UNL A   1      41.056  31.673  30.719  1.00  0.00     0.031 C 
ATOM     56  C   UNL A   1      45.306  28.015  31.239  1.00  0.00     0.029 A 
ATOM     57  C   UNL A   1      44.566  29.188  31.392  1.00  0.00     0.049 A 
ATOM     58  H   UNL A   1      45.018  30.951  30.322  1.00  0.00     0.167 HD
ATOM     59  C   UNL A   1      42.531  30.447  32.027  1.00  0.00     0.074 A 
ATOM     60  C   UNL A   1      42.339  31.342  30.889  1.00  0.00     0.031 C 
ATOM     61  C   UNL A   1      43.525  29.558  32.323  1.00  0.00     0.037 A 
BRANCH  48  62
ATOM     62  C   UNL A   1      45.039  30.743  27.315  1.00  0.00     0.058 A 
ATOM     63  C   UNL A   1      46.329  30.982  26.792  1.00  0.00     0.135 A 
ATOM     64  C   UNL A   1      44.214  31.882  27.440  1.00  0.00     0.135 A 
ATOM     65  F   UNL A   1      47.197  29.971  26.621  1.00  0.00    -0.206 F 
ATOM     66  C   UNL A   1      46.799  32.266  26.520  1.00  0.00     0.059 A 
ATOM     67  C   UNL A   1      44.644  33.165  27.122  1.00  0.00     0.059 A 
ATOM     68  F   UNL A   1      42.988  31.823  27.971  1.00  0.00    -0.206 F 
ATOM     69  C   UNL A   1      45.955  33.354  26.714  1.00  0.00     0.060 A 
BRANCH  69  70
ATOM     70  S   UNL A   1      46.602  35.022  26.511  1.00  0.00     0.124 S 
ATOM     71  O   UNL A   1      45.395  35.822  26.688  1.00  0.00    -0.237 OA
ATOM     72  O   UNL A   1      47.585  35.097  27.586  1.00  0.00    -0.237 OA
ATOM     73  O   UNL A   1      47.157  35.003  25.161  1.00  0.00    -0.744 OA
ENDBRANCH  69  70
ENDBRANCH  48  62
BRANCH  49  74
ATOM     74  C   UNL A   1      37.862  31.186  31.633  1.00  0.00     0.058 A 
ATOM     75  C   UNL A   1      37.246  31.477  32.865  1.00  0.00     0.135 A 
ATOM     76  C   UNL A   1      37.421  31.952  30.534  1.00  0.00     0.135 A 
ATOM     77  F   UNL A   1      37.614  30.822  33.977  1.00  0.00    -0.206 F 
ATOM     78  C   UNL A   1      36.286  32.489  33.005  1.00  0.00     0.059 A 
ATOM     79  C   UNL A   1      36.457  32.953  30.645  1.00  0.00     0.059 A 
ATOM     80  F   UNL A   1      37.980  31.815  29.323  1.00  0.00    -0.206 F 
ATOM     81  C   UNL A   1      35.912  33.236  31.889  1.00  0.00     0.060 A 
BRANCH  81  82
ATOM     82  S   UNL A   1      34.797  34.647  32.085  1.00  0.00     0.124 S 
ATOM     83  O   UNL A   1      35.579  35.537  32.935  1.00  0.00    -0.237 OA
ATOM     84  O   UNL A   1      34.607  35.083  30.706  1.00  0.00    -0.237 OA
ATOM     85  O   UNL A   1      33.616  34.060  32.718  1.00  0.00    -0.744 OA
ENDBRANCH  81  82
ENDBRANCH  49  74
BRANCH  61  86
ATOM     86  C   UNL A   1      43.410  28.709  33.561  1.00  0.00     0.058 A 
ATOM     87  C   UNL A   1      43.767  29.134  34.852  1.00  0.00     0.135 A 
ATOM     88  C   UNL A   1      42.724  27.487  33.453  1.00  0.00     0.135 A 
ATOM     89  F   UNL A   1      44.335  30.331  35.056  1.00  0.00    -0.206 F 
ATOM     90  C   UNL A   1      43.472  28.368  35.982  1.00  0.00     0.059 A 
ATOM     91  C   UNL A   1      42.390  26.726  34.569  1.00  0.00     0.059 A 
ATOM     92  F   UNL A   1      42.305  27.054  32.252  1.00  0.00    -0.206 F 
ATOM     93  C   UNL A   1      42.772  27.171  35.832  1.00  0.00     0.060 A 
BRANCH  93  94
ATOM     94  S   UNL A   1      42.284  26.245  37.304  1.00  0.00     0.124 S 
ATOM     95  O   UNL A   1      42.440  24.861  36.861  1.00  0.00    -0.237 OA
ATOM     96  O   UNL A   1      43.257  26.700  38.298  1.00  0.00    -0.237 OA
ATOM     97  O   UNL A   1      40.915  26.673  37.543  1.00  0.00    -0.744 OA
ENDBRANCH  93  94
ENDBRANCH  61  86
ENDBRANCH  35  36
ENDBRANCH  27  30
ENDBRANCH  25  26
ENDBRANCH  24  25
ENDBRANCH   1  24
TORSDOF 17
ENDMDL
MODEL 3
REMARK VINA RESULT:     -11.7      3.340      9.680
REMARK SMILES C[C@H](C1CC1)n1c(SCC(=O)NCCCNC(=O)c2ccc(-c3c4nc(c(-c5c(F)cc(S(=O)(=O)[O-])cc5F)c5ccc([nH]5)c(-c5c(F)cc(S(=O)(=O)[O-])cc5F)c5nc(c(-c6c(F)cc(S(=O)(=O)[O-])cc6F)c6ccc3[nH]6)C=C5)C=C4)cc2)nc2cc(Cl)c(Cl)cc21
REMARK SMILES IDX 13 1 12 2 10 3 11 4 9 6 8 7 7 8 6 9 93 10 85 11 86 12 92 13
REMARK SMILES IDX 87 14 90 15 88 16 91 17 89 18 2 19 1 20 3 21 4 22 5 23 14 24
REMARK SMILES IDX 15 25 16 26 17 27 18 29 19 30 20 31 84 32 21 33 83 34 22 35
REMARK SMILES IDX 23 36 24 37 77 38 25 39 82 40 76 41 78 42 26 43 81 44 75 45
REMARK SMILES IDX 74 46 27 48 61 49 40 50 60 51 41 52 44 53 59 54 79 55 42 56
REMARK SMILES IDX 43 57 58 59 80 60 45 61 28 62 29 63 38 64 30 65 31 66 37 67
REMARK SMILES IDX 39 68 32 69 33 70 34 71 35 72 36 73 62 74 63 75 72 76 64 77
REMARK SMILES IDX 65 78 71 79 73 80 66 81 67 82 68 83 69 84 70 85 46 86 47 87
REMARK SMILES IDX 56 88 48 89 49 90 55 91 57 92 50 93 51 94 52 95 53 96 54 97
REMARK H PARENT 12 5 16 28 78 47 44 58
REMARK Flexibility Score: inf
ROOT
ATOM      1  C   UNL A   1      32.565  29.268  24.600  1.00  0.00     0.117 C 
ENDROOT
BRANCH   1   2
ATOM      2  N   UNL A   1      31.501  28.397  25.059  1.00  0.00    -0.355 N 
ATOM      3  C   UNL A   1      31.517  27.055  25.266  1.00  0.00     0.230 C 
ATOM      4  O   UNL A   1      30.510  26.539  25.758  1.00  0.00    -0.274 OA
ATOM      5  H   UNL A   1      30.644  28.842  25.249  1.00  0.00     0.163 HD
BRANCH   3   6
ATOM      6  C   UNL A   1      32.754  26.242  24.991  1.00  0.00     0.178 C 
BRANCH   6   7
ATOM      7  S   UNL A   1      32.734  25.241  23.518  1.00  0.00    -0.078 SA
BRANCH   7   8
ATOM      8  C   UNL A   1      32.890  23.531  23.757  1.00  0.00     0.169 A 
ATOM      9  N   UNL A   1      33.626  22.741  24.643  1.00  0.00    -0.316 N 
ATOM     10  C   UNL A   1      33.306  21.409  24.325  1.00  0.00     0.071 A 
ATOM     11  N   UNL A   1      32.319  22.789  22.833  1.00  0.00    -0.222 NA
ATOM     12  C   UNL A   1      32.564  21.498  23.149  1.00  0.00     0.091 A 
ATOM     13  C   UNL A   1      33.555  20.140  24.887  1.00  0.00     0.050 A 
ATOM     14  C   UNL A   1      32.146  20.348  22.459  1.00  0.00     0.052 A 
ATOM     15  C   UNL A   1      33.103  18.991  24.212  1.00  0.00     0.061 A 
ATOM     16  C   UNL A   1      32.428  19.092  22.997  1.00  0.00     0.061 A 
ATOM     17  Cl  UNL A   1      33.426  17.462  24.961  1.00  0.00    -0.083 Cl
ATOM     18  Cl  UNL A   1      31.902  17.702  22.112  1.00  0.00    -0.083 Cl
BRANCH   9  19
ATOM     19  C   UNL A   1      34.516  23.206  25.735  1.00  0.00     0.090 C 
ATOM     20  C   UNL A   1      33.777  23.881  26.903  1.00  0.00     0.032 C 
BRANCH  19  21
ATOM     21  C   UNL A   1      35.735  24.016  25.306  1.00  0.00     0.012 C 
ATOM     22  C   UNL A   1      37.147  23.574  25.637  1.00  0.00     0.006 C 
ATOM     23  C   UNL A   1      36.689  23.596  24.205  1.00  0.00     0.006 C 
ENDBRANCH  19  21
ENDBRANCH   9  19
ENDBRANCH   7   8
ENDBRANCH   6   7
ENDBRANCH   3   6
ENDBRANCH   1   2
BRANCH   1  24
ATOM     24  C   UNL A   1      33.626  29.498  25.669  1.00  0.00     0.042 C 
BRANCH  24  25
ATOM     25  C   UNL A   1      33.070  29.846  27.051  1.00  0.00     0.118 C 
BRANCH  25  26
ATOM     26  N   UNL A   1      33.407  31.173  27.530  1.00  0.00    -0.352 N 
ATOM     27  C   UNL A   1      34.541  31.794  27.973  1.00  0.00     0.251 C 
ATOM     28  H   UNL A   1      32.628  31.774  27.538  1.00  0.00     0.163 HD
ATOM     29  O   UNL A   1      34.422  32.998  28.218  1.00  0.00    -0.269 OA
BRANCH  27  30
ATOM     30  C   UNL A   1      35.856  31.139  28.213  1.00  0.00     0.039 A 
ATOM     31  C   UNL A   1      36.103  29.768  28.173  1.00  0.00     0.014 A 
ATOM     32  C   UNL A   1      36.929  31.999  28.526  1.00  0.00     0.014 A 
ATOM     33  C   UNL A   1      37.360  29.267  28.510  1.00  0.00     0.010 A 
ATOM     34  C   UNL A   1      38.194  31.506  28.834  1.00  0.00     0.010 A 
ATOM     35  C   UNL A   1      38.405  30.132  28.856  1.00  0.00    -0.014 A 
BRANCH  35  36
ATOM     36  C   UNL A   1      39.730  29.549  29.078  1.00  0.00     0.031 A 
ATOM     37  C   UNL A   1      40.161  29.508  30.504  1.00  0.00     0.074 A 
ATOM     38  C   UNL A   1      40.507  28.977  28.136  1.00  0.00     0.049 A 
ATOM     39  N   UNL A   1      41.123  30.172  31.056  1.00  0.00    -0.248 NA
ATOM     40  C   UNL A   1      39.354  28.726  31.450  1.00  0.00     0.031 C 
ATOM     41  C   UNL A   1      40.167  28.674  26.746  1.00  0.00     0.029 A 
ATOM     42  N   UNL A   1      41.765  28.458  28.266  1.00  0.00    -0.354 N 
ATOM     43  C   UNL A   1      41.184  29.736  32.377  1.00  0.00     0.074 A 
ATOM     44  C   UNL A   1      39.984  28.971  32.601  1.00  0.00     0.031 C 
ATOM     45  C   UNL A   1      41.101  27.843  26.230  1.00  0.00     0.029 A 
ATOM     46  C   UNL A   1      42.166  27.656  27.204  1.00  0.00     0.049 A 
ATOM     47  H   UNL A   1      42.338  28.635  29.047  1.00  0.00     0.167 HD
ATOM     48  C   UNL A   1      42.320  29.866  33.118  1.00  0.00     0.037 A 
ATOM     49  C   UNL A   1      43.264  26.858  27.145  1.00  0.00     0.037 A 
ATOM     50  C   UNL A   1      43.226  30.823  32.532  1.00  0.00     0.049 A 
ATOM     51  C   UNL A   1      44.250  27.391  28.122  1.00  0.00     0.074 A 
ATOM     52  C   UNL A   1      43.130  32.153  32.165  1.00  0.00     0.029 A 
ATOM     53  N   UNL A   1      44.360  30.351  31.915  1.00  0.00    -0.354 N 
ATOM     54  N   UNL A   1      44.865  28.535  27.988  1.00  0.00    -0.248 NA
ATOM     55  C   UNL A   1      44.246  26.842  29.469  1.00  0.00     0.031 C 
ATOM     56  C   UNL A   1      43.898  32.260  30.970  1.00  0.00     0.029 A 
ATOM     57  C   UNL A   1      44.460  31.007  30.717  1.00  0.00     0.049 A 
ATOM     58  H   UNL A   1      44.981  29.673  32.267  1.00  0.00     0.167 HD
ATOM     59  C   UNL A   1      44.931  29.051  29.274  1.00  0.00     0.074 A 
ATOM     60  C   UNL A   1      44.629  27.924  30.152  1.00  0.00     0.031 C 
ATOM     61  C   UNL A   1      44.951  30.398  29.501  1.00  0.00     0.037 A 
BRANCH  48  62
ATOM     62  C   UNL A   1      42.779  28.874  34.164  1.00  0.00     0.058 A 
ATOM     63  C   UNL A   1      42.858  27.505  33.826  1.00  0.00     0.135 A 
ATOM     64  C   UNL A   1      42.834  29.163  35.546  1.00  0.00     0.135 A 
ATOM     65  F   UNL A   1      42.824  27.114  32.542  1.00  0.00    -0.206 F 
ATOM     66  C   UNL A   1      42.878  26.497  34.790  1.00  0.00     0.059 A 
ATOM     67  C   UNL A   1      42.910  28.176  36.521  1.00  0.00     0.059 A 
ATOM     68  F   UNL A   1      42.713  30.407  36.022  1.00  0.00    -0.206 F 
ATOM     69  C   UNL A   1      42.878  26.845  36.137  1.00  0.00     0.060 A 
BRANCH  69  70
ATOM     70  S   UNL A   1      42.751  25.551  37.382  1.00  0.00     0.124 S 
ATOM     71  O   UNL A   1      43.536  24.485  36.771  1.00  0.00    -0.237 OA
ATOM     72  O   UNL A   1      43.344  26.197  38.549  1.00  0.00    -0.237 OA
ATOM     73  O   UNL A   1      41.314  25.310  37.469  1.00  0.00    -0.744 OA
ENDBRANCH  69  70
ENDBRANCH  48  62
BRANCH  49  74
ATOM     74  C   UNL A   1      43.399  25.521  26.500  1.00  0.00     0.058 A 
ATOM     75  C   UNL A   1      44.258  25.312  25.404  1.00  0.00     0.135 A 
ATOM     76  C   UNL A   1      42.890  24.356  27.109  1.00  0.00     0.135 A 
ATOM     77  F   UNL A   1      44.817  26.356  24.773  1.00  0.00    -0.206 F 
ATOM     78  C   UNL A   1      44.622  24.029  24.969  1.00  0.00     0.059 A 
ATOM     79  C   UNL A   1      43.224  23.071  26.684  1.00  0.00     0.059 A 
ATOM     80  F   UNL A   1      42.117  24.423  28.202  1.00  0.00    -0.206 F 
ATOM     81  C   UNL A   1      44.112  22.913  25.630  1.00  0.00     0.060 A 
BRANCH  81  82
ATOM     82  S   UNL A   1      44.696  21.260  25.181  1.00  0.00     0.124 S 
ATOM     83  O   UNL A   1      44.607  21.290  23.726  1.00  0.00    -0.237 OA
ATOM     84  O   UNL A   1      46.043  21.249  25.739  1.00  0.00    -0.237 OA
ATOM     85  O   UNL A   1      43.742  20.372  25.845  1.00  0.00    -0.744 OA
ENDBRANCH  81  82
ENDBRANCH  49  74
BRANCH  61  86
ATOM     86  C   UNL A   1      45.237  31.335  28.359  1.00  0.00     0.058 A 
ATOM     87  C   UNL A   1      44.310  31.676  27.359  1.00  0.00     0.135 A 
ATOM     88  C   UNL A   1      46.437  32.065  28.398  1.00  0.00     0.135 A 
ATOM     89  F   UNL A   1      43.100  31.100  27.310  1.00  0.00    -0.206 F 
ATOM     90  C   UNL A   1      44.574  32.685  26.429  1.00  0.00     0.059 A 
ATOM     91  C   UNL A   1      46.705  33.096  27.502  1.00  0.00     0.059 A 
ATOM     92  F   UNL A   1      47.340  31.825  29.364  1.00  0.00    -0.206 F 
ATOM     93  C   UNL A   1      45.770  33.398  26.517  1.00  0.00     0.060 A 
BRANCH  93  94
ATOM     94  S   UNL A   1      46.053  34.782  25.391  1.00  0.00     0.124 S 
ATOM     95  O   UNL A   1      45.162  34.459  24.278  1.00  0.00    -0.237 OA
ATOM     96  O   UNL A   1      45.655  35.933  26.202  1.00  0.00    -0.237 OA
ATOM     97  O   UNL A   1      47.475  34.701  25.096  1.00  0.00    -0.744 OA
ENDBRANCH  93  94
ENDBRANCH  61  86
ENDBRANCH  35  36
ENDBRANCH  27  30
ENDBRANCH  25  26
ENDBRANCH  24  25
ENDBRANCH   1  24
TORSDOF 17
ENDMDL
