MODEL 1
REMARK VINA RESULT:     -11.4      0.000      0.000
REMARK SMILES C[C@H](NC(=O)NCCc1ccccc1F)C(=O)NCCCNC(=O)c1ccc(-c2c3nc(c(-c4c(F)cc(S(=O)(=O)[O-])cc4F)c4ccc([nH]4)c(-c4c(F)cc(S(=O)(=O)[O-])cc4F)c4nc(c(-c5c(F)cc(S(=O)(=O)[O-])cc5F)c5ccc2[nH]5)C=C4)C=C3)cc1
REMARK SMILES IDX 19 1 18 2 16 3 17 4 2 6 1 7 3 8 4 9 5 11 6 12 7 14 8 15 9 16
REMARK SMILES IDX 10 17 14 18 11 19 13 20 15 21 12 22 20 23 21 24 22 25 23 26
REMARK SMILES IDX 24 28 25 29 26 30 90 31 27 32 89 33 28 34 29 35 30 36 83 37
REMARK SMILES IDX 31 38 88 39 82 40 84 41 32 42 87 43 81 44 80 45 33 47 67 48
REMARK SMILES IDX 46 49 66 50 47 51 50 52 65 53 85 54 48 55 49 56 64 58 86 59
REMARK SMILES IDX 51 60 34 61 35 62 44 63 36 64 37 65 43 66 45 67 38 68 39 69
REMARK SMILES IDX 40 70 41 71 42 72 68 73 69 74 78 75 70 76 71 77 77 78 79 79
REMARK SMILES IDX 72 80 73 81 74 82 75 83 76 84 52 85 53 86 62 87 54 88 55 89
REMARK SMILES IDX 61 90 63 91 56 92 57 93 58 94 59 95 60 96
REMARK H PARENT 18 5 3 10 6 13 22 27 84 46 50 57
REMARK Flexibility Score: inf
ROOT
ATOM      1  C   UNL A   1      32.472  27.354  25.340  1.00  0.00     0.117 C 
ENDROOT
BRANCH   1   2
ATOM      2  N   UNL A   1      31.158  27.337  24.716  1.00  0.00    -0.354 N 
ATOM      3  C   UNL A   1      30.328  26.285  24.474  1.00  0.00     0.242 C 
ATOM      4  O   UNL A   1      29.164  26.526  24.145  1.00  0.00    -0.273 OA
ATOM      5  H   UNL A   1      30.819  28.215  24.428  1.00  0.00     0.163 HD
BRANCH   3   6
ATOM      6  C   UNL A   1      30.808  24.847  24.710  1.00  0.00     0.170 C 
ATOM      7  C   UNL A   1      30.555  24.023  23.445  1.00  0.00     0.041 C 
BRANCH   6   8
ATOM      8  N   UNL A   1      30.183  24.304  25.912  1.00  0.00    -0.327 N 
ATOM      9  C   UNL A   1      30.312  23.176  26.612  1.00  0.00     0.315 C 
ATOM     10  H   UNL A   1      29.509  24.912  26.295  1.00  0.00     0.166 HD
ATOM     11  O   UNL A   1      29.600  23.033  27.608  1.00  0.00    -0.249 OA
ATOM     12  N   UNL A   1      31.165  22.197  26.297  1.00  0.00    -0.338 N 
ATOM     13  H   UNL A   1      31.130  21.439  26.925  1.00  0.00     0.165 HD
BRANCH  12  14
ATOM     14  C   UNL A   1      32.129  22.010  25.234  1.00  0.00     0.122 C 
BRANCH  14  15
ATOM     15  C   UNL A   1      33.416  21.339  25.702  1.00  0.00     0.060 C 
BRANCH  15  16
ATOM     16  C   UNL A   1      34.625  22.164  25.367  1.00  0.00    -0.010 A 
ATOM     17  C   UNL A   1      35.263  22.011  24.126  1.00  0.00     0.007 A 
ATOM     18  C   UNL A   1      35.157  23.060  26.293  1.00  0.00     0.126 A 
ATOM     19  C   UNL A   1      36.417  22.739  23.834  1.00  0.00     0.000 A 
ATOM     20  C   UNL A   1      36.303  23.794  26.005  1.00  0.00     0.039 A 
ATOM     21  F   UNL A   1      34.571  23.215  27.488  1.00  0.00    -0.207 F 
ATOM     22  C   UNL A   1      36.935  23.630  24.774  1.00  0.00     0.003 A 
ENDBRANCH  15  16
ENDBRANCH  14  15
ENDBRANCH  12  14
ENDBRANCH   6   8
ENDBRANCH   3   6
ENDBRANCH   1   2
BRANCH   1  23
ATOM     23  C   UNL A   1      32.485  28.151  26.625  1.00  0.00     0.042 C 
BRANCH  23  24
ATOM     24  C   UNL A   1      33.850  28.728  26.952  1.00  0.00     0.118 C 
BRANCH  24  25
ATOM     25  N   UNL A   1      33.777  30.049  27.568  1.00  0.00    -0.352 N 
ATOM     26  C   UNL A   1      34.728  30.693  28.325  1.00  0.00     0.251 C 
ATOM     27  H   UNL A   1      32.937  30.544  27.422  1.00  0.00     0.163 HD
ATOM     28  O   UNL A   1      34.462  31.729  28.917  1.00  0.00    -0.269 OA
BRANCH  26  29
ATOM     29  C   UNL A   1      36.066  30.081  28.420  1.00  0.00     0.039 A 
ATOM     30  C   UNL A   1      36.980  30.258  27.382  1.00  0.00     0.014 A 
ATOM     31  C   UNL A   1      36.434  29.423  29.596  1.00  0.00     0.014 A 
ATOM     32  C   UNL A   1      38.299  29.842  27.560  1.00  0.00     0.010 A 
ATOM     33  C   UNL A   1      37.767  29.118  29.813  1.00  0.00     0.010 A 
ATOM     34  C   UNL A   1      38.712  29.310  28.793  1.00  0.00    -0.014 A 
BRANCH  34  35
ATOM     35  C   UNL A   1      40.115  28.901  29.046  1.00  0.00     0.031 A 
ATOM     36  C   UNL A   1      41.069  29.901  29.641  1.00  0.00     0.074 A 
ATOM     37  C   UNL A   1      40.547  27.683  28.665  1.00  0.00     0.049 A 
ATOM     38  N   UNL A   1      42.362  29.815  29.801  1.00  0.00    -0.248 NA
ATOM     39  C   UNL A   1      40.497  31.190  30.072  1.00  0.00     0.031 C 
ATOM     40  C   UNL A   1      39.725  26.647  28.036  1.00  0.00     0.029 A 
ATOM     41  N   UNL A   1      41.792  27.113  28.746  1.00  0.00    -0.354 N 
ATOM     42  C   UNL A   1      42.759  31.042  30.318  1.00  0.00     0.074 A 
ATOM     43  C   UNL A   1      41.583  31.879  30.384  1.00  0.00     0.031 C 
ATOM     44  C   UNL A   1      40.480  25.557  27.820  1.00  0.00     0.029 A 
ATOM     45  C   UNL A   1      41.847  25.829  28.253  1.00  0.00     0.049 A 
ATOM     46  H   UNL A   1      42.574  27.579  29.122  1.00  0.00     0.167 HD
ATOM     47  C   UNL A   1      43.987  31.426  30.734  1.00  0.00     0.037 A 
ATOM     48  C   UNL A   1      42.884  24.975  28.158  1.00  0.00     0.037 A 
ATOM     49  C   UNL A   1      45.137  30.563  30.722  1.00  0.00     0.049 A 
ATOM     50  C   UNL A   1      44.237  25.414  28.647  1.00  0.00     0.074 A 
ATOM     51  C   UNL A   1      46.415  30.832  31.175  1.00  0.00     0.029 A 
ATOM     52  N   UNL A   1      45.142  29.261  30.246  1.00  0.00    -0.354 N 
ATOM     53  N   UNL A   1      44.590  26.568  29.164  1.00  0.00    -0.248 NA
ATOM     54  C   UNL A   1      45.333  24.442  28.543  1.00  0.00     0.031 C 
ATOM     55  C   UNL A   1      47.202  29.699  30.947  1.00  0.00     0.029 A 
ATOM     56  C   UNL A   1      46.404  28.712  30.390  1.00  0.00     0.049 A 
ATOM     57  H   UNL A   1      44.364  28.796  29.862  1.00  0.00     0.167 HD
ATOM     58  C   UNL A   1      45.941  26.452  29.469  1.00  0.00     0.074 A 
ATOM     59  C   UNL A   1      46.342  25.114  29.086  1.00  0.00     0.031 C 
ATOM     60  C   UNL A   1      46.773  27.370  30.017  1.00  0.00     0.037 A 
BRANCH  47  61
ATOM     61  C   UNL A   1      44.140  32.822  31.267  1.00  0.00     0.058 A 
ATOM     62  C   UNL A   1      43.870  33.106  32.615  1.00  0.00     0.135 A 
ATOM     63  C   UNL A   1      44.519  33.887  30.435  1.00  0.00     0.135 A 
ATOM     64  F   UNL A   1      43.514  32.123  33.457  1.00  0.00    -0.206 F 
ATOM     65  C   UNL A   1      43.958  34.401  33.116  1.00  0.00     0.059 A 
ATOM     66  C   UNL A   1      44.642  35.185  30.921  1.00  0.00     0.059 A 
ATOM     67  F   UNL A   1      44.816  33.665  29.145  1.00  0.00    -0.206 F 
ATOM     68  C   UNL A   1      44.344  35.434  32.260  1.00  0.00     0.060 A 
BRANCH  68  69
ATOM     69  S   UNL A   1      44.493  37.102  32.932  1.00  0.00     0.124 S 
ATOM     70  O   UNL A   1      44.156  37.922  31.775  1.00  0.00    -0.237 OA
ATOM     71  O   UNL A   1      43.510  37.088  34.012  1.00  0.00    -0.237 OA
ATOM     72  O   UNL A   1      45.885  37.168  33.368  1.00  0.00    -0.744 OA
ENDBRANCH  68  69
ENDBRANCH  47  61
BRANCH  48  73
ATOM     73  C   UNL A   1      42.666  23.606  27.619  1.00  0.00     0.058 A 
ATOM     74  C   UNL A   1      42.420  22.513  28.464  1.00  0.00     0.135 A 
ATOM     75  C   UNL A   1      42.744  23.362  26.239  1.00  0.00     0.135 A 
ATOM     76  F   UNL A   1      42.347  22.691  29.791  1.00  0.00    -0.206 F 
ATOM     77  C   UNL A   1      42.283  21.222  27.962  1.00  0.00     0.059 A 
ATOM     78  C   UNL A   1      42.587  22.083  25.712  1.00  0.00     0.059 A 
ATOM     79  F   UNL A   1      42.967  24.378  25.391  1.00  0.00    -0.206 F 
ATOM     80  C   UNL A   1      42.374  21.016  26.584  1.00  0.00     0.060 A 
BRANCH  80  81
ATOM     81  S   UNL A   1      42.214  19.332  25.954  1.00  0.00     0.124 S 
ATOM     82  O   UNL A   1      43.073  19.379  24.775  1.00  0.00    -0.237 OA
ATOM     83  O   UNL A   1      42.712  18.538  27.072  1.00  0.00    -0.237 OA
ATOM     84  O   UNL A   1      40.785  19.206  25.684  1.00  0.00    -0.744 OA
ENDBRANCH  80  81
ENDBRANCH  48  73
BRANCH  60  85
ATOM     85  C   UNL A   1      48.196  26.963  30.271  1.00  0.00     0.058 A 
ATOM     86  C   UNL A   1      48.554  26.366  31.490  1.00  0.00     0.135 A 
ATOM     87  C   UNL A   1      49.218  27.266  29.359  1.00  0.00     0.135 A 
ATOM     88  F   UNL A   1      47.612  26.062  32.398  1.00  0.00    -0.206 F 
ATOM     89  C   UNL A   1      49.882  26.110  31.810  1.00  0.00     0.059 A 
ATOM     90  C   UNL A   1      50.552  26.996  29.648  1.00  0.00     0.059 A 
ATOM     91  F   UNL A   1      48.923  27.827  28.176  1.00  0.00    -0.206 F 
ATOM     92  C   UNL A   1      50.875  26.438  30.885  1.00  0.00     0.060 A 
BRANCH  92  93
ATOM     93  S   UNL A   1      52.596  26.115  31.324  1.00  0.00     0.124 S 
ATOM     94  O   UNL A   1      53.250  26.169  30.020  1.00  0.00    -0.237 OA
ATOM     95  O   UNL A   1      52.897  27.219  32.230  1.00  0.00    -0.237 OA
ATOM     96  O   UNL A   1      52.545  24.797  31.948  1.00  0.00    -0.744 OA
ENDBRANCH  92  93
ENDBRANCH  60  85
ENDBRANCH  34  35
ENDBRANCH  26  29
ENDBRANCH  24  25
ENDBRANCH  23  24
ENDBRANCH   1  23
TORSDOF 17
ENDMDL
MODEL 2
REMARK VINA RESULT:     -11.4      2.980      3.718
REMARK SMILES C[C@H](NC(=O)NCCc1ccccc1F)C(=O)NCCCNC(=O)c1ccc(-c2c3nc(c(-c4c(F)cc(S(=O)(=O)[O-])cc4F)c4ccc([nH]4)c(-c4c(F)cc(S(=O)(=O)[O-])cc4F)c4nc(c(-c5c(F)cc(S(=O)(=O)[O-])cc5F)c5ccc2[nH]5)C=C4)C=C3)cc1
REMARK SMILES IDX 19 1 18 2 16 3 17 4 2 6 1 7 3 8 4 9 5 11 6 12 7 14 8 15 9 16
REMARK SMILES IDX 10 17 14 18 11 19 13 20 15 21 12 22 20 23 21 24 22 25 23 26
REMARK SMILES IDX 24 28 25 29 26 30 90 31 27 32 89 33 28 34 29 35 30 36 83 37
REMARK SMILES IDX 31 38 88 39 82 40 84 41 32 42 87 43 81 44 80 45 33 47 67 48
REMARK SMILES IDX 46 49 66 50 47 51 50 52 65 53 85 54 48 55 49 56 64 58 86 59
REMARK SMILES IDX 51 60 34 61 35 62 44 63 36 64 37 65 43 66 45 67 38 68 39 69
REMARK SMILES IDX 40 70 41 71 42 72 68 73 69 74 78 75 70 76 71 77 77 78 79 79
REMARK SMILES IDX 72 80 73 81 74 82 75 83 76 84 52 85 53 86 62 87 54 88 55 89
REMARK SMILES IDX 61 90 63 91 56 92 57 93 58 94 59 95 60 96
REMARK H PARENT 18 5 3 10 6 13 22 27 84 46 50 57
REMARK Flexibility Score: inf
ROOT
ATOM      1  C   UNL A   1      32.868  26.412  26.268  1.00  0.00     0.117 C 
ENDROOT
BRANCH   1   2
ATOM      2  N   UNL A   1      31.808  25.594  26.835  1.00  0.00    -0.354 N 
ATOM      3  C   UNL A   1      31.334  24.384  26.427  1.00  0.00     0.242 C 
ATOM      4  O   UNL A   1      30.589  23.764  27.188  1.00  0.00    -0.273 OA
ATOM      5  H   UNL A   1      31.367  25.971  27.631  1.00  0.00     0.163 HD
BRANCH   3   6
ATOM      6  C   UNL A   1      31.809  23.772  25.102  1.00  0.00     0.170 C 
ATOM      7  C   UNL A   1      31.125  24.502  23.943  1.00  0.00     0.041 C 
BRANCH   6   8
ATOM      8  N   UNL A   1      31.590  22.329  25.112  1.00  0.00    -0.327 N 
ATOM      9  C   UNL A   1      32.383  21.258  25.170  1.00  0.00     0.315 C 
ATOM     10  H   UNL A   1      30.635  22.092  25.067  1.00  0.00     0.166 HD
ATOM     11  O   UNL A   1      31.849  20.147  25.153  1.00  0.00    -0.249 OA
ATOM     12  N   UNL A   1      33.715  21.319  25.243  1.00  0.00    -0.338 N 
ATOM     13  H   UNL A   1      34.141  20.432  25.281  1.00  0.00     0.165 HD
BRANCH  12  14
ATOM     14  C   UNL A   1      34.668  22.409  25.280  1.00  0.00     0.122 C 
BRANCH  14  15
ATOM     15  C   UNL A   1      35.935  22.126  24.479  1.00  0.00     0.060 C 
BRANCH  15  16
ATOM     16  C   UNL A   1      37.173  22.436  25.270  1.00  0.00    -0.010 A 
ATOM     17  C   UNL A   1      37.357  23.712  25.821  1.00  0.00     0.007 A 
ATOM     18  C   UNL A   1      38.174  21.479  25.434  1.00  0.00     0.126 A 
ATOM     19  C   UNL A   1      38.531  24.017  26.512  1.00  0.00     0.000 A 
ATOM     20  C   UNL A   1      39.342  21.774  26.127  1.00  0.00     0.039 A 
ATOM     21  F   UNL A   1      38.024  20.255  24.907  1.00  0.00    -0.207 F 
ATOM     22  C   UNL A   1      39.521  23.048  26.665  1.00  0.00     0.003 A 
ENDBRANCH  15  16
ENDBRANCH  14  15
ENDBRANCH  12  14
ENDBRANCH   6   8
ENDBRANCH   3   6
ENDBRANCH   1   2
BRANCH   1  23
ATOM     23  C   UNL A   1      32.877  27.812  26.839  1.00  0.00     0.042 C 
BRANCH  23  24
ATOM     24  C   UNL A   1      33.789  28.757  26.078  1.00  0.00     0.118 C 
BRANCH  24  25
ATOM     25  N   UNL A   1      33.629  30.151  26.482  1.00  0.00    -0.352 N 
ATOM     26  C   UNL A   1      34.381  30.872  27.381  1.00  0.00     0.251 C 
ATOM     27  H   UNL A   1      32.886  30.638  26.056  1.00  0.00     0.163 HD
ATOM     28  O   UNL A   1      34.026  31.983  27.747  1.00  0.00    -0.269 OA
BRANCH  26  29
ATOM     29  C   UNL A   1      35.611  30.251  27.907  1.00  0.00     0.039 A 
ATOM     30  C   UNL A   1      36.824  30.462  27.252  1.00  0.00     0.014 A 
ATOM     31  C   UNL A   1      35.560  29.550  29.115  1.00  0.00     0.014 A 
ATOM     32  C   UNL A   1      38.006  30.034  27.857  1.00  0.00     0.010 A 
ATOM     33  C   UNL A   1      36.741  29.232  29.764  1.00  0.00     0.010 A 
ATOM     34  C   UNL A   1      37.975  29.457  29.137  1.00  0.00    -0.014 A 
BRANCH  34  35
ATOM     35  C   UNL A   1      39.210  29.034  29.841  1.00  0.00     0.031 A 
ATOM     36  C   UNL A   1      39.614  29.752  31.101  1.00  0.00     0.074 A 
ATOM     37  C   UNL A   1      40.003  28.083  29.310  1.00  0.00     0.049 A 
ATOM     38  N   UNL A   1      40.721  29.658  31.787  1.00  0.00    -0.248 NA
ATOM     39  C   UNL A   1      38.661  30.743  31.634  1.00  0.00     0.031 C 
ATOM     40  C   UNL A   1      39.740  27.350  28.069  1.00  0.00     0.029 A 
ATOM     41  N   UNL A   1      41.200  27.574  29.746  1.00  0.00    -0.354 N 
ATOM     42  C   UNL A   1      40.610  30.594  32.807  1.00  0.00     0.074 A 
ATOM     43  C   UNL A   1      39.360  31.292  32.615  1.00  0.00     0.031 C 
ATOM     44  C   UNL A   1      40.727  26.463  27.863  1.00  0.00     0.029 A 
ATOM     45  C   UNL A   1      41.715  26.593  28.930  1.00  0.00     0.049 A 
ATOM     46  H   UNL A   1      41.650  27.881  30.566  1.00  0.00     0.167 HD
ATOM     47  C   UNL A   1      41.458  30.826  33.835  1.00  0.00     0.037 A 
ATOM     48  C   UNL A   1      42.857  25.884  29.030  1.00  0.00     0.037 A 
ATOM     49  C   UNL A   1      42.669  30.083  34.052  1.00  0.00     0.049 A 
ATOM     50  C   UNL A   1      43.776  26.144  30.193  1.00  0.00     0.074 A 
ATOM     51  C   UNL A   1      43.570  30.197  35.094  1.00  0.00     0.029 A 
ATOM     52  N   UNL A   1      43.136  29.076  33.222  1.00  0.00    -0.354 N 
ATOM     53  N   UNL A   1      43.641  27.012  31.169  1.00  0.00    -0.248 NA
ATOM     54  C   UNL A   1      44.998  25.334  30.273  1.00  0.00     0.031 C 
ATOM     55  C   UNL A   1      44.600  29.277  34.878  1.00  0.00     0.029 A 
ATOM     56  C   UNL A   1      44.318  28.562  33.724  1.00  0.00     0.049 A 
ATOM     57  H   UNL A   1      42.694  28.772  32.396  1.00  0.00     0.167 HD
ATOM     58  C   UNL A   1      44.748  26.835  31.991  1.00  0.00     0.074 A 
ATOM     59  C   UNL A   1      45.539  25.773  31.403  1.00  0.00     0.031 C 
ATOM     60  C   UNL A   1      45.078  27.491  33.130  1.00  0.00     0.037 A 
BRANCH  47  61
ATOM     61  C   UNL A   1      41.088  31.903  34.816  1.00  0.00     0.058 A 
ATOM     62  C   UNL A   1      40.210  31.632  35.877  1.00  0.00     0.135 A 
ATOM     63  C   UNL A   1      41.575  33.213  34.685  1.00  0.00     0.135 A 
ATOM     64  F   UNL A   1      39.723  30.394  36.055  1.00  0.00    -0.206 F 
ATOM     65  C   UNL A   1      39.817  32.627  36.767  1.00  0.00     0.059 A 
ATOM     66  C   UNL A   1      41.218  34.217  35.580  1.00  0.00     0.059 A 
ATOM     67  F   UNL A   1      42.440  33.518  33.704  1.00  0.00    -0.206 F 
ATOM     68  C   UNL A   1      40.327  33.917  36.609  1.00  0.00     0.060 A 
BRANCH  68  69
ATOM     69  S   UNL A   1      39.840  35.189  37.793  1.00  0.00     0.124 S 
ATOM     70  O   UNL A   1      39.654  36.348  36.928  1.00  0.00    -0.237 OA
ATOM     71  O   UNL A   1      38.625  34.622  38.371  1.00  0.00    -0.237 OA
ATOM     72  O   UNL A   1      40.980  35.258  38.703  1.00  0.00    -0.744 OA
ENDBRANCH  68  69
ENDBRANCH  47  61
BRANCH  48  73
ATOM     73  C   UNL A   1      43.165  24.834  28.025  1.00  0.00     0.058 A 
ATOM     74  C   UNL A   1      42.778  23.498  28.213  1.00  0.00     0.135 A 
ATOM     75  C   UNL A   1      43.897  25.145  26.868  1.00  0.00     0.135 A 
ATOM     76  F   UNL A   1      42.086  23.146  29.307  1.00  0.00    -0.206 F 
ATOM     77  C   UNL A   1      43.125  22.504  27.303  1.00  0.00     0.059 A 
ATOM     78  C   UNL A   1      44.237  24.172  25.932  1.00  0.00     0.059 A 
ATOM     79  F   UNL A   1      44.280  26.411  26.640  1.00  0.00    -0.206 F 
ATOM     80  C   UNL A   1      43.860  22.851  26.168  1.00  0.00     0.060 A 
BRANCH  80  81
ATOM     81  S   UNL A   1      44.320  21.545  25.009  1.00  0.00     0.124 S 
ATOM     82  O   UNL A   1      44.142  22.217  23.726  1.00  0.00    -0.237 OA
ATOM     83  O   UNL A   1      45.699  21.265  25.394  1.00  0.00    -0.237 OA
ATOM     84  O   UNL A   1      43.361  20.482  25.299  1.00  0.00    -0.744 OA
ENDBRANCH  80  81
ENDBRANCH  48  73
BRANCH  60  85
ATOM     85  C   UNL A   1      46.330  27.071  33.844  1.00  0.00     0.058 A 
ATOM     86  C   UNL A   1      47.566  27.641  33.499  1.00  0.00     0.135 A 
ATOM     87  C   UNL A   1      46.323  26.029  34.783  1.00  0.00     0.135 A 
ATOM     88  F   UNL A   1      47.625  28.637  32.601  1.00  0.00    -0.206 F 
ATOM     89  C   UNL A   1      48.757  27.172  34.041  1.00  0.00     0.059 A 
ATOM     90  C   UNL A   1      47.501  25.560  35.356  1.00  0.00     0.059 A 
ATOM     91  F   UNL A   1      45.164  25.460  35.151  1.00  0.00    -0.206 F 
ATOM     92  C   UNL A   1      48.714  26.123  34.961  1.00  0.00     0.060 A 
BRANCH  92  93
ATOM     93  S   UNL A   1      50.272  25.514  35.641  1.00  0.00     0.124 S 
ATOM     94  O   UNL A   1      49.918  25.289  37.038  1.00  0.00    -0.237 OA
ATOM     95  O   UNL A   1      50.508  24.314  34.845  1.00  0.00    -0.237 OA
ATOM     96  O   UNL A   1      51.201  26.613  35.396  1.00  0.00    -0.744 OA
ENDBRANCH  92  93
ENDBRANCH  60  85
ENDBRANCH  34  35
ENDBRANCH  26  29
ENDBRANCH  24  25
ENDBRANCH  23  24
ENDBRANCH   1  23
TORSDOF 17
ENDMDL
MODEL 3
REMARK VINA RESULT:     -11.4      2.632      3.457
REMARK SMILES C[C@H](NC(=O)NCCc1ccccc1F)C(=O)NCCCNC(=O)c1ccc(-c2c3nc(c(-c4c(F)cc(S(=O)(=O)[O-])cc4F)c4ccc([nH]4)c(-c4c(F)cc(S(=O)(=O)[O-])cc4F)c4nc(c(-c5c(F)cc(S(=O)(=O)[O-])cc5F)c5ccc2[nH]5)C=C4)C=C3)cc1
REMARK SMILES IDX 19 1 18 2 16 3 17 4 2 6 1 7 3 8 4 9 5 11 6 12 7 14 8 15 9 16
REMARK SMILES IDX 10 17 14 18 11 19 13 20 15 21 12 22 20 23 21 24 22 25 23 26
REMARK SMILES IDX 24 28 25 29 26 30 90 31 27 32 89 33 28 34 29 35 30 36 83 37
REMARK SMILES IDX 31 38 88 39 82 40 84 41 32 42 87 43 81 44 80 45 33 47 67 48
REMARK SMILES IDX 46 49 66 50 47 51 50 52 65 53 85 54 48 55 49 56 64 58 86 59
REMARK SMILES IDX 51 60 34 61 35 62 44 63 36 64 37 65 43 66 45 67 38 68 39 69
REMARK SMILES IDX 40 70 41 71 42 72 68 73 69 74 78 75 70 76 71 77 77 78 79 79
REMARK SMILES IDX 72 80 73 81 74 82 75 83 76 84 52 85 53 86 62 87 54 88 55 89
REMARK SMILES IDX 61 90 63 91 56 92 57 93 58 94 59 95 60 96
REMARK H PARENT 18 5 3 10 6 13 22 27 84 46 50 57
REMARK Flexibility Score: inf
ROOT
ATOM      1  C   UNL A   1      33.668  29.336  25.620  1.00  0.00     0.117 C 
ENDROOT
BRANCH   1   2
ATOM      2  N   UNL A   1      32.461  29.825  24.971  1.00  0.00    -0.354 N 
ATOM      3  C   UNL A   1      31.439  29.128  24.403  1.00  0.00     0.242 C 
ATOM      4  O   UNL A   1      30.406  29.738  24.118  1.00  0.00    -0.273 OA
ATOM      5  H   UNL A   1      32.371  30.806  24.939  1.00  0.00     0.163 HD
BRANCH   3   6
ATOM      6  C   UNL A   1      31.541  27.607  24.229  1.00  0.00     0.170 C 
ATOM      7  C   UNL A   1      31.337  27.260  22.752  1.00  0.00     0.041 C 
BRANCH   6   8
ATOM      8  N   UNL A   1      30.612  26.938  25.133  1.00  0.00    -0.327 N 
ATOM      9  C   UNL A   1      30.710  25.942  26.016  1.00  0.00     0.315 C 
ATOM     10  H   UNL A   1      29.700  27.308  25.080  1.00  0.00     0.166 HD
ATOM     11  O   UNL A   1      29.692  25.614  26.628  1.00  0.00    -0.249 OA
ATOM     12  N   UNL A   1      31.843  25.283  26.272  1.00  0.00    -0.338 N 
ATOM     13  H   UNL A   1      31.736  24.580  26.953  1.00  0.00     0.165 HD
BRANCH  12  14
ATOM     14  C   UNL A   1      33.197  25.379  25.765  1.00  0.00     0.122 C 
BRANCH  14  15
ATOM     15  C   UNL A   1      33.445  24.497  24.546  1.00  0.00     0.060 C 
BRANCH  15  16
ATOM     16  C   UNL A   1      34.823  23.900  24.565  1.00  0.00    -0.010 A 
ATOM     17  C   UNL A   1      35.669  24.112  25.664  1.00  0.00     0.007 A 
ATOM     18  C   UNL A   1      35.298  23.164  23.480  1.00  0.00     0.126 A 
ATOM     19  C   UNL A   1      36.968  23.602  25.660  1.00  0.00     0.000 A 
ATOM     20  C   UNL A   1      36.588  22.647  23.473  1.00  0.00     0.039 A 
ATOM     21  F   UNL A   1      34.511  22.958  22.415  1.00  0.00    -0.207 F 
ATOM     22  C   UNL A   1      37.426  22.869  24.565  1.00  0.00     0.003 A 
ENDBRANCH  15  16
ENDBRANCH  14  15
ENDBRANCH  12  14
ENDBRANCH   6   8
ENDBRANCH   3   6
ENDBRANCH   1   2
BRANCH   1  23
ATOM     23  C   UNL A   1      33.678  29.629  27.103  1.00  0.00     0.042 C 
BRANCH  23  24
ATOM     24  C   UNL A   1      35.072  29.611  27.703  1.00  0.00     0.118 C 
BRANCH  24  25
ATOM     25  N   UNL A   1      35.158  30.334  28.968  1.00  0.00    -0.352 N 
ATOM     26  C   UNL A   1      36.207  30.379  29.857  1.00  0.00     0.251 C 
ATOM     27  H   UNL A   1      34.361  30.857  29.217  1.00  0.00     0.163 HD
ATOM     28  O   UNL A   1      36.074  30.891  30.959  1.00  0.00    -0.269 OA
BRANCH  26  29
ATOM     29  C   UNL A   1      37.486  29.768  29.448  1.00  0.00     0.039 A 
ATOM     30  C   UNL A   1      37.923  29.902  28.131  1.00  0.00     0.014 A 
ATOM     31  C   UNL A   1      38.291  29.158  30.413  1.00  0.00     0.014 A 
ATOM     32  C   UNL A   1      39.213  29.490  27.798  1.00  0.00     0.010 A 
ATOM     33  C   UNL A   1      39.608  28.859  30.107  1.00  0.00     0.010 A 
ATOM     34  C   UNL A   1      40.079  29.008  28.794  1.00  0.00    -0.014 A 
BRANCH  34  35
ATOM     35  C   UNL A   1      41.476  28.607  28.497  1.00  0.00     0.031 A 
ATOM     36  C   UNL A   1      42.555  29.655  28.518  1.00  0.00     0.074 A 
ATOM     37  C   UNL A   1      41.756  27.342  28.128  1.00  0.00     0.049 A 
ATOM     38  N   UNL A   1      43.803  29.565  28.142  1.00  0.00    -0.248 NA
ATOM     39  C   UNL A   1      42.166  31.000  28.981  1.00  0.00     0.031 C 
ATOM     40  C   UNL A   1      40.785  26.250  28.026  1.00  0.00     0.029 A 
ATOM     41  N   UNL A   1      42.944  26.762  27.761  1.00  0.00    -0.354 N 
ATOM     42  C   UNL A   1      44.334  30.840  28.293  1.00  0.00     0.074 A 
ATOM     43  C   UNL A   1      43.260  31.702  28.732  1.00  0.00     0.031 C 
ATOM     44  C   UNL A   1      41.423  25.126  27.657  1.00  0.00     0.029 A 
ATOM     45  C   UNL A   1      42.836  25.425  27.453  1.00  0.00     0.049 A 
ATOM     46  H   UNL A   1      43.795  27.256  27.721  1.00  0.00     0.167 HD
ATOM     47  C   UNL A   1      45.611  31.249  28.117  1.00  0.00     0.037 A 
ATOM     48  C   UNL A   1      43.772  24.545  27.049  1.00  0.00     0.037 A 
ATOM     49  C   UNL A   1      46.684  30.369  27.742  1.00  0.00     0.049 A 
ATOM     50  C   UNL A   1      45.191  25.016  26.880  1.00  0.00     0.074 A 
ATOM     51  C   UNL A   1      48.025  30.668  27.593  1.00  0.00     0.029 A 
ATOM     52  N   UNL A   1      46.539  29.017  27.473  1.00  0.00    -0.354 N 
ATOM     53  N   UNL A   1      45.685  26.219  27.058  1.00  0.00    -0.248 NA
ATOM     54  C   UNL A   1      46.181  24.017  26.457  1.00  0.00     0.031 C 
ATOM     55  C   UNL A   1      48.688  29.500  27.205  1.00  0.00     0.029 A 
ATOM     56  C   UNL A   1      47.766  28.466  27.153  1.00  0.00     0.049 A 
ATOM     57  H   UNL A   1      45.688  28.522  27.503  1.00  0.00     0.167 HD
ATOM     58  C   UNL A   1      47.045  26.116  26.793  1.00  0.00     0.074 A 
ATOM     59  C   UNL A   1      47.300  24.732  26.449  1.00  0.00     0.031 C 
ATOM     60  C   UNL A   1      47.997  27.080  26.832  1.00  0.00     0.037 A 
BRANCH  47  61
ATOM     61  C   UNL A   1      45.920  32.699  28.362  1.00  0.00     0.058 A 
ATOM     62  C   UNL A   1      45.880  33.626  27.310  1.00  0.00     0.135 A 
ATOM     63  C   UNL A   1      46.294  33.164  29.633  1.00  0.00     0.135 A 
ATOM     64  F   UNL A   1      45.518  33.236  26.076  1.00  0.00    -0.206 F 
ATOM     65  C   UNL A   1      46.210  34.963  27.506  1.00  0.00     0.059 A 
ATOM     66  C   UNL A   1      46.601  34.502  29.858  1.00  0.00     0.059 A 
ATOM     67  F   UNL A   1      46.322  32.324  30.680  1.00  0.00    -0.206 F 
ATOM     68  C   UNL A   1      46.571  35.391  28.785  1.00  0.00     0.060 A 
BRANCH  68  69
ATOM     69  S   UNL A   1      46.960  37.136  29.034  1.00  0.00     0.124 S 
ATOM     70  O   UNL A   1      47.810  37.087  30.217  1.00  0.00    -0.237 OA
ATOM     71  O   UNL A   1      47.625  37.484  27.782  1.00  0.00    -0.237 OA
ATOM     72  O   UNL A   1      45.649  37.750  29.226  1.00  0.00    -0.744 OA
ENDBRANCH  68  69
ENDBRANCH  47  61
BRANCH  48  73
ATOM     73  C   UNL A   1      43.400  23.123  26.822  1.00  0.00     0.058 A 
ATOM     74  C   UNL A   1      43.114  22.258  27.888  1.00  0.00     0.135 A 
ATOM     75  C   UNL A   1      43.367  22.592  25.523  1.00  0.00     0.135 A 
ATOM     76  F   UNL A   1      43.143  22.713  29.150  1.00  0.00    -0.206 F 
ATOM     77  C   UNL A   1      42.830  20.912  27.678  1.00  0.00     0.059 A 
ATOM     78  C   UNL A   1      43.065  21.254  25.285  1.00  0.00     0.059 A 
ATOM     79  F   UNL A   1      43.624  23.384  24.470  1.00  0.00    -0.206 F 
ATOM     80  C   UNL A   1      42.814  20.418  26.372  1.00  0.00     0.060 A 
BRANCH  80  81
ATOM     81  S   UNL A   1      42.466  18.665  26.120  1.00  0.00     0.124 S 
ATOM     82  O   UNL A   1      41.063  18.700  25.722  1.00  0.00    -0.237 OA
ATOM     83  O   UNL A   1      43.416  18.311  25.071  1.00  0.00    -0.237 OA
ATOM     84  O   UNL A   1      42.732  18.075  27.429  1.00  0.00    -0.744 OA
ENDBRANCH  80  81
ENDBRANCH  48  73
BRANCH  60  85
ATOM     85  C   UNL A   1      49.412  26.681  26.528  1.00  0.00     0.058 A 
ATOM     86  C   UNL A   1      49.920  26.814  25.225  1.00  0.00     0.135 A 
ATOM     87  C   UNL A   1      50.223  26.065  27.493  1.00  0.00     0.135 A 
ATOM     88  F   UNL A   1      49.179  27.391  24.265  1.00  0.00    -0.206 F 
ATOM     89  C   UNL A   1      51.173  26.323  24.883  1.00  0.00     0.059 A 
ATOM     90  C   UNL A   1      51.492  25.588  27.178  1.00  0.00     0.059 A 
ATOM     91  F   UNL A   1      49.785  25.926  28.754  1.00  0.00    -0.206 F 
ATOM     92  C   UNL A   1      51.948  25.702  25.864  1.00  0.00     0.060 A 
BRANCH  92  93
ATOM     93  S   UNL A   1      53.567  25.053  25.397  1.00  0.00     0.124 S 
ATOM     94  O   UNL A   1      54.392  25.475  26.524  1.00  0.00    -0.237 OA
ATOM     95  O   UNL A   1      53.310  23.620  25.301  1.00  0.00    -0.237 OA
ATOM     96  O   UNL A   1      53.846  25.720  24.129  1.00  0.00    -0.744 OA
ENDBRANCH  92  93
ENDBRANCH  60  85
ENDBRANCH  34  35
ENDBRANCH  26  29
ENDBRANCH  24  25
ENDBRANCH  23  24
ENDBRANCH   1  23
TORSDOF 17
ENDMDL
