MODEL 1
REMARK VINA RESULT:     -11.4      0.000      0.000
REMARK SMILES CCc1cccc(-c2ccc([C@@H](C)C(=O)NCCCNC(=O)c3ccc(-c4c5nc(c(-c6c(F)cc(S(=O)(=O)[O-])cc6F)c6ccc([nH]6)c(-c6c(F)cc(S(=O)(=O)[O-])cc6F)c6nc(c(-c7c(F)cc(S(=O)(=O)[O-])cc7F)c7ccc4[nH]7)C=C6)C=C5)cc3)cc2)c1
REMARK SMILES IDX 18 1 17 2 16 3 14 4 15 5 12 7 13 8 11 9 8 10 9 11 90 12
REMARK SMILES IDX 10 13 89 14 7 15 3 16 4 17 91 18 5 19 6 20 2 21 1 22 19 23
REMARK SMILES IDX 20 24 21 25 22 27 23 28 24 29 88 30 25 31 87 32 26 33 27 34
REMARK SMILES IDX 28 35 81 36 29 37 86 38 80 39 82 40 30 41 85 42 79 43 78 44
REMARK SMILES IDX 31 46 65 47 44 48 64 49 45 50 48 51 63 52 83 53 46 54 47 55
REMARK SMILES IDX 62 57 84 58 49 59 32 60 33 61 42 62 34 63 35 64 41 65 43 66
REMARK SMILES IDX 36 67 37 68 38 69 39 70 40 71 66 72 67 73 76 74 68 75 69 76
REMARK SMILES IDX 75 77 77 78 70 79 71 80 72 81 73 82 74 83 50 84 51 85 60 86
REMARK SMILES IDX 52 87 53 88 59 89 61 90 54 91 55 92 56 93 57 94 58 95
REMARK H PARENT 16 6 20 26 82 45 48 56
REMARK Flexibility Score: inf
ROOT
ATOM      1  C   UNL A   1      33.009  28.277  25.813  1.00  0.00     0.042 C 
ENDROOT
BRANCH   1   2
ATOM      2  C   UNL A   1      31.541  28.670  25.671  1.00  0.00     0.117 C 
BRANCH   2   3
ATOM      3  N   UNL A   1      31.216  29.133  24.335  1.00  0.00    -0.356 N 
ATOM      4  C   UNL A   1      30.734  28.487  23.239  1.00  0.00     0.227 C 
ATOM      5  O   UNL A   1      30.598  29.176  22.219  1.00  0.00    -0.274 OA
ATOM      6  H   UNL A   1      31.374  30.094  24.197  1.00  0.00     0.163 HD
BRANCH   4   7
ATOM      7  C   UNL A   1      30.339  27.003  23.215  1.00  0.00     0.105 C 
ATOM      8  C   UNL A   1      28.990  26.702  23.866  1.00  0.00     0.023 C 
BRANCH   7   9
ATOM      9  C   UNL A   1      31.473  26.060  23.581  1.00  0.00    -0.036 A 
ATOM     10  C   UNL A   1      33.718  24.454  24.334  1.00  0.00    -0.018 A 
ATOM     11  C   UNL A   1      32.488  24.363  25.004  1.00  0.00     0.009 A 
ATOM     12  C   UNL A   1      33.780  25.338  23.246  1.00  0.00     0.009 A 
ATOM     13  C   UNL A   1      31.379  25.120  24.610  1.00  0.00     0.005 A 
ATOM     14  C   UNL A   1      32.689  26.142  22.889  1.00  0.00     0.005 A 
BRANCH  10  15
ATOM     15  C   UNL A   1      34.891  23.657  24.767  1.00  0.00    -0.018 A 
ATOM     16  C   UNL A   1      36.011  21.478  25.038  1.00  0.00    -0.048 A 
ATOM     17  C   UNL A   1      37.126  22.134  25.575  1.00  0.00     0.004 A 
ATOM     18  C   UNL A   1      34.919  22.255  24.615  1.00  0.00     0.012 A 
ATOM     19  C   UNL A   1      37.134  23.518  25.720  1.00  0.00     0.001 A 
ATOM     20  C   UNL A   1      36.023  24.267  25.332  1.00  0.00     0.009 A 
BRANCH  16  21
ATOM     21  C   UNL A   1      36.060  19.972  24.915  1.00  0.00     0.032 C 
ATOM     22  C   UNL A   1      37.445  19.336  24.910  1.00  0.00     0.009 C 
ENDBRANCH  16  21
ENDBRANCH  10  15
ENDBRANCH   7   9
ENDBRANCH   4   7
ENDBRANCH   2   3
ENDBRANCH   1   2
BRANCH   1  23
ATOM     23  C   UNL A   1      33.571  28.490  27.214  1.00  0.00     0.118 C 
BRANCH  23  24
ATOM     24  N   UNL A   1      33.560  29.896  27.603  1.00  0.00    -0.352 N 
ATOM     25  C   UNL A   1      34.506  30.648  28.259  1.00  0.00     0.251 C 
ATOM     26  H   UNL A   1      32.743  30.385  27.356  1.00  0.00     0.163 HD
ATOM     27  O   UNL A   1      34.194  31.755  28.690  1.00  0.00    -0.269 OA
BRANCH  25  28
ATOM     28  C   UNL A   1      35.879  30.136  28.462  1.00  0.00     0.039 A 
ATOM     29  C   UNL A   1      36.750  30.079  27.368  1.00  0.00     0.014 A 
ATOM     30  C   UNL A   1      36.306  29.683  29.712  1.00  0.00     0.014 A 
ATOM     31  C   UNL A   1      38.067  29.646  27.547  1.00  0.00     0.010 A 
ATOM     32  C   UNL A   1      37.638  29.326  29.906  1.00  0.00     0.010 A 
ATOM     33  C   UNL A   1      38.535  29.311  28.827  1.00  0.00    -0.014 A 
BRANCH  33  34
ATOM     34  C   UNL A   1      39.962  28.976  29.071  1.00  0.00     0.031 A 
ATOM     35  C   UNL A   1      40.919  30.032  29.552  1.00  0.00     0.074 A 
ATOM     36  C   UNL A   1      40.413  27.741  28.769  1.00  0.00     0.049 A 
ATOM     37  N   UNL A   1      42.216  29.962  29.707  1.00  0.00    -0.248 NA
ATOM     38  C   UNL A   1      40.346  31.349  29.878  1.00  0.00     0.031 C 
ATOM     39  C   UNL A   1      39.589  26.646  28.252  1.00  0.00     0.029 A 
ATOM     40  N   UNL A   1      41.675  27.205  28.829  1.00  0.00    -0.354 N 
ATOM     41  C   UNL A   1      42.617  31.224  30.131  1.00  0.00     0.074 A 
ATOM     42  C   UNL A   1      41.432  32.053  30.167  1.00  0.00     0.031 C 
ATOM     43  C   UNL A   1      40.364  25.569  28.052  1.00  0.00     0.029 A 
ATOM     44  C   UNL A   1      41.745  25.908  28.377  1.00  0.00     0.049 A 
ATOM     45  H   UNL A   1      42.456  27.701  29.164  1.00  0.00     0.167 HD
ATOM     46  C   UNL A   1      43.857  31.645  30.475  1.00  0.00     0.037 A 
ATOM     47  C   UNL A   1      42.804  25.091  28.217  1.00  0.00     0.037 A 
ATOM     48  C   UNL A   1      45.028  30.806  30.454  1.00  0.00     0.049 A 
ATOM     49  C   UNL A   1      44.176  25.589  28.581  1.00  0.00     0.074 A 
ATOM     50  C   UNL A   1      46.316  31.117  30.851  1.00  0.00     0.029 A 
ATOM     51  N   UNL A   1      45.056  29.494  30.002  1.00  0.00    -0.354 N 
ATOM     52  N   UNL A   1      44.527  26.762  29.053  1.00  0.00    -0.248 NA
ATOM     53  C   UNL A   1      45.298  24.660  28.386  1.00  0.00     0.031 C 
ATOM     54  C   UNL A   1      47.134  30.014  30.588  1.00  0.00     0.029 A 
ATOM     55  C   UNL A   1      46.346  28.995  30.077  1.00  0.00     0.049 A 
ATOM     56  H   UNL A   1      44.274  28.992  29.676  1.00  0.00     0.167 HD
ATOM     57  C   UNL A   1      45.905  26.705  29.228  1.00  0.00     0.074 A 
ATOM     58  C   UNL A   1      46.322  25.377  28.827  1.00  0.00     0.031 C 
ATOM     59  C   UNL A   1      46.747  27.669  29.675  1.00  0.00     0.037 A 
BRANCH  46  60
ATOM     60  C   UNL A   1      44.020  33.078  30.903  1.00  0.00     0.058 A 
ATOM     61  C   UNL A   1      43.880  33.469  32.245  1.00  0.00     0.135 A 
ATOM     62  C   UNL A   1      44.370  34.068  29.970  1.00  0.00     0.135 A 
ATOM     63  F   UNL A   1      43.535  32.567  33.179  1.00  0.00    -0.206 F 
ATOM     64  C   UNL A   1      44.053  34.790  32.641  1.00  0.00     0.059 A 
ATOM     65  C   UNL A   1      44.576  35.392  30.348  1.00  0.00     0.059 A 
ATOM     66  F   UNL A   1      44.517  33.752  28.673  1.00  0.00    -0.206 F 
ATOM     67  C   UNL A   1      44.402  35.746  31.685  1.00  0.00     0.060 A 
BRANCH  67  68
ATOM     68  S   UNL A   1      44.633  37.454  32.220  1.00  0.00     0.124 S 
ATOM     69  O   UNL A   1      44.099  37.408  33.578  1.00  0.00    -0.237 OA
ATOM     70  O   UNL A   1      46.079  37.621  32.114  1.00  0.00    -0.237 OA
ATOM     71  O   UNL A   1      43.844  38.221  31.262  1.00  0.00    -0.744 OA
ENDBRANCH  67  68
ENDBRANCH  46  60
BRANCH  47  72
ATOM     72  C   UNL A   1      42.607  23.717  27.679  1.00  0.00     0.058 A 
ATOM     73  C   UNL A   1      42.617  23.472  26.299  1.00  0.00     0.135 A 
ATOM     74  C   UNL A   1      42.426  22.620  28.536  1.00  0.00     0.135 A 
ATOM     75  F   UNL A   1      42.778  24.489  25.439  1.00  0.00    -0.206 F 
ATOM     76  C   UNL A   1      42.444  22.191  25.784  1.00  0.00     0.059 A 
ATOM     77  C   UNL A   1      42.279  21.326  28.047  1.00  0.00     0.059 A 
ATOM     78  F   UNL A   1      42.420  22.798  29.866  1.00  0.00    -0.206 F 
ATOM     79  C   UNL A   1      42.280  21.124  26.669  1.00  0.00     0.060 A 
BRANCH  79  80
ATOM     80  S   UNL A   1      42.112  19.457  25.996  1.00  0.00     0.124 S 
ATOM     81  O   UNL A   1      42.616  18.644  27.096  1.00  0.00    -0.237 OA
ATOM     82  O   UNL A   1      40.678  19.371  25.740  1.00  0.00    -0.237 OA
ATOM     83  O   UNL A   1      42.952  19.494  24.801  1.00  0.00    -0.744 OA
ENDBRANCH  79  80
ENDBRANCH  47  72
BRANCH  59  84
ATOM     84  C   UNL A   1      48.208  27.326  29.771  1.00  0.00     0.058 A 
ATOM     85  C   UNL A   1      49.104  27.638  28.737  1.00  0.00     0.135 A 
ATOM     86  C   UNL A   1      48.731  26.753  30.942  1.00  0.00     0.135 A 
ATOM     87  F   UNL A   1      48.654  28.176  27.592  1.00  0.00    -0.206 F 
ATOM     88  C   UNL A   1      50.467  27.388  28.857  1.00  0.00     0.059 A 
ATOM     89  C   UNL A   1      50.094  26.521  31.095  1.00  0.00     0.059 A 
ATOM     90  F   UNL A   1      47.917  26.441  31.963  1.00  0.00    -0.206 F 
ATOM     91  C   UNL A   1      50.954  26.838  30.044  1.00  0.00     0.060 A 
BRANCH  91  92
ATOM     92  S   UNL A   1      52.733  26.581  30.211  1.00  0.00     0.124 S 
ATOM     93  O   UNL A   1      53.182  27.898  30.649  1.00  0.00    -0.237 OA
ATOM     94  O   UNL A   1      52.801  25.523  31.214  1.00  0.00    -0.237 OA
ATOM     95  O   UNL A   1      53.149  26.191  28.866  1.00  0.00    -0.744 OA
ENDBRANCH  91  92
ENDBRANCH  59  84
ENDBRANCH  33  34
ENDBRANCH  25  28
ENDBRANCH  23  24
ENDBRANCH   1  23
TORSDOF 16
ENDMDL
MODEL 2
REMARK VINA RESULT:     -11.4      2.190      2.918
REMARK SMILES CCc1cccc(-c2ccc([C@@H](C)C(=O)NCCCNC(=O)c3ccc(-c4c5nc(c(-c6c(F)cc(S(=O)(=O)[O-])cc6F)c6ccc([nH]6)c(-c6c(F)cc(S(=O)(=O)[O-])cc6F)c6nc(c(-c7c(F)cc(S(=O)(=O)[O-])cc7F)c7ccc4[nH]7)C=C6)C=C5)cc3)cc2)c1
REMARK SMILES IDX 18 1 17 2 16 3 14 4 15 5 12 7 13 8 11 9 8 10 9 11 90 12
REMARK SMILES IDX 10 13 89 14 7 15 3 16 4 17 91 18 5 19 6 20 2 21 1 22 19 23
REMARK SMILES IDX 20 24 21 25 22 27 23 28 24 29 88 30 25 31 87 32 26 33 27 34
REMARK SMILES IDX 28 35 81 36 29 37 86 38 80 39 82 40 30 41 85 42 79 43 78 44
REMARK SMILES IDX 31 46 65 47 44 48 64 49 45 50 48 51 63 52 83 53 46 54 47 55
REMARK SMILES IDX 62 57 84 58 49 59 32 60 33 61 42 62 34 63 35 64 41 65 43 66
REMARK SMILES IDX 36 67 37 68 38 69 39 70 40 71 66 72 67 73 76 74 68 75 69 76
REMARK SMILES IDX 75 77 77 78 70 79 71 80 72 81 73 82 74 83 50 84 51 85 60 86
REMARK SMILES IDX 52 87 53 88 59 89 61 90 54 91 55 92 56 93 57 94 58 95
REMARK H PARENT 16 6 20 26 82 45 48 56
REMARK Flexibility Score: inf
ROOT
ATOM      1  C   UNL A   1      33.759  28.890  27.280  1.00  0.00     0.042 C 
ENDROOT
BRANCH   1   2
ATOM      2  C   UNL A   1      32.735  29.616  26.411  1.00  0.00     0.117 C 
BRANCH   2   3
ATOM      3  N   UNL A   1      33.171  29.751  25.034  1.00  0.00    -0.356 N 
ATOM      4  C   UNL A   1      33.036  28.939  23.951  1.00  0.00     0.227 C 
ATOM      5  O   UNL A   1      33.565  29.337  22.905  1.00  0.00    -0.274 OA
ATOM      6  H   UNL A   1      33.654  30.588  24.849  1.00  0.00     0.163 HD
BRANCH   4   7
ATOM      7  C   UNL A   1      32.262  27.612  23.958  1.00  0.00     0.105 C 
ATOM      8  C   UNL A   1      30.989  27.631  24.802  1.00  0.00     0.023 C 
BRANCH   7   9
ATOM      9  C   UNL A   1      33.146  26.387  24.128  1.00  0.00    -0.036 A 
ATOM     10  C   UNL A   1      34.644  23.982  24.529  1.00  0.00    -0.018 A 
ATOM     11  C   UNL A   1      34.360  24.468  23.245  1.00  0.00     0.009 A 
ATOM     12  C   UNL A   1      34.197  24.758  25.611  1.00  0.00     0.009 A 
ATOM     13  C   UNL A   1      33.661  25.665  23.049  1.00  0.00     0.005 A 
ATOM     14  C   UNL A   1      33.444  25.924  25.417  1.00  0.00     0.005 A 
BRANCH  10  15
ATOM     15  C   UNL A   1      35.373  22.707  24.726  1.00  0.00    -0.018 A 
ATOM     16  C   UNL A   1      37.464  21.494  25.210  1.00  0.00    -0.048 A 
ATOM     17  C   UNL A   1      36.766  20.282  25.117  1.00  0.00     0.004 A 
ATOM     18  C   UNL A   1      36.748  22.691  25.041  1.00  0.00     0.012 A 
ATOM     19  C   UNL A   1      35.406  20.267  24.825  1.00  0.00     0.001 A 
ATOM     20  C   UNL A   1      34.722  21.466  24.620  1.00  0.00     0.009 A 
BRANCH  16  21
ATOM     21  C   UNL A   1      38.942  21.443  25.520  1.00  0.00     0.032 C 
ATOM     22  C   UNL A   1      39.464  22.477  26.511  1.00  0.00     0.009 C 
ENDBRANCH  16  21
ENDBRANCH  10  15
ENDBRANCH   7   9
ENDBRANCH   4   7
ENDBRANCH   2   3
ENDBRANCH   1   2
BRANCH   1  23
ATOM     23  C   UNL A   1      35.095  29.615  27.394  1.00  0.00     0.118 C 
BRANCH  23  24
ATOM     24  N   UNL A   1      35.175  30.435  28.598  1.00  0.00    -0.352 N 
ATOM     25  C   UNL A   1      36.173  30.546  29.538  1.00  0.00     0.251 C 
ATOM     26  H   UNL A   1      34.386  30.999  28.765  1.00  0.00     0.163 HD
ATOM     27  O   UNL A   1      35.934  31.123  30.595  1.00  0.00    -0.269 OA
BRANCH  25  28
ATOM     28  C   UNL A   1      37.514  29.971  29.295  1.00  0.00     0.039 A 
ATOM     29  C   UNL A   1      37.989  29.890  27.981  1.00  0.00     0.014 A 
ATOM     30  C   UNL A   1      38.294  29.483  30.346  1.00  0.00     0.014 A 
ATOM     31  C   UNL A   1      39.274  29.397  27.734  1.00  0.00     0.010 A 
ATOM     32  C   UNL A   1      39.601  29.066  30.107  1.00  0.00     0.010 A 
ATOM     33  C   UNL A   1      40.108  29.025  28.799  1.00  0.00    -0.014 A 
BRANCH  33  34
ATOM     34  C   UNL A   1      41.522  28.625  28.578  1.00  0.00     0.031 A 
ATOM     35  C   UNL A   1      42.613  29.659  28.578  1.00  0.00     0.074 A 
ATOM     36  C   UNL A   1      41.807  27.339  28.286  1.00  0.00     0.049 A 
ATOM     37  N   UNL A   1      43.881  29.520  28.287  1.00  0.00    -0.248 NA
ATOM     38  C   UNL A   1      42.224  31.036  28.925  1.00  0.00     0.031 C 
ATOM     39  C   UNL A   1      40.826  26.253  28.212  1.00  0.00     0.029 A 
ATOM     40  N   UNL A   1      42.997  26.731  27.973  1.00  0.00    -0.354 N 
ATOM     41  C   UNL A   1      44.438  30.789  28.400  1.00  0.00     0.074 A 
ATOM     42  C   UNL A   1      43.362  31.693  28.742  1.00  0.00     0.031 C 
ATOM     43  C   UNL A   1      41.455  25.113  27.886  1.00  0.00     0.029 A 
ATOM     44  C   UNL A   1      42.872  25.393  27.678  1.00  0.00     0.049 A 
ATOM     45  H   UNL A   1      43.858  27.206  27.962  1.00  0.00     0.167 HD
ATOM     46  C   UNL A   1      45.731  31.162  28.248  1.00  0.00     0.037 A 
ATOM     47  C   UNL A   1      43.788  24.497  27.262  1.00  0.00     0.037 A 
ATOM     48  C   UNL A   1      46.800  30.250  27.926  1.00  0.00     0.049 A 
ATOM     49  C   UNL A   1      45.213  24.939  27.075  1.00  0.00     0.074 A 
ATOM     50  C   UNL A   1      48.153  30.515  27.821  1.00  0.00     0.029 A 
ATOM     51  N   UNL A   1      46.635  28.901  27.647  1.00  0.00    -0.354 N 
ATOM     52  N   UNL A   1      45.737  26.128  27.260  1.00  0.00    -0.248 NA
ATOM     53  C   UNL A   1      46.173  23.924  26.618  1.00  0.00     0.031 C 
ATOM     54  C   UNL A   1      48.800  29.340  27.424  1.00  0.00     0.029 A 
ATOM     55  C   UNL A   1      47.857  28.329  27.334  1.00  0.00     0.049 A 
ATOM     56  H   UNL A   1      45.775  28.420  27.668  1.00  0.00     0.167 HD
ATOM     57  C   UNL A   1      47.088  26.000  26.959  1.00  0.00     0.074 A 
ATOM     58  C   UNL A   1      47.305  24.614  26.596  1.00  0.00     0.031 C 
ATOM     59  C   UNL A   1      48.058  26.946  26.976  1.00  0.00     0.037 A 
BRANCH  46  60
ATOM     60  C   UNL A   1      46.070  32.617  28.426  1.00  0.00     0.058 A 
ATOM     61  C   UNL A   1      46.035  33.520  27.352  1.00  0.00     0.135 A 
ATOM     62  C   UNL A   1      46.386  33.126  29.697  1.00  0.00     0.135 A 
ATOM     63  F   UNL A   1      45.750  33.086  26.113  1.00  0.00    -0.206 F 
ATOM     64  C   UNL A   1      46.326  34.869  27.525  1.00  0.00     0.059 A 
ATOM     65  C   UNL A   1      46.654  34.478  29.898  1.00  0.00     0.059 A 
ATOM     66  F   UNL A   1      46.435  32.308  30.760  1.00  0.00    -0.206 F 
ATOM     67  C   UNL A   1      46.635  35.339  28.802  1.00  0.00     0.060 A 
BRANCH  67  68
ATOM     68  S   UNL A   1      47.000  37.094  29.008  1.00  0.00     0.124 S 
ATOM     69  O   UNL A   1      46.079  37.459  30.080  1.00  0.00    -0.237 OA
ATOM     70  O   UNL A   1      48.415  37.079  29.366  1.00  0.00    -0.237 OA
ATOM     71  O   UNL A   1      46.694  37.663  27.699  1.00  0.00    -0.744 OA
ENDBRANCH  67  68
ENDBRANCH  46  60
BRANCH  47  72
ATOM     72  C   UNL A   1      43.380  23.093  26.986  1.00  0.00     0.058 A 
ATOM     73  C   UNL A   1      43.298  22.606  25.674  1.00  0.00     0.135 A 
ATOM     74  C   UNL A   1      43.084  22.203  28.032  1.00  0.00     0.135 A 
ATOM     75  F   UNL A   1      43.562  23.420  24.640  1.00  0.00    -0.206 F 
ATOM     76  C   UNL A   1      42.927  21.293  25.405  1.00  0.00     0.059 A 
ATOM     77  C   UNL A   1      42.740  20.878  27.790  1.00  0.00     0.059 A 
ATOM     78  F   UNL A   1      43.159  22.614  29.307  1.00  0.00    -0.206 F 
ATOM     79  C   UNL A   1      42.654  20.435  26.472  1.00  0.00     0.060 A 
BRANCH  79  80
ATOM     80  S   UNL A   1      42.230  18.716  26.116  1.00  0.00     0.124 S 
ATOM     81  O   UNL A   1      42.537  18.069  27.386  1.00  0.00    -0.237 OA
ATOM     82  O   UNL A   1      40.815  18.814  25.773  1.00  0.00    -0.237 OA
ATOM     83  O   UNL A   1      43.114  18.378  25.003  1.00  0.00    -0.744 OA
ENDBRANCH  79  80
ENDBRANCH  47  72
BRANCH  59  84
ATOM     84  C   UNL A   1      49.452  26.520  26.607  1.00  0.00     0.058 A 
ATOM     85  C   UNL A   1      49.945  26.677  25.302  1.00  0.00     0.135 A 
ATOM     86  C   UNL A   1      50.330  26.027  27.585  1.00  0.00     0.135 A 
ATOM     87  F   UNL A   1      49.143  27.133  24.327  1.00  0.00    -0.206 F 
ATOM     88  C   UNL A   1      51.258  26.352  24.978  1.00  0.00     0.059 A 
ATOM     89  C   UNL A   1      51.655  25.722  27.290  1.00  0.00     0.059 A 
ATOM     90  F   UNL A   1      49.910  25.864  28.850  1.00  0.00    -0.206 F 
ATOM     91  C   UNL A   1      52.108  25.885  25.981  1.00  0.00     0.060 A 
BRANCH  91  92
ATOM     92  S   UNL A   1      53.828  25.530  25.560  1.00  0.00     0.124 S 
ATOM     93  O   UNL A   1      54.393  25.213  26.867  1.00  0.00    -0.237 OA
ATOM     94  O   UNL A   1      53.696  24.406  24.637  1.00  0.00    -0.237 OA
ATOM     95  O   UNL A   1      54.296  26.776  24.959  1.00  0.00    -0.744 OA
ENDBRANCH  91  92
ENDBRANCH  59  84
ENDBRANCH  33  34
ENDBRANCH  25  28
ENDBRANCH  23  24
ENDBRANCH   1  23
TORSDOF 16
ENDMDL
MODEL 3
REMARK VINA RESULT:     -11.3      3.165      6.686
REMARK SMILES CCc1cccc(-c2ccc([C@@H](C)C(=O)NCCCNC(=O)c3ccc(-c4c5nc(c(-c6c(F)cc(S(=O)(=O)[O-])cc6F)c6ccc([nH]6)c(-c6c(F)cc(S(=O)(=O)[O-])cc6F)c6nc(c(-c7c(F)cc(S(=O)(=O)[O-])cc7F)c7ccc4[nH]7)C=C6)C=C5)cc3)cc2)c1
REMARK SMILES IDX 18 1 17 2 16 3 14 4 15 5 12 7 13 8 11 9 8 10 9 11 90 12
REMARK SMILES IDX 10 13 89 14 7 15 3 16 4 17 91 18 5 19 6 20 2 21 1 22 19 23
REMARK SMILES IDX 20 24 21 25 22 27 23 28 24 29 88 30 25 31 87 32 26 33 27 34
REMARK SMILES IDX 28 35 81 36 29 37 86 38 80 39 82 40 30 41 85 42 79 43 78 44
REMARK SMILES IDX 31 46 65 47 44 48 64 49 45 50 48 51 63 52 83 53 46 54 47 55
REMARK SMILES IDX 62 57 84 58 49 59 32 60 33 61 42 62 34 63 35 64 41 65 43 66
REMARK SMILES IDX 36 67 37 68 38 69 39 70 40 71 66 72 67 73 76 74 68 75 69 76
REMARK SMILES IDX 75 77 77 78 70 79 71 80 72 81 73 82 74 83 50 84 51 85 60 86
REMARK SMILES IDX 52 87 53 88 59 89 61 90 54 91 55 92 56 93 57 94 58 95
REMARK H PARENT 16 6 20 26 82 45 48 56
REMARK Flexibility Score: inf
ROOT
ATOM      1  C   UNL A   1      34.609  33.565  29.978  1.00  0.00     0.042 C 
ENDROOT
BRANCH   1   2
ATOM      2  C   UNL A   1      34.705  33.053  31.413  1.00  0.00     0.117 C 
BRANCH   2   3
ATOM      3  N   UNL A   1      35.389  33.984  32.290  1.00  0.00    -0.356 N 
ATOM      4  C   UNL A   1      36.691  34.090  32.669  1.00  0.00     0.227 C 
ATOM      5  O   UNL A   1      36.950  34.992  33.477  1.00  0.00    -0.274 OA
ATOM      6  H   UNL A   1      34.800  34.666  32.686  1.00  0.00     0.163 HD
BRANCH   4   7
ATOM      7  C   UNL A   1      37.821  33.194  32.138  1.00  0.00     0.105 C 
ATOM      8  C   UNL A   1      38.471  32.308  33.198  1.00  0.00     0.023 C 
BRANCH   7   9
ATOM      9  C   UNL A   1      38.779  33.907  31.198  1.00  0.00    -0.036 A 
ATOM     10  C   UNL A   1      40.715  35.087  29.452  1.00  0.00    -0.018 A 
ATOM     11  C   UNL A   1      39.464  34.658  28.984  1.00  0.00     0.009 A 
ATOM     12  C   UNL A   1      40.954  34.953  30.829  1.00  0.00     0.009 A 
ATOM     13  C   UNL A   1      38.503  34.117  29.845  1.00  0.00     0.005 A 
ATOM     14  C   UNL A   1      40.016  34.355  31.682  1.00  0.00     0.005 A 
BRANCH  10  15
ATOM     15  C   UNL A   1      41.732  35.647  28.530  1.00  0.00    -0.018 A 
ATOM     16  C   UNL A   1      43.323  35.354  26.671  1.00  0.00    -0.048 A 
ATOM     17  C   UNL A   1      43.659  36.711  26.762  1.00  0.00     0.004 A 
ATOM     18  C   UNL A   1      42.341  34.849  27.540  1.00  0.00     0.012 A 
ATOM     19  C   UNL A   1      43.062  37.527  27.718  1.00  0.00     0.001 A 
ATOM     20  C   UNL A   1      42.120  36.997  28.599  1.00  0.00     0.009 A 
BRANCH  16  21
ATOM     21  C   UNL A   1      44.013  34.518  25.618  1.00  0.00     0.032 C 
ATOM     22  C   UNL A   1      44.061  33.015  25.868  1.00  0.00     0.009 C 
ENDBRANCH  16  21
ENDBRANCH  10  15
ENDBRANCH   7   9
ENDBRANCH   4   7
ENDBRANCH   2   3
ENDBRANCH   1   2
BRANCH   1  23
ATOM     23  C   UNL A   1      35.312  32.675  28.959  1.00  0.00     0.118 C 
BRANCH  23  24
ATOM     24  N   UNL A   1      34.489  31.539  28.559  1.00  0.00    -0.352 N 
ATOM     25  C   UNL A   1      34.846  30.264  28.188  1.00  0.00     0.251 C 
ATOM     26  H   UNL A   1      33.521  31.714  28.553  1.00  0.00     0.163 HD
ATOM     27  O   UNL A   1      34.005  29.536  27.668  1.00  0.00    -0.269 OA
BRANCH  25  28
ATOM     28  C   UNL A   1      36.225  29.769  28.396  1.00  0.00     0.039 A 
ATOM     29  C   UNL A   1      37.115  29.770  27.315  1.00  0.00     0.014 A 
ATOM     30  C   UNL A   1      36.639  29.276  29.635  1.00  0.00     0.014 A 
ATOM     31  C   UNL A   1      38.436  29.355  27.501  1.00  0.00     0.010 A 
ATOM     32  C   UNL A   1      37.975  28.937  29.838  1.00  0.00     0.010 A 
ATOM     33  C   UNL A   1      38.890  28.979  28.775  1.00  0.00    -0.014 A 
BRANCH  33  34
ATOM     34  C   UNL A   1      40.318  28.661  29.031  1.00  0.00     0.031 A 
ATOM     35  C   UNL A   1      41.249  29.718  29.559  1.00  0.00     0.074 A 
ATOM     36  C   UNL A   1      40.794  27.444  28.699  1.00  0.00     0.049 A 
ATOM     37  N   UNL A   1      42.545  29.665  29.732  1.00  0.00    -0.248 NA
ATOM     38  C   UNL A   1      40.649  31.014  29.916  1.00  0.00     0.031 C 
ATOM     39  C   UNL A   1      39.998  26.351  28.136  1.00  0.00     0.029 A 
ATOM     40  N   UNL A   1      42.065  26.927  28.762  1.00  0.00    -0.354 N 
ATOM     41  C   UNL A   1      42.918  30.919  30.200  1.00  0.00     0.074 A 
ATOM     42  C   UNL A   1      41.718  31.727  30.243  1.00  0.00     0.031 C 
ATOM     43  C   UNL A   1      40.794  25.293  27.916  1.00  0.00     0.029 A 
ATOM     44  C   UNL A   1      42.164  25.646  28.273  1.00  0.00     0.049 A 
ATOM     45  H   UNL A   1      42.831  27.426  29.125  1.00  0.00     0.167 HD
ATOM     46  C   UNL A   1      44.145  31.351  30.576  1.00  0.00     0.037 A 
ATOM     47  C   UNL A   1      43.239  24.852  28.104  1.00  0.00     0.037 A 
ATOM     48  C   UNL A   1      45.331  30.532  30.548  1.00  0.00     0.049 A 
ATOM     49  C   UNL A   1      44.597  25.362  28.505  1.00  0.00     0.074 A 
ATOM     50  C   UNL A   1      46.607  30.852  30.974  1.00  0.00     0.029 A 
ATOM     51  N   UNL A   1      45.388  29.235  30.057  1.00  0.00    -0.354 N 
ATOM     52  N   UNL A   1      44.920  26.525  29.018  1.00  0.00    -0.248 NA
ATOM     53  C   UNL A   1      45.737  24.458  28.299  1.00  0.00     0.031 C 
ATOM     54  C   UNL A   1      47.447  29.772  30.691  1.00  0.00     0.029 A 
ATOM     55  C   UNL A   1      46.685  28.756  30.137  1.00  0.00     0.049 A 
ATOM     56  H   UNL A   1      44.620  28.730  29.704  1.00  0.00     0.167 HD
ATOM     57  C   UNL A   1      46.296  26.486  29.212  1.00  0.00     0.074 A 
ATOM     58  C   UNL A   1      46.742  25.178  28.778  1.00  0.00     0.031 C 
ATOM     59  C   UNL A   1      47.115  27.450  29.701  1.00  0.00     0.037 A 
BRANCH  46  60
ATOM     60  C   UNL A   1      44.277  32.773  31.050  1.00  0.00     0.058 A 
ATOM     61  C   UNL A   1      44.679  33.805  30.188  1.00  0.00     0.135 A 
ATOM     62  C   UNL A   1      43.949  33.118  32.372  1.00  0.00     0.135 A 
ATOM     63  F   UNL A   1      45.016  33.531  28.917  1.00  0.00    -0.206 F 
ATOM     64  C   UNL A   1      44.777  35.122  30.623  1.00  0.00     0.059 A 
ATOM     65  C   UNL A   1      44.013  34.434  32.822  1.00  0.00     0.059 A 
ATOM     66  F   UNL A   1      43.558  32.172  33.241  1.00  0.00    -0.206 F 
ATOM     67  C   UNL A   1      44.441  35.427  31.943  1.00  0.00     0.060 A 
BRANCH  67  68
ATOM     68  S   UNL A   1      44.565  37.144  32.487  1.00  0.00     0.124 S 
ATOM     69  O   UNL A   1      43.692  37.142  33.657  1.00  0.00    -0.237 OA
ATOM     70  O   UNL A   1      45.992  37.281  32.762  1.00  0.00    -0.237 OA
ATOM     71  O   UNL A   1      44.074  37.902  31.341  1.00  0.00    -0.744 OA
ENDBRANCH  67  68
ENDBRANCH  46  60
BRANCH  47  72
ATOM     72  C   UNL A   1      43.074  23.492  27.522  1.00  0.00     0.058 A 
ATOM     73  C   UNL A   1      43.441  23.223  26.196  1.00  0.00     0.135 A 
ATOM     74  C   UNL A   1      42.565  22.431  28.287  1.00  0.00     0.135 A 
ATOM     75  F   UNL A   1      43.924  24.207  25.422  1.00  0.00    -0.206 F 
ATOM     76  C   UNL A   1      43.300  21.954  25.644  1.00  0.00     0.059 A 
ATOM     77  C   UNL A   1      42.441  21.147  27.767  1.00  0.00     0.059 A 
ATOM     78  F   UNL A   1      42.209  22.632  29.566  1.00  0.00    -0.206 F 
ATOM     79  C   UNL A   1      42.803  20.921  26.440  1.00  0.00     0.060 A 
BRANCH  79  80
ATOM     80  S   UNL A   1      42.677  19.264  25.734  1.00  0.00     0.124 S 
ATOM     81  O   UNL A   1      43.341  19.442  24.448  1.00  0.00    -0.237 OA
ATOM     82  O   UNL A   1      43.390  18.456  26.716  1.00  0.00    -0.237 OA
ATOM     83  O   UNL A   1      41.234  19.037  25.675  1.00  0.00    -0.744 OA
ENDBRANCH  79  80
ENDBRANCH  47  72
BRANCH  59  84
ATOM     84  C   UNL A   1      48.580  27.129  29.810  1.00  0.00     0.058 A 
ATOM     85  C   UNL A   1      49.492  27.520  28.817  1.00  0.00     0.135 A 
ATOM     86  C   UNL A   1      49.088  26.495  30.955  1.00  0.00     0.135 A 
ATOM     87  F   UNL A   1      49.056  28.119  27.698  1.00  0.00    -0.206 F 
ATOM     88  C   UNL A   1      50.856  27.289  28.953  1.00  0.00     0.059 A 
ATOM     89  C   UNL A   1      50.452  26.278  31.124  1.00  0.00     0.059 A 
ATOM     90  F   UNL A   1      48.259  26.105  31.936  1.00  0.00    -0.206 F 
ATOM     91  C   UNL A   1      51.328  26.675  30.115  1.00  0.00     0.060 A 
BRANCH  91  92
ATOM     92  S   UNL A   1      53.108  26.442  30.306  1.00  0.00     0.124 S 
ATOM     93  O   UNL A   1      53.540  27.777  30.704  1.00  0.00    -0.237 OA
ATOM     94  O   UNL A   1      53.177  25.418  31.346  1.00  0.00    -0.237 OA
ATOM     95  O   UNL A   1      53.540  26.011  28.980  1.00  0.00    -0.744 OA
ENDBRANCH  91  92
ENDBRANCH  59  84
ENDBRANCH  33  34
ENDBRANCH  25  28
ENDBRANCH  23  24
ENDBRANCH   1  23
TORSDOF 16
ENDMDL
