MODEL 1
REMARK VINA RESULT:     -10.3      0.000      0.000
REMARK SMILES O=C(CNS(=O)(=O)c1ccccc1)N[C@@H](CO)C(=O)NCCCNC(=O)c1ccc(-c2c3nc(c(-c4c(F)cc(S(=O)(=O)[O-])cc4F)c4ccc([nH]4)c(-c4c(F)cc(S(=O)(=O)[O-])cc4F)c4nc(c(-c5c(F)cc(S(=O)(=O)[O-])cc5F)c5ccc2[nH]5)C=C4)C=C3)cc1
REMARK SMILES IDX 21 1 20 2 18 3 19 4 15 6 14 7 1 8 2 9 3 11 4 12 5 14 6 15
REMARK SMILES IDX 7 16 8 17 9 18 13 19 10 20 12 21 11 22 16 23 17 24 22 26
REMARK SMILES IDX 23 27 24 28 25 29 26 31 27 32 28 33 92 34 29 35 91 36 30 37
REMARK SMILES IDX 31 38 32 39 85 40 33 41 90 42 84 43 86 44 34 45 89 46 83 47
REMARK SMILES IDX 82 48 35 50 69 51 48 52 68 53 49 54 52 55 67 56 87 57 50 58
REMARK SMILES IDX 51 59 66 61 88 62 53 63 36 64 37 65 46 66 38 67 39 68 45 69
REMARK SMILES IDX 47 70 40 71 41 72 42 73 43 74 44 75 70 76 71 77 80 78 72 79
REMARK SMILES IDX 73 80 79 81 81 82 74 83 75 84 76 85 77 86 78 87 54 88 55 89
REMARK SMILES IDX 64 90 56 91 57 92 63 93 65 94 58 95 59 96 60 97 61 98 62 99
REMARK H PARENT 20 5 14 10 4 13 17 25 24 30 86 49 52 60
REMARK Flexibility Score: inf
ROOT
ATOM      1  C   UNL A   1      33.036  34.568  28.394  1.00  0.00     0.117 C 
ENDROOT
BRANCH   1   2
ATOM      2  N   UNL A   1      32.800  35.894  28.934  1.00  0.00    -0.354 N 
ATOM      3  C   UNL A   1      32.965  36.396  30.188  1.00  0.00     0.244 C 
ATOM      4  O   UNL A   1      32.943  37.627  30.299  1.00  0.00    -0.273 OA
ATOM      5  H   UNL A   1      32.460  36.545  28.279  1.00  0.00     0.163 HD
BRANCH   3   6
ATOM      6  C   UNL A   1      33.244  35.515  31.417  1.00  0.00     0.197 C 
BRANCH   6   7
ATOM      7  N   UNL A   1      34.659  35.179  31.582  1.00  0.00    -0.341 N 
ATOM      8  O   UNL A   1      34.313  32.919  31.619  1.00  0.00    -0.274 OA
ATOM      9  C   UNL A   1      35.089  33.869  31.565  1.00  0.00     0.235 C 
ATOM     10  H   UNL A   1      35.316  35.902  31.708  1.00  0.00     0.164 HD
BRANCH   9  11
ATOM     11  C   UNL A   1      36.600  33.679  31.482  1.00  0.00     0.198 C 
BRANCH  11  12
ATOM     12  N   UNL A   1      37.321  34.693  32.285  1.00  0.00    -0.202 NA
ATOM     13  H   UNL A   1      36.742  35.532  32.328  1.00  0.00     0.141 HD
BRANCH  12  14
ATOM     14  S   UNL A   1      37.691  34.229  33.877  1.00  0.00     0.241 S 
ATOM     15  O   UNL A   1      38.746  35.103  34.335  1.00  0.00    -0.207 OA
ATOM     16  O   UNL A   1      36.406  34.154  34.532  1.00  0.00    -0.207 OA
BRANCH  14  17
ATOM     17  C   UNL A   1      38.333  32.584  33.761  1.00  0.00     0.082 A 
ATOM     18  C   UNL A   1      39.723  32.428  33.803  1.00  0.00     0.022 A 
ATOM     19  C   UNL A   1      37.498  31.475  33.604  1.00  0.00     0.022 A 
ATOM     20  C   UNL A   1      40.278  31.154  33.686  1.00  0.00     0.001 A 
ATOM     21  C   UNL A   1      38.062  30.205  33.475  1.00  0.00     0.001 A 
ATOM     22  C   UNL A   1      39.449  30.046  33.517  1.00  0.00     0.000 A 
ENDBRANCH  14  17
ENDBRANCH  12  14
ENDBRANCH  11  12
ENDBRANCH   9  11
ENDBRANCH   6   7
BRANCH   6  23
ATOM     23  C   UNL A   1      32.565  36.046  32.688  1.00  0.00     0.191 C 
BRANCH  23  24
ATOM     24  O   UNL A   1      31.223  36.482  32.476  1.00  0.00    -0.394 OA
ATOM     25  H   UNL A   1      31.209  37.160  31.783  1.00  0.00     0.210 HD
ENDBRANCH  23  24
ENDBRANCH   6  23
ENDBRANCH   3   6
ENDBRANCH   1   2
BRANCH   1  26
ATOM     26  C   UNL A   1      34.442  34.403  27.833  1.00  0.00     0.042 C 
BRANCH  26  27
ATOM     27  C   UNL A   1      35.109  33.067  28.144  1.00  0.00     0.118 C 
BRANCH  27  28
ATOM     28  N   UNL A   1      34.226  31.925  27.964  1.00  0.00    -0.352 N 
ATOM     29  C   UNL A   1      34.501  30.577  27.923  1.00  0.00     0.251 C 
ATOM     30  H   UNL A   1      33.275  32.153  27.853  1.00  0.00     0.163 HD
ATOM     31  O   UNL A   1      33.605  29.796  27.617  1.00  0.00    -0.269 OA
BRANCH  29  32
ATOM     32  C   UNL A   1      35.862  30.064  28.208  1.00  0.00     0.039 A 
ATOM     33  C   UNL A   1      36.797  30.036  27.170  1.00  0.00     0.014 A 
ATOM     34  C   UNL A   1      36.219  29.594  29.474  1.00  0.00     0.014 A 
ATOM     35  C   UNL A   1      38.108  29.618  27.421  1.00  0.00     0.010 A 
ATOM     36  C   UNL A   1      37.546  29.260  29.744  1.00  0.00     0.010 A 
ATOM     37  C   UNL A   1      38.506  29.270  28.723  1.00  0.00    -0.014 A 
BRANCH  37  38
ATOM     38  C   UNL A   1      39.920  28.932  29.031  1.00  0.00     0.031 A 
ATOM     39  C   UNL A   1      40.833  29.955  29.655  1.00  0.00     0.074 A 
ATOM     40  C   UNL A   1      40.405  27.722  28.686  1.00  0.00     0.049 A 
ATOM     41  N   UNL A   1      42.109  29.865  29.930  1.00  0.00    -0.248 NA
ATOM     42  C   UNL A   1      40.240  31.261  29.985  1.00  0.00     0.031 C 
ATOM     43  C   UNL A   1      39.643  26.664  28.019  1.00  0.00     0.029 A 
ATOM     44  N   UNL A   1      41.656  27.180  28.840  1.00  0.00    -0.354 N 
ATOM     45  C   UNL A   1      42.477  31.104  30.442  1.00  0.00     0.074 A 
ATOM     46  C   UNL A   1      41.299  31.943  30.399  1.00  0.00     0.031 C 
ATOM     47  C   UNL A   1      40.435  25.594  27.842  1.00  0.00     0.029 A 
ATOM     48  C   UNL A   1      41.767  25.898  28.353  1.00  0.00     0.049 A 
ATOM     49  H   UNL A   1      42.405  27.662  29.259  1.00  0.00     0.167 HD
ATOM     50  C   UNL A   1      43.679  31.500  30.926  1.00  0.00     0.037 A 
ATOM     51  C   UNL A   1      42.822  25.061  28.319  1.00  0.00     0.037 A 
ATOM     52  C   UNL A   1      44.839  30.651  31.005  1.00  0.00     0.049 A 
ATOM     53  C   UNL A   1      44.135  25.511  28.897  1.00  0.00     0.074 A 
ATOM     54  C   UNL A   1      46.081  30.940  31.542  1.00  0.00     0.029 A 
ATOM     55  N   UNL A   1      44.899  29.348  30.537  1.00  0.00    -0.354 N 
ATOM     56  N   UNL A   1      44.447  26.666  29.433  1.00  0.00    -0.248 NA
ATOM     57  C   UNL A   1      45.237  24.539  28.873  1.00  0.00     0.031 C 
ATOM     58  C   UNL A   1      46.902  29.818  31.375  1.00  0.00     0.029 A 
ATOM     59  C   UNL A   1      46.161  28.820  30.763  1.00  0.00     0.049 A 
ATOM     60  H   UNL A   1      44.156  28.867  30.107  1.00  0.00     0.167 HD
ATOM     61  C   UNL A   1      45.776  26.557  29.822  1.00  0.00     0.074 A 
ATOM     62  C   UNL A   1      46.204  25.217  29.477  1.00  0.00     0.031 C 
ATOM     63  C   UNL A   1      46.571  27.484  30.411  1.00  0.00     0.037 A 
BRANCH  50  64
ATOM     64  C   UNL A   1      43.792  32.915  31.423  1.00  0.00     0.058 A 
ATOM     65  C   UNL A   1      44.087  33.976  30.553  1.00  0.00     0.135 A 
ATOM     66  C   UNL A   1      43.581  33.218  32.778  1.00  0.00     0.135 A 
ATOM     67  F   UNL A   1      44.314  33.740  29.251  1.00  0.00    -0.206 F 
ATOM     68  C   UNL A   1      44.202  35.284  31.012  1.00  0.00     0.059 A 
ATOM     69  C   UNL A   1      43.666  34.522  33.256  1.00  0.00     0.059 A 
ATOM     70  F   UNL A   1      43.294  32.241  33.653  1.00  0.00    -0.206 F 
ATOM     71  C   UNL A   1      43.993  35.546  32.368  1.00  0.00     0.060 A 
BRANCH  71  72
ATOM     72  S   UNL A   1      44.150  37.247  32.952  1.00  0.00     0.124 S 
ATOM     73  O   UNL A   1      44.083  37.992  31.698  1.00  0.00    -0.237 OA
ATOM     74  O   UNL A   1      42.995  37.386  33.833  1.00  0.00    -0.237 OA
ATOM     75  O   UNL A   1      45.448  37.258  33.620  1.00  0.00    -0.744 OA
ENDBRANCH  71  72
ENDBRANCH  50  64
BRANCH  51  76
ATOM     76  C   UNL A   1      42.668  23.702  27.741  1.00  0.00     0.058 A 
ATOM     77  C   UNL A   1      42.831  23.484  26.365  1.00  0.00     0.135 A 
ATOM     78  C   UNL A   1      42.385  22.592  28.551  1.00  0.00     0.135 A 
ATOM     79  F   UNL A   1      43.097  24.516  25.550  1.00  0.00    -0.206 F 
ATOM     80  C   UNL A   1      42.710  22.215  25.809  1.00  0.00     0.059 A 
ATOM     81  C   UNL A   1      42.279  21.310  28.022  1.00  0.00     0.059 A 
ATOM     82  F   UNL A   1      42.236  22.747  29.876  1.00  0.00    -0.206 F 
ATOM     83  C   UNL A   1      42.437  21.132  26.647  1.00  0.00     0.060 A 
BRANCH  83  84
ATOM     84  S   UNL A   1      42.350  19.476  25.932  1.00  0.00     0.124 S 
ATOM     85  O   UNL A   1      42.903  18.661  27.007  1.00  0.00    -0.237 OA
ATOM     86  O   UNL A   1      40.921  19.320  25.681  1.00  0.00    -0.237 OA
ATOM     87  O   UNL A   1      43.176  19.589  24.732  1.00  0.00    -0.744 OA
ENDBRANCH  83  84
ENDBRANCH  51  76
BRANCH  63  88
ATOM     88  C   UNL A   1      47.979  27.074  30.733  1.00  0.00     0.058 A 
ATOM     89  C   UNL A   1      49.027  27.269  29.819  1.00  0.00     0.135 A 
ATOM     90  C   UNL A   1      48.289  26.505  31.978  1.00  0.00     0.135 A 
ATOM     91  F   UNL A   1      48.779  27.802  28.612  1.00  0.00    -0.206 F 
ATOM     92  C   UNL A   1      50.331  26.892  30.119  1.00  0.00     0.059 A 
ATOM     93  C   UNL A   1      49.591  26.141  32.308  1.00  0.00     0.059 A 
ATOM     94  F   UNL A   1      47.324  26.306  32.890  1.00  0.00    -0.206 F 
ATOM     95  C   UNL A   1      50.602  26.325  31.366  1.00  0.00     0.060 A 
BRANCH  95  96
ATOM     96  S   UNL A   1      52.302  25.855  31.756  1.00  0.00     0.124 S 
ATOM     97  O   UNL A   1      52.634  26.808  32.810  1.00  0.00    -0.237 OA
ATOM     98  O   UNL A   1      52.156  24.467  32.181  1.00  0.00    -0.237 OA
ATOM     99  O   UNL A   1      53.003  26.046  30.490  1.00  0.00    -0.744 OA
ENDBRANCH  95  96
ENDBRANCH  63  88
ENDBRANCH  37  38
ENDBRANCH  29  32
ENDBRANCH  27  28
ENDBRANCH  26  27
ENDBRANCH   1  26
TORSDOF 20
ENDMDL
MODEL 2
REMARK VINA RESULT:     -10.2      4.428     12.835
REMARK SMILES O=C(CNS(=O)(=O)c1ccccc1)N[C@@H](CO)C(=O)NCCCNC(=O)c1ccc(-c2c3nc(c(-c4c(F)cc(S(=O)(=O)[O-])cc4F)c4ccc([nH]4)c(-c4c(F)cc(S(=O)(=O)[O-])cc4F)c4nc(c(-c5c(F)cc(S(=O)(=O)[O-])cc5F)c5ccc2[nH]5)C=C4)C=C3)cc1
REMARK SMILES IDX 21 1 20 2 18 3 19 4 15 6 14 7 1 8 2 9 3 11 4 12 5 14 6 15
REMARK SMILES IDX 7 16 8 17 9 18 13 19 10 20 12 21 11 22 16 23 17 24 22 26
REMARK SMILES IDX 23 27 24 28 25 29 26 31 27 32 28 33 92 34 29 35 91 36 30 37
REMARK SMILES IDX 31 38 32 39 85 40 33 41 90 42 84 43 86 44 34 45 89 46 83 47
REMARK SMILES IDX 82 48 35 50 69 51 48 52 68 53 49 54 52 55 67 56 87 57 50 58
REMARK SMILES IDX 51 59 66 61 88 62 53 63 36 64 37 65 46 66 38 67 39 68 45 69
REMARK SMILES IDX 47 70 40 71 41 72 42 73 43 74 44 75 70 76 71 77 80 78 72 79
REMARK SMILES IDX 73 80 79 81 81 82 74 83 75 84 76 85 77 86 78 87 54 88 55 89
REMARK SMILES IDX 64 90 56 91 57 92 63 93 65 94 58 95 59 96 60 97 61 98 62 99
REMARK H PARENT 20 5 14 10 4 13 17 25 24 30 86 49 52 60
REMARK Flexibility Score: inf
ROOT
ATOM      1  C   UNL A   1      40.669  20.556  26.256  1.00  0.00     0.117 C 
ENDROOT
BRANCH   1   2
ATOM      2  N   UNL A   1      41.313  19.274  26.476  1.00  0.00    -0.354 N 
ATOM      3  C   UNL A   1      42.581  18.850  26.224  1.00  0.00     0.244 C 
ATOM      4  O   UNL A   1      42.929  17.793  26.762  1.00  0.00    -0.273 OA
ATOM      5  H   UNL A   1      40.731  18.591  26.880  1.00  0.00     0.163 HD
BRANCH   3   6
ATOM      6  C   UNL A   1      43.585  19.653  25.380  1.00  0.00     0.197 C 
BRANCH   6   7
ATOM      7  N   UNL A   1      44.187  20.773  26.104  1.00  0.00    -0.341 N 
ATOM      8  O   UNL A   1      43.435  22.367  24.648  1.00  0.00    -0.274 OA
ATOM      9  C   UNL A   1      43.965  22.077  25.718  1.00  0.00     0.235 C 
ATOM     10  H   UNL A   1      44.763  20.591  26.883  1.00  0.00     0.164 HD
BRANCH   9  11
ATOM     11  C   UNL A   1      44.431  23.141  26.706  1.00  0.00     0.198 C 
BRANCH  11  12
ATOM     12  N   UNL A   1      44.753  24.415  26.023  1.00  0.00    -0.202 NA
ATOM     13  H   UNL A   1      44.343  25.176  26.566  1.00  0.00     0.141 HD
BRANCH  12  14
ATOM     14  S   UNL A   1      46.410  24.739  25.834  1.00  0.00     0.241 S 
ATOM     15  O   UNL A   1      47.121  23.764  26.629  1.00  0.00    -0.207 OA
ATOM     16  O   UNL A   1      46.587  24.853  24.405  1.00  0.00    -0.207 OA
BRANCH  14  17
ATOM     17  C   UNL A   1      46.670  26.340  26.540  1.00  0.00     0.082 A 
ATOM     18  C   UNL A   1      47.458  27.244  25.819  1.00  0.00     0.022 A 
ATOM     19  C   UNL A   1      46.139  26.693  27.783  1.00  0.00     0.022 A 
ATOM     20  C   UNL A   1      47.715  28.509  26.348  1.00  0.00     0.001 A 
ATOM     21  C   UNL A   1      46.412  27.956  28.311  1.00  0.00     0.001 A 
ATOM     22  C   UNL A   1      47.198  28.861  27.593  1.00  0.00     0.000 A 
ENDBRANCH  14  17
ENDBRANCH  12  14
ENDBRANCH  11  12
ENDBRANCH   9  11
ENDBRANCH   6   7
BRANCH   6  23
ATOM     23  C   UNL A   1      44.591  18.754  24.649  1.00  0.00     0.191 C 
BRANCH  23  24
ATOM     24  O   UNL A   1      45.393  17.965  25.527  1.00  0.00    -0.394 OA
ATOM     25  H   UNL A   1      45.536  18.448  26.356  1.00  0.00     0.210 HD
ENDBRANCH  23  24
ENDBRANCH   6  23
ENDBRANCH   3   6
ENDBRANCH   1   2
BRANCH   1  26
ATOM     26  C   UNL A   1      40.800  21.493  27.449  1.00  0.00     0.042 C 
BRANCH  26  27
ATOM     27  C   UNL A   1      40.222  22.889  27.242  1.00  0.00     0.118 C 
BRANCH  27  28
ATOM     28  N   UNL A   1      40.917  23.655  26.218  1.00  0.00    -0.352 N 
ATOM     29  C   UNL A   1      41.333  24.967  26.208  1.00  0.00     0.251 C 
ATOM     30  H   UNL A   1      41.123  23.153  25.396  1.00  0.00     0.163 HD
ATOM     31  O   UNL A   1      41.780  25.442  25.168  1.00  0.00    -0.269 OA
BRANCH  29  32
ATOM     32  C   UNL A   1      41.217  25.816  27.417  1.00  0.00     0.039 A 
ATOM     33  C   UNL A   1      42.294  26.639  27.762  1.00  0.00     0.014 A 
ATOM     34  C   UNL A   1      40.075  25.798  28.221  1.00  0.00     0.014 A 
ATOM     35  C   UNL A   1      42.190  27.500  28.859  1.00  0.00     0.010 A 
ATOM     36  C   UNL A   1      39.940  26.717  29.261  1.00  0.00     0.010 A 
ATOM     37  C   UNL A   1      40.994  27.580  29.591  1.00  0.00    -0.014 A 
BRANCH  37  38
ATOM     38  C   UNL A   1      40.827  28.568  30.689  1.00  0.00     0.031 A 
ATOM     39  C   UNL A   1      41.673  28.480  31.932  1.00  0.00     0.074 A 
ATOM     40  C   UNL A   1      39.864  29.507  30.598  1.00  0.00     0.049 A 
ATOM     41  N   UNL A   1      41.622  29.207  33.019  1.00  0.00    -0.248 NA
ATOM     42  C   UNL A   1      42.689  27.417  31.971  1.00  0.00     0.031 C 
ATOM     43  C   UNL A   1      38.935  29.660  29.475  1.00  0.00     0.029 A 
ATOM     44  N   UNL A   1      39.499  30.505  31.465  1.00  0.00    -0.354 N 
ATOM     45  C   UNL A   1      42.579  28.678  33.877  1.00  0.00     0.074 A 
ATOM     46  C   UNL A   1      43.166  27.540  33.202  1.00  0.00     0.031 C 
ATOM     47  C   UNL A   1      38.124  30.704  29.712  1.00  0.00     0.029 A 
ATOM     48  C   UNL A   1      38.452  31.275  31.014  1.00  0.00     0.049 A 
ATOM     49  H   UNL A   1      39.944  30.657  32.330  1.00  0.00     0.167 HD
ATOM     50  C   UNL A   1      42.952  29.112  35.105  1.00  0.00     0.037 A 
ATOM     51  C   UNL A   1      37.823  32.321  31.585  1.00  0.00     0.037 A 
ATOM     52  C   UNL A   1      42.394  30.268  35.759  1.00  0.00     0.049 A 
ATOM     53  C   UNL A   1      38.281  32.808  32.931  1.00  0.00     0.074 A 
ATOM     54  C   UNL A   1      42.754  30.827  36.972  1.00  0.00     0.029 A 
ATOM     55  N   UNL A   1      41.362  31.042  35.252  1.00  0.00    -0.354 N 
ATOM     56  N   UNL A   1      39.229  32.331  33.701  1.00  0.00    -0.248 NA
ATOM     57  C   UNL A   1      37.588  33.980  33.483  1.00  0.00     0.031 C 
ATOM     58  C   UNL A   1      41.921  31.927  37.212  1.00  0.00     0.029 A 
ATOM     59  C   UNL A   1      41.064  32.071  36.132  1.00  0.00     0.049 A 
ATOM     60  H   UNL A   1      40.907  30.886  34.393  1.00  0.00     0.167 HD
ATOM     61  C   UNL A   1      39.257  33.152  34.822  1.00  0.00     0.074 A 
ATOM     62  C   UNL A   1      38.243  34.167  34.622  1.00  0.00     0.031 C 
ATOM     63  C   UNL A   1      40.049  33.071  35.918  1.00  0.00     0.037 A 
BRANCH  50  64
ATOM     64  C   UNL A   1      44.028  28.338  35.815  1.00  0.00     0.058 A 
ATOM     65  C   UNL A   1      45.388  28.626  35.620  1.00  0.00     0.135 A 
ATOM     66  C   UNL A   1      43.697  27.314  36.717  1.00  0.00     0.135 A 
ATOM     67  F   UNL A   1      45.759  29.585  34.756  1.00  0.00    -0.206 F 
ATOM     68  C   UNL A   1      46.385  27.905  36.268  1.00  0.00     0.059 A 
ATOM     69  C   UNL A   1      44.678  26.595  37.396  1.00  0.00     0.059 A 
ATOM     70  F   UNL A   1      42.412  26.999  36.942  1.00  0.00    -0.206 F 
ATOM     71  C   UNL A   1      46.019  26.887  37.152  1.00  0.00     0.060 A 
BRANCH  71  72
ATOM     72  S   UNL A   1      47.323  25.955  37.983  1.00  0.00     0.124 S 
ATOM     73  O   UNL A   1      48.520  26.516  37.363  1.00  0.00    -0.237 OA
ATOM     74  O   UNL A   1      47.114  26.302  39.385  1.00  0.00    -0.237 OA
ATOM     75  O   UNL A   1      47.024  24.570  37.633  1.00  0.00    -0.744 OA
ENDBRANCH  71  72
ENDBRANCH  50  64
BRANCH  51  76
ATOM     76  C   UNL A   1      36.711  32.995  30.867  1.00  0.00     0.058 A 
ATOM     77  C   UNL A   1      35.382  32.827  31.283  1.00  0.00     0.135 A 
ATOM     78  C   UNL A   1      36.954  33.840  29.774  1.00  0.00     0.135 A 
ATOM     79  F   UNL A   1      35.100  32.024  32.319  1.00  0.00    -0.206 F 
ATOM     80  C   UNL A   1      34.330  33.466  30.635  1.00  0.00     0.059 A 
ATOM     81  C   UNL A   1      35.921  34.506  29.122  1.00  0.00     0.059 A 
ATOM     82  F   UNL A   1      38.211  34.045  29.350  1.00  0.00    -0.206 F 
ATOM     83  C   UNL A   1      34.611  34.307  29.556  1.00  0.00     0.060 A 
BRANCH  83  84
ATOM     84  S   UNL A   1      33.250  35.190  28.762  1.00  0.00     0.124 S 
ATOM     85  O   UNL A   1      32.511  35.690  29.915  1.00  0.00    -0.237 OA
ATOM     86  O   UNL A   1      33.951  36.194  27.968  1.00  0.00    -0.237 OA
ATOM     87  O   UNL A   1      32.585  34.146  27.986  1.00  0.00    -0.744 OA
ENDBRANCH  83  84
ENDBRANCH  51  76
BRANCH  63  88
ATOM     88  C   UNL A   1      39.861  34.119  36.978  1.00  0.00     0.058 A 
ATOM     89  C   UNL A   1      39.119  33.860  38.141  1.00  0.00     0.135 A 
ATOM     90  C   UNL A   1      40.452  35.385  36.842  1.00  0.00     0.135 A 
ATOM     91  F   UNL A   1      38.530  32.667  38.313  1.00  0.00    -0.206 F 
ATOM     92  C   UNL A   1      38.949  34.829  39.123  1.00  0.00     0.059 A 
ATOM     93  C   UNL A   1      40.312  36.363  37.822  1.00  0.00     0.059 A 
ATOM     94  F   UNL A   1      41.178  35.679  35.751  1.00  0.00    -0.206 F 
ATOM     95  C   UNL A   1      39.546  36.079  38.952  1.00  0.00     0.060 A 
BRANCH  95  96
ATOM     96  S   UNL A   1      39.335  37.327  40.241  1.00  0.00     0.124 S 
ATOM     97  O   UNL A   1      38.604  36.577  41.257  1.00  0.00    -0.237 OA
ATOM     98  O   UNL A   1      40.713  37.671  40.577  1.00  0.00    -0.237 OA
ATOM     99  O   UNL A   1      38.579  38.380  39.570  1.00  0.00    -0.744 OA
ENDBRANCH  95  96
ENDBRANCH  63  88
ENDBRANCH  37  38
ENDBRANCH  29  32
ENDBRANCH  27  28
ENDBRANCH  26  27
ENDBRANCH   1  26
TORSDOF 20
ENDMDL
MODEL 3
REMARK VINA RESULT:     -10.1      2.819      3.674
REMARK SMILES O=C(CNS(=O)(=O)c1ccccc1)N[C@@H](CO)C(=O)NCCCNC(=O)c1ccc(-c2c3nc(c(-c4c(F)cc(S(=O)(=O)[O-])cc4F)c4ccc([nH]4)c(-c4c(F)cc(S(=O)(=O)[O-])cc4F)c4nc(c(-c5c(F)cc(S(=O)(=O)[O-])cc5F)c5ccc2[nH]5)C=C4)C=C3)cc1
REMARK SMILES IDX 21 1 20 2 18 3 19 4 15 6 14 7 1 8 2 9 3 11 4 12 5 14 6 15
REMARK SMILES IDX 7 16 8 17 9 18 13 19 10 20 12 21 11 22 16 23 17 24 22 26
REMARK SMILES IDX 23 27 24 28 25 29 26 31 27 32 28 33 92 34 29 35 91 36 30 37
REMARK SMILES IDX 31 38 32 39 85 40 33 41 90 42 84 43 86 44 34 45 89 46 83 47
REMARK SMILES IDX 82 48 35 50 69 51 48 52 68 53 49 54 52 55 67 56 87 57 50 58
REMARK SMILES IDX 51 59 66 61 88 62 53 63 36 64 37 65 46 66 38 67 39 68 45 69
REMARK SMILES IDX 47 70 40 71 41 72 42 73 43 74 44 75 70 76 71 77 80 78 72 79
REMARK SMILES IDX 73 80 79 81 81 82 74 83 75 84 76 85 77 86 78 87 54 88 55 89
REMARK SMILES IDX 64 90 56 91 57 92 63 93 65 94 58 95 59 96 60 97 61 98 62 99
REMARK H PARENT 20 5 14 10 4 13 17 25 24 30 86 49 52 60
REMARK Flexibility Score: inf
ROOT
ATOM      1  C   UNL A   1      34.041  33.794  29.008  1.00  0.00     0.117 C 
ENDROOT
BRANCH   1   2
ATOM      2  N   UNL A   1      33.682  35.198  29.087  1.00  0.00    -0.354 N 
ATOM      3  C   UNL A   1      33.274  35.963  30.136  1.00  0.00     0.244 C 
ATOM      4  O   UNL A   1      33.298  37.187  29.971  1.00  0.00    -0.273 OA
ATOM      5  H   UNL A   1      33.745  35.682  28.233  1.00  0.00     0.163 HD
BRANCH   3   6
ATOM      6  C   UNL A   1      32.869  35.376  31.499  1.00  0.00     0.197 C 
BRANCH   6   7
ATOM      7  N   UNL A   1      33.995  35.210  32.418  1.00  0.00    -0.341 N 
ATOM      8  O   UNL A   1      33.386  33.110  33.086  1.00  0.00    -0.274 OA
ATOM      9  C   UNL A   1      34.216  34.016  33.071  1.00  0.00     0.235 C 
ATOM     10  H   UNL A   1      34.608  35.966  32.572  1.00  0.00     0.164 HD
BRANCH   9  11
ATOM     11  C   UNL A   1      35.559  33.899  33.783  1.00  0.00     0.198 C 
BRANCH  11  12
ATOM     12  N   UNL A   1      36.677  34.323  32.910  1.00  0.00    -0.202 NA
ATOM     13  H   UNL A   1      36.558  35.315  32.705  1.00  0.00     0.141 HD
BRANCH  12  14
ATOM     14  S   UNL A   1      38.230  34.104  33.562  1.00  0.00     0.241 S 
ATOM     15  O   UNL A   1      38.429  35.153  34.535  1.00  0.00    -0.207 OA
ATOM     16  O   UNL A   1      38.273  32.703  33.912  1.00  0.00    -0.207 OA
BRANCH  14  17
ATOM     17  C   UNL A   1      39.355  34.359  32.220  1.00  0.00     0.082 A 
ATOM     18  C   UNL A   1      38.810  34.517  30.941  1.00  0.00     0.022 A 
ATOM     19  C   UNL A   1      40.739  34.376  32.411  1.00  0.00     0.022 A 
ATOM     20  C   UNL A   1      39.658  34.692  29.847  1.00  0.00     0.001 A 
ATOM     21  C   UNL A   1      41.580  34.540  31.309  1.00  0.00     0.001 A 
ATOM     22  C   UNL A   1      41.040  34.698  30.031  1.00  0.00     0.000 A 
ENDBRANCH  14  17
ENDBRANCH  12  14
ENDBRANCH  11  12
ENDBRANCH   9  11
ENDBRANCH   6   7
BRANCH   6  23
ATOM     23  C   UNL A   1      31.652  36.087  32.107  1.00  0.00     0.191 C 
BRANCH  23  24
ATOM     24  O   UNL A   1      31.958  36.830  33.287  1.00  0.00    -0.394 OA
ATOM     25  H   UNL A   1      31.143  36.989  33.788  1.00  0.00     0.210 HD
ENDBRANCH  23  24
ENDBRANCH   6  23
ENDBRANCH   3   6
ENDBRANCH   1   2
BRANCH   1  26
ATOM     26  C   UNL A   1      35.313  33.557  28.204  1.00  0.00     0.042 C 
BRANCH  26  27
ATOM     27  C   UNL A   1      36.493  33.019  29.006  1.00  0.00     0.118 C 
BRANCH  27  28
ATOM     28  N   UNL A   1      36.105  32.416  30.273  1.00  0.00    -0.352 N 
ATOM     29  C   UNL A   1      36.669  31.381  30.983  1.00  0.00     0.251 C 
ATOM     30  H   UNL A   1      35.306  32.814  30.690  1.00  0.00     0.163 HD
ATOM     31  O   UNL A   1      36.080  30.946  31.969  1.00  0.00    -0.269 OA
BRANCH  29  32
ATOM     32  C   UNL A   1      37.948  30.767  30.557  1.00  0.00     0.039 A 
ATOM     33  C   UNL A   1      38.106  30.411  29.215  1.00  0.00     0.014 A 
ATOM     34  C   UNL A   1      38.982  30.522  31.465  1.00  0.00     0.014 A 
ATOM     35  C   UNL A   1      39.326  29.891  28.770  1.00  0.00     0.010 A 
ATOM     36  C   UNL A   1      40.223  30.084  31.005  1.00  0.00     0.010 A 
ATOM     37  C   UNL A   1      40.411  29.765  29.653  1.00  0.00    -0.014 A 
BRANCH  37  38
ATOM     38  C   UNL A   1      41.746  29.320  29.174  1.00  0.00     0.031 A 
ATOM     39  C   UNL A   1      42.891  30.295  29.086  1.00  0.00     0.074 A 
ATOM     40  C   UNL A   1      41.911  28.050  28.751  1.00  0.00     0.049 A 
ATOM     41  N   UNL A   1      44.103  30.106  28.629  1.00  0.00    -0.248 NA
ATOM     42  C   UNL A   1      42.632  31.668  29.545  1.00  0.00     0.031 C 
ATOM     43  C   UNL A   1      40.866  27.025  28.724  1.00  0.00     0.029 A 
ATOM     44  N   UNL A   1      43.017  27.407  28.255  1.00  0.00    -0.354 N 
ATOM     45  C   UNL A   1      44.742  31.337  28.723  1.00  0.00     0.074 A 
ATOM     46  C   UNL A   1      43.770  32.276  29.240  1.00  0.00     0.031 C 
ATOM     47  C   UNL A   1      41.385  25.877  28.259  1.00  0.00     0.029 A 
ATOM     48  C   UNL A   1      42.789  26.090  27.926  1.00  0.00     0.049 A 
ATOM     49  H   UNL A   1      43.891  27.846  28.144  1.00  0.00     0.167 HD
ATOM     50  C   UNL A   1      46.026  31.652  28.429  1.00  0.00     0.037 A 
ATOM     51  C   UNL A   1      43.616  25.160  27.411  1.00  0.00     0.037 A 
ATOM     52  C   UNL A   1      47.002  30.707  27.952  1.00  0.00     0.049 A 
ATOM     53  C   UNL A   1      45.047  25.525  27.128  1.00  0.00     0.074 A 
ATOM     54  C   UNL A   1      48.345  30.916  27.690  1.00  0.00     0.029 A 
ATOM     55  N   UNL A   1      46.741  29.376  27.668  1.00  0.00    -0.354 N 
ATOM     56  N   UNL A   1      45.649  26.679  27.281  1.00  0.00    -0.248 NA
ATOM     57  C   UNL A   1      45.913  24.456  26.610  1.00  0.00     0.031 C 
ATOM     58  C   UNL A   1      48.892  29.714  27.224  1.00  0.00     0.029 A 
ATOM     59  C   UNL A   1      47.897  28.751  27.225  1.00  0.00     0.049 A 
ATOM     60  H   UNL A   1      45.866  28.938  27.767  1.00  0.00     0.167 HD
ATOM     61  C   UNL A   1      46.967  26.475  26.892  1.00  0.00     0.074 A 
ATOM     62  C   UNL A   1      47.079  25.081  26.514  1.00  0.00     0.031 C 
ATOM     63  C   UNL A   1      47.991  27.362  26.850  1.00  0.00     0.037 A 
BRANCH  50  64
ATOM     64  C   UNL A   1      46.451  33.080  28.630  1.00  0.00     0.058 A 
ATOM     65  C   UNL A   1      47.052  33.505  29.826  1.00  0.00     0.135 A 
ATOM     66  C   UNL A   1      46.278  34.030  27.611  1.00  0.00     0.135 A 
ATOM     67  F   UNL A   1      47.227  32.641  30.839  1.00  0.00    -0.206 F 
ATOM     68  C   UNL A   1      47.437  34.827  30.018  1.00  0.00     0.059 A 
ATOM     69  C   UNL A   1      46.678  35.354  27.771  1.00  0.00     0.059 A 
ATOM     70  F   UNL A   1      45.709  33.678  26.447  1.00  0.00    -0.206 F 
ATOM     71  C   UNL A   1      47.241  35.746  28.985  1.00  0.00     0.060 A 
BRANCH  71  72
ATOM     72  S   UNL A   1      47.741  37.461  29.249  1.00  0.00     0.124 S 
ATOM     73  O   UNL A   1      46.706  37.926  30.168  1.00  0.00    -0.237 OA
ATOM     74  O   UNL A   1      49.076  37.317  29.818  1.00  0.00    -0.237 OA
ATOM     75  O   UNL A   1      47.695  38.037  27.908  1.00  0.00    -0.744 OA
ENDBRANCH  71  72
ENDBRANCH  50  64
BRANCH  51  76
ATOM     76  C   UNL A   1      43.115  23.785  27.159  1.00  0.00     0.058 A 
ATOM     77  C   UNL A   1      42.824  23.355  25.855  1.00  0.00     0.135 A 
ATOM     78  C   UNL A   1      42.943  22.867  28.205  1.00  0.00     0.135 A 
ATOM     79  F   UNL A   1      42.966  24.200  24.823  1.00  0.00    -0.206 F 
ATOM     80  C   UNL A   1      42.372  22.065  25.598  1.00  0.00     0.059 A 
ATOM     81  C   UNL A   1      42.512  21.565  27.971  1.00  0.00     0.059 A 
ATOM     82  F   UNL A   1      43.224  23.227  29.467  1.00  0.00    -0.206 F 
ATOM     83  C   UNL A   1      42.222  21.175  26.663  1.00  0.00     0.060 A 
BRANCH  83  84
ATOM     84  S   UNL A   1      41.703  19.481  26.317  1.00  0.00     0.124 S 
ATOM     85  O   UNL A   1      42.503  19.162  25.141  1.00  0.00    -0.237 OA
ATOM     86  O   UNL A   1      42.070  18.785  27.547  1.00  0.00    -0.237 OA
ATOM     87  O   UNL A   1      40.266  19.613  26.091  1.00  0.00    -0.744 OA
ENDBRANCH  83  84
ENDBRANCH  51  76
BRANCH  63  88
ATOM     88  C   UNL A   1      49.325  26.846  26.393  1.00  0.00     0.058 A 
ATOM     89  C   UNL A   1      49.689  26.853  25.038  1.00  0.00     0.135 A 
ATOM     90  C   UNL A   1      50.260  26.366  27.324  1.00  0.00     0.135 A 
ATOM     91  F   UNL A   1      48.827  27.296  24.110  1.00  0.00    -0.206 F 
ATOM     92  C   UNL A   1      50.926  26.379  24.617  1.00  0.00     0.059 A 
ATOM     93  C   UNL A   1      51.512  25.907  26.927  1.00  0.00     0.059 A 
ATOM     94  F   UNL A   1      49.963  26.347  28.633  1.00  0.00    -0.206 F 
ATOM     95  C   UNL A   1      51.830  25.904  25.569  1.00  0.00     0.060 A 
BRANCH  95  96
ATOM     96  S   UNL A   1      53.442  25.307  25.016  1.00  0.00     0.124 S 
ATOM     97  O   UNL A   1      53.299  23.866  25.201  1.00  0.00    -0.237 OA
ATOM     98  O   UNL A   1      53.492  25.765  23.632  1.00  0.00    -0.237 OA
ATOM     99  O   UNL A   1      54.376  25.968  25.922  1.00  0.00    -0.744 OA
ENDBRANCH  95  96
ENDBRANCH  63  88
ENDBRANCH  37  38
ENDBRANCH  29  32
ENDBRANCH  27  28
ENDBRANCH  26  27
ENDBRANCH   1  26
TORSDOF 20
ENDMDL
