MODEL 1
REMARK VINA RESULT:     -12.7      0.000      0.000
REMARK SMILES O=C(CC1(C(=O)NCCCNC(=O)c2ccc(-c3c4nc(c(-c5c(F)cc(S(=O)(=O)[O-])cc5F)c5ccc([nH]5)c(-c5c(F)cc(S(=O)(=O)[O-])cc5F)c5nc(c(-c6c(F)cc(S(=O)(=O)[O-])cc6F)c6ccc3[nH]6)C=C5)C=C4)cc2)CCCCC1)Nc1ccc(N2CCOC2=O)cc1
REMARK SMILES IDX 8 1 7 2 5 3 6 4 4 6 80 7 84 8 81 9 83 10 82 11 3 12 2 13
REMARK SMILES IDX 1 14 85 15 86 17 87 18 97 19 88 20 96 21 89 22 90 23 91 24
REMARK SMILES IDX 94 25 92 26 93 27 95 28 9 29 10 30 11 31 12 32 13 34 14 35
REMARK SMILES IDX 15 36 79 37 16 38 78 39 17 40 18 41 19 42 72 43 20 44 77 45
REMARK SMILES IDX 71 46 73 47 21 48 76 49 70 50 69 51 22 53 56 54 35 55 55 56
REMARK SMILES IDX 36 57 39 58 54 59 74 60 37 61 38 62 53 64 75 65 40 66 23 67
REMARK SMILES IDX 24 68 33 69 25 70 26 71 32 72 34 73 27 74 28 75 29 76 30 77
REMARK SMILES IDX 31 78 57 79 58 80 67 81 59 82 60 83 66 84 68 85 61 86 62 87
REMARK SMILES IDX 63 88 64 89 65 90 41 91 42 92 51 93 43 94 44 95 50 96 52 97
REMARK SMILES IDX 45 98 46 99 47 100 48 101 49 102
REMARK H PARENT 7 5 85 16 11 33 73 52 39 63
REMARK Flexibility Score: inf
ROOT
ATOM      1  C   UNL A   1      34.335  24.960  24.753  1.00  0.00     0.117 C 
ENDROOT
BRANCH   1   2
ATOM      2  N   UNL A   1      34.272  25.466  23.405  1.00  0.00    -0.356 N 
ATOM      3  C   UNL A   1      33.272  25.962  22.646  1.00  0.00     0.226 C 
ATOM      4  O   UNL A   1      33.583  26.098  21.457  1.00  0.00    -0.274 OA
ATOM      5  H   UNL A   1      35.140  25.445  22.941  1.00  0.00     0.163 HD
BRANCH   3   6
ATOM      6  C   UNL A   1      31.845  26.342  23.140  1.00  0.00     0.058 C 
ATOM      7  C   UNL A   1      31.173  27.566  22.462  1.00  0.00     0.017 C 
ATOM      8  C   UNL A   1      31.816  26.470  24.685  1.00  0.00     0.017 C 
ATOM      9  C   UNL A   1      31.265  28.945  23.121  1.00  0.00     0.001 C 
ATOM     10  C   UNL A   1      32.172  27.824  25.268  1.00  0.00     0.001 C 
ATOM     11  C   UNL A   1      31.412  28.981  24.637  1.00  0.00     0.000 C 
BRANCH   6  12
ATOM     12  C   UNL A   1      30.940  25.078  22.836  1.00  0.00     0.117 C 
BRANCH  12  13
ATOM     13  C   UNL A   1      31.204  23.679  23.414  1.00  0.00     0.225 C 
ATOM     14  O   UNL A   1      30.730  23.410  24.520  1.00  0.00    -0.275 OA
ATOM     15  N   UNL A   1      31.901  22.793  22.622  1.00  0.00    -0.326 N 
ATOM     16  H   UNL A   1      32.169  23.115  21.732  1.00  0.00     0.169 HD
BRANCH  15  17
ATOM     17  C   UNL A   1      32.271  21.471  22.954  1.00  0.00     0.041 A 
ATOM     18  C   UNL A   1      33.029  21.296  24.116  1.00  0.00     0.028 A 
ATOM     19  C   UNL A   1      31.897  20.344  22.221  1.00  0.00     0.028 A 
ATOM     20  C   UNL A   1      33.317  20.012  24.592  1.00  0.00     0.028 A 
ATOM     21  C   UNL A   1      32.247  19.062  22.658  1.00  0.00     0.028 A 
ATOM     22  C   UNL A   1      32.919  18.885  23.869  1.00  0.00     0.047 A 
BRANCH  22  23
ATOM     23  N   UNL A   1      33.123  17.595  24.384  1.00  0.00    -0.274 N 
ATOM     24  C   UNL A   1      32.684  17.199  25.683  1.00  0.00     0.171 C 
ATOM     25  C   UNL A   1      33.704  16.531  23.730  1.00  0.00     0.414 C 
ATOM     26  C   UNL A   1      32.693  15.695  25.569  1.00  0.00     0.257 C 
ATOM     27  O   UNL A   1      33.617  15.409  24.514  1.00  0.00    -0.447 OA
ATOM     28  O   UNL A   1      34.270  16.529  22.642  1.00  0.00    -0.224 OA
ENDBRANCH  22  23
ENDBRANCH  15  17
ENDBRANCH  12  13
ENDBRANCH   6  12
ENDBRANCH   3   6
ENDBRANCH   1   2
BRANCH   1  29
ATOM     29  C   UNL A   1      35.290  23.786  24.881  1.00  0.00     0.042 C 
BRANCH  29  30
ATOM     30  C   UNL A   1      36.379  24.028  25.904  1.00  0.00     0.118 C 
BRANCH  30  31
ATOM     31  N   UNL A   1      37.400  22.985  25.872  1.00  0.00    -0.352 N 
ATOM     32  C   UNL A   1      38.734  23.044  26.202  1.00  0.00     0.251 C 
ATOM     33  H   UNL A   1      37.085  22.103  25.566  1.00  0.00     0.163 HD
ATOM     34  O   UNL A   1      39.480  22.124  25.880  1.00  0.00    -0.269 OA
BRANCH  32  35
ATOM     35  C   UNL A   1      39.260  24.221  26.925  1.00  0.00     0.039 A 
ATOM     36  C   UNL A   1      40.018  25.176  26.243  1.00  0.00     0.014 A 
ATOM     37  C   UNL A   1      38.989  24.384  28.283  1.00  0.00     0.014 A 
ATOM     38  C   UNL A   1      40.437  26.329  26.912  1.00  0.00     0.010 A 
ATOM     39  C   UNL A   1      39.286  25.585  28.905  1.00  0.00     0.010 A 
ATOM     40  C   UNL A   1      40.039  26.561  28.237  1.00  0.00    -0.014 A 
BRANCH  40  41
ATOM     41  C   UNL A   1      40.439  27.776  28.991  1.00  0.00     0.031 A 
ATOM     42  C   UNL A   1      41.767  27.786  29.706  1.00  0.00     0.074 A 
ATOM     43  C   UNL A   1      39.588  28.814  29.113  1.00  0.00     0.049 A 
ATOM     44  N   UNL A   1      42.240  28.653  30.563  1.00  0.00    -0.248 NA
ATOM     45  C   UNL A   1      42.662  26.640  29.462  1.00  0.00     0.031 C 
ATOM     46  C   UNL A   1      38.260  28.902  28.502  1.00  0.00     0.029 A 
ATOM     47  N   UNL A   1      39.709  29.990  29.810  1.00  0.00    -0.354 N 
ATOM     48  C   UNL A   1      43.468  28.144  30.973  1.00  0.00     0.074 A 
ATOM     49  C   UNL A   1      43.634  26.860  30.334  1.00  0.00     0.031 C 
ATOM     50  C   UNL A   1      37.699  30.078  28.831  1.00  0.00     0.029 A 
ATOM     51  C   UNL A   1      38.604  30.805  29.717  1.00  0.00     0.049 A 
ATOM     52  H   UNL A   1      40.510  30.228  30.328  1.00  0.00     0.167 HD
ATOM     53  C   UNL A   1      44.391  28.711  31.783  1.00  0.00     0.037 A 
ATOM     54  C   UNL A   1      38.347  31.995  30.292  1.00  0.00     0.037 A 
ATOM     55  C   UNL A   1      44.238  30.013  32.373  1.00  0.00     0.049 A 
ATOM     56  C   UNL A   1      39.390  32.607  31.193  1.00  0.00     0.074 A 
ATOM     57  C   UNL A   1      45.131  30.706  33.171  1.00  0.00     0.029 A 
ATOM     58  N   UNL A   1      43.123  30.824  32.218  1.00  0.00    -0.354 N 
ATOM     59  N   UNL A   1      40.563  32.130  31.539  1.00  0.00    -0.248 NA
ATOM     60  C   UNL A   1      39.081  33.918  31.777  1.00  0.00     0.031 C 
ATOM     61  C   UNL A   1      44.539  31.920  33.531  1.00  0.00     0.029 A 
ATOM     62  C   UNL A   1      43.302  32.007  32.911  1.00  0.00     0.049 A 
ATOM     63  H   UNL A   1      42.324  30.591  31.693  1.00  0.00     0.167 HD
ATOM     64  C   UNL A   1      41.148  33.103  32.342  1.00  0.00     0.074 A 
ATOM     65  C   UNL A   1      40.202  34.195  32.429  1.00  0.00     0.031 C 
ATOM     66  C   UNL A   1      42.360  33.097  32.950  1.00  0.00     0.037 A 
BRANCH  53  67
ATOM     67  C   UNL A   1      45.656  27.945  32.053  1.00  0.00     0.058 A 
ATOM     68  C   UNL A   1      46.796  28.098  31.248  1.00  0.00     0.135 A 
ATOM     69  C   UNL A   1      45.747  27.081  33.157  1.00  0.00     0.135 A 
ATOM     70  F   UNL A   1      46.759  28.894  30.167  1.00  0.00    -0.206 F 
ATOM     71  C   UNL A   1      47.973  27.408  31.512  1.00  0.00     0.059 A 
ATOM     72  C   UNL A   1      46.926  26.405  33.459  1.00  0.00     0.059 A 
ATOM     73  F   UNL A   1      44.687  26.891  33.957  1.00  0.00    -0.206 F 
ATOM     74  C   UNL A   1      48.030  26.567  32.624  1.00  0.00     0.060 A 
BRANCH  74  75
ATOM     75  S   UNL A   1      49.577  25.703  32.968  1.00  0.00     0.124 S 
ATOM     76  O   UNL A   1      49.857  25.083  31.676  1.00  0.00    -0.237 OA
ATOM     77  O   UNL A   1      50.465  26.797  33.350  1.00  0.00    -0.237 OA
ATOM     78  O   UNL A   1      49.222  24.782  34.042  1.00  0.00    -0.744 OA
ENDBRANCH  74  75
ENDBRANCH  53  67
BRANCH  54  79
ATOM     79  C   UNL A   1      37.063  32.703  30.027  1.00  0.00     0.058 A 
ATOM     80  C   UNL A   1      36.957  33.635  28.983  1.00  0.00     0.135 A 
ATOM     81  C   UNL A   1      35.926  32.481  30.820  1.00  0.00     0.135 A 
ATOM     82  F   UNL A   1      38.017  33.885  28.198  1.00  0.00    -0.206 F 
ATOM     83  C   UNL A   1      35.784  34.348  28.756  1.00  0.00     0.059 A 
ATOM     84  C   UNL A   1      34.732  33.160  30.593  1.00  0.00     0.059 A 
ATOM     85  F   UNL A   1      35.965  31.585  31.819  1.00  0.00    -0.206 F 
ATOM     86  C   UNL A   1      34.677  34.106  29.569  1.00  0.00     0.060 A 
BRANCH  86  87
ATOM     87  S   UNL A   1      33.156  35.029  29.259  1.00  0.00     0.124 S 
ATOM     88  O   UNL A   1      33.680  36.313  28.810  1.00  0.00    -0.237 OA
ATOM     89  O   UNL A   1      32.505  34.212  28.239  1.00  0.00    -0.237 OA
ATOM     90  O   UNL A   1      32.497  35.036  30.561  1.00  0.00    -0.744 OA
ENDBRANCH  86  87
ENDBRANCH  54  79
BRANCH  66  91
ATOM     91  C   UNL A   1      42.771  34.332  33.700  1.00  0.00     0.058 A 
ATOM     92  C   UNL A   1      42.616  34.446  35.089  1.00  0.00     0.135 A 
ATOM     93  C   UNL A   1      43.408  35.385  33.020  1.00  0.00     0.135 A 
ATOM     94  F   UNL A   1      42.009  33.471  35.784  1.00  0.00    -0.206 F 
ATOM     95  C   UNL A   1      43.064  35.569  35.778  1.00  0.00     0.059 A 
ATOM     96  C   UNL A   1      43.891  36.501  33.693  1.00  0.00     0.059 A 
ATOM     97  F   UNL A   1      43.591  35.319  31.693  1.00  0.00    -0.206 F 
ATOM     98  C   UNL A   1      43.707  36.588  35.072  1.00  0.00     0.060 A 
BRANCH  98  99
ATOM     99  S   UNL A   1      44.332  38.012  35.987  1.00  0.00     0.124 S 
ATOM    100  O   UNL A   1      45.725  37.635  36.200  1.00  0.00    -0.237 OA
ATOM    101  O   UNL A   1      44.108  39.107  35.049  1.00  0.00    -0.237 OA
ATOM    102  O   UNL A   1      43.498  38.040  37.185  1.00  0.00    -0.744 OA
ENDBRANCH  98  99
ENDBRANCH  66  91
ENDBRANCH  40  41
ENDBRANCH  32  35
ENDBRANCH  30  31
ENDBRANCH  29  30
ENDBRANCH   1  29
TORSDOF 17
ENDMDL
MODEL 2
REMARK VINA RESULT:     -12.6      2.494      3.039
REMARK SMILES O=C(CC1(C(=O)NCCCNC(=O)c2ccc(-c3c4nc(c(-c5c(F)cc(S(=O)(=O)[O-])cc5F)c5ccc([nH]5)c(-c5c(F)cc(S(=O)(=O)[O-])cc5F)c5nc(c(-c6c(F)cc(S(=O)(=O)[O-])cc6F)c6ccc3[nH]6)C=C5)C=C4)cc2)CCCCC1)Nc1ccc(N2CCOC2=O)cc1
REMARK SMILES IDX 8 1 7 2 5 3 6 4 4 6 80 7 84 8 81 9 83 10 82 11 3 12 2 13
REMARK SMILES IDX 1 14 85 15 86 17 87 18 97 19 88 20 96 21 89 22 90 23 91 24
REMARK SMILES IDX 94 25 92 26 93 27 95 28 9 29 10 30 11 31 12 32 13 34 14 35
REMARK SMILES IDX 15 36 79 37 16 38 78 39 17 40 18 41 19 42 72 43 20 44 77 45
REMARK SMILES IDX 71 46 73 47 21 48 76 49 70 50 69 51 22 53 56 54 35 55 55 56
REMARK SMILES IDX 36 57 39 58 54 59 74 60 37 61 38 62 53 64 75 65 40 66 23 67
REMARK SMILES IDX 24 68 33 69 25 70 26 71 32 72 34 73 27 74 28 75 29 76 30 77
REMARK SMILES IDX 31 78 57 79 58 80 67 81 59 82 60 83 66 84 68 85 61 86 62 87
REMARK SMILES IDX 63 88 64 89 65 90 41 91 42 92 51 93 43 94 44 95 50 96 52 97
REMARK SMILES IDX 45 98 46 99 47 100 48 101 49 102
REMARK H PARENT 7 5 85 16 11 33 73 52 39 63
REMARK Flexibility Score: inf
ROOT
ATOM      1  C   UNL A   1      34.485  24.713  24.701  1.00  0.00     0.117 C 
ENDROOT
BRANCH   1   2
ATOM      2  N   UNL A   1      34.402  25.404  23.438  1.00  0.00    -0.356 N 
ATOM      3  C   UNL A   1      33.391  25.999  22.771  1.00  0.00     0.226 C 
ATOM      4  O   UNL A   1      33.685  26.303  21.609  1.00  0.00    -0.274 OA
ATOM      5  H   UNL A   1      35.264  25.452  22.964  1.00  0.00     0.163 HD
BRANCH   3   6
ATOM      6  C   UNL A   1      31.971  26.301  23.332  1.00  0.00     0.058 C 
ATOM      7  C   UNL A   1      31.261  27.573  22.796  1.00  0.00     0.017 C 
ATOM      8  C   UNL A   1      31.978  26.273  24.882  1.00  0.00     0.017 C 
ATOM      9  C   UNL A   1      31.347  28.881  23.588  1.00  0.00     0.001 C 
ATOM     10  C   UNL A   1      32.324  27.569  25.591  1.00  0.00     0.001 C 
ATOM     11  C   UNL A   1      31.530  28.767  25.097  1.00  0.00     0.000 C 
BRANCH   6  12
ATOM     12  C   UNL A   1      31.079  25.056  22.924  1.00  0.00     0.117 C 
BRANCH  12  13
ATOM     13  C   UNL A   1      31.289  23.638  23.475  1.00  0.00     0.225 C 
ATOM     14  O   UNL A   1      30.724  23.336  24.529  1.00  0.00    -0.275 OA
ATOM     15  N   UNL A   1      32.044  22.773  22.715  1.00  0.00    -0.326 N 
ATOM     16  H   UNL A   1      32.386  23.121  21.860  1.00  0.00     0.169 HD
BRANCH  15  17
ATOM     17  C   UNL A   1      32.380  21.438  23.032  1.00  0.00     0.041 A 
ATOM     18  C   UNL A   1      33.195  21.236  24.151  1.00  0.00     0.028 A 
ATOM     19  C   UNL A   1      31.921  20.324  22.327  1.00  0.00     0.028 A 
ATOM     20  C   UNL A   1      33.458  19.944  24.617  1.00  0.00     0.028 A 
ATOM     21  C   UNL A   1      32.244  19.030  22.751  1.00  0.00     0.028 A 
ATOM     22  C   UNL A   1      32.976  18.830  23.923  1.00  0.00     0.047 A 
BRANCH  22  23
ATOM     23  N   UNL A   1      33.157  17.535  24.432  1.00  0.00    -0.274 N 
ATOM     24  C   UNL A   1      32.718  17.144  25.733  1.00  0.00     0.171 C 
ATOM     25  C   UNL A   1      33.712  16.462  23.771  1.00  0.00     0.414 C 
ATOM     26  C   UNL A   1      32.697  15.640  25.614  1.00  0.00     0.257 C 
ATOM     27  O   UNL A   1      33.608  15.340  24.552  1.00  0.00    -0.447 OA
ATOM     28  O   UNL A   1      34.272  16.453  22.680  1.00  0.00    -0.224 OA
ENDBRANCH  22  23
ENDBRANCH  15  17
ENDBRANCH  12  13
ENDBRANCH   6  12
ENDBRANCH   3   6
ENDBRANCH   1   2
BRANCH   1  29
ATOM     29  C   UNL A   1      35.604  23.686  24.720  1.00  0.00     0.042 C 
BRANCH  29  30
ATOM     30  C   UNL A   1      36.149  23.443  26.111  1.00  0.00     0.118 C 
BRANCH  30  31
ATOM     31  N   UNL A   1      37.234  22.467  26.109  1.00  0.00    -0.352 N 
ATOM     32  C   UNL A   1      38.589  22.652  26.256  1.00  0.00     0.251 C 
ATOM     33  H   UNL A   1      36.953  21.532  25.984  1.00  0.00     0.163 HD
ATOM     34  O   UNL A   1      39.359  21.736  25.986  1.00  0.00    -0.269 OA
BRANCH  32  35
ATOM     35  C   UNL A   1      39.105  23.958  26.719  1.00  0.00     0.039 A 
ATOM     36  C   UNL A   1      39.005  24.307  28.068  1.00  0.00     0.014 A 
ATOM     37  C   UNL A   1      39.703  24.833  25.813  1.00  0.00     0.014 A 
ATOM     38  C   UNL A   1      39.574  25.504  28.513  1.00  0.00     0.010 A 
ATOM     39  C   UNL A   1      40.383  25.947  26.277  1.00  0.00     0.010 A 
ATOM     40  C   UNL A   1      40.303  26.313  27.628  1.00  0.00    -0.014 A 
BRANCH  40  41
ATOM     41  C   UNL A   1      40.944  27.584  28.049  1.00  0.00     0.031 A 
ATOM     42  C   UNL A   1      42.445  27.706  27.967  1.00  0.00     0.074 A 
ATOM     43  C   UNL A   1      40.204  28.575  28.585  1.00  0.00     0.049 A 
ATOM     44  N   UNL A   1      43.227  28.640  28.442  1.00  0.00    -0.248 NA
ATOM     45  C   UNL A   1      43.167  26.605  27.305  1.00  0.00     0.031 C 
ATOM     46  C   UNL A   1      38.749  28.555  28.755  1.00  0.00     0.029 A 
ATOM     47  N   UNL A   1      40.580  29.788  29.104  1.00  0.00    -0.354 N 
ATOM     48  C   UNL A   1      44.523  28.225  28.158  1.00  0.00     0.074 A 
ATOM     49  C   UNL A   1      44.430  26.923  27.541  1.00  0.00     0.031 C 
ATOM     50  C   UNL A   1      38.354  29.711  29.315  1.00  0.00     0.029 A 
ATOM     51  C   UNL A   1      39.529  30.532  29.591  1.00  0.00     0.049 A 
ATOM     52  H   UNL A   1      41.513  30.098  29.126  1.00  0.00     0.167 HD
ATOM     53  C   UNL A   1      45.687  28.884  28.362  1.00  0.00     0.037 A 
ATOM     54  C   UNL A   1      39.519  31.732  30.203  1.00  0.00     0.037 A 
ATOM     55  C   UNL A   1      45.765  30.202  28.931  1.00  0.00     0.049 A 
ATOM     56  C   UNL A   1      40.829  32.446  30.421  1.00  0.00     0.074 A 
ATOM     57  C   UNL A   1      46.886  30.984  29.139  1.00  0.00     0.029 A 
ATOM     58  N   UNL A   1      44.673  30.938  29.371  1.00  0.00    -0.354 N 
ATOM     59  N   UNL A   1      42.043  32.056  30.111  1.00  0.00    -0.248 NA
ATOM     60  C   UNL A   1      40.770  33.765  31.066  1.00  0.00     0.031 C 
ATOM     61  C   UNL A   1      46.478  32.177  29.741  1.00  0.00     0.029 A 
ATOM     62  C   UNL A   1      45.096  32.162  29.855  1.00  0.00     0.049 A 
ATOM     63  H   UNL A   1      43.738  30.633  29.342  1.00  0.00     0.167 HD
ATOM     64  C   UNL A   1      42.885  33.101  30.480  1.00  0.00     0.074 A 
ATOM     65  C   UNL A   1      42.042  34.138  31.035  1.00  0.00     0.031 C 
ATOM     66  C   UNL A   1      44.232  33.195  30.368  1.00  0.00     0.037 A 
BRANCH  53  67
ATOM     67  C   UNL A   1      46.962  28.207  27.942  1.00  0.00     0.058 A 
ATOM     68  C   UNL A   1      47.494  28.374  26.653  1.00  0.00     0.135 A 
ATOM     69  C   UNL A   1      47.687  27.419  28.851  1.00  0.00     0.135 A 
ATOM     70  F   UNL A   1      46.832  29.098  25.737  1.00  0.00    -0.206 F 
ATOM     71  C   UNL A   1      48.685  27.767  26.273  1.00  0.00     0.059 A 
ATOM     72  C   UNL A   1      48.898  26.829  28.502  1.00  0.00     0.059 A 
ATOM     73  F   UNL A   1      47.223  27.220  30.095  1.00  0.00    -0.206 F 
ATOM     74  C   UNL A   1      49.384  27.001  27.207  1.00  0.00     0.060 A 
BRANCH  74  75
ATOM     75  S   UNL A   1      50.944  26.247  26.703  1.00  0.00     0.124 S 
ATOM     76  O   UNL A   1      50.796  24.893  27.229  1.00  0.00    -0.237 OA
ATOM     77  O   UNL A   1      50.893  26.369  25.249  1.00  0.00    -0.237 OA
ATOM     78  O   UNL A   1      51.951  27.071  27.364  1.00  0.00    -0.744 OA
ENDBRANCH  74  75
ENDBRANCH  53  67
BRANCH  54  79
ATOM     79  C   UNL A   1      38.236  32.349  30.638  1.00  0.00     0.058 A 
ATOM     80  C   UNL A   1      37.525  33.209  29.785  1.00  0.00     0.135 A 
ATOM     81  C   UNL A   1      37.703  32.112  31.914  1.00  0.00     0.135 A 
ATOM     82  F   UNL A   1      37.994  33.471  28.555  1.00  0.00    -0.206 F 
ATOM     83  C   UNL A   1      36.355  33.841  30.194  1.00  0.00     0.059 A 
ATOM     84  C   UNL A   1      36.517  32.708  32.335  1.00  0.00     0.059 A 
ATOM     85  F   UNL A   1      38.329  31.281  32.762  1.00  0.00    -0.206 F 
ATOM     86  C   UNL A   1      35.860  33.586  31.474  1.00  0.00     0.060 A 
BRANCH  86  87
ATOM     87  S   UNL A   1      34.334  34.402  31.990  1.00  0.00     0.124 S 
ATOM     88  O   UNL A   1      33.764  33.411  32.895  1.00  0.00    -0.237 OA
ATOM     89  O   UNL A   1      34.836  35.624  32.613  1.00  0.00    -0.237 OA
ATOM     90  O   UNL A   1      33.617  34.597  30.734  1.00  0.00    -0.744 OA
ENDBRANCH  86  87
ENDBRANCH  54  79
BRANCH  66  91
ATOM     91  C   UNL A   1      44.879  34.487  30.780  1.00  0.00     0.058 A 
ATOM     92  C   UNL A   1      45.390  34.686  32.070  1.00  0.00     0.135 A 
ATOM     93  C   UNL A   1      45.060  35.512  29.835  1.00  0.00     0.135 A 
ATOM     94  F   UNL A   1      45.237  33.740  33.010  1.00  0.00    -0.206 F 
ATOM     95  C   UNL A   1      46.046  35.863  32.416  1.00  0.00     0.059 A 
ATOM     96  C   UNL A   1      45.740  36.683  30.150  1.00  0.00     0.059 A 
ATOM     97  F   UNL A   1      44.600  35.366  28.583  1.00  0.00    -0.206 F 
ATOM     98  C   UNL A   1      46.222  36.853  31.446  1.00  0.00     0.060 A 
BRANCH  98  99
ATOM     99  S   UNL A   1      47.125  38.350  31.895  1.00  0.00     0.124 S 
ATOM    100  O   UNL A   1      47.109  38.277  33.351  1.00  0.00    -0.237 OA
ATOM    101  O   UNL A   1      48.422  38.132  31.263  1.00  0.00    -0.237 OA
ATOM    102  O   UNL A   1      46.321  39.420  31.310  1.00  0.00    -0.744 OA
ENDBRANCH  98  99
ENDBRANCH  66  91
ENDBRANCH  40  41
ENDBRANCH  32  35
ENDBRANCH  30  31
ENDBRANCH  29  30
ENDBRANCH   1  29
TORSDOF 17
ENDMDL
MODEL 3
REMARK VINA RESULT:     -12.3      1.761      5.185
REMARK SMILES O=C(CC1(C(=O)NCCCNC(=O)c2ccc(-c3c4nc(c(-c5c(F)cc(S(=O)(=O)[O-])cc5F)c5ccc([nH]5)c(-c5c(F)cc(S(=O)(=O)[O-])cc5F)c5nc(c(-c6c(F)cc(S(=O)(=O)[O-])cc6F)c6ccc3[nH]6)C=C5)C=C4)cc2)CCCCC1)Nc1ccc(N2CCOC2=O)cc1
REMARK SMILES IDX 8 1 7 2 5 3 6 4 4 6 80 7 84 8 81 9 83 10 82 11 3 12 2 13
REMARK SMILES IDX 1 14 85 15 86 17 87 18 97 19 88 20 96 21 89 22 90 23 91 24
REMARK SMILES IDX 94 25 92 26 93 27 95 28 9 29 10 30 11 31 12 32 13 34 14 35
REMARK SMILES IDX 15 36 79 37 16 38 78 39 17 40 18 41 19 42 72 43 20 44 77 45
REMARK SMILES IDX 71 46 73 47 21 48 76 49 70 50 69 51 22 53 56 54 35 55 55 56
REMARK SMILES IDX 36 57 39 58 54 59 74 60 37 61 38 62 53 64 75 65 40 66 23 67
REMARK SMILES IDX 24 68 33 69 25 70 26 71 32 72 34 73 27 74 28 75 29 76 30 77
REMARK SMILES IDX 31 78 57 79 58 80 67 81 59 82 60 83 66 84 68 85 61 86 62 87
REMARK SMILES IDX 63 88 64 89 65 90 41 91 42 92 51 93 43 94 44 95 50 96 52 97
REMARK SMILES IDX 45 98 46 99 47 100 48 101 49 102
REMARK H PARENT 7 5 85 16 11 33 73 52 39 63
REMARK Flexibility Score: inf
ROOT
ATOM      1  C   UNL A   1      34.734  24.524  25.529  1.00  0.00     0.117 C 
ENDROOT
BRANCH   1   2
ATOM      2  N   UNL A   1      34.511  24.295  24.123  1.00  0.00    -0.356 N 
ATOM      3  C   UNL A   1      33.661  23.504  23.435  1.00  0.00     0.226 C 
ATOM      4  O   UNL A   1      33.923  23.438  22.229  1.00  0.00    -0.274 OA
ATOM      5  H   UNL A   1      35.103  24.828  23.544  1.00  0.00     0.163 HD
BRANCH   3   6
ATOM      6  C   UNL A   1      32.454  22.718  24.027  1.00  0.00     0.058 C 
ATOM      7  C   UNL A   1      32.719  21.895  25.317  1.00  0.00     0.017 C 
ATOM      8  C   UNL A   1      31.779  21.849  22.935  1.00  0.00     0.017 C 
ATOM      9  C   UNL A   1      33.045  20.403  25.211  1.00  0.00     0.001 C 
ATOM     10  C   UNL A   1      32.338  20.455  22.724  1.00  0.00     0.001 C 
ATOM     11  C   UNL A   1      32.485  19.654  24.008  1.00  0.00     0.000 C 
BRANCH   6  12
ATOM     12  C   UNL A   1      31.366  23.814  24.382  1.00  0.00     0.117 C 
BRANCH  12  13
ATOM     13  C   UNL A   1      31.005  24.989  23.462  1.00  0.00     0.225 C 
ATOM     14  O   UNL A   1      31.080  24.815  22.243  1.00  0.00    -0.275 OA
ATOM     15  N   UNL A   1      30.556  26.144  24.062  1.00  0.00    -0.326 N 
ATOM     16  H   UNL A   1      30.484  26.131  25.044  1.00  0.00     0.169 HD
BRANCH  15  17
ATOM     17  C   UNL A   1      30.190  27.347  23.419  1.00  0.00     0.041 A 
ATOM     18  C   UNL A   1      28.825  27.650  23.367  1.00  0.00     0.028 A 
ATOM     19  C   UNL A   1      31.099  28.254  22.873  1.00  0.00     0.028 A 
ATOM     20  C   UNL A   1      28.388  28.884  22.876  1.00  0.00     0.028 A 
ATOM     21  C   UNL A   1      30.655  29.458  22.314  1.00  0.00     0.028 A 
ATOM     22  C   UNL A   1      29.303  29.801  22.353  1.00  0.00     0.047 A 
BRANCH  22  23
ATOM     23  N   UNL A   1      28.884  31.076  21.942  1.00  0.00    -0.274 N 
ATOM     24  C   UNL A   1      28.472  31.366  20.607  1.00  0.00     0.171 C 
ATOM     25  C   UNL A   1      28.754  32.195  22.737  1.00  0.00     0.414 C 
ATOM     26  C   UNL A   1      27.699  32.649  20.792  1.00  0.00     0.257 C 
ATOM     27  O   UNL A   1      28.208  33.216  22.003  1.00  0.00    -0.447 OA
ATOM     28  O   UNL A   1      29.099  32.336  23.905  1.00  0.00    -0.224 OA
ENDBRANCH  22  23
ENDBRANCH  15  17
ENDBRANCH  12  13
ENDBRANCH   6  12
ENDBRANCH   3   6
ENDBRANCH   1   2
BRANCH   1  29
ATOM     29  C   UNL A   1      35.949  23.772  26.046  1.00  0.00     0.042 C 
BRANCH  29  30
ATOM     30  C   UNL A   1      37.105  23.788  25.068  1.00  0.00     0.118 C 
BRANCH  30  31
ATOM     31  N   UNL A   1      38.132  22.813  25.422  1.00  0.00    -0.352 N 
ATOM     32  C   UNL A   1      39.313  22.984  26.105  1.00  0.00     0.251 C 
ATOM     33  H   UNL A   1      37.951  21.891  25.126  1.00  0.00     0.163 HD
ATOM     34  O   UNL A   1      40.155  22.091  26.094  1.00  0.00    -0.269 OA
BRANCH  32  35
ATOM     35  C   UNL A   1      39.566  24.246  26.830  1.00  0.00     0.039 A 
ATOM     36  C   UNL A   1      39.017  24.442  28.100  1.00  0.00     0.014 A 
ATOM     37  C   UNL A   1      40.362  25.235  26.253  1.00  0.00     0.014 A 
ATOM     38  C   UNL A   1      39.333  25.601  28.815  1.00  0.00     0.010 A 
ATOM     39  C   UNL A   1      40.782  26.313  27.015  1.00  0.00     0.010 A 
ATOM     40  C   UNL A   1      40.251  26.526  28.295  1.00  0.00    -0.014 A 
BRANCH  40  41
ATOM     41  C   UNL A   1      40.637  27.763  29.018  1.00  0.00     0.031 A 
ATOM     42  C   UNL A   1      41.969  27.811  29.723  1.00  0.00     0.074 A 
ATOM     43  C   UNL A   1      39.770  28.790  29.122  1.00  0.00     0.049 A 
ATOM     44  N   UNL A   1      42.434  28.705  30.556  1.00  0.00    -0.248 NA
ATOM     45  C   UNL A   1      42.881  26.674  29.498  1.00  0.00     0.031 C 
ATOM     46  C   UNL A   1      38.436  28.843  28.519  1.00  0.00     0.029 A 
ATOM     47  N   UNL A   1      39.876  29.983  29.791  1.00  0.00    -0.354 N 
ATOM     48  C   UNL A   1      43.672  28.225  30.969  1.00  0.00     0.074 A 
ATOM     49  C   UNL A   1      43.855  26.929  30.358  1.00  0.00     0.031 C 
ATOM     50  C   UNL A   1      37.859  30.017  28.825  1.00  0.00     0.029 A 
ATOM     51  C   UNL A   1      38.758  30.779  29.687  1.00  0.00     0.049 A 
ATOM     52  H   UNL A   1      40.677  30.247  30.298  1.00  0.00     0.167 HD
ATOM     53  C   UNL A   1      44.592  28.825  31.759  1.00  0.00     0.037 A 
ATOM     54  C   UNL A   1      38.486  31.978  30.237  1.00  0.00     0.037 A 
ATOM     55  C   UNL A   1      44.422  30.138  32.321  1.00  0.00     0.049 A 
ATOM     56  C   UNL A   1      39.526  32.626  31.116  1.00  0.00     0.074 A 
ATOM     57  C   UNL A   1      45.309  30.863  33.095  1.00  0.00     0.029 A 
ATOM     58  N   UNL A   1      43.293  30.927  32.155  1.00  0.00    -0.354 N 
ATOM     59  N   UNL A   1      40.708  32.176  31.465  1.00  0.00    -0.248 NA
ATOM     60  C   UNL A   1      39.199  33.946  31.673  1.00  0.00     0.031 C 
ATOM     61  C   UNL A   1      44.701  32.075  33.432  1.00  0.00     0.029 A 
ATOM     62  C   UNL A   1      43.458  32.128  32.819  1.00  0.00     0.049 A 
ATOM     63  H   UNL A   1      42.494  30.670  31.641  1.00  0.00     0.167 HD
ATOM     64  C   UNL A   1      41.283  33.177  32.241  1.00  0.00     0.074 A 
ATOM     65  C   UNL A   1      40.320  34.255  32.310  1.00  0.00     0.031 C 
ATOM     66  C   UNL A   1      42.498  33.203  32.841  1.00  0.00     0.037 A 
BRANCH  53  67
ATOM     67  C   UNL A   1      45.871  28.086  32.037  1.00  0.00     0.058 A 
ATOM     68  C   UNL A   1      47.006  28.245  31.226  1.00  0.00     0.135 A 
ATOM     69  C   UNL A   1      45.981  27.242  33.155  1.00  0.00     0.135 A 
ATOM     70  F   UNL A   1      46.951  29.022  30.132  1.00  0.00    -0.206 F 
ATOM     71  C   UNL A   1      48.195  27.580  31.497  1.00  0.00     0.059 A 
ATOM     72  C   UNL A   1      47.172  26.591  33.464  1.00  0.00     0.059 A 
ATOM     73  F   UNL A   1      44.927  27.047  33.962  1.00  0.00    -0.206 F 
ATOM     74  C   UNL A   1      48.270  26.759  32.623  1.00  0.00     0.060 A 
BRANCH  74  75
ATOM     75  S   UNL A   1      49.833  25.927  32.976  1.00  0.00     0.124 S 
ATOM     76  O   UNL A   1      49.793  24.817  32.028  1.00  0.00    -0.237 OA
ATOM     77  O   UNL A   1      50.812  26.971  32.686  1.00  0.00    -0.237 OA
ATOM     78  O   UNL A   1      49.713  25.556  34.382  1.00  0.00    -0.744 OA
ENDBRANCH  74  75
ENDBRANCH  53  67
BRANCH  54  79
ATOM     79  C   UNL A   1      37.190  32.658  29.965  1.00  0.00     0.058 A 
ATOM     80  C   UNL A   1      37.084  33.631  28.959  1.00  0.00     0.135 A 
ATOM     81  C   UNL A   1      36.038  32.370  30.714  1.00  0.00     0.135 A 
ATOM     82  F   UNL A   1      38.157  33.946  28.216  1.00  0.00    -0.206 F 
ATOM     83  C   UNL A   1      35.897  34.320  28.729  1.00  0.00     0.059 A 
ATOM     84  C   UNL A   1      34.830  33.022  30.481  1.00  0.00     0.059 A 
ATOM     85  F   UNL A   1      36.076  31.433  31.674  1.00  0.00    -0.206 F 
ATOM     86  C   UNL A   1      34.775  34.010  29.498  1.00  0.00     0.060 A 
BRANCH  86  87
ATOM     87  S   UNL A   1      33.237  34.901  29.184  1.00  0.00     0.124 S 
ATOM     88  O   UNL A   1      32.624  34.903  30.507  1.00  0.00    -0.237 OA
ATOM     89  O   UNL A   1      33.723  36.190  28.701  1.00  0.00    -0.237 OA
ATOM     90  O   UNL A   1      32.571  34.075  28.181  1.00  0.00    -0.744 OA
ENDBRANCH  86  87
ENDBRANCH  54  79
BRANCH  66  91
ATOM     91  C   UNL A   1      42.895  34.462  33.559  1.00  0.00     0.058 A 
ATOM     92  C   UNL A   1      42.769  34.597  34.949  1.00  0.00     0.135 A 
ATOM     93  C   UNL A   1      43.490  35.518  32.847  1.00  0.00     0.135 A 
ATOM     94  F   UNL A   1      42.202  33.620  35.674  1.00  0.00    -0.206 F 
ATOM     95  C   UNL A   1      43.203  35.743  35.608  1.00  0.00     0.059 A 
ATOM     96  C   UNL A   1      43.959  36.658  33.488  1.00  0.00     0.059 A 
ATOM     97  F   UNL A   1      43.645  35.433  31.516  1.00  0.00    -0.206 F 
ATOM     98  C   UNL A   1      43.804  36.765  34.869  1.00  0.00     0.060 A 
BRANCH  98  99
ATOM     99  S   UNL A   1      44.413  38.220  35.745  1.00  0.00     0.124 S 
ATOM    100  O   UNL A   1      45.856  38.017  35.685  1.00  0.00    -0.237 OA
ATOM    101  O   UNL A   1      43.893  39.314  34.930  1.00  0.00    -0.237 OA
ATOM    102  O   UNL A   1      43.815  38.095  37.071  1.00  0.00    -0.744 OA
ENDBRANCH  98  99
ENDBRANCH  66  91
ENDBRANCH  40  41
ENDBRANCH  32  35
ENDBRANCH  30  31
ENDBRANCH  29  30
ENDBRANCH   1  29
TORSDOF 17
ENDMDL
