MODEL 1
REMARK VINA RESULT:     -11.4      0.000      0.000
REMARK SMILES CCOc1cc(N2CCOCC2)ccc1[C@H]([NH3+])C(=O)NCCCNC(=O)c1ccc(-c2c3nc(c(-c4c(F)cc(S(=O)(=O)[O-])cc4F)c4ccc([nH]4)c(-c4c(F)cc(S(=O)(=O)[O-])cc4F)c4nc(c(-c5c(F)cc(S(=O)(=O)[O-])cc5F)c5ccc2[nH]5)C=C4)C=C3)cc1
REMARK SMILES IDX 22 1 21 2 20 3 18 4 19 5 16 7 15 8 4 9 5 10 6 11 14 12 13 13
REMARK SMILES IDX 3 14 2 15 1 16 7 17 8 18 12 19 9 20 11 21 10 22 17 23 23 27
REMARK SMILES IDX 24 28 25 29 26 31 27 32 28 33 92 34 29 35 91 36 30 37 31 38
REMARK SMILES IDX 32 39 85 40 33 41 90 42 84 43 86 44 34 45 89 46 83 47 82 48
REMARK SMILES IDX 35 50 69 51 48 52 68 53 49 54 52 55 67 56 87 57 50 58 51 59
REMARK SMILES IDX 66 61 88 62 53 63 36 64 37 65 46 66 38 67 39 68 45 69 47 70
REMARK SMILES IDX 40 71 41 72 42 73 43 74 44 75 70 76 71 77 80 78 72 79 73 80
REMARK SMILES IDX 79 81 81 82 74 83 75 84 76 85 77 86 78 87 54 88 55 89 64 90
REMARK SMILES IDX 56 91 57 92 63 93 65 94 58 95 59 96 60 97 61 98 62 99
REMARK H PARENT 20 6 17 24 17 25 17 26 24 30 86 49 52 60
REMARK Flexibility Score: inf
ROOT
ATOM      1  C   UNL A   1      33.775  28.240  25.845  1.00  0.00     0.042 C 
ENDROOT
BRANCH   1   2
ATOM      2  C   UNL A   1      33.593  26.779  25.481  1.00  0.00     0.118 C 
BRANCH   2   3
ATOM      3  N   UNL A   1      32.545  26.159  26.276  1.00  0.00    -0.351 N 
ATOM      4  C   UNL A   1      31.460  25.418  25.892  1.00  0.00     0.283 C 
ATOM      5  O   UNL A   1      30.639  25.118  26.767  1.00  0.00    -0.268 OA
ATOM      6  H   UNL A   1      32.631  26.292  27.247  1.00  0.00     0.163 HD
BRANCH   4   7
ATOM      7  C   UNL A   1      31.215  25.047  24.397  1.00  0.00     0.306 C 
BRANCH   7   8
ATOM      8  C   UNL A   1      30.587  26.184  23.600  1.00  0.00     0.061 A 
ATOM      9  C   UNL A   1      31.355  26.907  22.671  1.00  0.00     0.131 A 
ATOM     10  C   UNL A   1      30.959  28.182  22.258  1.00  0.00     0.072 A 
ATOM     11  C   UNL A   1      29.775  28.748  22.736  1.00  0.00     0.040 A 
ATOM     12  C   UNL A   1      29.298  26.661  23.891  1.00  0.00     0.016 A 
ATOM     13  C   UNL A   1      28.913  27.942  23.484  1.00  0.00     0.027 A 
BRANCH   9  14
ATOM     14  O   UNL A   1      32.624  26.491  22.359  1.00  0.00    -0.493 OA
BRANCH  14  15
ATOM     15  C   UNL A   1      32.674  25.708  21.162  1.00  0.00     0.226 C 
ATOM     16  C   UNL A   1      33.089  24.280  21.477  1.00  0.00     0.049 C 
ENDBRANCH  14  15
ENDBRANCH   9  14
BRANCH  11  17
ATOM     17  N   UNL A   1      29.540  30.095  22.578  1.00  0.00    -0.367 N 
ATOM     18  C   UNL A   1      29.107  30.906  23.724  1.00  0.00     0.145 C 
ATOM     19  C   UNL A   1      29.356  30.694  21.260  1.00  0.00     0.145 C 
ATOM     20  C   UNL A   1      27.694  31.458  23.484  1.00  0.00     0.181 C 
ATOM     21  C   UNL A   1      27.924  31.242  21.141  1.00  0.00     0.181 C 
ATOM     22  O   UNL A   1      27.601  32.140  22.220  1.00  0.00    -0.378 OA
ENDBRANCH  11  17
ENDBRANCH   7   8
BRANCH   7  23
ATOM     23  N   UNL A   1      30.467  23.766  24.358  1.00  0.00    -0.343 N 
ATOM     24  H   UNL A   1      31.003  23.046  24.843  1.00  0.00     0.345 HD
ATOM     25  H   UNL A   1      30.322  23.486  23.389  1.00  0.00     0.345 HD
ATOM     26  H   UNL A   1      29.565  23.886  24.817  1.00  0.00     0.345 HD
ENDBRANCH   7  23
ENDBRANCH   4   7
ENDBRANCH   2   3
ENDBRANCH   1   2
BRANCH   1  27
ATOM     27  C   UNL A   1      33.623  28.490  27.333  1.00  0.00     0.118 C 
BRANCH  27  28
ATOM     28  N   UNL A   1      33.592  29.913  27.649  1.00  0.00    -0.352 N 
ATOM     29  C   UNL A   1      34.563  30.681  28.246  1.00  0.00     0.251 C 
ATOM     30  H   UNL A   1      32.764  30.387  27.405  1.00  0.00     0.163 HD
ATOM     31  O   UNL A   1      34.303  31.813  28.645  1.00  0.00    -0.269 OA
BRANCH  29  32
ATOM     32  C   UNL A   1      35.914  30.114  28.418  1.00  0.00     0.039 A 
ATOM     33  C   UNL A   1      36.805  30.107  27.342  1.00  0.00     0.014 A 
ATOM     34  C   UNL A   1      36.311  29.638  29.670  1.00  0.00     0.014 A 
ATOM     35  C   UNL A   1      38.122  29.689  27.544  1.00  0.00     0.010 A 
ATOM     36  C   UNL A   1      37.643  29.325  29.892  1.00  0.00     0.010 A 
ATOM     37  C   UNL A   1      38.560  29.332  28.828  1.00  0.00    -0.014 A 
BRANCH  37  38
ATOM     38  C   UNL A   1      39.957  28.918  29.108  1.00  0.00     0.031 A 
ATOM     39  C   UNL A   1      40.935  29.944  29.609  1.00  0.00     0.074 A 
ATOM     40  C   UNL A   1      40.372  27.676  28.795  1.00  0.00     0.049 A 
ATOM     41  N   UNL A   1      42.233  29.863  29.729  1.00  0.00    -0.248 NA
ATOM     42  C   UNL A   1      40.377  31.256  29.977  1.00  0.00     0.031 C 
ATOM     43  C   UNL A   1      39.527  26.608  28.255  1.00  0.00     0.029 A 
ATOM     44  N   UNL A   1      41.622  27.111  28.856  1.00  0.00    -0.354 N 
ATOM     45  C   UNL A   1      42.651  31.123  30.138  1.00  0.00     0.074 A 
ATOM     46  C   UNL A   1      41.475  31.962  30.198  1.00  0.00     0.031 C 
ATOM     47  C   UNL A   1      40.280  25.519  28.036  1.00  0.00     0.029 A 
ATOM     48  C   UNL A   1      41.668  25.823  28.377  1.00  0.00     0.049 A 
ATOM     49  H   UNL A   1      42.409  27.584  29.210  1.00  0.00     0.167 HD
ATOM     50  C   UNL A   1      43.900  31.539  30.454  1.00  0.00     0.037 A 
ATOM     51  C   UNL A   1      42.714  24.989  28.211  1.00  0.00     0.037 A 
ATOM     52  C   UNL A   1      45.053  30.681  30.434  1.00  0.00     0.049 A 
ATOM     53  C   UNL A   1      44.090  25.452  28.604  1.00  0.00     0.074 A 
ATOM     54  C   UNL A   1      46.350  30.973  30.813  1.00  0.00     0.029 A 
ATOM     55  N   UNL A   1      45.045  29.357  30.013  1.00  0.00    -0.354 N 
ATOM     56  N   UNL A   1      44.463  26.627  29.050  1.00  0.00    -0.248 NA
ATOM     57  C   UNL A   1      45.184  24.479  28.481  1.00  0.00     0.031 C 
ATOM     58  C   UNL A   1      47.136  29.839  30.583  1.00  0.00     0.029 A 
ATOM     59  C   UNL A   1      46.318  28.824  30.109  1.00  0.00     0.049 A 
ATOM     60  H   UNL A   1      44.251  28.872  29.694  1.00  0.00     0.167 HD
ATOM     61  C   UNL A   1      45.828  26.528  29.292  1.00  0.00     0.074 A 
ATOM     62  C   UNL A   1      46.217  25.178  28.937  1.00  0.00     0.031 C 
ATOM     63  C   UNL A   1      46.680  27.469  29.770  1.00  0.00     0.037 A 
BRANCH  50  64
ATOM     64  C   UNL A   1      44.071  32.984  30.833  1.00  0.00     0.058 A 
ATOM     65  C   UNL A   1      44.398  33.968  29.886  1.00  0.00     0.135 A 
ATOM     66  C   UNL A   1      43.928  33.387  32.171  1.00  0.00     0.135 A 
ATOM     67  F   UNL A   1      44.560  33.636  28.595  1.00  0.00    -0.206 F 
ATOM     68  C   UNL A   1      44.637  35.287  30.259  1.00  0.00     0.059 A 
ATOM     69  C   UNL A   1      44.129  34.709  32.562  1.00  0.00     0.059 A 
ATOM     70  F   UNL A   1      43.611  32.491  33.119  1.00  0.00    -0.206 F 
ATOM     71  C   UNL A   1      44.510  35.644  31.600  1.00  0.00     0.060 A 
BRANCH  71  72
ATOM     72  S   UNL A   1      44.865  37.349  32.078  1.00  0.00     0.124 S 
ATOM     73  O   UNL A   1      43.804  38.070  31.382  1.00  0.00    -0.237 OA
ATOM     74  O   UNL A   1      44.747  37.300  33.532  1.00  0.00    -0.237 OA
ATOM     75  O   UNL A   1      46.214  37.570  31.569  1.00  0.00    -0.744 OA
ENDBRANCH  71  72
ENDBRANCH  50  64
BRANCH  51  76
ATOM     76  C   UNL A   1      42.477  23.626  27.667  1.00  0.00     0.058 A 
ATOM     77  C   UNL A   1      42.476  23.393  26.285  1.00  0.00     0.135 A 
ATOM     78  C   UNL A   1      42.328  22.518  28.517  1.00  0.00     0.135 A 
ATOM     79  F   UNL A   1      42.609  24.421  25.432  1.00  0.00    -0.206 F 
ATOM     80  C   UNL A   1      42.345  22.111  25.762  1.00  0.00     0.059 A 
ATOM     81  C   UNL A   1      42.216  21.224  28.019  1.00  0.00     0.059 A 
ATOM     82  F   UNL A   1      42.341  22.687  29.849  1.00  0.00    -0.206 F 
ATOM     83  C   UNL A   1      42.228  21.030  26.638  1.00  0.00     0.060 A 
BRANCH  83  84
ATOM     84  S   UNL A   1      42.163  19.361  25.949  1.00  0.00     0.124 S 
ATOM     85  O   UNL A   1      40.737  19.201  25.696  1.00  0.00    -0.237 OA
ATOM     86  O   UNL A   1      43.012  19.486  24.768  1.00  0.00    -0.237 OA
ATOM     87  O   UNL A   1      42.712  18.536  27.020  1.00  0.00    -0.744 OA
ENDBRANCH  83  84
ENDBRANCH  51  76
BRANCH  63  88
ATOM     88  C   UNL A   1      48.113  27.073  29.992  1.00  0.00     0.058 A 
ATOM     89  C   UNL A   1      49.097  27.285  29.015  1.00  0.00     0.135 A 
ATOM     90  C   UNL A   1      48.520  26.588  31.246  1.00  0.00     0.135 A 
ATOM     91  F   UNL A   1      48.756  27.740  27.800  1.00  0.00    -0.206 F 
ATOM     92  C   UNL A   1      50.440  27.034  29.276  1.00  0.00     0.059 A 
ATOM     93  C   UNL A   1      49.859  26.353  31.535  1.00  0.00     0.059 A 
ATOM     94  F   UNL A   1      47.616  26.378  32.215  1.00  0.00    -0.206 F 
ATOM     95  C   UNL A   1      50.813  26.579  30.544  1.00  0.00     0.060 A 
BRANCH  95  96
ATOM     96  S   UNL A   1      52.567  26.342  30.897  1.00  0.00     0.124 S 
ATOM     97  O   UNL A   1      53.130  26.256  29.553  1.00  0.00    -0.237 OA
ATOM     98  O   UNL A   1      52.899  27.548  31.649  1.00  0.00    -0.237 OA
ATOM     99  O   UNL A   1      52.594  25.103  31.670  1.00  0.00    -0.744 OA
ENDBRANCH  95  96
ENDBRANCH  63  88
ENDBRANCH  37  38
ENDBRANCH  29  32
ENDBRANCH  27  28
ENDBRANCH   1  27
TORSDOF 18
ENDMDL
MODEL 2
REMARK VINA RESULT:     -11.1      2.590      4.802
REMARK SMILES CCOc1cc(N2CCOCC2)ccc1[C@H]([NH3+])C(=O)NCCCNC(=O)c1ccc(-c2c3nc(c(-c4c(F)cc(S(=O)(=O)[O-])cc4F)c4ccc([nH]4)c(-c4c(F)cc(S(=O)(=O)[O-])cc4F)c4nc(c(-c5c(F)cc(S(=O)(=O)[O-])cc5F)c5ccc2[nH]5)C=C4)C=C3)cc1
REMARK SMILES IDX 22 1 21 2 20 3 18 4 19 5 16 7 15 8 4 9 5 10 6 11 14 12 13 13
REMARK SMILES IDX 3 14 2 15 1 16 7 17 8 18 12 19 9 20 11 21 10 22 17 23 23 27
REMARK SMILES IDX 24 28 25 29 26 31 27 32 28 33 92 34 29 35 91 36 30 37 31 38
REMARK SMILES IDX 32 39 85 40 33 41 90 42 84 43 86 44 34 45 89 46 83 47 82 48
REMARK SMILES IDX 35 50 69 51 48 52 68 53 49 54 52 55 67 56 87 57 50 58 51 59
REMARK SMILES IDX 66 61 88 62 53 63 36 64 37 65 46 66 38 67 39 68 45 69 47 70
REMARK SMILES IDX 40 71 41 72 42 73 43 74 44 75 70 76 71 77 80 78 72 79 73 80
REMARK SMILES IDX 79 81 81 82 74 83 75 84 76 85 77 86 78 87 54 88 55 89 64 90
REMARK SMILES IDX 56 91 57 92 63 93 65 94 58 95 59 96 60 97 61 98 62 99
REMARK H PARENT 20 6 17 24 17 25 17 26 24 30 86 49 52 60
REMARK Flexibility Score: inf
ROOT
ATOM      1  C   UNL A   1      33.371  28.350  25.630  1.00  0.00     0.042 C 
ENDROOT
BRANCH   1   2
ATOM      2  C   UNL A   1      33.565  26.922  25.157  1.00  0.00     0.118 C 
BRANCH   2   3
ATOM      3  N   UNL A   1      33.081  25.966  26.140  1.00  0.00    -0.351 N 
ATOM      4  C   UNL A   1      32.959  24.604  26.070  1.00  0.00     0.283 C 
ATOM      5  O   UNL A   1      32.388  24.036  27.008  1.00  0.00    -0.268 OA
ATOM      6  H   UNL A   1      32.797  26.361  26.994  1.00  0.00     0.163 HD
BRANCH   4   7
ATOM      7  C   UNL A   1      33.436  23.807  24.816  1.00  0.00     0.306 C 
BRANCH   7   8
ATOM      8  C   UNL A   1      33.350  22.298  25.005  1.00  0.00     0.061 A 
ATOM      9  C   UNL A   1      34.426  21.592  25.569  1.00  0.00     0.131 A 
ATOM     10  C   UNL A   1      34.560  20.216  25.366  1.00  0.00     0.072 A 
ATOM     11  C   UNL A   1      33.609  19.511  24.625  1.00  0.00     0.040 A 
ATOM     12  C   UNL A   1      32.291  21.549  24.464  1.00  0.00     0.016 A 
ATOM     13  C   UNL A   1      32.437  20.175  24.254  1.00  0.00     0.027 A 
BRANCH   9  14
ATOM     14  O   UNL A   1      35.490  22.274  26.101  1.00  0.00    -0.493 OA
BRANCH  14  15
ATOM     15  C   UNL A   1      36.752  21.699  25.748  1.00  0.00     0.226 C 
ATOM     16  C   UNL A   1      37.839  22.762  25.745  1.00  0.00     0.049 C 
ENDBRANCH  14  15
ENDBRANCH   9  14
BRANCH  11  17
ATOM     17  N   UNL A   1      33.889  18.242  24.170  1.00  0.00    -0.367 N 
ATOM     18  C   UNL A   1      32.795  17.323  23.832  1.00  0.00     0.145 C 
ATOM     19  C   UNL A   1      35.207  17.638  24.341  1.00  0.00     0.145 C 
ATOM     20  C   UNL A   1      32.804  16.110  24.773  1.00  0.00     0.181 C 
ATOM     21  C   UNL A   1      35.095  16.418  25.271  1.00  0.00     0.181 C 
ATOM     22  O   UNL A   1      34.100  15.483  24.814  1.00  0.00    -0.378 OA
ENDBRANCH  11  17
ENDBRANCH   7   8
BRANCH   7  23
ATOM     23  N   UNL A   1      34.775  24.316  24.431  1.00  0.00    -0.343 N 
ATOM     24  H   UNL A   1      35.395  24.288  25.241  1.00  0.00     0.345 HD
ATOM     25  H   UNL A   1      34.692  25.276  24.100  1.00  0.00     0.345 HD
ATOM     26  H   UNL A   1      35.160  23.732  23.689  1.00  0.00     0.345 HD
ENDBRANCH   7  23
ENDBRANCH   4   7
ENDBRANCH   2   3
ENDBRANCH   1   2
BRANCH   1  27
ATOM     27  C   UNL A   1      33.684  28.520  27.103  1.00  0.00     0.118 C 
BRANCH  27  28
ATOM     28  N   UNL A   1      33.626  29.917  27.519  1.00  0.00    -0.352 N 
ATOM     29  C   UNL A   1      34.569  30.650  28.200  1.00  0.00     0.251 C 
ATOM     30  H   UNL A   1      32.800  30.399  27.281  1.00  0.00     0.163 HD
ATOM     31  O   UNL A   1      34.282  31.747  28.670  1.00  0.00    -0.269 OA
BRANCH  29  32
ATOM     32  C   UNL A   1      35.920  30.084  28.376  1.00  0.00     0.039 A 
ATOM     33  C   UNL A   1      36.824  30.106  27.311  1.00  0.00     0.014 A 
ATOM     34  C   UNL A   1      36.303  29.581  29.621  1.00  0.00     0.014 A 
ATOM     35  C   UNL A   1      38.140  29.690  27.520  1.00  0.00     0.010 A 
ATOM     36  C   UNL A   1      37.634  29.269  29.853  1.00  0.00     0.010 A 
ATOM     37  C   UNL A   1      38.564  29.305  28.801  1.00  0.00    -0.014 A 
BRANCH  37  38
ATOM     38  C   UNL A   1      39.959  28.890  29.089  1.00  0.00     0.031 A 
ATOM     39  C   UNL A   1      40.933  29.915  29.602  1.00  0.00     0.074 A 
ATOM     40  C   UNL A   1      40.377  27.650  28.773  1.00  0.00     0.049 A 
ATOM     41  N   UNL A   1      42.230  29.834  29.731  1.00  0.00    -0.248 NA
ATOM     42  C   UNL A   1      40.371  31.224  29.973  1.00  0.00     0.031 C 
ATOM     43  C   UNL A   1      39.537  26.584  28.221  1.00  0.00     0.029 A 
ATOM     44  N   UNL A   1      41.627  27.086  28.840  1.00  0.00    -0.354 N 
ATOM     45  C   UNL A   1      42.644  31.092  30.149  1.00  0.00     0.074 A 
ATOM     46  C   UNL A   1      41.467  31.930  30.204  1.00  0.00     0.031 C 
ATOM     47  C   UNL A   1      40.293  25.498  28.003  1.00  0.00     0.029 A 
ATOM     48  C   UNL A   1      41.678  25.800  28.354  1.00  0.00     0.049 A 
ATOM     49  H   UNL A   1      42.412  27.557  29.201  1.00  0.00     0.167 HD
ATOM     50  C   UNL A   1      43.891  31.508  30.475  1.00  0.00     0.037 A 
ATOM     51  C   UNL A   1      42.725  24.968  28.191  1.00  0.00     0.037 A 
ATOM     52  C   UNL A   1      45.045  30.651  30.460  1.00  0.00     0.049 A 
ATOM     53  C   UNL A   1      44.098  25.430  28.597  1.00  0.00     0.074 A 
ATOM     54  C   UNL A   1      46.339  30.942  30.849  1.00  0.00     0.029 A 
ATOM     55  N   UNL A   1      45.041  29.329  30.032  1.00  0.00    -0.354 N 
ATOM     56  N   UNL A   1      44.468  26.603  29.052  1.00  0.00    -0.248 NA
ATOM     57  C   UNL A   1      45.194  24.459  28.476  1.00  0.00     0.031 C 
ATOM     58  C   UNL A   1      47.127  29.809  30.619  1.00  0.00     0.029 A 
ATOM     59  C   UNL A   1      46.313  28.797  30.134  1.00  0.00     0.049 A 
ATOM     60  H   UNL A   1      44.249  28.844  29.705  1.00  0.00     0.167 HD
ATOM     61  C   UNL A   1      45.831  26.504  29.302  1.00  0.00     0.074 A 
ATOM     62  C   UNL A   1      46.223  25.156  28.943  1.00  0.00     0.031 C 
ATOM     63  C   UNL A   1      46.679  27.443  29.791  1.00  0.00     0.037 A 
BRANCH  50  64
ATOM     64  C   UNL A   1      44.058  32.951  30.863  1.00  0.00     0.058 A 
ATOM     65  C   UNL A   1      43.930  33.383  32.193  1.00  0.00     0.135 A 
ATOM     66  C   UNL A   1      44.327  33.922  29.884  1.00  0.00     0.135 A 
ATOM     67  F   UNL A   1      43.659  32.499  33.168  1.00  0.00    -0.206 F 
ATOM     68  C   UNL A   1      44.003  34.730  32.532  1.00  0.00     0.059 A 
ATOM     69  C   UNL A   1      44.438  35.273  30.206  1.00  0.00     0.059 A 
ATOM     70  F   UNL A   1      44.465  33.567  28.597  1.00  0.00    -0.206 F 
ATOM     71  C   UNL A   1      44.246  35.668  31.529  1.00  0.00     0.060 A 
BRANCH  71  72
ATOM     72  S   UNL A   1      44.294  37.417  31.974  1.00  0.00     0.124 S 
ATOM     73  O   UNL A   1      45.710  37.599  32.277  1.00  0.00    -0.237 OA
ATOM     74  O   UNL A   1      43.821  38.065  30.754  1.00  0.00    -0.237 OA
ATOM     75  O   UNL A   1      43.391  37.501  33.116  1.00  0.00    -0.744 OA
ENDBRANCH  71  72
ENDBRANCH  50  64
BRANCH  51  76
ATOM     76  C   UNL A   1      42.493  23.608  27.640  1.00  0.00     0.058 A 
ATOM     77  C   UNL A   1      42.544  23.374  26.258  1.00  0.00     0.135 A 
ATOM     78  C   UNL A   1      42.298  22.503  28.483  1.00  0.00     0.135 A 
ATOM     79  F   UNL A   1      42.724  24.399  25.411  1.00  0.00    -0.206 F 
ATOM     80  C   UNL A   1      42.419  22.093  25.731  1.00  0.00     0.059 A 
ATOM     81  C   UNL A   1      42.189  21.209  27.982  1.00  0.00     0.059 A 
ATOM     82  F   UNL A   1      42.259  22.672  29.814  1.00  0.00    -0.206 F 
ATOM     83  C   UNL A   1      42.253  21.014  26.602  1.00  0.00     0.060 A 
BRANCH  83  84
ATOM     84  S   UNL A   1      42.196  19.345  25.912  1.00  0.00     0.124 S 
ATOM     85  O   UNL A   1      42.743  18.554  27.008  1.00  0.00    -0.237 OA
ATOM     86  O   UNL A   1      40.770  19.173  25.651  1.00  0.00    -0.237 OA
ATOM     87  O   UNL A   1      43.035  19.446  24.723  1.00  0.00    -0.744 OA
ENDBRANCH  83  84
ENDBRANCH  51  76
BRANCH  63  88
ATOM     88  C   UNL A   1      48.110  27.048  30.021  1.00  0.00     0.058 A 
ATOM     89  C   UNL A   1      49.118  27.351  29.094  1.00  0.00     0.135 A 
ATOM     90  C   UNL A   1      48.489  26.466  31.242  1.00  0.00     0.135 A 
ATOM     91  F   UNL A   1      48.804  27.900  27.910  1.00  0.00    -0.206 F 
ATOM     92  C   UNL A   1      50.456  27.095  29.372  1.00  0.00     0.059 A 
ATOM     93  C   UNL A   1      49.823  26.223  31.550  1.00  0.00     0.059 A 
ATOM     94  F   UNL A   1      47.561  26.166  32.164  1.00  0.00    -0.206 F 
ATOM     95  C   UNL A   1      50.800  26.542  30.608  1.00  0.00     0.060 A 
BRANCH  95  96
ATOM     96  S   UNL A   1      52.547  26.296  30.992  1.00  0.00     0.124 S 
ATOM     97  O   UNL A   1      52.860  27.515  31.732  1.00  0.00    -0.237 OA
ATOM     98  O   UNL A   1      52.524  25.066  31.777  1.00  0.00    -0.237 OA
ATOM     99  O   UNL A   1      53.172  26.181  29.677  1.00  0.00    -0.744 OA
ENDBRANCH  95  96
ENDBRANCH  63  88
ENDBRANCH  37  38
ENDBRANCH  29  32
ENDBRANCH  27  28
ENDBRANCH   1  27
TORSDOF 18
ENDMDL
MODEL 3
REMARK VINA RESULT:     -11.0      5.722     11.098
REMARK SMILES CCOc1cc(N2CCOCC2)ccc1[C@H]([NH3+])C(=O)NCCCNC(=O)c1ccc(-c2c3nc(c(-c4c(F)cc(S(=O)(=O)[O-])cc4F)c4ccc([nH]4)c(-c4c(F)cc(S(=O)(=O)[O-])cc4F)c4nc(c(-c5c(F)cc(S(=O)(=O)[O-])cc5F)c5ccc2[nH]5)C=C4)C=C3)cc1
REMARK SMILES IDX 22 1 21 2 20 3 18 4 19 5 16 7 15 8 4 9 5 10 6 11 14 12 13 13
REMARK SMILES IDX 3 14 2 15 1 16 7 17 8 18 12 19 9 20 11 21 10 22 17 23 23 27
REMARK SMILES IDX 24 28 25 29 26 31 27 32 28 33 92 34 29 35 91 36 30 37 31 38
REMARK SMILES IDX 32 39 85 40 33 41 90 42 84 43 86 44 34 45 89 46 83 47 82 48
REMARK SMILES IDX 35 50 69 51 48 52 68 53 49 54 52 55 67 56 87 57 50 58 51 59
REMARK SMILES IDX 66 61 88 62 53 63 36 64 37 65 46 66 38 67 39 68 45 69 47 70
REMARK SMILES IDX 40 71 41 72 42 73 43 74 44 75 70 76 71 77 80 78 72 79 73 80
REMARK SMILES IDX 79 81 81 82 74 83 75 84 76 85 77 86 78 87 54 88 55 89 64 90
REMARK SMILES IDX 56 91 57 92 63 93 65 94 58 95 59 96 60 97 61 98 62 99
REMARK H PARENT 20 6 17 24 17 25 17 26 24 30 86 49 52 60
REMARK Flexibility Score: inf
ROOT
ATOM      1  C   UNL A   1      38.575  24.312  26.179  1.00  0.00     0.042 C 
ENDROOT
BRANCH   1   2
ATOM      2  C   UNL A   1      37.322  23.511  25.883  1.00  0.00     0.118 C 
BRANCH   2   3
ATOM      3  N   UNL A   1      37.188  23.239  24.461  1.00  0.00    -0.351 N 
ATOM      4  C   UNL A   1      36.076  23.206  23.663  1.00  0.00     0.283 C 
ATOM      5  O   UNL A   1      36.223  22.813  22.500  1.00  0.00    -0.268 OA
ATOM      6  H   UNL A   1      38.034  23.049  23.996  1.00  0.00     0.163 HD
BRANCH   4   7
ATOM      7  C   UNL A   1      34.662  23.558  24.222  1.00  0.00     0.306 C 
BRANCH   7   8
ATOM      8  C   UNL A   1      33.753  22.340  24.342  1.00  0.00     0.061 A 
ATOM      9  C   UNL A   1      33.836  21.504  25.468  1.00  0.00     0.131 A 
ATOM     10  C   UNL A   1      33.353  20.192  25.418  1.00  0.00     0.072 A 
ATOM     11  C   UNL A   1      32.752  19.701  24.257  1.00  0.00     0.040 A 
ATOM     12  C   UNL A   1      32.949  21.915  23.272  1.00  0.00     0.016 A 
ATOM     13  C   UNL A   1      32.480  20.600  23.223  1.00  0.00     0.027 A 
BRANCH   9  14
ATOM     14  O   UNL A   1      34.616  21.866  26.536  1.00  0.00    -0.493 OA
BRANCH  14  15
ATOM     15  C   UNL A   1      33.891  21.892  27.771  1.00  0.00     0.226 C 
ATOM     16  C   UNL A   1      32.668  22.787  27.650  1.00  0.00     0.049 C 
ENDBRANCH  14  15
ENDBRANCH   9  14
BRANCH  11  17
ATOM     17  N   UNL A   1      32.558  18.347  24.100  1.00  0.00    -0.367 N 
ATOM     18  C   UNL A   1      32.371  17.489  25.277  1.00  0.00     0.145 C 
ATOM     19  C   UNL A   1      32.881  17.665  22.851  1.00  0.00     0.145 C 
ATOM     20  C   UNL A   1      33.528  16.487  25.398  1.00  0.00     0.181 C 
ATOM     21  C   UNL A   1      34.025  16.665  23.094  1.00  0.00     0.181 C 
ATOM     22  O   UNL A   1      33.727  15.759  24.172  1.00  0.00    -0.378 OA
ENDBRANCH  11  17
ENDBRANCH   7   8
BRANCH   7  23
ATOM     23  N   UNL A   1      34.114  24.673  23.413  1.00  0.00    -0.343 N 
ATOM     24  H   UNL A   1      34.250  24.472  22.422  1.00  0.00     0.345 HD
ATOM     25  H   UNL A   1      34.596  25.538  23.654  1.00  0.00     0.345 HD
ATOM     26  H   UNL A   1      33.118  24.774  23.605  1.00  0.00     0.345 HD
ENDBRANCH   7  23
ENDBRANCH   4   7
ENDBRANCH   2   3
ENDBRANCH   1   2
BRANCH   1  27
ATOM     27  C   UNL A   1      39.659  23.472  26.827  1.00  0.00     0.118 C 
BRANCH  27  28
ATOM     28  N   UNL A   1      40.964  23.694  26.214  1.00  0.00    -0.352 N 
ATOM     29  C   UNL A   1      41.782  24.794  26.310  1.00  0.00     0.251 C 
ATOM     30  H   UNL A   1      41.303  22.957  25.655  1.00  0.00     0.163 HD
ATOM     31  O   UNL A   1      42.746  24.920  25.559  1.00  0.00    -0.269 OA
BRANCH  29  32
ATOM     32  C   UNL A   1      41.468  25.830  27.313  1.00  0.00     0.039 A 
ATOM     33  C   UNL A   1      40.718  25.495  28.442  1.00  0.00     0.014 A 
ATOM     34  C   UNL A   1      41.969  27.124  27.152  1.00  0.00     0.014 A 
ATOM     35  C   UNL A   1      40.535  26.444  29.450  1.00  0.00     0.010 A 
ATOM     36  C   UNL A   1      41.876  28.028  28.199  1.00  0.00     0.010 A 
ATOM     37  C   UNL A   1      41.145  27.704  29.352  1.00  0.00    -0.014 A 
BRANCH  37  38
ATOM     38  C   UNL A   1      41.015  28.737  30.409  1.00  0.00     0.031 A 
ATOM     39  C   UNL A   1      41.882  28.639  31.634  1.00  0.00     0.074 A 
ATOM     40  C   UNL A   1      40.048  29.671  30.332  1.00  0.00     0.049 A 
ATOM     41  N   UNL A   1      41.807  29.299  32.759  1.00  0.00    -0.248 NA
ATOM     42  C   UNL A   1      42.948  27.624  31.603  1.00  0.00     0.031 C 
ATOM     43  C   UNL A   1      39.112  29.834  29.217  1.00  0.00     0.029 A 
ATOM     44  N   UNL A   1      39.670  30.640  31.228  1.00  0.00    -0.354 N 
ATOM     45  C   UNL A   1      42.779  28.747  33.583  1.00  0.00     0.074 A 
ATOM     46  C   UNL A   1      43.397  27.667  32.847  1.00  0.00     0.031 C 
ATOM     47  C   UNL A   1      38.271  30.842  29.494  1.00  0.00     0.029 A 
ATOM     48  C   UNL A   1      38.576  31.368  30.821  1.00  0.00     0.049 A 
ATOM     49  H   UNL A   1      40.138  30.798  32.078  1.00  0.00     0.167 HD
ATOM     50  C   UNL A   1      43.137  29.119  34.835  1.00  0.00     0.037 A 
ATOM     51  C   UNL A   1      37.885  32.335  31.457  1.00  0.00     0.037 A 
ATOM     52  C   UNL A   1      42.545  30.225  35.537  1.00  0.00     0.049 A 
ATOM     53  C   UNL A   1      38.321  32.765  32.831  1.00  0.00     0.074 A 
ATOM     54  C   UNL A   1      42.886  30.741  36.773  1.00  0.00     0.029 A 
ATOM     55  N   UNL A   1      41.487  30.987  35.059  1.00  0.00    -0.354 N 
ATOM     56  N   UNL A   1      39.283  32.277  33.576  1.00  0.00    -0.248 NA
ATOM     57  C   UNL A   1      37.586  33.877  33.449  1.00  0.00     0.031 C 
ATOM     58  C   UNL A   1      42.008  31.791  37.062  1.00  0.00     0.029 A 
ATOM     59  C   UNL A   1      41.153  31.961  35.983  1.00  0.00     0.049 A 
ATOM     60  H   UNL A   1      41.042  30.854  34.192  1.00  0.00     0.167 HD
ATOM     61  C   UNL A   1      39.293  33.042  34.737  1.00  0.00     0.074 A 
ATOM     62  C   UNL A   1      38.235  34.022  34.598  1.00  0.00     0.031 C 
ATOM     63  C   UNL A   1      40.109  32.943  35.816  1.00  0.00     0.037 A 
BRANCH  50  64
ATOM     64  C   UNL A   1      44.209  28.311  35.514  1.00  0.00     0.058 A 
ATOM     65  C   UNL A   1      45.571  28.625  35.384  1.00  0.00     0.135 A 
ATOM     66  C   UNL A   1      43.868  27.191  36.290  1.00  0.00     0.135 A 
ATOM     67  F   UNL A   1      45.955  29.678  34.643  1.00  0.00    -0.206 F 
ATOM     68  C   UNL A   1      46.560  27.824  35.947  1.00  0.00     0.059 A 
ATOM     69  C   UNL A   1      44.840  26.395  36.891  1.00  0.00     0.059 A 
ATOM     70  F   UNL A   1      42.581  26.846  36.454  1.00  0.00    -0.206 F 
ATOM     71  C   UNL A   1      46.184  26.706  36.689  1.00  0.00     0.060 A 
BRANCH  71  72
ATOM     72  S   UNL A   1      47.477  25.650  37.376  1.00  0.00     0.124 S 
ATOM     73  O   UNL A   1      46.800  25.086  38.541  1.00  0.00    -0.237 OA
ATOM     74  O   UNL A   1      47.736  24.717  36.284  1.00  0.00    -0.237 OA
ATOM     75  O   UNL A   1      48.558  26.584  37.670  1.00  0.00    -0.744 OA
ENDBRANCH  71  72
ENDBRANCH  50  64
BRANCH  51  76
ATOM     76  C   UNL A   1      36.727  32.968  30.775  1.00  0.00     0.058 A 
ATOM     77  C   UNL A   1      35.412  32.627  31.123  1.00  0.00     0.135 A 
ATOM     78  C   UNL A   1      36.908  33.982  29.821  1.00  0.00     0.135 A 
ATOM     79  F   UNL A   1      35.187  31.660  32.025  1.00  0.00    -0.206 F 
ATOM     80  C   UNL A   1      34.318  33.274  30.558  1.00  0.00     0.059 A 
ATOM     81  C   UNL A   1      35.830  34.658  29.256  1.00  0.00     0.059 A 
ATOM     82  F   UNL A   1      38.147  34.358  29.467  1.00  0.00    -0.206 F 
ATOM     83  C   UNL A   1      34.537  34.297  29.634  1.00  0.00     0.060 A 
BRANCH  83  84
ATOM     84  S   UNL A   1      33.111  35.199  28.986  1.00  0.00     0.124 S 
ATOM     85  O   UNL A   1      32.544  34.227  28.059  1.00  0.00    -0.237 OA
ATOM     86  O   UNL A   1      32.337  35.453  30.197  1.00  0.00    -0.237 OA
ATOM     87  O   UNL A   1      33.712  36.380  28.376  1.00  0.00    -0.744 OA
ENDBRANCH  83  84
ENDBRANCH  51  76
BRANCH  63  88
ATOM     88  C   UNL A   1      39.937  33.946  36.922  1.00  0.00     0.058 A 
ATOM     89  C   UNL A   1      39.127  33.685  38.036  1.00  0.00     0.135 A 
ATOM     90  C   UNL A   1      40.691  35.132  36.916  1.00  0.00     0.135 A 
ATOM     91  F   UNL A   1      38.383  32.570  38.084  1.00  0.00    -0.206 F 
ATOM     92  C   UNL A   1      39.075  34.564  39.113  1.00  0.00     0.059 A 
ATOM     93  C   UNL A   1      40.671  36.012  37.992  1.00  0.00     0.059 A 
ATOM     94  F   UNL A   1      41.487  35.421  35.875  1.00  0.00    -0.206 F 
ATOM     95  C   UNL A   1      39.860  35.720  39.087  1.00  0.00     0.060 A 
BRANCH  95  96
ATOM     96  S   UNL A   1      39.850  36.807  40.528  1.00  0.00     0.124 S 
ATOM     97  O   UNL A   1      38.559  37.473  40.385  1.00  0.00    -0.237 OA
ATOM     98  O   UNL A   1      39.957  35.860  41.634  1.00  0.00    -0.237 OA
ATOM     99  O   UNL A   1      41.021  37.655  40.323  1.00  0.00    -0.744 OA
ENDBRANCH  95  96
ENDBRANCH  63  88
ENDBRANCH  37  38
ENDBRANCH  29  32
ENDBRANCH  27  28
ENDBRANCH   1  27
TORSDOF 18
ENDMDL
