MODEL 1
REMARK VINA RESULT:     -12.2      0.000      0.000
REMARK SMILES Cc1c(CCC(=O)N[C@@H](C)C(=O)NCCCNC(=O)c2ccc(-c3c4nc(c(-c5c(F)cc(S(=O)(=O)[O-])cc5F)c5ccc([nH]5)c(-c5c(F)cc(S(=O)(=O)[O-])cc5F)c5nc(c(-c6c(F)cc(S(=O)(=O)[O-])cc6F)c6ccc3[nH]6)C=C5)C=C4)cc2)c(=O)oc2cc3oc4c(c3cc12)CCCC4
REMARK SMILES IDX 14 1 13 2 11 3 12 4 9 6 10 7 8 8 6 9 7 10 5 12 4 13 3 14
REMARK SMILES IDX 1 15 2 16 97 17 86 18 89 19 96 20 87 21 88 22 90 23 95 24
REMARK SMILES IDX 91 25 94 26 92 27 93 28 98 29 101 30 99 31 100 32 15 33
REMARK SMILES IDX 16 34 17 35 18 36 19 38 20 39 21 40 85 41 22 42 84 43 23 44
REMARK SMILES IDX 24 45 25 46 78 47 26 48 83 49 77 50 79 51 27 52 82 53 76 54
REMARK SMILES IDX 75 55 28 57 62 58 41 59 61 60 42 61 45 62 60 63 80 64 43 65
REMARK SMILES IDX 44 66 59 68 81 69 46 70 29 71 30 72 39 73 31 74 32 75 38 76
REMARK SMILES IDX 40 77 33 78 34 79 35 80 36 81 37 82 63 83 64 84 73 85 65 86
REMARK SMILES IDX 66 87 72 88 74 89 67 90 68 91 69 92 70 93 71 94 47 95 48 96
REMARK SMILES IDX 57 97 49 98 50 99 56 100 58 101 51 102 52 103 53 104 54 105
REMARK SMILES IDX 55 106
REMARK H PARENT 13 5 8 11 17 37 79 56 45 67
REMARK Flexibility Score: inf
ROOT
ATOM      1  C   UNL A   1      38.574  22.888  26.049  1.00  0.00     0.117 C 
ENDROOT
BRANCH   1   2
ATOM      2  N   UNL A   1      37.981  23.136  24.735  1.00  0.00    -0.354 N 
ATOM      3  C   UNL A   1      36.733  22.947  24.209  1.00  0.00     0.242 C 
ATOM      4  O   UNL A   1      36.681  22.938  22.973  1.00  0.00    -0.273 OA
ATOM      5  H   UNL A   1      38.616  23.522  24.090  1.00  0.00     0.163 HD
BRANCH   3   6
ATOM      6  C   UNL A   1      35.426  22.940  25.048  1.00  0.00     0.168 C 
ATOM      7  C   UNL A   1      35.134  24.206  25.819  1.00  0.00     0.041 C 
BRANCH   6   8
ATOM      8  N   UNL A   1      35.350  21.859  26.035  1.00  0.00    -0.345 N 
ATOM      9  C   UNL A   1      34.236  21.076  26.211  1.00  0.00     0.220 C 
ATOM     10  O   UNL A   1      33.796  20.889  27.343  1.00  0.00    -0.275 OA
ATOM     11  H   UNL A   1      36.137  21.686  26.601  1.00  0.00     0.164 HD
BRANCH   9  12
ATOM     12  C   UNL A   1      33.626  20.391  24.999  1.00  0.00     0.105 C 
BRANCH  12  13
ATOM     13  C   UNL A   1      32.141  20.689  24.734  1.00  0.00     0.053 C 
BRANCH  13  14
ATOM     14  C   UNL A   1      31.873  22.116  24.303  1.00  0.00     0.042 A 
ATOM     15  C   UNL A   1      31.167  22.975  26.596  1.00  0.00     0.046 C 
ATOM     16  C   UNL A   1      31.570  23.118  25.148  1.00  0.00    -0.030 A 
ATOM     17  C   UNL A   1      31.766  24.477  24.637  1.00  0.00     0.022 A 
ATOM     18  C   UNL A   1      31.920  22.375  22.826  1.00  0.00     0.339 A 
ATOM     19  C   UNL A   1      31.706  24.736  23.270  1.00  0.00     0.142 A 
ATOM     20  C   UNL A   1      32.190  25.490  25.494  1.00  0.00     0.024 A 
ATOM     21  O   UNL A   1      32.156  21.475  22.026  1.00  0.00    -0.246 OA
ATOM     22  O   UNL A   1      31.592  23.655  22.381  1.00  0.00    -0.422 OA
ATOM     23  C   UNL A   1      31.817  26.028  22.726  1.00  0.00     0.095 A 
ATOM     24  C   UNL A   1      32.534  26.726  24.953  1.00  0.00     0.025 A 
ATOM     25  C   UNL A   1      32.175  27.013  23.641  1.00  0.00     0.138 A 
ATOM     26  C   UNL A   1      33.114  27.892  25.475  1.00  0.00     0.001 A 
ATOM     27  O   UNL A   1      32.143  28.381  23.490  1.00  0.00    -0.461 OA
ATOM     28  C   UNL A   1      32.548  28.872  24.696  1.00  0.00     0.108 A 
ATOM     29  C   UNL A   1      33.603  28.197  26.836  1.00  0.00     0.040 C 
ATOM     30  C   UNL A   1      31.921  30.066  25.330  1.00  0.00     0.076 C 
ATOM     31  C   UNL A   1      32.467  28.863  27.621  1.00  0.00     0.005 C 
ATOM     32  C   UNL A   1      31.405  29.580  26.728  1.00  0.00     0.008 C 
ENDBRANCH  13  14
ENDBRANCH  12  13
ENDBRANCH   9  12
ENDBRANCH   6   8
ENDBRANCH   3   6
ENDBRANCH   1   2
BRANCH   1  33
ATOM     33  C   UNL A   1      39.123  21.466  26.131  1.00  0.00     0.042 C 
BRANCH  33  34
ATOM     34  C   UNL A   1      40.295  21.405  27.109  1.00  0.00     0.118 C 
BRANCH  34  35
ATOM     35  N   UNL A   1      41.567  21.124  26.452  1.00  0.00    -0.352 N 
ATOM     36  C   UNL A   1      42.606  21.979  26.130  1.00  0.00     0.251 C 
ATOM     37  H   UNL A   1      41.707  20.184  26.200  1.00  0.00     0.163 HD
ATOM     38  O   UNL A   1      43.542  21.588  25.461  1.00  0.00    -0.269 OA
BRANCH  36  39
ATOM     39  C   UNL A   1      42.517  23.393  26.553  1.00  0.00     0.039 A 
ATOM     40  C   UNL A   1      42.703  24.413  25.622  1.00  0.00     0.014 A 
ATOM     41  C   UNL A   1      42.339  23.686  27.909  1.00  0.00     0.014 A 
ATOM     42  C   UNL A   1      42.952  25.698  26.067  1.00  0.00     0.010 A 
ATOM     43  C   UNL A   1      42.504  24.997  28.349  1.00  0.00     0.010 A 
ATOM     44  C   UNL A   1      42.894  25.981  27.435  1.00  0.00    -0.014 A 
BRANCH  44  45
ATOM     45  C   UNL A   1      43.251  27.353  27.799  1.00  0.00     0.031 A 
ATOM     46  C   UNL A   1      42.094  28.293  27.808  1.00  0.00     0.074 A 
ATOM     47  C   UNL A   1      44.285  27.599  28.627  1.00  0.00     0.049 A 
ATOM     48  N   UNL A   1      41.258  28.389  28.797  1.00  0.00    -0.248 NA
ATOM     49  C   UNL A   1      41.663  28.982  26.592  1.00  0.00     0.031 C 
ATOM     50  C   UNL A   1      44.587  26.855  29.855  1.00  0.00     0.029 A 
ATOM     51  N   UNL A   1      45.122  28.687  28.670  1.00  0.00    -0.354 N 
ATOM     52  C   UNL A   1      40.181  29.130  28.344  1.00  0.00     0.074 A 
ATOM     53  C   UNL A   1      40.467  29.462  26.966  1.00  0.00     0.031 C 
ATOM     54  C   UNL A   1      45.411  27.599  30.617  1.00  0.00     0.029 A 
ATOM     55  C   UNL A   1      45.791  28.801  29.885  1.00  0.00     0.049 A 
ATOM     56  H   UNL A   1      45.235  29.318  27.923  1.00  0.00     0.167 HD
ATOM     57  C   UNL A   1      39.120  29.450  29.126  1.00  0.00     0.037 A 
ATOM     58  C   UNL A   1      46.149  29.995  30.436  1.00  0.00     0.037 A 
ATOM     59  C   UNL A   1      39.227  29.050  30.497  1.00  0.00     0.049 A 
ATOM     60  C   UNL A   1      44.816  30.419  31.013  1.00  0.00     0.074 A 
ATOM     61  C   UNL A   1      38.844  27.981  31.274  1.00  0.00     0.029 A 
ATOM     62  N   UNL A   1      39.972  29.852  31.332  1.00  0.00    -0.354 N 
ATOM     63  N   UNL A   1      44.284  29.967  32.123  1.00  0.00    -0.248 NA
ATOM     64  C   UNL A   1      43.861  31.080  30.117  1.00  0.00     0.031 C 
ATOM     65  C   UNL A   1      39.740  27.981  32.387  1.00  0.00     0.029 A 
ATOM     66  C   UNL A   1      40.647  29.022  32.188  1.00  0.00     0.049 A 
ATOM     67  H   UNL A   1      40.010  30.836  31.318  1.00  0.00     0.167 HD
ATOM     68  C   UNL A   1      42.900  30.019  31.920  1.00  0.00     0.074 A 
ATOM     69  C   UNL A   1      42.708  30.759  30.691  1.00  0.00     0.031 C 
ATOM     70  C   UNL A   1      41.999  29.286  32.637  1.00  0.00     0.037 A 
BRANCH  57  71
ATOM     71  C   UNL A   1      38.015  30.332  28.707  1.00  0.00     0.058 A 
ATOM     72  C   UNL A   1      38.100  31.696  29.019  1.00  0.00     0.135 A 
ATOM     73  C   UNL A   1      36.808  29.837  28.203  1.00  0.00     0.135 A 
ATOM     74  F   UNL A   1      39.248  32.203  29.501  1.00  0.00    -0.206 F 
ATOM     75  C   UNL A   1      37.004  32.536  28.900  1.00  0.00     0.059 A 
ATOM     76  C   UNL A   1      35.693  30.663  28.068  1.00  0.00     0.059 A 
ATOM     77  F   UNL A   1      36.686  28.538  27.887  1.00  0.00    -0.206 F 
ATOM     78  C   UNL A   1      35.796  32.003  28.451  1.00  0.00     0.060 A 
BRANCH  78  79
ATOM     79  S   UNL A   1      34.353  33.087  28.436  1.00  0.00     0.124 S 
ATOM     80  O   UNL A   1      33.412  32.320  27.627  1.00  0.00    -0.237 OA
ATOM     81  O   UNL A   1      34.036  33.188  29.857  1.00  0.00    -0.237 OA
ATOM     82  O   UNL A   1      34.856  34.312  27.820  1.00  0.00    -0.744 OA
ENDBRANCH  78  79
ENDBRANCH  57  71
BRANCH  58  83
ATOM     83  C   UNL A   1      47.014  30.813  29.523  1.00  0.00     0.058 A 
ATOM     84  C   UNL A   1      48.325  31.112  29.967  1.00  0.00     0.135 A 
ATOM     85  C   UNL A   1      46.696  31.233  28.226  1.00  0.00     0.135 A 
ATOM     86  F   UNL A   1      48.677  30.866  31.241  1.00  0.00    -0.206 F 
ATOM     87  C   UNL A   1      49.309  31.601  29.118  1.00  0.00     0.059 A 
ATOM     88  C   UNL A   1      47.672  31.707  27.345  1.00  0.00     0.059 A 
ATOM     89  F   UNL A   1      45.443  31.155  27.760  1.00  0.00    -0.206 F 
ATOM     90  C   UNL A   1      48.987  31.835  27.787  1.00  0.00     0.060 A 
BRANCH  90  91
ATOM     91  S   UNL A   1      50.323  32.217  26.637  1.00  0.00     0.124 S 
ATOM     92  O   UNL A   1      51.337  32.781  27.521  1.00  0.00    -0.237 OA
ATOM     93  O   UNL A   1      50.618  30.897  26.085  1.00  0.00    -0.237 OA
ATOM     94  O   UNL A   1      49.708  33.155  25.703  1.00  0.00    -0.744 OA
ENDBRANCH  90  91
ENDBRANCH  58  83
BRANCH  70  95
ATOM     95  C   UNL A   1      42.538  28.536  33.808  1.00  0.00     0.058 A 
ATOM     96  C   UNL A   1      42.539  29.119  35.080  1.00  0.00     0.135 A 
ATOM     97  C   UNL A   1      42.970  27.204  33.692  1.00  0.00     0.135 A 
ATOM     98  F   UNL A   1      42.129  30.387  35.246  1.00  0.00    -0.206 F 
ATOM     99  C   UNL A   1      42.912  28.393  36.208  1.00  0.00     0.059 A 
ATOM    100  C   UNL A   1      43.321  26.452  34.809  1.00  0.00     0.059 A 
ATOM    101  F   UNL A   1      43.016  26.597  32.494  1.00  0.00    -0.206 F 
ATOM    102  C   UNL A   1      43.281  27.054  36.065  1.00  0.00     0.060 A 
BRANCH 102 103
ATOM    103  S   UNL A   1      43.626  26.087  37.548  1.00  0.00     0.124 S 
ATOM    104  O   UNL A   1      42.311  25.540  37.866  1.00  0.00    -0.237 OA
ATOM    105  O   UNL A   1      44.615  25.125  37.070  1.00  0.00    -0.237 OA
ATOM    106  O   UNL A   1      44.136  27.078  38.491  1.00  0.00    -0.744 OA
ENDBRANCH 102 103
ENDBRANCH  70  95
ENDBRANCH  44  45
ENDBRANCH  36  39
ENDBRANCH  34  35
ENDBRANCH  33  34
ENDBRANCH   1  33
TORSDOF 17
ENDMDL
MODEL 2
REMARK VINA RESULT:     -11.8      8.025     14.523
REMARK SMILES Cc1c(CCC(=O)N[C@@H](C)C(=O)NCCCNC(=O)c2ccc(-c3c4nc(c(-c5c(F)cc(S(=O)(=O)[O-])cc5F)c5ccc([nH]5)c(-c5c(F)cc(S(=O)(=O)[O-])cc5F)c5nc(c(-c6c(F)cc(S(=O)(=O)[O-])cc6F)c6ccc3[nH]6)C=C5)C=C4)cc2)c(=O)oc2cc3oc4c(c3cc12)CCCC4
REMARK SMILES IDX 14 1 13 2 11 3 12 4 9 6 10 7 8 8 6 9 7 10 5 12 4 13 3 14
REMARK SMILES IDX 1 15 2 16 97 17 86 18 89 19 96 20 87 21 88 22 90 23 95 24
REMARK SMILES IDX 91 25 94 26 92 27 93 28 98 29 101 30 99 31 100 32 15 33
REMARK SMILES IDX 16 34 17 35 18 36 19 38 20 39 21 40 85 41 22 42 84 43 23 44
REMARK SMILES IDX 24 45 25 46 78 47 26 48 83 49 77 50 79 51 27 52 82 53 76 54
REMARK SMILES IDX 75 55 28 57 62 58 41 59 61 60 42 61 45 62 60 63 80 64 43 65
REMARK SMILES IDX 44 66 59 68 81 69 46 70 29 71 30 72 39 73 31 74 32 75 38 76
REMARK SMILES IDX 40 77 33 78 34 79 35 80 36 81 37 82 63 83 64 84 73 85 65 86
REMARK SMILES IDX 66 87 72 88 74 89 67 90 68 91 69 92 70 93 71 94 47 95 48 96
REMARK SMILES IDX 57 97 49 98 50 99 56 100 58 101 51 102 52 103 53 104 54 105
REMARK SMILES IDX 55 106
REMARK H PARENT 13 5 8 11 17 37 79 56 45 67
REMARK Flexibility Score: inf
ROOT
ATOM      1  C   UNL A   1      42.078  40.527  27.568  1.00  0.00     0.117 C 
ENDROOT
BRANCH   1   2
ATOM      2  N   UNL A   1      41.455  40.924  28.831  1.00  0.00    -0.354 N 
ATOM      3  C   UNL A   1      41.938  41.187  30.083  1.00  0.00     0.242 C 
ATOM      4  O   UNL A   1      41.096  41.149  30.988  1.00  0.00    -0.273 OA
ATOM      5  H   UNL A   1      40.478  41.023  28.767  1.00  0.00     0.163 HD
BRANCH   3   6
ATOM      6  C   UNL A   1      43.377  41.695  30.372  1.00  0.00     0.168 C 
ATOM      7  C   UNL A   1      43.725  41.883  31.830  1.00  0.00     0.041 C 
BRANCH   6   8
ATOM      8  N   UNL A   1      43.706  42.971  29.728  1.00  0.00    -0.345 N 
ATOM      9  C   UNL A   1      44.849  43.171  28.994  1.00  0.00     0.220 C 
ATOM     10  O   UNL A   1      45.545  44.161  29.208  1.00  0.00    -0.275 OA
ATOM     11  H   UNL A   1      43.077  43.721  29.828  1.00  0.00     0.164 HD
BRANCH   9  12
ATOM     12  C   UNL A   1      45.175  42.199  27.872  1.00  0.00     0.105 C 
BRANCH  12  13
ATOM     13  C   UNL A   1      46.146  42.714  26.797  1.00  0.00     0.053 C 
BRANCH  13  14
ATOM     14  C   UNL A   1      45.477  43.043  25.479  1.00  0.00     0.042 A 
ATOM     15  C   UNL A   1      45.621  45.576  25.714  1.00  0.00     0.046 C 
ATOM     16  C   UNL A   1      45.369  44.285  24.974  1.00  0.00    -0.030 A 
ATOM     17  C   UNL A   1      45.096  44.379  23.538  1.00  0.00     0.022 A 
ATOM     18  C   UNL A   1      44.873  41.884  24.741  1.00  0.00     0.339 A 
ATOM     19  C   UNL A   1      44.442  43.345  22.872  1.00  0.00     0.142 A 
ATOM     20  C   UNL A   1      45.644  45.418  22.789  1.00  0.00     0.024 A 
ATOM     21  O   UNL A   1      44.920  40.744  25.193  1.00  0.00    -0.246 OA
ATOM     22  O   UNL A   1      44.170  42.156  23.568  1.00  0.00    -0.422 OA
ATOM     23  C   UNL A   1      44.090  43.406  21.511  1.00  0.00     0.095 A 
ATOM     24  C   UNL A   1      45.512  45.388  21.403  1.00  0.00     0.025 A 
ATOM     25  C   UNL A   1      44.607  44.503  20.829  1.00  0.00     0.138 A 
ATOM     26  C   UNL A   1      46.037  46.162  20.357  1.00  0.00     0.001 A 
ATOM     27  O   UNL A   1      44.274  44.974  19.579  1.00  0.00    -0.461 OA
ATOM     28  C   UNL A   1      45.039  46.092  19.415  1.00  0.00     0.108 A 
ATOM     29  C   UNL A   1      46.974  47.305  20.382  1.00  0.00     0.040 C 
ATOM     30  C   UNL A   1      44.522  47.335  18.776  1.00  0.00     0.076 C 
ATOM     31  C   UNL A   1      46.155  48.600  20.426  1.00  0.00     0.005 C 
ATOM     32  C   UNL A   1      44.713  48.468  19.840  1.00  0.00     0.008 C 
ENDBRANCH  13  14
ENDBRANCH  12  13
ENDBRANCH   9  12
ENDBRANCH   6   8
ENDBRANCH   3   6
ENDBRANCH   1   2
BRANCH   1  33
ATOM     33  C   UNL A   1      42.351  39.026  27.552  1.00  0.00     0.042 C 
BRANCH  33  34
ATOM     34  C   UNL A   1      43.825  38.752  27.847  1.00  0.00     0.118 C 
BRANCH  34  35
ATOM     35  N   UNL A   1      44.369  37.660  27.047  1.00  0.00    -0.352 N 
ATOM     36  C   UNL A   1      44.351  36.296  27.279  1.00  0.00     0.251 C 
ATOM     37  H   UNL A   1      44.817  37.935  26.215  1.00  0.00     0.163 HD
ATOM     38  O   UNL A   1      44.974  35.539  26.561  1.00  0.00    -0.269 OA
BRANCH  36  39
ATOM     39  C   UNL A   1      43.620  35.789  28.460  1.00  0.00     0.039 A 
ATOM     40  C   UNL A   1      44.299  35.563  29.657  1.00  0.00     0.014 A 
ATOM     41  C   UNL A   1      42.269  35.453  28.330  1.00  0.00     0.014 A 
ATOM     42  C   UNL A   1      43.704  34.788  30.635  1.00  0.00     0.010 A 
ATOM     43  C   UNL A   1      41.642  34.747  29.354  1.00  0.00     0.010 A 
ATOM     44  C   UNL A   1      42.390  34.343  30.465  1.00  0.00    -0.014 A 
BRANCH  44  45
ATOM     45  C   UNL A   1      41.889  33.468  31.525  1.00  0.00     0.031 A 
ATOM     46  C   UNL A   1      40.418  33.566  31.742  1.00  0.00     0.074 A 
ATOM     47  C   UNL A   1      42.504  32.300  31.800  1.00  0.00     0.049 A 
ATOM     48  N   UNL A   1      39.544  32.952  31.005  1.00  0.00    -0.248 NA
ATOM     49  C   UNL A   1      39.846  34.574  32.635  1.00  0.00     0.031 C 
ATOM     50  C   UNL A   1      42.997  31.344  30.803  1.00  0.00     0.029 A 
ATOM     51  N   UNL A   1      42.598  31.630  32.995  1.00  0.00    -0.354 N 
ATOM     52  C   UNL A   1      38.308  33.493  31.310  1.00  0.00     0.074 A 
ATOM     53  C   UNL A   1      38.545  34.507  32.313  1.00  0.00     0.031 C 
ATOM     54  C   UNL A   1      43.174  30.150  31.402  1.00  0.00     0.029 A 
ATOM     55  C   UNL A   1      42.930  30.288  32.833  1.00  0.00     0.049 A 
ATOM     56  H   UNL A   1      42.446  32.053  33.871  1.00  0.00     0.167 HD
ATOM     57  C   UNL A   1      37.152  33.070  30.741  1.00  0.00     0.037 A 
ATOM     58  C   UNL A   1      42.504  29.303  33.671  1.00  0.00     0.037 A 
ATOM     59  C   UNL A   1      37.278  31.946  29.862  1.00  0.00     0.049 A 
ATOM     60  C   UNL A   1      41.093  29.121  33.155  1.00  0.00     0.074 A 
ATOM     61  C   UNL A   1      37.440  31.728  28.513  1.00  0.00     0.029 A 
ATOM     62  N   UNL A   1      37.348  30.698  30.438  1.00  0.00    -0.354 N 
ATOM     63  N   UNL A   1      40.752  28.467  32.072  1.00  0.00    -0.248 NA
ATOM     64  C   UNL A   1      40.060  30.038  33.650  1.00  0.00     0.031 C 
ATOM     65  C   UNL A   1      38.037  30.433  28.408  1.00  0.00     0.029 A 
ATOM     66  C   UNL A   1      38.247  29.967  29.706  1.00  0.00     0.049 A 
ATOM     67  H   UNL A   1      36.846  30.389  31.226  1.00  0.00     0.167 HD
ATOM     68  C   UNL A   1      39.605  29.110  31.593  1.00  0.00     0.074 A 
ATOM     69  C   UNL A   1      39.204  30.030  32.636  1.00  0.00     0.031 C 
ATOM     70  C   UNL A   1      39.164  29.019  30.305  1.00  0.00     0.037 A 
BRANCH  57  71
ATOM     71  C   UNL A   1      35.811  33.546  31.129  1.00  0.00     0.058 A 
ATOM     72  C   UNL A   1      35.097  34.335  30.217  1.00  0.00     0.135 A 
ATOM     73  C   UNL A   1      35.317  33.419  32.431  1.00  0.00     0.135 A 
ATOM     74  F   UNL A   1      35.543  34.472  28.956  1.00  0.00    -0.206 F 
ATOM     75  C   UNL A   1      33.963  35.034  30.597  1.00  0.00     0.059 A 
ATOM     76  C   UNL A   1      34.174  34.107  32.836  1.00  0.00     0.059 A 
ATOM     77  F   UNL A   1      35.968  32.669  33.335  1.00  0.00    -0.206 F 
ATOM     78  C   UNL A   1      33.525  34.936  31.918  1.00  0.00     0.060 A 
BRANCH  78  79
ATOM     79  S   UNL A   1      32.128  35.963  32.418  1.00  0.00     0.124 S 
ATOM     80  O   UNL A   1      31.143  34.958  32.804  1.00  0.00    -0.237 OA
ATOM     81  O   UNL A   1      32.701  36.745  33.510  1.00  0.00    -0.237 OA
ATOM     82  O   UNL A   1      31.812  36.718  31.209  1.00  0.00    -0.744 OA
ENDBRANCH  78  79
ENDBRANCH  57  71
BRANCH  58  83
ATOM     83  C   UNL A   1      42.895  29.553  35.098  1.00  0.00     0.058 A 
ATOM     84  C   UNL A   1      43.922  28.743  35.640  1.00  0.00     0.135 A 
ATOM     85  C   UNL A   1      42.417  30.574  35.929  1.00  0.00     0.135 A 
ATOM     86  F   UNL A   1      44.350  27.660  34.971  1.00  0.00    -0.206 F 
ATOM     87  C   UNL A   1      44.571  29.054  36.829  1.00  0.00     0.059 A 
ATOM     88  C   UNL A   1      43.064  30.920  37.117  1.00  0.00     0.059 A 
ATOM     89  F   UNL A   1      41.339  31.293  35.591  1.00  0.00    -0.206 F 
ATOM     90  C   UNL A   1      44.174  30.186  37.530  1.00  0.00     0.060 A 
BRANCH  90  91
ATOM     91  S   UNL A   1      45.183  30.728  38.923  1.00  0.00     0.124 S 
ATOM     92  O   UNL A   1      44.172  31.112  39.903  1.00  0.00    -0.237 OA
ATOM     93  O   UNL A   1      45.938  29.515  39.226  1.00  0.00    -0.237 OA
ATOM     94  O   UNL A   1      45.968  31.825  38.365  1.00  0.00    -0.744 OA
ENDBRANCH  90  91
ENDBRANCH  58  83
BRANCH  70  95
ATOM     95  C   UNL A   1      39.865  28.033  29.433  1.00  0.00     0.058 A 
ATOM     96  C   UNL A   1      39.456  26.694  29.411  1.00  0.00     0.135 A 
ATOM     97  C   UNL A   1      40.882  28.427  28.548  1.00  0.00     0.135 A 
ATOM     98  F   UNL A   1      38.483  26.268  30.232  1.00  0.00    -0.206 F 
ATOM     99  C   UNL A   1      40.005  25.786  28.511  1.00  0.00     0.059 A 
ATOM    100  C   UNL A   1      41.425  27.542  27.622  1.00  0.00     0.059 A 
ATOM    101  F   UNL A   1      41.335  29.692  28.539  1.00  0.00    -0.206 F 
ATOM    102  C   UNL A   1      40.973  26.224  27.606  1.00  0.00     0.060 A 
BRANCH 102 103
ATOM    103  S   UNL A   1      41.574  25.073  26.354  1.00  0.00     0.124 S 
ATOM    104  O   UNL A   1      42.938  24.818  26.806  1.00  0.00    -0.237 OA
ATOM    105  O   UNL A   1      40.643  23.955  26.485  1.00  0.00    -0.237 OA
ATOM    106  O   UNL A   1      41.458  25.829  25.110  1.00  0.00    -0.744 OA
ENDBRANCH 102 103
ENDBRANCH  70  95
ENDBRANCH  44  45
ENDBRANCH  36  39
ENDBRANCH  34  35
ENDBRANCH  33  34
ENDBRANCH   1  33
TORSDOF 17
ENDMDL
MODEL 3
REMARK VINA RESULT:     -11.5      8.821     14.771
REMARK SMILES Cc1c(CCC(=O)N[C@@H](C)C(=O)NCCCNC(=O)c2ccc(-c3c4nc(c(-c5c(F)cc(S(=O)(=O)[O-])cc5F)c5ccc([nH]5)c(-c5c(F)cc(S(=O)(=O)[O-])cc5F)c5nc(c(-c6c(F)cc(S(=O)(=O)[O-])cc6F)c6ccc3[nH]6)C=C5)C=C4)cc2)c(=O)oc2cc3oc4c(c3cc12)CCCC4
REMARK SMILES IDX 14 1 13 2 11 3 12 4 9 6 10 7 8 8 6 9 7 10 5 12 4 13 3 14
REMARK SMILES IDX 1 15 2 16 97 17 86 18 89 19 96 20 87 21 88 22 90 23 95 24
REMARK SMILES IDX 91 25 94 26 92 27 93 28 98 29 101 30 99 31 100 32 15 33
REMARK SMILES IDX 16 34 17 35 18 36 19 38 20 39 21 40 85 41 22 42 84 43 23 44
REMARK SMILES IDX 24 45 25 46 78 47 26 48 83 49 77 50 79 51 27 52 82 53 76 54
REMARK SMILES IDX 75 55 28 57 62 58 41 59 61 60 42 61 45 62 60 63 80 64 43 65
REMARK SMILES IDX 44 66 59 68 81 69 46 70 29 71 30 72 39 73 31 74 32 75 38 76
REMARK SMILES IDX 40 77 33 78 34 79 35 80 36 81 37 82 63 83 64 84 73 85 65 86
REMARK SMILES IDX 66 87 72 88 74 89 67 90 68 91 69 92 70 93 71 94 47 95 48 96
REMARK SMILES IDX 57 97 49 98 50 99 56 100 58 101 51 102 52 103 53 104 54 105
REMARK SMILES IDX 55 106
REMARK H PARENT 13 5 8 11 17 37 79 56 45 67
REMARK Flexibility Score: inf
ROOT
ATOM      1  C   UNL A   1      43.630  40.013  26.121  1.00  0.00     0.117 C 
ENDROOT
BRANCH   1   2
ATOM      2  N   UNL A   1      43.871  41.445  25.947  1.00  0.00    -0.354 N 
ATOM      3  C   UNL A   1      44.827  42.307  26.408  1.00  0.00     0.242 C 
ATOM      4  O   UNL A   1      44.523  43.506  26.351  1.00  0.00    -0.273 OA
ATOM      5  H   UNL A   1      43.201  41.883  25.374  1.00  0.00     0.163 HD
BRANCH   3   6
ATOM      6  C   UNL A   1      46.269  41.883  26.796  1.00  0.00     0.168 C 
ATOM      7  C   UNL A   1      47.150  42.979  27.346  1.00  0.00     0.041 C 
BRANCH   6   8
ATOM      8  N   UNL A   1      47.036  41.285  25.698  1.00  0.00    -0.345 N 
ATOM      9  C   UNL A   1      46.766  41.521  24.373  1.00  0.00     0.220 C 
ATOM     10  O   UNL A   1      46.677  40.578  23.591  1.00  0.00    -0.275 OA
ATOM     11  H   UNL A   1      47.782  40.683  25.923  1.00  0.00     0.164 HD
BRANCH   9  12
ATOM     12  C   UNL A   1      46.667  42.960  23.894  1.00  0.00     0.105 C 
BRANCH  12  13
ATOM     13  C   UNL A   1      47.035  43.206  22.422  1.00  0.00     0.053 C 
BRANCH  13  14
ATOM     14  C   UNL A   1      45.853  43.580  21.552  1.00  0.00     0.042 A 
ATOM     15  C   UNL A   1      45.953  46.086  22.000  1.00  0.00     0.046 C 
ATOM     16  C   UNL A   1      45.477  44.844  21.287  1.00  0.00    -0.030 A 
ATOM     17  C   UNL A   1      44.615  45.031  20.118  1.00  0.00     0.022 A 
ATOM     18  C   UNL A   1      45.054  42.434  21.003  1.00  0.00     0.339 A 
ATOM     19  C   UNL A   1      43.794  43.999  19.670  1.00  0.00     0.142 A 
ATOM     20  C   UNL A   1      44.738  46.178  19.336  1.00  0.00     0.024 A 
ATOM     21  O   UNL A   1      45.347  41.270  21.258  1.00  0.00    -0.246 OA
ATOM     22  O   UNL A   1      43.906  42.735  20.271  1.00  0.00    -0.422 OA
ATOM     23  C   UNL A   1      42.895  44.141  18.598  1.00  0.00     0.095 A 
ATOM     24  C   UNL A   1      44.031  46.252  18.138  1.00  0.00     0.025 A 
ATOM     25  C   UNL A   1      43.015  45.336  17.895  1.00  0.00     0.138 A 
ATOM     26  C   UNL A   1      44.021  47.158  17.067  1.00  0.00     0.001 A 
ATOM     27  O   UNL A   1      42.158  45.876  16.963  1.00  0.00    -0.461 OA
ATOM     28  C   UNL A   1      42.722  47.072  16.627  1.00  0.00     0.108 A 
ATOM     29  C   UNL A   1      44.819  48.380  16.832  1.00  0.00     0.040 C 
ATOM     30  C   UNL A   1      41.920  48.309  16.411  1.00  0.00     0.076 C 
ATOM     31  C   UNL A   1      44.031  49.582  17.365  1.00  0.00     0.005 C 
ATOM     32  C   UNL A   1      42.486  49.362  17.423  1.00  0.00     0.008 C 
ENDBRANCH  13  14
ENDBRANCH  12  13
ENDBRANCH   9  12
ENDBRANCH   6   8
ENDBRANCH   3   6
ENDBRANCH   1   2
BRANCH   1  33
ATOM     33  C   UNL A   1      43.532  39.661  27.603  1.00  0.00     0.042 C 
BRANCH  33  34
ATOM     34  C   UNL A   1      44.549  38.579  27.960  1.00  0.00     0.118 C 
BRANCH  34  35
ATOM     35  N   UNL A   1      44.625  37.519  26.961  1.00  0.00    -0.352 N 
ATOM     36  C   UNL A   1      44.258  36.189  27.050  1.00  0.00     0.251 C 
ATOM     37  H   UNL A   1      44.993  37.793  26.090  1.00  0.00     0.163 HD
ATOM     38  O   UNL A   1      44.517  35.414  26.150  1.00  0.00    -0.269 OA
BRANCH  36  39
ATOM     39  C   UNL A   1      43.614  35.714  28.294  1.00  0.00     0.039 A 
ATOM     40  C   UNL A   1      44.396  35.290  29.367  1.00  0.00     0.014 A 
ATOM     41  C   UNL A   1      42.220  35.609  28.339  1.00  0.00     0.014 A 
ATOM     42  C   UNL A   1      43.812  34.546  30.376  1.00  0.00     0.010 A 
ATOM     43  C   UNL A   1      41.622  34.935  29.401  1.00  0.00     0.010 A 
ATOM     44  C   UNL A   1      42.430  34.332  30.370  1.00  0.00    -0.014 A 
BRANCH  44  45
ATOM     45  C   UNL A   1      41.933  33.468  31.441  1.00  0.00     0.031 A 
ATOM     46  C   UNL A   1      40.463  33.574  31.665  1.00  0.00     0.074 A 
ATOM     47  C   UNL A   1      42.544  32.300  31.723  1.00  0.00     0.049 A 
ATOM     48  N   UNL A   1      39.582  32.956  30.938  1.00  0.00    -0.248 NA
ATOM     49  C   UNL A   1      39.899  34.591  32.552  1.00  0.00     0.031 C 
ATOM     50  C   UNL A   1      43.029  31.334  30.732  1.00  0.00     0.029 A 
ATOM     51  N   UNL A   1      42.642  31.641  32.924  1.00  0.00    -0.354 N 
ATOM     52  C   UNL A   1      38.350  33.504  31.245  1.00  0.00     0.074 A 
ATOM     53  C   UNL A   1      38.597  34.526  32.237  1.00  0.00     0.031 C 
ATOM     54  C   UNL A   1      43.205  30.145  31.341  1.00  0.00     0.029 A 
ATOM     55  C   UNL A   1      42.969  30.296  32.771  1.00  0.00     0.049 A 
ATOM     56  H   UNL A   1      42.497  32.072  33.796  1.00  0.00     0.167 HD
ATOM     57  C   UNL A   1      37.189  33.079  30.686  1.00  0.00     0.037 A 
ATOM     58  C   UNL A   1      42.544  29.320  33.621  1.00  0.00     0.037 A 
ATOM     59  C   UNL A   1      37.307  31.948  29.817  1.00  0.00     0.049 A 
ATOM     60  C   UNL A   1      41.130  29.139  33.114  1.00  0.00     0.074 A 
ATOM     61  C   UNL A   1      37.461  31.717  28.469  1.00  0.00     0.029 A 
ATOM     62  N   UNL A   1      37.375  30.705  30.403  1.00  0.00    -0.354 N 
ATOM     63  N   UNL A   1      40.781  28.477  32.039  1.00  0.00    -0.248 NA
ATOM     64  C   UNL A   1      40.102  30.064  33.607  1.00  0.00     0.031 C 
ATOM     65  C   UNL A   1      38.053  30.419  28.372  1.00  0.00     0.029 A 
ATOM     66  C   UNL A   1      38.268  29.964  29.673  1.00  0.00     0.049 A 
ATOM     67  H   UNL A   1      36.877  30.404  31.197  1.00  0.00     0.167 HD
ATOM     68  C   UNL A   1      39.634  29.119  31.560  1.00  0.00     0.074 A 
ATOM     69  C   UNL A   1      39.242  30.050  32.597  1.00  0.00     0.031 C 
ATOM     70  C   UNL A   1      39.185  29.018  30.276  1.00  0.00     0.037 A 
BRANCH  57  71
ATOM     71  C   UNL A   1      35.853  33.564  31.077  1.00  0.00     0.058 A 
ATOM     72  C   UNL A   1      35.139  34.352  30.164  1.00  0.00     0.135 A 
ATOM     73  C   UNL A   1      35.363  33.445  32.381  1.00  0.00     0.135 A 
ATOM     74  F   UNL A   1      35.581  34.482  28.901  1.00  0.00    -0.206 F 
ATOM     75  C   UNL A   1      34.009  35.058  30.545  1.00  0.00     0.059 A 
ATOM     76  C   UNL A   1      34.224  34.140  32.787  1.00  0.00     0.059 A 
ATOM     77  F   UNL A   1      36.013  32.696  33.286  1.00  0.00    -0.206 F 
ATOM     78  C   UNL A   1      33.576  34.969  31.868  1.00  0.00     0.060 A 
BRANCH  78  79
ATOM     79  S   UNL A   1      32.186  36.005  32.369  1.00  0.00     0.124 S 
ATOM     80  O   UNL A   1      31.876  36.707  31.129  1.00  0.00    -0.237 OA
ATOM     81  O   UNL A   1      31.207  35.011  32.800  1.00  0.00    -0.237 OA
ATOM     82  O   UNL A   1      32.746  36.831  33.435  1.00  0.00    -0.744 OA
ENDBRANCH  78  79
ENDBRANCH  57  71
BRANCH  58  83
ATOM     83  C   UNL A   1      42.943  29.582  35.044  1.00  0.00     0.058 A 
ATOM     84  C   UNL A   1      43.961  28.764  35.592  1.00  0.00     0.135 A 
ATOM     85  C   UNL A   1      42.483  30.619  35.863  1.00  0.00     0.135 A 
ATOM     86  F   UNL A   1      44.372  27.667  34.934  1.00  0.00    -0.206 F 
ATOM     87  C   UNL A   1      44.618  29.080  36.775  1.00  0.00     0.059 A 
ATOM     88  C   UNL A   1      43.139  30.970  37.045  1.00  0.00     0.059 A 
ATOM     89  F   UNL A   1      41.414  31.349  35.521  1.00  0.00    -0.206 F 
ATOM     90  C   UNL A   1      44.240  30.225  37.463  1.00  0.00     0.060 A 
BRANCH  90  91
ATOM     91  S   UNL A   1      45.261  30.770  38.846  1.00  0.00     0.124 S 
ATOM     92  O   UNL A   1      44.770  29.935  39.937  1.00  0.00    -0.237 OA
ATOM     93  O   UNL A   1      46.603  30.460  38.358  1.00  0.00    -0.237 OA
ATOM     94  O   UNL A   1      44.954  32.193  38.954  1.00  0.00    -0.744 OA
ENDBRANCH  90  91
ENDBRANCH  58  83
BRANCH  70  95
ATOM     95  C   UNL A   1      39.878  28.022  29.409  1.00  0.00     0.058 A 
ATOM     96  C   UNL A   1      39.475  26.681  29.412  1.00  0.00     0.135 A 
ATOM     97  C   UNL A   1      40.881  28.406  28.504  1.00  0.00     0.135 A 
ATOM     98  F   UNL A   1      38.514  26.264  30.253  1.00  0.00    -0.206 F 
ATOM     99  C   UNL A   1      40.014  25.762  28.518  1.00  0.00     0.059 A 
ATOM    100  C   UNL A   1      41.415  27.510  27.583  1.00  0.00     0.059 A 
ATOM    101  F   UNL A   1      41.329  29.673  28.470  1.00  0.00    -0.206 F 
ATOM    102  C   UNL A   1      40.968  26.190  27.594  1.00  0.00     0.060 A 
BRANCH 102 103
ATOM    103  S   UNL A   1      41.556  25.022  26.351  1.00  0.00     0.124 S 
ATOM    104  O   UNL A   1      42.927  24.779  26.788  1.00  0.00    -0.237 OA
ATOM    105  O   UNL A   1      40.631  23.903  26.511  1.00  0.00    -0.237 OA
ATOM    106  O   UNL A   1      41.421  25.759  25.098  1.00  0.00    -0.744 OA
ENDBRANCH 102 103
ENDBRANCH  70  95
ENDBRANCH  44  45
ENDBRANCH  36  39
ENDBRANCH  34  35
ENDBRANCH  33  34
ENDBRANCH   1  33
TORSDOF 17
ENDMDL
