MODEL 1
REMARK VINA RESULT:     -10.6      0.000      0.000
REMARK SMILES CC[C@@H](C)C[C@@H](C)[NH2+]Cc1ccc(C(=O)NCCCNC(=O)c2ccc(-c3c4nc(c(-c5c(F)cc(S(=O)(=O)[O-])cc5F)c5ccc([nH]5)c(-c5c(F)cc(S(=O)(=O)[O-])cc5F)c5nc(c(-c6c(F)cc(S(=O)(=O)[O-])cc6F)c6ccc3[nH]6)C=C5)C=C4)cc2)cn1
REMARK SMILES IDX 14 1 15 2 16 3 13 5 10 6 11 7 90 8 12 9 89 10 9 11 8 12 6 15
REMARK SMILES IDX 7 16 5 17 3 18 4 19 2 20 1 21 17 22 18 23 19 24 20 25 21 26
REMARK SMILES IDX 22 28 23 29 24 30 88 31 25 32 87 33 26 34 27 35 28 36 81 37
REMARK SMILES IDX 29 38 86 39 80 40 82 41 30 42 85 43 79 44 78 45 31 47 65 48
REMARK SMILES IDX 44 49 64 50 45 51 48 52 63 53 83 54 46 55 47 56 62 58 84 59
REMARK SMILES IDX 49 60 32 61 33 62 42 63 34 64 35 65 41 66 43 67 36 68 37 69
REMARK SMILES IDX 38 70 39 71 40 72 66 73 67 74 76 75 68 76 69 77 75 78 77 79
REMARK SMILES IDX 70 80 71 81 72 82 73 83 74 84 50 85 51 86 60 87 52 88 53 89
REMARK SMILES IDX 59 90 61 91 54 92 55 93 56 94 57 95 58 96
REMARK H PARENT 16 4 8 13 8 14 20 27 82 46 48 57
REMARK Flexibility Score: inf
ROOT
ATOM      1  C   UNL A   1      31.390  29.088  24.871  1.00  0.00     0.252 C 
ATOM      2  O   UNL A   1      30.655  29.850  24.244  1.00  0.00    -0.269 OA
ATOM      3  N   UNL A   1      32.458  29.623  25.553  1.00  0.00    -0.352 N 
ATOM      4  H   UNL A   1      32.502  30.605  25.514  1.00  0.00     0.163 HD
ENDROOT
BRANCH   1   5
ATOM      5  C   UNL A   1      31.121  27.637  24.810  1.00  0.00     0.058 A 
ATOM      6  C   UNL A   1      30.963  24.901  24.509  1.00  0.00     0.094 A 
ATOM      7  C   UNL A   1      30.638  25.469  25.740  1.00  0.00     0.030 A 
ATOM      8  N   UNL A   1      31.241  25.655  23.414  1.00  0.00    -0.255 NA
ATOM      9  C   UNL A   1      30.691  26.857  25.880  1.00  0.00     0.017 A 
ATOM     10  C   UNL A   1      31.308  26.999  23.588  1.00  0.00     0.125 A 
BRANCH   6  11
ATOM     11  C   UNL A   1      31.229  23.411  24.402  1.00  0.00     0.318 C 
BRANCH  11  12
ATOM     12  N   UNL A   1      31.478  22.949  23.020  1.00  0.00    -0.339 N 
ATOM     13  H   UNL A   1      30.708  22.342  22.741  1.00  0.00     0.346 HD
ATOM     14  H   UNL A   1      31.552  23.785  22.439  1.00  0.00     0.346 HD
BRANCH  12  15
ATOM     15  C   UNL A   1      32.740  22.202  22.853  1.00  0.00     0.179 C 
ATOM     16  C   UNL A   1      33.008  21.255  24.033  1.00  0.00     0.075 C 
BRANCH  15  17
ATOM     17  C   UNL A   1      33.890  23.234  22.747  1.00  0.00     0.068 C 
BRANCH  17  18
ATOM     18  C   UNL A   1      34.878  23.213  23.941  1.00  0.00    -0.009 C 
ATOM     19  C   UNL A   1      34.751  24.515  24.738  1.00  0.00     0.008 C 
BRANCH  18  20
ATOM     20  C   UNL A   1      36.323  22.978  23.462  1.00  0.00    -0.000 C 
ATOM     21  C   UNL A   1      37.027  21.843  24.195  1.00  0.00     0.004 C 
ENDBRANCH  18  20
ENDBRANCH  17  18
ENDBRANCH  15  17
ENDBRANCH  12  15
ENDBRANCH  11  12
ENDBRANCH   6  11
ENDBRANCH   1   5
BRANCH   3  22
ATOM     22  C   UNL A   1      33.533  29.015  26.323  1.00  0.00     0.118 C 
BRANCH  22  23
ATOM     23  C   UNL A   1      34.340  30.011  27.149  1.00  0.00     0.042 C 
BRANCH  23  24
ATOM     24  C   UNL A   1      35.355  29.399  28.107  1.00  0.00     0.118 C 
BRANCH  24  25
ATOM     25  N   UNL A   1      35.481  30.144  29.351  1.00  0.00    -0.352 N 
ATOM     26  C   UNL A   1      36.558  30.352  30.179  1.00  0.00     0.251 C 
ATOM     27  H   UNL A   1      34.649  30.576  29.651  1.00  0.00     0.163 HD
ATOM     28  O   UNL A   1      36.357  30.854  31.283  1.00  0.00    -0.269 OA
BRANCH  26  29
ATOM     29  C   UNL A   1      37.939  29.985  29.780  1.00  0.00     0.039 A 
ATOM     30  C   UNL A   1      38.280  30.040  28.422  1.00  0.00     0.014 A 
ATOM     31  C   UNL A   1      38.875  29.512  30.702  1.00  0.00     0.014 A 
ATOM     32  C   UNL A   1      39.559  29.661  28.003  1.00  0.00     0.010 A 
ATOM     33  C   UNL A   1      40.177  29.220  30.295  1.00  0.00     0.010 A 
ATOM     34  C   UNL A   1      40.528  29.267  28.939  1.00  0.00    -0.014 A 
BRANCH  34  35
ATOM     35  C   UNL A   1      41.892  28.860  28.509  1.00  0.00     0.031 A 
ATOM     36  C   UNL A   1      43.002  29.879  28.443  1.00  0.00     0.074 A 
ATOM     37  C   UNL A   1      42.125  27.586  28.139  1.00  0.00     0.049 A 
ATOM     38  N   UNL A   1      44.245  29.727  28.062  1.00  0.00    -0.248 NA
ATOM     39  C   UNL A   1      42.662  31.259  28.830  1.00  0.00     0.031 C 
ATOM     40  C   UNL A   1      41.122  26.518  28.104  1.00  0.00     0.029 A 
ATOM     41  N   UNL A   1      43.277  26.970  27.716  1.00  0.00    -0.354 N 
ATOM     42  C   UNL A   1      44.826  30.989  28.145  1.00  0.00     0.074 A 
ATOM     43  C   UNL A   1      43.786  31.905  28.557  1.00  0.00     0.031 C 
ATOM     44  C   UNL A   1      41.708  25.376  27.711  1.00  0.00     0.029 A 
ATOM     45  C   UNL A   1      43.119  25.632  27.439  1.00  0.00     0.049 A 
ATOM     46  H   UNL A   1      44.135  27.442  27.621  1.00  0.00     0.167 HD
ATOM     47  C   UNL A   1      46.115  31.347  27.925  1.00  0.00     0.037 A 
ATOM     48  C   UNL A   1      44.011  24.716  27.018  1.00  0.00     0.037 A 
ATOM     49  C   UNL A   1      47.153  30.424  27.547  1.00  0.00     0.049 A 
ATOM     50  C   UNL A   1      45.444  25.129  26.819  1.00  0.00     0.074 A 
ATOM     51  C   UNL A   1      48.500  30.674  27.349  1.00  0.00     0.029 A 
ATOM     52  N   UNL A   1      46.961  29.068  27.319  1.00  0.00    -0.354 N 
ATOM     53  N   UNL A   1      45.987  26.315  26.955  1.00  0.00    -0.248 NA
ATOM     54  C   UNL A   1      46.389  24.075  26.427  1.00  0.00     0.031 C 
ATOM     55  C   UNL A   1      49.116  29.476  26.969  1.00  0.00     0.029 A 
ATOM     56  C   UNL A   1      48.163  28.471  26.976  1.00  0.00     0.049 A 
ATOM     57  H   UNL A   1      46.098  28.601  27.390  1.00  0.00     0.167 HD
ATOM     58  C   UNL A   1      47.344  26.144  26.697  1.00  0.00     0.074 A 
ATOM     59  C   UNL A   1      47.537  24.738  26.409  1.00  0.00     0.031 C 
ATOM     60  C   UNL A   1      48.339  27.067  26.701  1.00  0.00     0.037 A 
BRANCH  47  61
ATOM     61  C   UNL A   1      46.473  32.800  28.099  1.00  0.00     0.058 A 
ATOM     62  C   UNL A   1      46.988  33.292  29.310  1.00  0.00     0.135 A 
ATOM     63  C   UNL A   1      46.321  33.707  27.038  1.00  0.00     0.135 A 
ATOM     64  F   UNL A   1      47.139  32.473  30.363  1.00  0.00    -0.206 F 
ATOM     65  C   UNL A   1      47.307  34.636  29.473  1.00  0.00     0.059 A 
ATOM     66  C   UNL A   1      46.662  35.051  27.170  1.00  0.00     0.059 A 
ATOM     67  F   UNL A   1      45.834  33.293  25.858  1.00  0.00    -0.206 F 
ATOM     68  C   UNL A   1      47.138  35.509  28.398  1.00  0.00     0.060 A 
BRANCH  68  69
ATOM     69  S   UNL A   1      47.557  37.250  28.627  1.00  0.00     0.124 S 
ATOM     70  O   UNL A   1      46.321  37.903  28.205  1.00  0.00    -0.237 OA
ATOM     71  O   UNL A   1      47.852  37.317  30.054  1.00  0.00    -0.237 OA
ATOM     72  O   UNL A   1      48.702  37.443  27.742  1.00  0.00    -0.744 OA
ENDBRANCH  68  69
ENDBRANCH  47  61
BRANCH  48  73
ATOM     73  C   UNL A   1      43.584  23.307  26.804  1.00  0.00     0.058 A 
ATOM     74  C   UNL A   1      43.414  22.794  25.509  1.00  0.00     0.135 A 
ATOM     75  C   UNL A   1      43.352  22.442  27.884  1.00  0.00     0.135 A 
ATOM     76  F   UNL A   1      43.620  23.582  24.444  1.00  0.00    -0.206 F 
ATOM     77  C   UNL A   1      43.011  21.480  25.291  1.00  0.00     0.059 A 
ATOM     78  C   UNL A   1      42.974  21.117  27.692  1.00  0.00     0.059 A 
ATOM     79  F   UNL A   1      43.521  22.878  29.143  1.00  0.00    -0.206 F 
ATOM     80  C   UNL A   1      42.795  20.649  26.392  1.00  0.00     0.060 A 
BRANCH  80  81
ATOM     81  S   UNL A   1      42.322  18.930  26.098  1.00  0.00     0.124 S 
ATOM     82  O   UNL A   1      40.910  19.069  25.756  1.00  0.00    -0.237 OA
ATOM     83  O   UNL A   1      43.210  18.549  25.005  1.00  0.00    -0.237 OA
ATOM     84  O   UNL A   1      42.602  18.283  27.377  1.00  0.00    -0.744 OA
ENDBRANCH  80  81
ENDBRANCH  48  73
BRANCH  60  85
ATOM     85  C   UNL A   1      49.732  26.571  26.432  1.00  0.00     0.058 A 
ATOM     86  C   UNL A   1      50.323  26.671  25.162  1.00  0.00     0.135 A 
ATOM     87  C   UNL A   1      50.493  26.004  27.467  1.00  0.00     0.135 A 
ATOM     88  F   UNL A   1      49.638  27.203  24.138  1.00  0.00    -0.206 F 
ATOM     89  C   UNL A   1      51.604  26.186  24.918  1.00  0.00     0.059 A 
ATOM     90  C   UNL A   1      51.786  25.539  27.252  1.00  0.00     0.059 A 
ATOM     91  F   UNL A   1      49.982  25.900  28.704  1.00  0.00    -0.206 F 
ATOM     92  C   UNL A   1      52.325  25.616  25.969  1.00  0.00     0.060 A 
BRANCH  92  93
ATOM     93  S   UNL A   1      53.985  24.986  25.641  1.00  0.00     0.124 S 
ATOM     94  O   UNL A   1      54.284  25.605  24.355  1.00  0.00    -0.237 OA
ATOM     95  O   UNL A   1      54.745  25.491  26.781  1.00  0.00    -0.237 OA
ATOM     96  O   UNL A   1      53.798  23.538  25.614  1.00  0.00    -0.744 OA
ENDBRANCH  92  93
ENDBRANCH  60  85
ENDBRANCH  34  35
ENDBRANCH  26  29
ENDBRANCH  24  25
ENDBRANCH  23  24
ENDBRANCH  22  23
ENDBRANCH   3  22
TORSDOF 19
ENDMDL
MODEL 2
REMARK VINA RESULT:     -10.5      6.715     12.579
REMARK SMILES CC[C@@H](C)C[C@@H](C)[NH2+]Cc1ccc(C(=O)NCCCNC(=O)c2ccc(-c3c4nc(c(-c5c(F)cc(S(=O)(=O)[O-])cc5F)c5ccc([nH]5)c(-c5c(F)cc(S(=O)(=O)[O-])cc5F)c5nc(c(-c6c(F)cc(S(=O)(=O)[O-])cc6F)c6ccc3[nH]6)C=C5)C=C4)cc2)cn1
REMARK SMILES IDX 14 1 15 2 16 3 13 5 10 6 11 7 90 8 12 9 89 10 9 11 8 12 6 15
REMARK SMILES IDX 7 16 5 17 3 18 4 19 2 20 1 21 17 22 18 23 19 24 20 25 21 26
REMARK SMILES IDX 22 28 23 29 24 30 88 31 25 32 87 33 26 34 27 35 28 36 81 37
REMARK SMILES IDX 29 38 86 39 80 40 82 41 30 42 85 43 79 44 78 45 31 47 65 48
REMARK SMILES IDX 44 49 64 50 45 51 48 52 63 53 83 54 46 55 47 56 62 58 84 59
REMARK SMILES IDX 49 60 32 61 33 62 42 63 34 64 35 65 41 66 43 67 36 68 37 69
REMARK SMILES IDX 38 70 39 71 40 72 66 73 67 74 76 75 68 76 69 77 75 78 77 79
REMARK SMILES IDX 70 80 71 81 72 82 73 83 74 84 50 85 51 86 60 87 52 88 53 89
REMARK SMILES IDX 59 90 61 91 54 92 55 93 56 94 57 95 58 96
REMARK H PARENT 16 4 8 13 8 14 20 27 82 46 48 57
REMARK Flexibility Score: inf
ROOT
ATOM      1  C   UNL A   1      41.403  20.819  27.480  1.00  0.00     0.252 C 
ATOM      2  O   UNL A   1      41.187  19.608  27.508  1.00  0.00    -0.269 OA
ATOM      3  N   UNL A   1      42.578  21.287  28.019  1.00  0.00    -0.352 N 
ATOM      4  H   UNL A   1      43.178  20.577  28.341  1.00  0.00     0.163 HD
ENDROOT
BRANCH   1   5
ATOM      5  C   UNL A   1      40.363  21.708  26.923  1.00  0.00     0.058 A 
ATOM      6  C   UNL A   1      38.174  23.073  25.952  1.00  0.00     0.094 A 
ATOM      7  C   UNL A   1      39.058  23.729  26.806  1.00  0.00     0.030 A 
ATOM      8  N   UNL A   1      38.413  21.821  25.482  1.00  0.00    -0.255 NA
ATOM      9  C   UNL A   1      40.181  23.044  27.273  1.00  0.00     0.017 A 
ATOM     10  C   UNL A   1      39.499  21.173  25.974  1.00  0.00     0.125 A 
BRANCH   6  11
ATOM     11  C   UNL A   1      36.799  23.655  25.683  1.00  0.00     0.318 C 
BRANCH  11  12
ATOM     12  N   UNL A   1      35.785  22.643  25.315  1.00  0.00    -0.339 N 
ATOM     13  H   UNL A   1      36.106  22.158  24.477  1.00  0.00     0.346 HD
ATOM     14  H   UNL A   1      35.687  22.020  26.118  1.00  0.00     0.346 HD
BRANCH  12  15
ATOM     15  C   UNL A   1      34.446  23.201  25.044  1.00  0.00     0.179 C 
ATOM     16  C   UNL A   1      33.842  22.640  23.746  1.00  0.00     0.075 C 
BRANCH  15  17
ATOM     17  C   UNL A   1      34.590  24.738  24.924  1.00  0.00     0.068 C 
BRANCH  17  18
ATOM     18  C   UNL A   1      33.703  25.542  25.908  1.00  0.00    -0.009 C 
ATOM     19  C   UNL A   1      32.363  24.822  26.099  1.00  0.00     0.008 C 
BRANCH  18  20
ATOM     20  C   UNL A   1      33.507  26.991  25.423  1.00  0.00    -0.000 C 
ATOM     21  C   UNL A   1      34.021  28.033  26.407  1.00  0.00     0.004 C 
ENDBRANCH  18  20
ENDBRANCH  17  18
ENDBRANCH  15  17
ENDBRANCH  12  15
ENDBRANCH  11  12
ENDBRANCH   6  11
ENDBRANCH   1   5
BRANCH   3  22
ATOM     22  C   UNL A   1      43.105  22.631  28.203  1.00  0.00     0.118 C 
BRANCH  22  23
ATOM     23  C   UNL A   1      44.338  22.932  27.357  1.00  0.00     0.042 C 
BRANCH  23  24
ATOM     24  C   UNL A   1      44.535  24.396  26.982  1.00  0.00     0.118 C 
BRANCH  24  25
ATOM     25  N   UNL A   1      43.615  24.844  25.946  1.00  0.00    -0.352 N 
ATOM     26  C   UNL A   1      42.552  25.714  25.991  1.00  0.00     0.251 C 
ATOM     27  H   UNL A   1      43.785  24.456  25.057  1.00  0.00     0.163 HD
ATOM     28  O   UNL A   1      41.803  25.770  25.018  1.00  0.00    -0.269 OA
BRANCH  26  29
ATOM     29  C   UNL A   1      42.287  26.571  27.173  1.00  0.00     0.039 A 
ATOM     30  C   UNL A   1      41.354  26.133  28.121  1.00  0.00     0.014 A 
ATOM     31  C   UNL A   1      42.878  27.827  27.323  1.00  0.00     0.014 A 
ATOM     32  C   UNL A   1      41.048  26.934  29.227  1.00  0.00     0.010 A 
ATOM     33  C   UNL A   1      42.639  28.584  28.469  1.00  0.00     0.010 A 
ATOM     34  C   UNL A   1      41.704  28.158  29.423  1.00  0.00    -0.014 A 
BRANCH  34  35
ATOM     35  C   UNL A   1      41.390  29.021  30.593  1.00  0.00     0.031 A 
ATOM     36  C   UNL A   1      42.222  28.931  31.847  1.00  0.00     0.074 A 
ATOM     37  C   UNL A   1      40.332  29.855  30.545  1.00  0.00     0.049 A 
ATOM     38  N   UNL A   1      42.085  29.573  32.980  1.00  0.00    -0.248 NA
ATOM     39  C   UNL A   1      43.340  27.972  31.837  1.00  0.00     0.031 C 
ATOM     40  C   UNL A   1      39.415  29.993  29.410  1.00  0.00     0.029 A 
ATOM     41  N   UNL A   1      39.845  30.742  31.472  1.00  0.00    -0.354 N 
ATOM     42  C   UNL A   1      43.082  29.083  33.818  1.00  0.00     0.074 A 
ATOM     43  C   UNL A   1      43.779  28.051  33.084  1.00  0.00     0.031 C 
ATOM     44  C   UNL A   1      38.496  30.929  29.698  1.00  0.00     0.029 A 
ATOM     45  C   UNL A   1      38.739  31.438  31.044  1.00  0.00     0.049 A 
ATOM     46  H   UNL A   1      40.250  30.867  32.360  1.00  0.00     0.167 HD
ATOM     47  C   UNL A   1      43.406  29.476  35.074  1.00  0.00     0.037 A 
ATOM     48  C   UNL A   1      38.006  32.381  31.665  1.00  0.00     0.037 A 
ATOM     49  C   UNL A   1      42.729  30.528  35.788  1.00  0.00     0.049 A 
ATOM     50  C   UNL A   1      38.408  32.829  33.044  1.00  0.00     0.074 A 
ATOM     51  C   UNL A   1      43.008  31.038  37.043  1.00  0.00     0.029 A 
ATOM     52  N   UNL A   1      41.640  31.239  35.302  1.00  0.00    -0.354 N 
ATOM     53  N   UNL A   1      39.388  32.393  33.800  1.00  0.00    -0.248 NA
ATOM     54  C   UNL A   1      37.617  33.911  33.646  1.00  0.00     0.031 C 
ATOM     55  C   UNL A   1      42.068  32.035  37.331  1.00  0.00     0.029 A 
ATOM     56  C   UNL A   1      41.232  32.178  36.235  1.00  0.00     0.049 A 
ATOM     57  H   UNL A   1      41.218  31.095  34.424  1.00  0.00     0.167 HD
ATOM     58  C   UNL A   1      39.351  33.168  34.954  1.00  0.00     0.074 A 
ATOM     59  C   UNL A   1      38.260  34.107  34.790  1.00  0.00     0.031 C 
ATOM     60  C   UNL A   1      40.149  33.111  36.050  1.00  0.00     0.037 A 
BRANCH  47  61
ATOM     61  C   UNL A   1      44.551  28.770  35.752  1.00  0.00     0.058 A 
ATOM     62  C   UNL A   1      44.345  27.634  36.552  1.00  0.00     0.135 A 
ATOM     63  C   UNL A   1      45.871  29.218  35.581  1.00  0.00     0.135 A 
ATOM     64  F   UNL A   1      43.103  27.171  36.763  1.00  0.00    -0.206 F 
ATOM     65  C   UNL A   1      45.402  26.989  37.187  1.00  0.00     0.059 A 
ATOM     66  C   UNL A   1      46.947  28.570  36.183  1.00  0.00     0.059 A 
ATOM     67  F   UNL A   1      46.127  30.298  34.827  1.00  0.00    -0.206 F 
ATOM     68  C   UNL A   1      46.700  27.466  36.999  1.00  0.00     0.060 A 
BRANCH  68  69
ATOM     69  S   UNL A   1      48.059  26.618  37.830  1.00  0.00     0.124 S 
ATOM     70  O   UNL A   1      47.345  25.578  38.565  1.00  0.00    -0.237 OA
ATOM     71  O   UNL A   1      48.873  26.157  36.711  1.00  0.00    -0.237 OA
ATOM     72  O   UNL A   1      48.661  27.664  38.651  1.00  0.00    -0.744 OA
ENDBRANCH  68  69
ENDBRANCH  47  61
BRANCH  48  73
ATOM     73  C   UNL A   1      36.847  33.000  30.967  1.00  0.00     0.058 A 
ATOM     74  C   UNL A   1      35.530  32.687  31.340  1.00  0.00     0.135 A 
ATOM     75  C   UNL A   1      37.029  33.925  29.928  1.00  0.00     0.135 A 
ATOM     76  F   UNL A   1      35.304  31.806  32.325  1.00  0.00    -0.206 F 
ATOM     77  C   UNL A   1      34.435  33.254  30.695  1.00  0.00     0.059 A 
ATOM     78  C   UNL A   1      35.951  34.524  29.285  1.00  0.00     0.059 A 
ATOM     79  F   UNL A   1      38.269  34.273  29.548  1.00  0.00    -0.206 F 
ATOM     80  C   UNL A   1      34.657  34.174  29.668  1.00  0.00     0.060 A 
BRANCH  80  81
ATOM     81  S   UNL A   1      33.229  34.943  28.871  1.00  0.00     0.124 S 
ATOM     82  O   UNL A   1      32.351  35.182  30.011  1.00  0.00    -0.237 OA
ATOM     83  O   UNL A   1      33.820  36.128  28.261  1.00  0.00    -0.237 OA
ATOM     84  O   UNL A   1      32.781  33.920  27.930  1.00  0.00    -0.744 OA
ENDBRANCH  80  81
ENDBRANCH  48  73
BRANCH  60  85
ATOM     85  C   UNL A   1      39.900  34.124  37.132  1.00  0.00     0.058 A 
ATOM     86  C   UNL A   1      39.171  33.808  38.290  1.00  0.00     0.135 A 
ATOM     87  C   UNL A   1      40.414  35.425  37.014  1.00  0.00     0.135 A 
ATOM     88  F   UNL A   1      38.657  32.579  38.451  1.00  0.00    -0.206 F 
ATOM     89  C   UNL A   1      38.925  34.761  39.274  1.00  0.00     0.059 A 
ATOM     90  C   UNL A   1      40.204  36.385  37.999  1.00  0.00     0.059 A 
ATOM     91  F   UNL A   1      41.131  35.774  35.935  1.00  0.00    -0.206 F 
ATOM     92  C   UNL A   1      39.441  36.048  39.116  1.00  0.00     0.060 A 
BRANCH  92  93
ATOM     93  S   UNL A   1      39.113  37.278  40.396  1.00  0.00     0.124 S 
ATOM     94  O   UNL A   1      38.147  36.577  41.235  1.00  0.00    -0.237 OA
ATOM     95  O   UNL A   1      40.433  37.483  40.984  1.00  0.00    -0.237 OA
ATOM     96  O   UNL A   1      38.586  38.415  39.646  1.00  0.00    -0.744 OA
ENDBRANCH  92  93
ENDBRANCH  60  85
ENDBRANCH  34  35
ENDBRANCH  26  29
ENDBRANCH  24  25
ENDBRANCH  23  24
ENDBRANCH  22  23
ENDBRANCH   3  22
TORSDOF 19
ENDMDL
MODEL 3
REMARK VINA RESULT:     -10.4      6.732     13.113
REMARK SMILES CC[C@@H](C)C[C@@H](C)[NH2+]Cc1ccc(C(=O)NCCCNC(=O)c2ccc(-c3c4nc(c(-c5c(F)cc(S(=O)(=O)[O-])cc5F)c5ccc([nH]5)c(-c5c(F)cc(S(=O)(=O)[O-])cc5F)c5nc(c(-c6c(F)cc(S(=O)(=O)[O-])cc6F)c6ccc3[nH]6)C=C5)C=C4)cc2)cn1
REMARK SMILES IDX 14 1 15 2 16 3 13 5 10 6 11 7 90 8 12 9 89 10 9 11 8 12 6 15
REMARK SMILES IDX 7 16 5 17 3 18 4 19 2 20 1 21 17 22 18 23 19 24 20 25 21 26
REMARK SMILES IDX 22 28 23 29 24 30 88 31 25 32 87 33 26 34 27 35 28 36 81 37
REMARK SMILES IDX 29 38 86 39 80 40 82 41 30 42 85 43 79 44 78 45 31 47 65 48
REMARK SMILES IDX 44 49 64 50 45 51 48 52 63 53 83 54 46 55 47 56 62 58 84 59
REMARK SMILES IDX 49 60 32 61 33 62 42 63 34 64 35 65 41 66 43 67 36 68 37 69
REMARK SMILES IDX 38 70 39 71 40 72 66 73 67 74 76 75 68 76 69 77 75 78 77 79
REMARK SMILES IDX 70 80 71 81 72 82 73 83 74 84 50 85 51 86 60 87 52 88 53 89
REMARK SMILES IDX 59 90 61 91 54 92 55 93 56 94 57 95 58 96
REMARK H PARENT 16 4 8 13 8 14 20 27 82 46 48 57
REMARK Flexibility Score: inf
ROOT
ATOM      1  C   UNL A   1      43.663  20.528  25.413  1.00  0.00     0.252 C 
ATOM      2  O   UNL A   1      43.892  19.629  24.605  1.00  0.00    -0.269 OA
ATOM      3  N   UNL A   1      42.660  20.339  26.335  1.00  0.00    -0.352 N 
ATOM      4  H   UNL A   1      42.241  19.450  26.290  1.00  0.00     0.163 HD
ENDROOT
BRANCH   1   5
ATOM      5  C   UNL A   1      44.437  21.782  25.313  1.00  0.00     0.058 A 
ATOM      6  C   UNL A   1      45.534  24.305  25.131  1.00  0.00     0.094 A 
ATOM      7  C   UNL A   1      46.090  23.386  26.019  1.00  0.00     0.030 A 
ATOM      8  N   UNL A   1      44.544  23.969  24.264  1.00  0.00    -0.255 NA
ATOM      9  C   UNL A   1      45.550  22.100  26.087  1.00  0.00     0.017 A 
ATOM     10  C   UNL A   1      44.025  22.720  24.372  1.00  0.00     0.125 A 
BRANCH   6  11
ATOM     11  C   UNL A   1      45.868  25.780  25.251  1.00  0.00     0.318 C 
BRANCH  11  12
ATOM     12  N   UNL A   1      46.362  26.171  26.589  1.00  0.00    -0.339 N 
ATOM     13  H   UNL A   1      46.651  25.327  27.083  1.00  0.00     0.346 HD
ATOM     14  H   UNL A   1      47.132  26.824  26.439  1.00  0.00     0.346 HD
BRANCH  12  15
ATOM     15  C   UNL A   1      45.364  26.874  27.418  1.00  0.00     0.179 C 
ATOM     16  C   UNL A   1      45.359  28.388  27.153  1.00  0.00     0.075 C 
BRANCH  15  17
ATOM     17  C   UNL A   1      45.712  26.612  28.904  1.00  0.00     0.068 C 
BRANCH  17  18
ATOM     18  C   UNL A   1      44.666  25.759  29.664  1.00  0.00    -0.009 C 
ATOM     19  C   UNL A   1      45.292  25.197  30.946  1.00  0.00     0.008 C 
BRANCH  18  20
ATOM     20  C   UNL A   1      44.104  24.640  28.768  1.00  0.00    -0.000 C 
ATOM     21  C   UNL A   1      43.157  23.696  29.500  1.00  0.00     0.004 C 
ENDBRANCH  18  20
ENDBRANCH  17  18
ENDBRANCH  15  17
ENDBRANCH  12  15
ENDBRANCH  11  12
ENDBRANCH   6  11
ENDBRANCH   1   5
BRANCH   3  22
ATOM     22  C   UNL A   1      42.100  21.202  27.365  1.00  0.00     0.118 C 
BRANCH  22  23
ATOM     23  C   UNL A   1      40.634  21.556  27.143  1.00  0.00     0.042 C 
BRANCH  23  24
ATOM     24  C   UNL A   1      40.298  23.040  27.222  1.00  0.00     0.118 C 
BRANCH  24  25
ATOM     25  N   UNL A   1      40.973  23.829  26.200  1.00  0.00    -0.352 N 
ATOM     26  C   UNL A   1      41.253  25.172  26.128  1.00  0.00     0.251 C 
ATOM     27  H   UNL A   1      41.283  23.306  25.425  1.00  0.00     0.163 HD
ATOM     28  O   UNL A   1      41.655  25.627  25.059  1.00  0.00    -0.269 OA
BRANCH  26  29
ATOM     29  C   UNL A   1      41.078  26.074  27.292  1.00  0.00     0.039 A 
ATOM     30  C   UNL A   1      41.853  27.239  27.359  1.00  0.00     0.014 A 
ATOM     31  C   UNL A   1      40.227  25.757  28.354  1.00  0.00     0.014 A 
ATOM     32  C   UNL A   1      41.745  28.093  28.462  1.00  0.00     0.010 A 
ATOM     33  C   UNL A   1      40.055  26.652  29.409  1.00  0.00     0.010 A 
ATOM     34  C   UNL A   1      40.829  27.818  29.489  1.00  0.00    -0.014 A 
BRANCH  34  35
ATOM     35  C   UNL A   1      40.703  28.715  30.668  1.00  0.00     0.031 A 
ATOM     36  C   UNL A   1      39.658  29.802  30.687  1.00  0.00     0.074 A 
ATOM     37  C   UNL A   1      41.554  28.581  31.705  1.00  0.00     0.049 A 
ATOM     38  N   UNL A   1      39.415  30.702  31.605  1.00  0.00    -0.248 NA
ATOM     39  C   UNL A   1      38.788  29.908  29.503  1.00  0.00     0.031 C 
ATOM     40  C   UNL A   1      42.646  27.606  31.782  1.00  0.00     0.029 A 
ATOM     41  N   UNL A   1      41.640  29.268  32.890  1.00  0.00    -0.354 N 
ATOM     42  C   UNL A   1      38.383  31.490  31.104  1.00  0.00     0.074 A 
ATOM     43  C   UNL A   1      38.085  30.997  29.777  1.00  0.00     0.031 C 
ATOM     44  C   UNL A   1      43.271  27.739  32.963  1.00  0.00     0.029 A 
ATOM     45  C   UNL A   1      42.648  28.824  33.714  1.00  0.00     0.049 A 
ATOM     46  H   UNL A   1      41.038  30.009  33.127  1.00  0.00     0.167 HD
ATOM     47  C   UNL A   1      37.725  32.511  31.704  1.00  0.00     0.037 A 
ATOM     48  C   UNL A   1      43.023  29.241  34.938  1.00  0.00     0.037 A 
ATOM     49  C   UNL A   1      38.005  32.976  33.037  1.00  0.00     0.049 A 
ATOM     50  C   UNL A   1      42.252  30.351  35.600  1.00  0.00     0.074 A 
ATOM     51  C   UNL A   1      37.365  33.969  33.758  1.00  0.00     0.029 A 
ATOM     52  N   UNL A   1      39.004  32.470  33.857  1.00  0.00    -0.354 N 
ATOM     53  N   UNL A   1      41.243  31.047  35.133  1.00  0.00    -0.248 NA
ATOM     54  C   UNL A   1      42.658  30.719  36.963  1.00  0.00     0.031 C 
ATOM     55  C   UNL A   1      37.998  34.087  35.000  1.00  0.00     0.029 A 
ATOM     56  C   UNL A   1      39.003  33.135  35.073  1.00  0.00     0.049 A 
ATOM     57  H   UNL A   1      39.624  31.746  33.610  1.00  0.00     0.167 HD
ATOM     58  C   UNL A   1      40.873  31.914  36.156  1.00  0.00     0.074 A 
ATOM     59  C   UNL A   1      41.759  31.645  37.269  1.00  0.00     0.031 C 
ATOM     60  C   UNL A   1      39.887  32.847  36.173  1.00  0.00     0.037 A 
BRANCH  47  61
ATOM     61  C   UNL A   1      36.630  33.188  30.922  1.00  0.00     0.058 A 
ATOM     62  C   UNL A   1      36.915  34.057  29.856  1.00  0.00     0.135 A 
ATOM     63  C   UNL A   1      35.279  32.949  31.225  1.00  0.00     0.135 A 
ATOM     64  F   UNL A   1      38.187  34.334  29.532  1.00  0.00    -0.206 F 
ATOM     65  C   UNL A   1      35.903  34.691  29.142  1.00  0.00     0.059 A 
ATOM     66  C   UNL A   1      34.250  33.550  30.505  1.00  0.00     0.059 A 
ATOM     67  F   UNL A   1      34.948  32.127  32.233  1.00  0.00    -0.206 F 
ATOM     68  C   UNL A   1      34.573  34.433  29.476  1.00  0.00     0.060 A 
BRANCH  68  69
ATOM     69  S   UNL A   1      33.273  35.265  28.539  1.00  0.00     0.124 S 
ATOM     70  O   UNL A   1      34.057  36.084  27.619  1.00  0.00    -0.237 OA
ATOM     71  O   UNL A   1      32.555  34.146  27.937  1.00  0.00    -0.237 OA
ATOM     72  O   UNL A   1      32.535  36.001  29.562  1.00  0.00    -0.744 OA
ENDBRANCH  68  69
ENDBRANCH  47  61
BRANCH  48  73
ATOM     73  C   UNL A   1      44.153  28.573  35.637  1.00  0.00     0.058 A 
ATOM     74  C   UNL A   1      45.473  29.015  35.459  1.00  0.00     0.135 A 
ATOM     75  C   UNL A   1      43.939  27.492  36.506  1.00  0.00     0.135 A 
ATOM     76  F   UNL A   1      45.730  30.042  34.635  1.00  0.00    -0.206 F 
ATOM     77  C   UNL A   1      46.543  28.399  36.101  1.00  0.00     0.059 A 
ATOM     78  C   UNL A   1      44.988  26.876  37.179  1.00  0.00     0.059 A 
ATOM     79  F   UNL A   1      42.692  27.045  36.726  1.00  0.00    -0.206 F 
ATOM     80  C   UNL A   1      46.288  27.329  36.962  1.00  0.00     0.060 A 
BRANCH  80  81
ATOM     81  S   UNL A   1      47.678  26.568  37.831  1.00  0.00     0.124 S 
ATOM     82  O   UNL A   1      47.088  26.286  39.135  1.00  0.00    -0.237 OA
ATOM     83  O   UNL A   1      47.964  25.407  36.995  1.00  0.00    -0.237 OA
ATOM     84  O   UNL A   1      48.698  27.613  37.810  1.00  0.00    -0.744 OA
ENDBRANCH  80  81
ENDBRANCH  48  73
BRANCH  60  85
ATOM     85  C   UNL A   1      39.688  33.607  37.455  1.00  0.00     0.058 A 
ATOM     86  C   UNL A   1      38.745  33.207  38.416  1.00  0.00     0.135 A 
ATOM     87  C   UNL A   1      40.466  34.743  37.731  1.00  0.00     0.135 A 
ATOM     88  F   UNL A   1      37.975  32.130  38.200  1.00  0.00    -0.206 F 
ATOM     89  C   UNL A   1      38.552  33.933  39.587  1.00  0.00     0.059 A 
ATOM     90  C   UNL A   1      40.309  35.466  38.908  1.00  0.00     0.059 A 
ATOM     91  F   UNL A   1      41.392  35.158  36.853  1.00  0.00    -0.206 F 
ATOM     92  C   UNL A   1      39.334  35.065  39.821  1.00  0.00     0.060 A 
BRANCH  92  93
ATOM     93  S   UNL A   1      39.073  36.002  41.342  1.00  0.00     0.124 S 
ATOM     94  O   UNL A   1      38.758  37.326  40.819  1.00  0.00    -0.237 OA
ATOM     95  O   UNL A   1      37.964  35.286  41.966  1.00  0.00    -0.237 OA
ATOM     96  O   UNL A   1      40.353  35.887  42.034  1.00  0.00    -0.744 OA
ENDBRANCH  92  93
ENDBRANCH  60  85
ENDBRANCH  34  35
ENDBRANCH  26  29
ENDBRANCH  24  25
ENDBRANCH  23  24
ENDBRANCH  22  23
ENDBRANCH   3  22
TORSDOF 19
ENDMDL
