MODEL 1
REMARK VINA RESULT:     -13.4      0.000      0.000
REMARK SMILES O=C(Cn1c2c(sc1=O)C[C@H](c1ccccc1)CC2)NCCCNC(=O)c1ccc(-c2c3nc(c(-c4c(F)cc(S(=O)(=O)[O-])cc4F)c4ccc([nH]4)c(-c4c(F)cc(S(=O)(=O)[O-])cc4F)c4nc(c(-c5c(F)cc(S(=O)(=O)[O-])cc5F)c5ccc2[nH]5)C=C4)C=C3)cc1
REMARK SMILES IDX 22 1 21 2 20 3 1 4 2 5 3 7 4 8 5 9 8 10 6 11 19 12 7 13 9 14
REMARK SMILES IDX 10 15 18 16 11 17 12 18 13 19 17 20 14 21 16 22 15 23 23 24
REMARK SMILES IDX 24 25 25 26 26 28 27 29 28 30 92 31 29 32 91 33 30 34 31 35
REMARK SMILES IDX 32 36 85 37 33 38 90 39 84 40 86 41 34 42 89 43 83 44 82 45
REMARK SMILES IDX 35 47 69 48 48 49 68 50 49 51 52 52 67 53 87 54 50 55 51 56
REMARK SMILES IDX 66 58 88 59 53 60 36 61 37 62 46 63 38 64 39 65 45 66 47 67
REMARK SMILES IDX 40 68 41 69 42 70 43 71 44 72 70 73 71 74 80 75 72 76 73 77
REMARK SMILES IDX 79 78 81 79 74 80 75 81 76 82 77 83 78 84 54 85 55 86 64 87
REMARK SMILES IDX 56 88 57 89 63 90 65 91 58 92 59 93 60 94 61 95 62 96
REMARK H PARENT 20 6 24 27 86 46 52 57
REMARK Flexibility Score: inf
ROOT
ATOM      1  C   UNL A   1      36.762  21.746  24.750  1.00  0.00     0.042 C 
ENDROOT
BRANCH   1   2
ATOM      2  C   UNL A   1      35.418  21.863  25.468  1.00  0.00     0.117 C 
BRANCH   2   3
ATOM      3  N   UNL A   1      34.226  21.838  24.633  1.00  0.00    -0.354 N 
ATOM      4  O   UNL A   1      32.848  22.829  26.175  1.00  0.00    -0.273 OA
ATOM      5  C   UNL A   1      33.069  22.499  25.010  1.00  0.00     0.240 C 
ATOM      6  H   UNL A   1      34.241  21.342  23.783  1.00  0.00     0.163 HD
BRANCH   5   7
ATOM      7  C   UNL A   1      32.046  22.757  23.895  1.00  0.00     0.226 C 
BRANCH   7   8
ATOM      8  N   UNL A   1      32.152  24.034  23.195  1.00  0.00    -0.293 N 
ATOM      9  C   UNL A   1      31.277  25.109  23.316  1.00  0.00     0.036 A 
ATOM     10  C   UNL A   1      33.119  24.193  22.211  1.00  0.00     0.308 A 
ATOM     11  C   UNL A   1      31.572  26.133  22.502  1.00  0.00     0.030 A 
ATOM     12  C   UNL A   1      30.117  25.153  24.266  1.00  0.00     0.056 C 
ATOM     13  S   UNL A   1      32.938  25.797  21.493  1.00  0.00    -0.079 S 
ATOM     14  O   UNL A   1      33.974  23.385  21.856  1.00  0.00    -0.257 OA
ATOM     15  C   UNL A   1      30.853  27.442  22.496  1.00  0.00     0.057 C 
ATOM     16  C   UNL A   1      29.303  26.459  24.181  1.00  0.00     0.015 C 
ATOM     17  C   UNL A   1      30.166  27.710  23.865  1.00  0.00     0.025 C 
BRANCH  17  18
ATOM     18  C   UNL A   1      31.146  28.154  24.960  1.00  0.00    -0.045 A 
ATOM     19  C   UNL A   1      32.010  29.243  24.736  1.00  0.00     0.004 A 
ATOM     20  C   UNL A   1      31.200  27.551  26.225  1.00  0.00     0.004 A 
ATOM     21  C   UNL A   1      32.956  29.638  25.688  1.00  0.00     0.000 A 
ATOM     22  C   UNL A   1      32.137  27.953  27.184  1.00  0.00     0.000 A 
ATOM     23  C   UNL A   1      33.032  28.980  26.907  1.00  0.00     0.000 A 
ENDBRANCH  17  18
ENDBRANCH   7   8
ENDBRANCH   5   7
ENDBRANCH   2   3
ENDBRANCH   1   2
BRANCH   1  24
ATOM     24  C   UNL A   1      37.879  22.534  25.413  1.00  0.00     0.118 C 
BRANCH  24  25
ATOM     25  N   UNL A   1      38.923  21.712  26.058  1.00  0.00    -0.352 N 
ATOM     26  C   UNL A   1      40.091  22.132  26.696  1.00  0.00     0.251 C 
ATOM     27  H   UNL A   1      38.775  20.739  26.036  1.00  0.00     0.163 HD
ATOM     28  O   UNL A   1      41.015  21.353  26.900  1.00  0.00    -0.269 OA
BRANCH  26  29
ATOM     29  C   UNL A   1      40.178  23.540  27.129  1.00  0.00     0.039 A 
ATOM     30  C   UNL A   1      39.105  24.437  27.174  1.00  0.00     0.014 A 
ATOM     31  C   UNL A   1      41.422  23.923  27.590  1.00  0.00     0.014 A 
ATOM     32  C   UNL A   1      39.311  25.685  27.769  1.00  0.00     0.010 A 
ATOM     33  C   UNL A   1      41.498  24.935  28.488  1.00  0.00     0.010 A 
ATOM     34  C   UNL A   1      40.522  25.912  28.433  1.00  0.00    -0.014 A 
BRANCH  34  35
ATOM     35  C   UNL A   1      40.899  27.152  29.089  1.00  0.00     0.031 A 
ATOM     36  C   UNL A   1      41.962  27.933  28.420  1.00  0.00     0.074 A 
ATOM     37  C   UNL A   1      40.080  27.711  30.010  1.00  0.00     0.049 A 
ATOM     38  N   UNL A   1      43.165  28.135  28.834  1.00  0.00    -0.248 NA
ATOM     39  C   UNL A   1      41.710  28.432  27.060  1.00  0.00     0.031 C 
ATOM     40  C   UNL A   1      38.771  27.241  30.496  1.00  0.00     0.029 A 
ATOM     41  N   UNL A   1      40.191  28.920  30.610  1.00  0.00    -0.354 N 
ATOM     42  C   UNL A   1      43.758  28.973  27.897  1.00  0.00     0.074 A 
ATOM     43  C   UNL A   1      42.907  28.927  26.736  1.00  0.00     0.031 C 
ATOM     44  C   UNL A   1      38.128  28.249  31.121  1.00  0.00     0.029 A 
ATOM     45  C   UNL A   1      39.034  29.375  31.232  1.00  0.00     0.049 A 
ATOM     46  H   UNL A   1      41.028  29.439  30.606  1.00  0.00     0.167 HD
ATOM     47  C   UNL A   1      44.776  29.815  28.238  1.00  0.00     0.037 A 
ATOM     48  C   UNL A   1      38.841  30.610  31.759  1.00  0.00     0.037 A 
ATOM     49  C   UNL A   1      45.245  29.532  29.577  1.00  0.00     0.049 A 
ATOM     50  C   UNL A   1      40.201  31.175  32.005  1.00  0.00     0.074 A 
ATOM     51  C   UNL A   1      45.784  28.418  30.194  1.00  0.00     0.029 A 
ATOM     52  N   UNL A   1      44.792  30.341  30.595  1.00  0.00    -0.354 N 
ATOM     53  N   UNL A   1      41.048  30.672  32.865  1.00  0.00    -0.248 NA
ATOM     54  C   UNL A   1      40.802  31.981  30.951  1.00  0.00     0.031 C 
ATOM     55  C   UNL A   1      45.183  28.390  31.488  1.00  0.00     0.029 A 
ATOM     56  C   UNL A   1      44.377  29.523  31.617  1.00  0.00     0.049 A 
ATOM     57  H   UNL A   1      44.771  31.326  30.591  1.00  0.00     0.167 HD
ATOM     58  C   UNL A   1      42.286  30.734  32.236  1.00  0.00     0.074 A 
ATOM     59  C   UNL A   1      42.084  31.631  31.099  1.00  0.00     0.031 C 
ATOM     60  C   UNL A   1      43.275  29.828  32.511  1.00  0.00     0.037 A 
BRANCH  47  61
ATOM     61  C   UNL A   1      45.142  31.095  27.526  1.00  0.00     0.058 A 
ATOM     62  C   UNL A   1      46.408  31.195  26.909  1.00  0.00     0.135 A 
ATOM     63  C   UNL A   1      44.422  32.305  27.626  1.00  0.00     0.135 A 
ATOM     64  F   UNL A   1      47.181  30.109  26.750  1.00  0.00    -0.206 F 
ATOM     65  C   UNL A   1      46.949  32.415  26.500  1.00  0.00     0.059 A 
ATOM     66  C   UNL A   1      44.917  33.522  27.171  1.00  0.00     0.059 A 
ATOM     67  F   UNL A   1      43.246  32.389  28.258  1.00  0.00    -0.206 F 
ATOM     68  C   UNL A   1      46.201  33.576  26.654  1.00  0.00     0.060 A 
BRANCH  68  69
ATOM     69  S   UNL A   1      46.943  35.165  26.247  1.00  0.00     0.124 S 
ATOM     70  O   UNL A   1      47.804  35.386  27.403  1.00  0.00    -0.237 OA
ATOM     71  O   UNL A   1      47.623  34.870  24.990  1.00  0.00    -0.237 OA
ATOM     72  O   UNL A   1      45.792  36.055  26.136  1.00  0.00    -0.744 OA
ENDBRANCH  68  69
ENDBRANCH  47  61
BRANCH  48  73
ATOM     73  C   UNL A   1      37.593  31.423  31.728  1.00  0.00     0.058 A 
ATOM     74  C   UNL A   1      36.844  31.659  32.895  1.00  0.00     0.135 A 
ATOM     75  C   UNL A   1      37.247  32.209  30.607  1.00  0.00     0.135 A 
ATOM     76  F   UNL A   1      37.112  30.973  34.017  1.00  0.00    -0.206 F 
ATOM     77  C   UNL A   1      35.857  32.652  32.964  1.00  0.00     0.059 A 
ATOM     78  C   UNL A   1      36.256  33.190  30.647  1.00  0.00     0.059 A 
ATOM     79  F   UNL A   1      37.933  32.122  29.459  1.00  0.00    -0.206 F 
ATOM     80  C   UNL A   1      35.587  33.430  31.839  1.00  0.00     0.060 A 
BRANCH  80  81
ATOM     81  S   UNL A   1      34.474  34.851  31.978  1.00  0.00     0.124 S 
ATOM     82  O   UNL A   1      34.197  35.160  30.579  1.00  0.00    -0.237 OA
ATOM     83  O   UNL A   1      33.359  34.296  32.738  1.00  0.00    -0.237 OA
ATOM     84  O   UNL A   1      35.273  35.843  32.691  1.00  0.00    -0.744 OA
ENDBRANCH  80  81
ENDBRANCH  48  73
BRANCH  60  85
ATOM     85  C   UNL A   1      43.096  28.900  33.693  1.00  0.00     0.058 A 
ATOM     86  C   UNL A   1      43.305  29.275  35.033  1.00  0.00     0.135 A 
ATOM     87  C   UNL A   1      42.515  27.641  33.478  1.00  0.00     0.135 A 
ATOM     88  F   UNL A   1      43.748  30.498  35.345  1.00  0.00    -0.206 F 
ATOM     89  C   UNL A   1      42.997  28.432  36.102  1.00  0.00     0.059 A 
ATOM     90  C   UNL A   1      42.168  26.793  34.530  1.00  0.00     0.059 A 
ATOM     91  F   UNL A   1      42.220  27.243  32.230  1.00  0.00    -0.206 F 
ATOM     92  C   UNL A   1      42.425  27.191  35.840  1.00  0.00     0.060 A 
BRANCH  92  93
ATOM     93  S   UNL A   1      41.949  26.136  37.226  1.00  0.00     0.124 S 
ATOM     94  O   UNL A   1      41.933  24.813  36.612  1.00  0.00    -0.237 OA
ATOM     95  O   UNL A   1      43.019  26.372  38.191  1.00  0.00    -0.237 OA
ATOM     96  O   UNL A   1      40.643  26.658  37.620  1.00  0.00    -0.744 OA
ENDBRANCH  92  93
ENDBRANCH  60  85
ENDBRANCH  34  35
ENDBRANCH  26  29
ENDBRANCH  24  25
ENDBRANCH   1  24
TORSDOF 15
ENDMDL
MODEL 2
REMARK VINA RESULT:     -13.4      2.829      9.405
REMARK SMILES O=C(Cn1c2c(sc1=O)C[C@H](c1ccccc1)CC2)NCCCNC(=O)c1ccc(-c2c3nc(c(-c4c(F)cc(S(=O)(=O)[O-])cc4F)c4ccc([nH]4)c(-c4c(F)cc(S(=O)(=O)[O-])cc4F)c4nc(c(-c5c(F)cc(S(=O)(=O)[O-])cc5F)c5ccc2[nH]5)C=C4)C=C3)cc1
REMARK SMILES IDX 22 1 21 2 20 3 1 4 2 5 3 7 4 8 5 9 8 10 6 11 19 12 7 13 9 14
REMARK SMILES IDX 10 15 18 16 11 17 12 18 13 19 17 20 14 21 16 22 15 23 23 24
REMARK SMILES IDX 24 25 25 26 26 28 27 29 28 30 92 31 29 32 91 33 30 34 31 35
REMARK SMILES IDX 32 36 85 37 33 38 90 39 84 40 86 41 34 42 89 43 83 44 82 45
REMARK SMILES IDX 35 47 69 48 48 49 68 50 49 51 52 52 67 53 87 54 50 55 51 56
REMARK SMILES IDX 66 58 88 59 53 60 36 61 37 62 46 63 38 64 39 65 45 66 47 67
REMARK SMILES IDX 40 68 41 69 42 70 43 71 44 72 70 73 71 74 80 75 72 76 73 77
REMARK SMILES IDX 79 78 81 79 74 80 75 81 76 82 77 83 78 84 54 85 55 86 64 87
REMARK SMILES IDX 56 88 57 89 63 90 65 91 58 92 59 93 60 94 61 95 62 96
REMARK H PARENT 20 6 24 27 86 46 52 57
REMARK Flexibility Score: inf
ROOT
ATOM      1  C   UNL A   1      32.181  29.460  26.839  1.00  0.00     0.042 C 
ENDROOT
BRANCH   1   2
ATOM      2  C   UNL A   1      31.888  29.632  25.349  1.00  0.00     0.117 C 
BRANCH   2   3
ATOM      3  N   UNL A   1      31.057  28.613  24.724  1.00  0.00    -0.354 N 
ATOM      4  O   UNL A   1      32.798  27.301  24.017  1.00  0.00    -0.273 OA
ATOM      5  C   UNL A   1      31.599  27.427  24.260  1.00  0.00     0.240 C 
ATOM      6  H   UNL A   1      30.090  28.771  24.629  1.00  0.00     0.163 HD
BRANCH   5   7
ATOM      7  C   UNL A   1      30.605  26.283  24.015  1.00  0.00     0.226 C 
BRANCH   7   8
ATOM      8  N   UNL A   1      30.846  25.042  24.746  1.00  0.00    -0.293 N 
ATOM      9  C   UNL A   1      31.457  23.898  24.239  1.00  0.00     0.036 A 
ATOM     10  C   UNL A   1      30.323  24.891  26.023  1.00  0.00     0.308 A 
ATOM     11  C   UNL A   1      31.485  22.878  25.108  1.00  0.00     0.030 A 
ATOM     12  C   UNL A   1      32.046  23.793  22.864  1.00  0.00     0.056 C 
ATOM     13  S   UNL A   1      30.704  23.266  26.603  1.00  0.00    -0.079 S 
ATOM     14  O   UNL A   1      29.688  25.713  26.681  1.00  0.00    -0.257 OA
ATOM     15  C   UNL A   1      32.161  21.570  24.854  1.00  0.00     0.057 C 
ATOM     16  C   UNL A   1      32.644  22.406  22.557  1.00  0.00     0.015 C 
ATOM     17  C   UNL A   1      33.287  21.719  23.792  1.00  0.00     0.025 C 
BRANCH  17  18
ATOM     18  C   UNL A   1      34.562  22.370  24.345  1.00  0.00    -0.045 A 
ATOM     19  C   UNL A   1      35.607  22.730  23.473  1.00  0.00     0.004 A 
ATOM     20  C   UNL A   1      34.734  22.678  25.703  1.00  0.00     0.004 A 
ATOM     21  C   UNL A   1      36.807  23.270  23.948  1.00  0.00     0.000 A 
ATOM     22  C   UNL A   1      35.929  23.231  26.178  1.00  0.00     0.000 A 
ATOM     23  C   UNL A   1      36.975  23.503  25.305  1.00  0.00     0.000 A 
ENDBRANCH  17  18
ENDBRANCH   7   8
ENDBRANCH   5   7
ENDBRANCH   2   3
ENDBRANCH   1   2
BRANCH   1  24
ATOM     24  C   UNL A   1      33.618  29.773  27.219  1.00  0.00     0.118 C 
BRANCH  24  25
ATOM     25  N   UNL A   1      33.921  31.211  27.376  1.00  0.00    -0.352 N 
ATOM     26  C   UNL A   1      34.998  31.806  28.035  1.00  0.00     0.251 C 
ATOM     27  H   UNL A   1      33.279  31.831  26.961  1.00  0.00     0.163 HD
ATOM     28  O   UNL A   1      34.963  32.986  28.366  1.00  0.00    -0.269 OA
BRANCH  26  29
ATOM     29  C   UNL A   1      36.187  30.978  28.313  1.00  0.00     0.039 A 
ATOM     30  C   UNL A   1      36.434  29.715  27.763  1.00  0.00     0.014 A 
ATOM     31  C   UNL A   1      37.131  31.580  29.120  1.00  0.00     0.014 A 
ATOM     32  C   UNL A   1      37.684  29.129  27.987  1.00  0.00     0.010 A 
ATOM     33  C   UNL A   1      38.426  31.201  28.999  1.00  0.00     0.010 A 
ATOM     34  C   UNL A   1      38.676  29.899  28.605  1.00  0.00    -0.014 A 
BRANCH  34  35
ATOM     35  C   UNL A   1      40.018  29.441  28.922  1.00  0.00     0.031 A 
ATOM     36  C   UNL A   1      40.300  29.231  30.359  1.00  0.00     0.074 A 
ATOM     37  C   UNL A   1      40.797  28.896  27.959  1.00  0.00     0.049 A 
ATOM     38  N   UNL A   1      41.085  29.922  31.112  1.00  0.00    -0.248 NA
ATOM     39  C   UNL A   1      39.510  28.226  31.085  1.00  0.00     0.031 C 
ATOM     40  C   UNL A   1      40.491  28.670  26.535  1.00  0.00     0.029 A 
ATOM     41  N   UNL A   1      41.999  28.288  28.094  1.00  0.00    -0.354 N 
ATOM     42  C   UNL A   1      41.063  29.304  32.357  1.00  0.00     0.074 A 
ATOM     43  C   UNL A   1      39.918  28.429  32.341  1.00  0.00     0.031 C 
ATOM     44  C   UNL A   1      41.369  27.787  26.015  1.00  0.00     0.029 A 
ATOM     45  C   UNL A   1      42.392  27.518  27.006  1.00  0.00     0.049 A 
ATOM     46  H   UNL A   1      42.553  28.383  28.902  1.00  0.00     0.167 HD
ATOM     47  C   UNL A   1      42.121  29.391  33.214  1.00  0.00     0.037 A 
ATOM     48  C   UNL A   1      43.466  26.690  26.957  1.00  0.00     0.037 A 
ATOM     49  C   UNL A   1      43.088  30.353  32.734  1.00  0.00     0.049 A 
ATOM     50  C   UNL A   1      44.389  27.141  28.040  1.00  0.00     0.074 A 
ATOM     51  C   UNL A   1      43.042  31.704  32.446  1.00  0.00     0.029 A 
ATOM     52  N   UNL A   1      44.197  29.868  32.077  1.00  0.00    -0.354 N 
ATOM     53  N   UNL A   1      44.980  28.307  28.047  1.00  0.00    -0.248 NA
ATOM     54  C   UNL A   1      44.262  26.509  29.347  1.00  0.00     0.031 C 
ATOM     55  C   UNL A   1      43.812  31.851  31.253  1.00  0.00     0.029 A 
ATOM     56  C   UNL A   1      44.347  30.603  30.926  1.00  0.00     0.049 A 
ATOM     57  H   UNL A   1      44.776  29.130  32.377  1.00  0.00     0.167 HD
ATOM     58  C   UNL A   1      44.914  28.742  29.366  1.00  0.00     0.074 A 
ATOM     59  C   UNL A   1      44.542  27.554  30.134  1.00  0.00     0.031 C 
ATOM     60  C   UNL A   1      44.870  30.074  29.680  1.00  0.00     0.037 A 
BRANCH  47  61
ATOM     61  C   UNL A   1      42.463  28.400  34.301  1.00  0.00     0.058 A 
ATOM     62  C   UNL A   1      42.433  28.825  35.647  1.00  0.00     0.135 A 
ATOM     63  C   UNL A   1      43.051  27.135  34.080  1.00  0.00     0.135 A 
ATOM     64  F   UNL A   1      41.891  30.007  35.980  1.00  0.00    -0.206 F 
ATOM     65  C   UNL A   1      43.017  28.089  36.679  1.00  0.00     0.059 A 
ATOM     66  C   UNL A   1      43.585  26.358  35.102  1.00  0.00     0.059 A 
ATOM     67  F   UNL A   1      43.228  26.631  32.853  1.00  0.00    -0.206 F 
ATOM     68  C   UNL A   1      43.608  26.865  36.391  1.00  0.00     0.060 A 
BRANCH  68  69
ATOM     69  S   UNL A   1      44.472  25.973  37.695  1.00  0.00     0.124 S 
ATOM     70  O   UNL A   1      43.775  26.451  38.883  1.00  0.00    -0.237 OA
ATOM     71  O   UNL A   1      44.229  24.583  37.325  1.00  0.00    -0.237 OA
ATOM     72  O   UNL A   1      45.854  26.421  37.549  1.00  0.00    -0.744 OA
ENDBRANCH  68  69
ENDBRANCH  47  61
BRANCH  48  73
ATOM     73  C   UNL A   1      43.559  25.366  26.279  1.00  0.00     0.058 A 
ATOM     74  C   UNL A   1      44.522  25.122  25.282  1.00  0.00     0.135 A 
ATOM     75  C   UNL A   1      42.887  24.228  26.775  1.00  0.00     0.135 A 
ATOM     76  F   UNL A   1      45.225  26.138  24.762  1.00  0.00    -0.206 F 
ATOM     77  C   UNL A   1      44.839  23.827  24.849  1.00  0.00     0.059 A 
ATOM     78  C   UNL A   1      43.172  22.933  26.345  1.00  0.00     0.059 A 
ATOM     79  F   UNL A   1      41.998  24.327  27.774  1.00  0.00    -0.206 F 
ATOM     80  C   UNL A   1      44.174  22.735  25.405  1.00  0.00     0.060 A 
BRANCH  80  81
ATOM     81  S   UNL A   1      44.723  21.055  25.013  1.00  0.00     0.124 S 
ATOM     82  O   UNL A   1      43.750  20.239  25.732  1.00  0.00    -0.237 OA
ATOM     83  O   UNL A   1      44.621  21.030  23.557  1.00  0.00    -0.237 OA
ATOM     84  O   UNL A   1      46.085  21.010  25.536  1.00  0.00    -0.744 OA
ENDBRANCH  80  81
ENDBRANCH  48  73
BRANCH  60  85
ATOM     85  C   UNL A   1      45.143  31.083  28.586  1.00  0.00     0.058 A 
ATOM     86  C   UNL A   1      44.151  31.643  27.760  1.00  0.00     0.135 A 
ATOM     87  C   UNL A   1      46.427  31.640  28.491  1.00  0.00     0.135 A 
ATOM     88  F   UNL A   1      42.875  31.258  27.858  1.00  0.00    -0.206 F 
ATOM     89  C   UNL A   1      44.425  32.671  26.856  1.00  0.00     0.059 A 
ATOM     90  C   UNL A   1      46.719  32.690  27.620  1.00  0.00     0.059 A 
ATOM     91  F   UNL A   1      47.408  31.205  29.298  1.00  0.00    -0.206 F 
ATOM     92  C   UNL A   1      45.714  33.191  26.795  1.00  0.00     0.060 A 
BRANCH  92  93
ATOM     93  S   UNL A   1      46.047  34.577  25.687  1.00  0.00     0.124 S 
ATOM     94  O   UNL A   1      47.474  34.422  25.423  1.00  0.00    -0.237 OA
ATOM     95  O   UNL A   1      45.163  34.304  24.558  1.00  0.00    -0.237 OA
ATOM     96  O   UNL A   1      45.683  35.746  26.482  1.00  0.00    -0.744 OA
ENDBRANCH  92  93
ENDBRANCH  60  85
ENDBRANCH  34  35
ENDBRANCH  26  29
ENDBRANCH  24  25
ENDBRANCH   1  24
TORSDOF 15
ENDMDL
MODEL 3
REMARK VINA RESULT:     -13.3      1.439      1.966
REMARK SMILES O=C(Cn1c2c(sc1=O)C[C@H](c1ccccc1)CC2)NCCCNC(=O)c1ccc(-c2c3nc(c(-c4c(F)cc(S(=O)(=O)[O-])cc4F)c4ccc([nH]4)c(-c4c(F)cc(S(=O)(=O)[O-])cc4F)c4nc(c(-c5c(F)cc(S(=O)(=O)[O-])cc5F)c5ccc2[nH]5)C=C4)C=C3)cc1
REMARK SMILES IDX 22 1 21 2 20 3 1 4 2 5 3 7 4 8 5 9 8 10 6 11 19 12 7 13 9 14
REMARK SMILES IDX 10 15 18 16 11 17 12 18 13 19 17 20 14 21 16 22 15 23 23 24
REMARK SMILES IDX 24 25 25 26 26 28 27 29 28 30 92 31 29 32 91 33 30 34 31 35
REMARK SMILES IDX 32 36 85 37 33 38 90 39 84 40 86 41 34 42 89 43 83 44 82 45
REMARK SMILES IDX 35 47 69 48 48 49 68 50 49 51 52 52 67 53 87 54 50 55 51 56
REMARK SMILES IDX 66 58 88 59 53 60 36 61 37 62 46 63 38 64 39 65 45 66 47 67
REMARK SMILES IDX 40 68 41 69 42 70 43 71 44 72 70 73 71 74 80 75 72 76 73 77
REMARK SMILES IDX 79 78 81 79 74 80 75 81 76 82 77 83 78 84 54 85 55 86 64 87
REMARK SMILES IDX 56 88 57 89 63 90 65 91 58 92 59 93 60 94 61 95 62 96
REMARK H PARENT 20 6 24 27 86 46 52 57
REMARK Flexibility Score: inf
ROOT
ATOM      1  C   UNL A   1      38.324  22.206  25.799  1.00  0.00     0.042 C 
ENDROOT
BRANCH   1   2
ATOM      2  C   UNL A   1      37.151  23.180  25.699  1.00  0.00     0.117 C 
BRANCH   2   3
ATOM      3  N   UNL A   1      35.911  22.655  25.144  1.00  0.00    -0.354 N 
ATOM      4  O   UNL A   1      34.597  23.241  26.928  1.00  0.00    -0.273 OA
ATOM      5  C   UNL A   1      34.691  22.899  25.750  1.00  0.00     0.240 C 
ATOM      6  H   UNL A   1      35.941  22.116  24.320  1.00  0.00     0.163 HD
BRANCH   5   7
ATOM      7  C   UNL A   1      33.448  22.670  24.880  1.00  0.00     0.226 C 
BRANCH   7   8
ATOM      8  N   UNL A   1      33.035  23.781  24.027  1.00  0.00    -0.293 N 
ATOM      9  C   UNL A   1      31.941  24.615  24.242  1.00  0.00     0.036 A 
ATOM     10  C   UNL A   1      33.678  23.984  22.813  1.00  0.00     0.308 A 
ATOM     11  C   UNL A   1      31.751  25.509  23.261  1.00  0.00     0.030 A 
ATOM     12  C   UNL A   1      31.054  24.552  25.448  1.00  0.00     0.056 C 
ATOM     13  S   UNL A   1      32.900  25.333  21.979  1.00  0.00    -0.079 S 
ATOM     14  O   UNL A   1      34.626  23.355  22.346  1.00  0.00    -0.257 OA
ATOM     15  C   UNL A   1      30.710  26.580  23.284  1.00  0.00     0.057 C 
ATOM     16  C   UNL A   1      29.907  25.582  25.422  1.00  0.00     0.015 C 
ATOM     17  C   UNL A   1      30.293  26.923  24.743  1.00  0.00     0.025 C 
BRANCH  17  18
ATOM     18  C   UNL A   1      31.324  27.788  25.482  1.00  0.00    -0.045 A 
ATOM     19  C   UNL A   1      32.053  28.770  24.785  1.00  0.00     0.004 A 
ATOM     20  C   UNL A   1      31.556  27.686  26.862  1.00  0.00     0.004 A 
ATOM     21  C   UNL A   1      33.041  29.535  25.413  1.00  0.00     0.000 A 
ATOM     22  C   UNL A   1      32.536  28.460  27.495  1.00  0.00     0.000 A 
ATOM     23  C   UNL A   1      33.296  29.366  26.766  1.00  0.00     0.000 A 
ENDBRANCH  17  18
ENDBRANCH   7   8
ENDBRANCH   5   7
ENDBRANCH   2   3
ENDBRANCH   1   2
BRANCH   1  24
ATOM     24  C   UNL A   1      39.445  22.693  26.703  1.00  0.00     0.118 C 
BRANCH  24  25
ATOM     25  N   UNL A   1      40.804  22.298  26.278  1.00  0.00    -0.352 N 
ATOM     26  C   UNL A   1      41.888  23.116  25.959  1.00  0.00     0.251 C 
ATOM     27  H   UNL A   1      40.966  21.329  26.211  1.00  0.00     0.163 HD
ATOM     28  O   UNL A   1      42.841  22.683  25.322  1.00  0.00    -0.269 OA
BRANCH  26  29
ATOM     29  C   UNL A   1      41.861  24.517  26.420  1.00  0.00     0.039 A 
ATOM     30  C   UNL A   1      41.236  25.574  25.748  1.00  0.00     0.014 A 
ATOM     31  C   UNL A   1      42.442  24.728  27.654  1.00  0.00     0.014 A 
ATOM     32  C   UNL A   1      41.148  26.810  26.396  1.00  0.00     0.010 A 
ATOM     33  C   UNL A   1      42.013  25.771  28.405  1.00  0.00     0.010 A 
ATOM     34  C   UNL A   1      41.539  26.885  27.738  1.00  0.00    -0.014 A 
BRANCH  34  35
ATOM     35  C   UNL A   1      41.523  28.089  28.550  1.00  0.00     0.031 A 
ATOM     36  C   UNL A   1      42.583  29.077  28.251  1.00  0.00     0.074 A 
ATOM     37  C   UNL A   1      40.411  28.430  29.242  1.00  0.00     0.049 A 
ATOM     38  N   UNL A   1      43.585  29.399  28.994  1.00  0.00    -0.248 NA
ATOM     39  C   UNL A   1      42.621  29.675  26.909  1.00  0.00     0.031 C 
ATOM     40  C   UNL A   1      39.114  27.734  29.316  1.00  0.00     0.029 A 
ATOM     41  N   UNL A   1      40.162  29.573  29.924  1.00  0.00    -0.354 N 
ATOM     42  C   UNL A   1      44.260  30.405  28.312  1.00  0.00     0.074 A 
ATOM     43  C   UNL A   1      43.764  30.363  26.961  1.00  0.00     0.031 C 
ATOM     44  C   UNL A   1      38.174  28.571  29.801  1.00  0.00     0.029 A 
ATOM     45  C   UNL A   1      38.824  29.794  30.228  1.00  0.00     0.049 A 
ATOM     46  H   UNL A   1      40.874  30.201  30.184  1.00  0.00     0.167 HD
ATOM     47  C   UNL A   1      45.002  31.340  28.974  1.00  0.00     0.037 A 
ATOM     48  C   UNL A   1      38.301  30.929  30.759  1.00  0.00     0.037 A 
ATOM     49  C   UNL A   1      45.141  30.986  30.369  1.00  0.00     0.049 A 
ATOM     50  C   UNL A   1      39.437  31.648  31.406  1.00  0.00     0.074 A 
ATOM     51  C   UNL A   1      45.671  29.900  31.041  1.00  0.00     0.029 A 
ATOM     52  N   UNL A   1      44.310  31.613  31.271  1.00  0.00    -0.354 N 
ATOM     53  N   UNL A   1      40.097  31.181  32.434  1.00  0.00    -0.248 NA
ATOM     54  C   UNL A   1      40.156  32.636  30.612  1.00  0.00     0.031 C 
ATOM     55  C   UNL A   1      44.763  29.652  32.113  1.00  0.00     0.029 A 
ATOM     56  C   UNL A   1      43.778  30.643  32.085  1.00  0.00     0.049 A 
ATOM     57  H   UNL A   1      44.131  32.581  31.324  1.00  0.00     0.167 HD
ATOM     58  C   UNL A   1      41.431  31.480  32.177  1.00  0.00     0.074 A 
ATOM     59  C   UNL A   1      41.393  32.454  31.087  1.00  0.00     0.031 C 
ATOM     60  C   UNL A   1      42.445  30.696  32.657  1.00  0.00     0.037 A 
BRANCH  47  61
ATOM     61  C   UNL A   1      45.330  32.726  28.472  1.00  0.00     0.058 A 
ATOM     62  C   UNL A   1      46.684  33.109  28.361  1.00  0.00     0.135 A 
ATOM     63  C   UNL A   1      44.393  33.772  28.330  1.00  0.00     0.135 A 
ATOM     64  F   UNL A   1      47.665  32.199  28.471  1.00  0.00    -0.206 F 
ATOM     65  C   UNL A   1      47.077  34.439  28.206  1.00  0.00     0.059 A 
ATOM     66  C   UNL A   1      44.761  35.096  28.114  1.00  0.00     0.059 A 
ATOM     67  F   UNL A   1      43.078  33.584  28.493  1.00  0.00    -0.206 F 
ATOM     68  C   UNL A   1      46.106  35.427  28.102  1.00  0.00     0.060 A 
BRANCH  68  69
ATOM     69  S   UNL A   1      46.607  37.154  28.029  1.00  0.00     0.124 S 
ATOM     70  O   UNL A   1      48.045  37.047  28.254  1.00  0.00    -0.237 OA
ATOM     71  O   UNL A   1      46.197  37.534  26.681  1.00  0.00    -0.237 OA
ATOM     72  O   UNL A   1      45.843  37.773  29.107  1.00  0.00    -0.744 OA
ENDBRANCH  68  69
ENDBRANCH  47  61
BRANCH  48  73
ATOM     73  C   UNL A   1      36.990  31.559  30.434  1.00  0.00     0.058 A 
ATOM     74  C   UNL A   1      36.174  32.108  31.440  1.00  0.00     0.135 A 
ATOM     75  C   UNL A   1      36.628  31.878  29.107  1.00  0.00     0.135 A 
ATOM     76  F   UNL A   1      36.450  31.876  32.732  1.00  0.00    -0.206 F 
ATOM     77  C   UNL A   1      35.104  32.966  31.151  1.00  0.00     0.059 A 
ATOM     78  C   UNL A   1      35.556  32.713  28.795  1.00  0.00     0.059 A 
ATOM     79  F   UNL A   1      37.369  31.469  28.067  1.00  0.00    -0.206 F 
ATOM     80  C   UNL A   1      34.817  33.283  29.823  1.00  0.00     0.060 A 
BRANCH  80  81
ATOM     81  S   UNL A   1      33.582  34.552  29.450  1.00  0.00     0.124 S 
ATOM     82  O   UNL A   1      33.132  34.942  30.782  1.00  0.00    -0.237 OA
ATOM     83  O   UNL A   1      34.370  35.546  28.729  1.00  0.00    -0.237 OA
ATOM     84  O   UNL A   1      32.596  33.843  28.640  1.00  0.00    -0.744 OA
ENDBRANCH  80  81
ENDBRANCH  48  73
BRANCH  60  85
ATOM     85  C   UNL A   1      42.114  29.633  33.682  1.00  0.00     0.058 A 
ATOM     86  C   UNL A   1      41.748  28.312  33.363  1.00  0.00     0.135 A 
ATOM     87  C   UNL A   1      42.352  29.909  35.037  1.00  0.00     0.135 A 
ATOM     88  F   UNL A   1      41.611  27.924  32.092  1.00  0.00    -0.206 F 
ATOM     89  C   UNL A   1      41.585  27.327  34.339  1.00  0.00     0.059 A 
ATOM     90  C   UNL A   1      42.227  28.934  36.027  1.00  0.00     0.059 A 
ATOM     91  F   UNL A   1      42.772  31.129  35.410  1.00  0.00    -0.206 F 
ATOM     92  C   UNL A   1      41.830  27.647  35.670  1.00  0.00     0.060 A 
BRANCH  92  93
ATOM     93  S   UNL A   1      41.699  26.350  36.920  1.00  0.00     0.124 S 
ATOM     94  O   UNL A   1      41.837  25.138  36.120  1.00  0.00    -0.237 OA
ATOM     95  O   UNL A   1      42.817  26.650  37.811  1.00  0.00    -0.237 OA
ATOM     96  O   UNL A   1      40.377  26.568  37.501  1.00  0.00    -0.744 OA
ENDBRANCH  92  93
ENDBRANCH  60  85
ENDBRANCH  34  35
ENDBRANCH  26  29
ENDBRANCH  24  25
ENDBRANCH   1  24
TORSDOF 15
ENDMDL
