MODEL 1
REMARK VINA RESULT:     -11.9      0.000      0.000
REMARK SMILES COC(=O)[C@H]1CCN(S(=O)(=O)N2CCC[C@H](C(=O)NCCCNC(=O)c3ccc(-c4c5nc(c(-c6c(F)cc(S(=O)(=O)[O-])cc6F)c6ccc([nH]6)c(-c6c(F)cc(S(=O)(=O)[O-])cc6F)c6nc(c(-c7c(F)cc(S(=O)(=O)[O-])cc7F)c7ccc4[nH]7)C=C6)C=C5)cc3)C2)C1
REMARK SMILES IDX 20 1 19 2 17 3 18 4 16 6 12 7 13 8 92 9 14 10 15 11 9 12
REMARK SMILES IDX 10 13 11 14 8 15 5 16 6 17 93 18 7 19 3 20 4 21 2 22 1 23
REMARK SMILES IDX 21 24 22 25 23 26 24 27 25 29 26 30 27 31 91 32 28 33 90 34
REMARK SMILES IDX 29 35 30 36 31 37 84 38 32 39 89 40 83 41 85 42 33 43 88 44
REMARK SMILES IDX 82 45 81 46 34 48 68 49 47 50 67 51 48 52 51 53 66 54 86 55
REMARK SMILES IDX 49 56 50 57 65 59 87 60 52 61 35 62 36 63 45 64 37 65 38 66
REMARK SMILES IDX 44 67 46 68 39 69 40 70 41 71 42 72 43 73 69 74 70 75 79 76
REMARK SMILES IDX 71 77 72 78 78 79 80 80 73 81 74 82 75 83 76 84 77 85 53 86
REMARK SMILES IDX 54 87 63 88 55 89 56 90 62 91 64 92 57 93 58 94 59 95 60 96
REMARK SMILES IDX 61 97
REMARK H PARENT 19 5 23 28 85 47 51 58
REMARK Flexibility Score: inf
ROOT
ATOM      1  C   UNL A   1      34.466  29.459  27.371  1.00  0.00     0.117 C 
ENDROOT
BRANCH   1   2
ATOM      2  N   UNL A   1      33.183  28.875  27.693  1.00  0.00    -0.356 N 
ATOM      3  C   UNL A   1      32.505  27.833  27.161  1.00  0.00     0.224 C 
ATOM      4  O   UNL A   1      31.426  27.555  27.702  1.00  0.00    -0.275 OA
ATOM      5  H   UNL A   1      32.717  29.318  28.438  1.00  0.00     0.163 HD
BRANCH   3   6
ATOM      6  C   UNL A   1      32.968  26.998  25.965  1.00  0.00     0.094 C 
ATOM      7  N   UNL A   1      31.551  27.274  23.928  1.00  0.00    -0.188 NA
ATOM      8  C   UNL A   1      31.261  25.838  23.813  1.00  0.00     0.103 C 
ATOM      9  C   UNL A   1      32.803  27.655  24.604  1.00  0.00     0.117 C 
ATOM     10  C   UNL A   1      31.368  25.145  25.171  1.00  0.00     0.018 C 
ATOM     11  C   UNL A   1      32.608  25.516  25.975  1.00  0.00     0.016 C 
BRANCH   7  12
ATOM     12  S   UNL A   1      30.831  28.337  22.855  1.00  0.00     0.282 S 
ATOM     13  O   UNL A   1      30.338  27.601  21.717  1.00  0.00    -0.195 OA
ATOM     14  O   UNL A   1      31.721  29.463  22.676  1.00  0.00    -0.195 OA
BRANCH  12  15
ATOM     15  N   UNL A   1      29.491  28.906  23.721  1.00  0.00    -0.188 NA
ATOM     16  C   UNL A   1      28.197  30.902  23.207  1.00  0.00     0.116 C 
ATOM     17  C   UNL A   1      27.699  29.715  22.400  1.00  0.00     0.033 C 
ATOM     18  C   UNL A   1      29.494  30.408  23.851  1.00  0.00     0.118 C 
ATOM     19  C   UNL A   1      28.144  28.543  23.238  1.00  0.00     0.104 C 
BRANCH  16  20
ATOM     20  C   UNL A   1      28.415  32.117  22.341  1.00  0.00     0.310 C 
ATOM     21  O   UNL A   1      28.407  33.273  22.740  1.00  0.00    -0.252 OA
BRANCH  20  22
ATOM     22  O   UNL A   1      28.716  31.737  21.067  1.00  0.00    -0.469 OA
ATOM     23  C   UNL A   1      27.939  32.409  20.074  1.00  0.00     0.282 C 
ENDBRANCH  20  22
ENDBRANCH  16  20
ENDBRANCH  12  15
ENDBRANCH   7  12
ENDBRANCH   3   6
ENDBRANCH   1   2
BRANCH   1  24
ATOM     24  C   UNL A   1      34.501  30.954  27.632  1.00  0.00     0.042 C 
BRANCH  24  25
ATOM     25  C   UNL A   1      35.728  31.385  28.408  1.00  0.00     0.118 C 
BRANCH  25  26
ATOM     26  N   UNL A   1      35.598  31.123  29.837  1.00  0.00    -0.352 N 
ATOM     27  C   UNL A   1      36.465  30.516  30.711  1.00  0.00     0.251 C 
ATOM     28  H   UNL A   1      34.752  31.430  30.238  1.00  0.00     0.163 HD
ATOM     29  O   UNL A   1      36.077  30.206  31.833  1.00  0.00    -0.269 OA
BRANCH  27  30
ATOM     30  C   UNL A   1      37.852  30.222  30.296  1.00  0.00     0.039 A 
ATOM     31  C   UNL A   1      38.793  29.872  31.267  1.00  0.00     0.014 A 
ATOM     32  C   UNL A   1      38.227  30.293  28.954  1.00  0.00     0.014 A 
ATOM     33  C   UNL A   1      40.089  29.532  30.878  1.00  0.00     0.010 A 
ATOM     34  C   UNL A   1      39.475  29.834  28.558  1.00  0.00     0.010 A 
ATOM     35  C   UNL A   1      40.429  29.470  29.517  1.00  0.00    -0.014 A 
BRANCH  35  36
ATOM     36  C   UNL A   1      41.781  29.051  29.072  1.00  0.00     0.031 A 
ATOM     37  C   UNL A   1      42.899  30.059  29.025  1.00  0.00     0.074 A 
ATOM     38  C   UNL A   1      41.982  27.786  28.653  1.00  0.00     0.049 A 
ATOM     39  N   UNL A   1      44.129  29.909  28.605  1.00  0.00    -0.248 NA
ATOM     40  C   UNL A   1      42.588  31.426  29.477  1.00  0.00     0.031 C 
ATOM     41  C   UNL A   1      40.958  26.739  28.598  1.00  0.00     0.029 A 
ATOM     42  N   UNL A   1      43.112  27.166  28.186  1.00  0.00    -0.354 N 
ATOM     43  C   UNL A   1      44.725  31.158  28.728  1.00  0.00     0.074 A 
ATOM     44  C   UNL A   1      43.708  32.071  29.194  1.00  0.00     0.031 C 
ATOM     45  C   UNL A   1      41.516  25.600  28.160  1.00  0.00     0.029 A 
ATOM     46  C   UNL A   1      42.921  25.845  27.856  1.00  0.00     0.049 A 
ATOM     47  H   UNL A   1      43.980  27.622  28.096  1.00  0.00     0.167 HD
ATOM     48  C   UNL A   1      46.015  31.505  28.502  1.00  0.00     0.037 A 
ATOM     49  C   UNL A   1      43.781  24.935  27.355  1.00  0.00     0.037 A 
ATOM     50  C   UNL A   1      47.025  30.579  28.065  1.00  0.00     0.049 A 
ATOM     51  C   UNL A   1      45.207  25.346  27.107  1.00  0.00     0.074 A 
ATOM     52  C   UNL A   1      48.374  30.810  27.865  1.00  0.00     0.029 A 
ATOM     53  N   UNL A   1      46.796  29.246  27.755  1.00  0.00    -0.354 N 
ATOM     54  N   UNL A   1      45.773  26.515  27.297  1.00  0.00    -0.248 NA
ATOM     55  C   UNL A   1      46.113  24.317  26.582  1.00  0.00     0.031 C 
ATOM     56  C   UNL A   1      48.949  29.632  27.378  1.00  0.00     0.029 A 
ATOM     57  C   UNL A   1      47.974  28.649  27.337  1.00  0.00     0.049 A 
ATOM     58  H   UNL A   1      45.926  28.791  27.823  1.00  0.00     0.167 HD
ATOM     59  C   UNL A   1      47.107  26.354  26.942  1.00  0.00     0.074 A 
ATOM     60  C   UNL A   1      47.266  24.971  26.541  1.00  0.00     0.031 C 
ATOM     61  C   UNL A   1      48.111  27.266  26.946  1.00  0.00     0.037 A 
BRANCH  48  62
ATOM     62  C   UNL A   1      46.405  32.942  28.730  1.00  0.00     0.058 A 
ATOM     63  C   UNL A   1      46.858  33.398  29.979  1.00  0.00     0.135 A 
ATOM     64  C   UNL A   1      46.357  33.870  27.676  1.00  0.00     0.135 A 
ATOM     65  F   UNL A   1      46.908  32.561  31.028  1.00  0.00    -0.206 F 
ATOM     66  C   UNL A   1      47.221  34.725  30.183  1.00  0.00     0.059 A 
ATOM     67  C   UNL A   1      46.747  35.194  27.848  1.00  0.00     0.059 A 
ATOM     68  F   UNL A   1      45.928  33.492  26.462  1.00  0.00    -0.206 F 
ATOM     69  C   UNL A   1      47.166  35.616  29.110  1.00  0.00     0.060 A 
BRANCH  69  70
ATOM     70  S   UNL A   1      47.655  37.331  29.389  1.00  0.00     0.124 S 
ATOM     71  O   UNL A   1      47.510  37.897  28.051  1.00  0.00    -0.237 OA
ATOM     72  O   UNL A   1      46.675  37.776  30.375  1.00  0.00    -0.237 OA
ATOM     73  O   UNL A   1      49.025  37.220  29.877  1.00  0.00    -0.744 OA
ENDBRANCH  69  70
ENDBRANCH  48  62
BRANCH  49  74
ATOM     74  C   UNL A   1      43.320  23.549  27.076  1.00  0.00     0.058 A 
ATOM     75  C   UNL A   1      43.050  23.125  25.766  1.00  0.00     0.135 A 
ATOM     76  C   UNL A   1      43.154  22.612  28.110  1.00  0.00     0.135 A 
ATOM     77  F   UNL A   1      43.188  23.982  24.742  1.00  0.00    -0.206 F 
ATOM     78  C   UNL A   1      42.613  21.832  25.491  1.00  0.00     0.059 A 
ATOM     79  C   UNL A   1      42.749  21.306  27.857  1.00  0.00     0.059 A 
ATOM     80  F   UNL A   1      43.416  22.959  29.379  1.00  0.00    -0.206 F 
ATOM     81  C   UNL A   1      42.470  20.928  26.544  1.00  0.00     0.060 A 
BRANCH  81  82
ATOM     82  S   UNL A   1      41.945  19.241  26.172  1.00  0.00     0.124 S 
ATOM     83  O   UNL A   1      42.792  18.914  25.032  1.00  0.00    -0.237 OA
ATOM     84  O   UNL A   1      42.252  18.545  27.418  1.00  0.00    -0.237 OA
ATOM     85  O   UNL A   1      40.522  19.388  25.879  1.00  0.00    -0.744 OA
ENDBRANCH  81  82
ENDBRANCH  49  74
BRANCH  61  86
ATOM     86  C   UNL A   1      49.478  26.793  26.534  1.00  0.00     0.058 A 
ATOM     87  C   UNL A   1      50.401  26.295  27.465  1.00  0.00     0.135 A 
ATOM     88  C   UNL A   1      49.848  26.789  25.177  1.00  0.00     0.135 A 
ATOM     89  F   UNL A   1      50.101  26.282  28.774  1.00  0.00    -0.206 F 
ATOM     90  C   UNL A   1      51.653  25.834  27.072  1.00  0.00     0.059 A 
ATOM     91  C   UNL A   1      51.081  26.301  24.758  1.00  0.00     0.059 A 
ATOM     92  F   UNL A   1      48.997  27.244  24.243  1.00  0.00    -0.206 F 
ATOM     93  C   UNL A   1      51.981  25.837  25.715  1.00  0.00     0.060 A 
BRANCH  93  94
ATOM     94  S   UNL A   1      53.597  25.204  25.217  1.00  0.00     0.124 S 
ATOM     95  O   UNL A   1      53.357  23.765  25.207  1.00  0.00    -0.237 OA
ATOM     96  O   UNL A   1      53.784  25.826  23.910  1.00  0.00    -0.237 OA
ATOM     97  O   UNL A   1      54.489  25.685  26.268  1.00  0.00    -0.744 OA
ENDBRANCH  93  94
ENDBRANCH  61  86
ENDBRANCH  35  36
ENDBRANCH  27  30
ENDBRANCH  25  26
ENDBRANCH  24  25
ENDBRANCH   1  24
TORSDOF 17
ENDMDL
MODEL 2
REMARK VINA RESULT:     -11.8      6.488     11.926
REMARK SMILES COC(=O)[C@H]1CCN(S(=O)(=O)N2CCC[C@H](C(=O)NCCCNC(=O)c3ccc(-c4c5nc(c(-c6c(F)cc(S(=O)(=O)[O-])cc6F)c6ccc([nH]6)c(-c6c(F)cc(S(=O)(=O)[O-])cc6F)c6nc(c(-c7c(F)cc(S(=O)(=O)[O-])cc7F)c7ccc4[nH]7)C=C6)C=C5)cc3)C2)C1
REMARK SMILES IDX 20 1 19 2 17 3 18 4 16 6 12 7 13 8 92 9 14 10 15 11 9 12
REMARK SMILES IDX 10 13 11 14 8 15 5 16 6 17 93 18 7 19 3 20 4 21 2 22 1 23
REMARK SMILES IDX 21 24 22 25 23 26 24 27 25 29 26 30 27 31 91 32 28 33 90 34
REMARK SMILES IDX 29 35 30 36 31 37 84 38 32 39 89 40 83 41 85 42 33 43 88 44
REMARK SMILES IDX 82 45 81 46 34 48 68 49 47 50 67 51 48 52 51 53 66 54 86 55
REMARK SMILES IDX 49 56 50 57 65 59 87 60 52 61 35 62 36 63 45 64 37 65 38 66
REMARK SMILES IDX 44 67 46 68 39 69 40 70 41 71 42 72 43 73 69 74 70 75 79 76
REMARK SMILES IDX 71 77 72 78 78 79 80 80 73 81 74 82 75 83 76 84 77 85 53 86
REMARK SMILES IDX 54 87 63 88 55 89 56 90 62 91 64 92 57 93 58 94 59 95 60 96
REMARK SMILES IDX 61 97
REMARK H PARENT 19 5 23 28 85 47 51 58
REMARK Flexibility Score: inf
ROOT
ATOM      1  C   UNL A   1      39.338  21.504  26.126  1.00  0.00     0.117 C 
ENDROOT
BRANCH   1   2
ATOM      2  N   UNL A   1      38.384  22.578  26.294  1.00  0.00    -0.356 N 
ATOM      3  C   UNL A   1      37.197  22.835  25.698  1.00  0.00     0.224 C 
ATOM      4  O   UNL A   1      36.592  23.837  26.104  1.00  0.00    -0.275 OA
ATOM      5  H   UNL A   1      38.647  23.246  26.967  1.00  0.00     0.163 HD
BRANCH   3   6
ATOM      6  C   UNL A   1      36.570  21.994  24.585  1.00  0.00     0.094 C 
ATOM      7  N   UNL A   1      34.361  22.848  23.793  1.00  0.00    -0.188 NA
ATOM      8  C   UNL A   1      33.662  21.584  24.063  1.00  0.00     0.103 C 
ATOM      9  C   UNL A   1      35.808  22.773  23.526  1.00  0.00     0.117 C 
ATOM     10  C   UNL A   1      34.369  20.788  25.159  1.00  0.00     0.018 C 
ATOM     11  C   UNL A   1      35.882  20.697  25.001  1.00  0.00     0.016 C 
BRANCH   7  12
ATOM     12  S   UNL A   1      33.482  24.161  23.242  1.00  0.00     0.282 S 
ATOM     13  O   UNL A   1      33.290  24.038  21.817  1.00  0.00    -0.195 OA
ATOM     14  O   UNL A   1      34.065  25.358  23.806  1.00  0.00    -0.195 OA
BRANCH  12  15
ATOM     15  N   UNL A   1      31.975  23.953  23.986  1.00  0.00    -0.188 NA
ATOM     16  C   UNL A   1      30.667  25.690  25.078  1.00  0.00     0.116 C 
ATOM     17  C   UNL A   1      30.399  25.674  23.583  1.00  0.00     0.033 C 
ATOM     18  C   UNL A   1      31.856  24.747  25.262  1.00  0.00     0.118 C 
ATOM     19  C   UNL A   1      30.762  24.261  23.203  1.00  0.00     0.104 C 
BRANCH  16  20
ATOM     20  C   UNL A   1      30.956  27.082  25.581  1.00  0.00     0.310 C 
ATOM     21  O   UNL A   1      31.033  28.080  24.879  1.00  0.00    -0.252 OA
BRANCH  20  22
ATOM     22  O   UNL A   1      31.027  27.082  26.942  1.00  0.00    -0.469 OA
ATOM     23  C   UNL A   1      32.058  27.925  27.458  1.00  0.00     0.282 C 
ENDBRANCH  20  22
ENDBRANCH  16  20
ENDBRANCH  12  15
ENDBRANCH   7  12
ENDBRANCH   3   6
ENDBRANCH   1   2
BRANCH   1  24
ATOM     24  C   UNL A   1      40.536  21.648  27.047  1.00  0.00     0.042 C 
BRANCH  24  25
ATOM     25  C   UNL A   1      40.842  23.092  27.388  1.00  0.00     0.118 C 
BRANCH  25  26
ATOM     26  N   UNL A   1      41.523  23.783  26.298  1.00  0.00    -0.352 N 
ATOM     27  C   UNL A   1      41.727  25.124  26.088  1.00  0.00     0.251 C 
ATOM     28  H   UNL A   1      41.896  23.193  25.603  1.00  0.00     0.163 HD
ATOM     29  O   UNL A   1      42.143  25.511  25.000  1.00  0.00    -0.269 OA
BRANCH  27  30
ATOM     30  C   UNL A   1      41.430  26.097  27.159  1.00  0.00     0.039 A 
ATOM     31  C   UNL A   1      40.405  25.817  28.066  1.00  0.00     0.014 A 
ATOM     32  C   UNL A   1      42.157  27.283  27.270  1.00  0.00     0.014 A 
ATOM     33  C   UNL A   1      40.158  26.700  29.119  1.00  0.00     0.010 A 
ATOM     34  C   UNL A   1      41.996  28.093  28.386  1.00  0.00     0.010 A 
ATOM     35  C   UNL A   1      40.979  27.823  29.312  1.00  0.00    -0.014 A 
BRANCH  35  36
ATOM     36  C   UNL A   1      40.780  28.745  30.457  1.00  0.00     0.031 A 
ATOM     37  C   UNL A   1      41.628  28.599  31.693  1.00  0.00     0.074 A 
ATOM     38  C   UNL A   1      39.797  29.666  30.406  1.00  0.00     0.049 A 
ATOM     39  N   UNL A   1      41.565  29.259  32.820  1.00  0.00    -0.248 NA
ATOM     40  C   UNL A   1      42.663  27.550  31.674  1.00  0.00     0.031 C 
ATOM     41  C   UNL A   1      38.874  29.859  29.285  1.00  0.00     0.029 A 
ATOM     42  N   UNL A   1      39.403  30.607  31.323  1.00  0.00    -0.354 N 
ATOM     43  C   UNL A   1      42.534  28.696  33.642  1.00  0.00     0.074 A 
ATOM     44  C   UNL A   1      43.124  27.597  32.914  1.00  0.00     0.031 C 
ATOM     45  C   UNL A   1      38.048  30.879  29.564  1.00  0.00     0.029 A 
ATOM     46  C   UNL A   1      38.347  31.381  30.902  1.00  0.00     0.049 A 
ATOM     47  H   UNL A   1      39.836  30.720  32.200  1.00  0.00     0.167 HD
ATOM     48  C   UNL A   1      42.919  29.082  34.882  1.00  0.00     0.037 A 
ATOM     49  C   UNL A   1      37.688  32.376  31.527  1.00  0.00     0.037 A 
ATOM     50  C   UNL A   1      42.342  30.196  35.585  1.00  0.00     0.049 A 
ATOM     51  C   UNL A   1      38.130  32.782  32.907  1.00  0.00     0.074 A 
ATOM     52  C   UNL A   1      42.697  30.711  36.819  1.00  0.00     0.029 A 
ATOM     53  N   UNL A   1      41.283  30.964  35.120  1.00  0.00    -0.354 N 
ATOM     54  N   UNL A   1      39.097  32.286  33.642  1.00  0.00    -0.248 NA
ATOM     55  C   UNL A   1      37.397  33.885  33.540  1.00  0.00     0.031 C 
ATOM     56  C   UNL A   1      41.817  31.754  37.125  1.00  0.00     0.029 A 
ATOM     57  C   UNL A   1      40.955  31.931  36.055  1.00  0.00     0.049 A 
ATOM     58  H   UNL A   1      40.833  30.840  34.253  1.00  0.00     0.167 HD
ATOM     59  C   UNL A   1      39.107  33.035  34.813  1.00  0.00     0.074 A 
ATOM     60  C   UNL A   1      38.060  34.027  34.680  1.00  0.00     0.031 C 
ATOM     61  C   UNL A   1      39.909  32.914  35.901  1.00  0.00     0.037 A 
BRANCH  48  62
ATOM     62  C   UNL A   1      44.016  28.298  35.552  1.00  0.00     0.058 A 
ATOM     63  C   UNL A   1      43.741  27.203  36.388  1.00  0.00     0.135 A 
ATOM     64  C   UNL A   1      45.364  28.623  35.328  1.00  0.00     0.135 A 
ATOM     65  F   UNL A   1      42.471  26.856  36.654  1.00  0.00    -0.206 F 
ATOM     66  C   UNL A   1      44.758  26.479  37.002  1.00  0.00     0.059 A 
ATOM     67  C   UNL A   1      46.400  27.892  35.903  1.00  0.00     0.059 A 
ATOM     68  F   UNL A   1      45.688  29.661  34.540  1.00  0.00    -0.206 F 
ATOM     69  C   UNL A   1      46.086  26.829  36.750  1.00  0.00     0.060 A 
BRANCH  69  70
ATOM     70  S   UNL A   1      47.394  25.869  37.541  1.00  0.00     0.124 S 
ATOM     71  O   UNL A   1      46.619  24.925  38.341  1.00  0.00    -0.237 OA
ATOM     72  O   UNL A   1      48.097  25.302  36.395  1.00  0.00    -0.237 OA
ATOM     73  O   UNL A   1      48.139  26.868  38.299  1.00  0.00    -0.744 OA
ENDBRANCH  69  70
ENDBRANCH  48  62
BRANCH  49  74
ATOM     74  C   UNL A   1      36.558  33.064  30.846  1.00  0.00     0.058 A 
ATOM     75  C   UNL A   1      35.231  32.843  31.244  1.00  0.00     0.135 A 
ATOM     76  C   UNL A   1      36.781  33.969  29.796  1.00  0.00     0.135 A 
ATOM     77  F   UNL A   1      34.963  31.985  32.239  1.00  0.00    -0.206 F 
ATOM     78  C   UNL A   1      34.164  33.477  30.612  1.00  0.00     0.059 A 
ATOM     79  C   UNL A   1      35.734  34.638  29.170  1.00  0.00     0.059 A 
ATOM     80  F   UNL A   1      38.032  34.232  29.388  1.00  0.00    -0.206 F 
ATOM     81  C   UNL A   1      34.427  34.376  29.579  1.00  0.00     0.060 A 
BRANCH  81  82
ATOM     82  S   UNL A   1      33.039  35.226  28.796  1.00  0.00     0.124 S 
ATOM     83  O   UNL A   1      32.530  34.195  27.899  1.00  0.00    -0.237 OA
ATOM     84  O   UNL A   1      32.195  35.550  29.943  1.00  0.00    -0.237 OA
ATOM     85  O   UNL A   1      33.669  36.372  28.147  1.00  0.00    -0.744 OA
ENDBRANCH  81  82
ENDBRANCH  49  74
BRANCH  61  86
ATOM     86  C   UNL A   1      39.708  33.897  37.022  1.00  0.00     0.058 A 
ATOM     87  C   UNL A   1      38.874  33.615  38.114  1.00  0.00     0.135 A 
ATOM     88  C   UNL A   1      40.405  35.118  37.026  1.00  0.00     0.135 A 
ATOM     89  F   UNL A   1      38.180  32.465  38.155  1.00  0.00    -0.206 F 
ATOM     90  C   UNL A   1      38.716  34.518  39.159  1.00  0.00     0.059 A 
ATOM     91  C   UNL A   1      40.289  36.021  38.078  1.00  0.00     0.059 A 
ATOM     92  F   UNL A   1      41.226  35.433  36.011  1.00  0.00    -0.206 F 
ATOM     93  C   UNL A   1      39.431  35.717  39.133  1.00  0.00     0.060 A 
BRANCH  93  94
ATOM     94  S   UNL A   1      39.241  36.864  40.514  1.00  0.00     0.124 S 
ATOM     95  O   UNL A   1      40.631  37.172  40.833  1.00  0.00    -0.237 OA
ATOM     96  O   UNL A   1      38.473  37.949  39.913  1.00  0.00    -0.237 OA
ATOM     97  O   UNL A   1      38.527  36.077  41.515  1.00  0.00    -0.744 OA
ENDBRANCH  93  94
ENDBRANCH  61  86
ENDBRANCH  35  36
ENDBRANCH  27  30
ENDBRANCH  25  26
ENDBRANCH  24  25
ENDBRANCH   1  24
TORSDOF 17
ENDMDL
MODEL 3
REMARK VINA RESULT:     -11.8      1.947      4.065
REMARK SMILES COC(=O)[C@H]1CCN(S(=O)(=O)N2CCC[C@H](C(=O)NCCCNC(=O)c3ccc(-c4c5nc(c(-c6c(F)cc(S(=O)(=O)[O-])cc6F)c6ccc([nH]6)c(-c6c(F)cc(S(=O)(=O)[O-])cc6F)c6nc(c(-c7c(F)cc(S(=O)(=O)[O-])cc7F)c7ccc4[nH]7)C=C6)C=C5)cc3)C2)C1
REMARK SMILES IDX 20 1 19 2 17 3 18 4 16 6 12 7 13 8 92 9 14 10 15 11 9 12
REMARK SMILES IDX 10 13 11 14 8 15 5 16 6 17 93 18 7 19 3 20 4 21 2 22 1 23
REMARK SMILES IDX 21 24 22 25 23 26 24 27 25 29 26 30 27 31 91 32 28 33 90 34
REMARK SMILES IDX 29 35 30 36 31 37 84 38 32 39 89 40 83 41 85 42 33 43 88 44
REMARK SMILES IDX 82 45 81 46 34 48 68 49 47 50 67 51 48 52 51 53 66 54 86 55
REMARK SMILES IDX 49 56 50 57 65 59 87 60 52 61 35 62 36 63 45 64 37 65 38 66
REMARK SMILES IDX 44 67 46 68 39 69 40 70 41 71 42 72 43 73 69 74 70 75 79 76
REMARK SMILES IDX 71 77 72 78 78 79 80 80 73 81 74 82 75 83 76 84 77 85 53 86
REMARK SMILES IDX 54 87 63 88 55 89 56 90 62 91 64 92 57 93 58 94 59 95 60 96
REMARK SMILES IDX 61 97
REMARK H PARENT 19 5 23 28 85 47 51 58
REMARK Flexibility Score: inf
ROOT
ATOM      1  C   UNL A   1      33.053  29.736  26.170  1.00  0.00     0.117 C 
ENDROOT
BRANCH   1   2
ATOM      2  N   UNL A   1      33.624  29.384  24.889  1.00  0.00    -0.356 N 
ATOM      3  C   UNL A   1      33.125  28.703  23.833  1.00  0.00     0.224 C 
ATOM      4  O   UNL A   1      33.870  28.606  22.848  1.00  0.00    -0.275 OA
ATOM      5  H   UNL A   1      34.547  29.699  24.762  1.00  0.00     0.163 HD
BRANCH   3   6
ATOM      6  C   UNL A   1      31.739  28.059  23.775  1.00  0.00     0.094 C 
ATOM      7  N   UNL A   1      31.698  25.675  24.519  1.00  0.00    -0.188 NA
ATOM      8  C   UNL A   1      31.110  25.189  23.263  1.00  0.00     0.103 C 
ATOM      9  C   UNL A   1      31.426  27.074  24.890  1.00  0.00     0.117 C 
ATOM     10  C   UNL A   1      31.441  26.125  22.102  1.00  0.00     0.018 C 
ATOM     11  C   UNL A   1      31.243  27.605  22.405  1.00  0.00     0.016 C 
BRANCH   7  12
ATOM     12  S   UNL A   1      32.118  24.569  25.701  1.00  0.00     0.282 S 
ATOM     13  O   UNL A   1      31.887  23.234  25.206  1.00  0.00    -0.195 OA
ATOM     14  O   UNL A   1      31.531  25.004  26.950  1.00  0.00    -0.195 OA
BRANCH  12  15
ATOM     15  N   UNL A   1      33.792  24.782  25.849  1.00  0.00    -0.188 NA
ATOM     16  C   UNL A   1      35.483  23.050  25.603  1.00  0.00     0.116 C 
ATOM     17  C   UNL A   1      35.107  23.630  24.251  1.00  0.00     0.033 C 
ATOM     18  C   UNL A   1      34.451  23.634  26.570  1.00  0.00     0.118 C 
ATOM     19  C   UNL A   1      34.579  24.994  24.618  1.00  0.00     0.104 C 
BRANCH  16  20
ATOM     20  C   UNL A   1      35.468  21.543  25.592  1.00  0.00     0.310 C 
ATOM     21  O   UNL A   1      36.443  20.833  25.390  1.00  0.00    -0.252 OA
BRANCH  20  22
ATOM     22  O   UNL A   1      34.230  21.084  25.931  1.00  0.00    -0.469 OA
ATOM     23  C   UNL A   1      33.672  20.188  24.968  1.00  0.00     0.282 C 
ENDBRANCH  20  22
ENDBRANCH  16  20
ENDBRANCH  12  15
ENDBRANCH   7  12
ENDBRANCH   3   6
ENDBRANCH   1   2
BRANCH   1  24
ATOM     24  C   UNL A   1      33.676  28.957  27.314  1.00  0.00     0.042 C 
BRANCH  24  25
ATOM     25  C   UNL A   1      35.102  29.381  27.603  1.00  0.00     0.118 C 
BRANCH  25  26
ATOM     26  N   UNL A   1      35.200  30.200  28.806  1.00  0.00    -0.352 N 
ATOM     27  C   UNL A   1      36.247  30.376  29.676  1.00  0.00     0.251 C 
ATOM     28  H   UNL A   1      34.385  30.707  29.029  1.00  0.00     0.163 HD
ATOM     29  O   UNL A   1      36.057  30.948  30.746  1.00  0.00    -0.269 OA
BRANCH  27  30
ATOM     30  C   UNL A   1      37.590  29.865  29.335  1.00  0.00     0.039 A 
ATOM     31  C   UNL A   1      37.996  29.860  27.998  1.00  0.00     0.014 A 
ATOM     32  C   UNL A   1      38.448  29.390  30.328  1.00  0.00     0.014 A 
ATOM     33  C   UNL A   1      39.287  29.438  27.673  1.00  0.00     0.010 A 
ATOM     34  C   UNL A   1      39.768  29.092  30.019  1.00  0.00     0.010 A 
ATOM     35  C   UNL A   1      40.197  29.091  28.685  1.00  0.00    -0.014 A 
BRANCH  35  36
ATOM     36  C   UNL A   1      41.593  28.698  28.373  1.00  0.00     0.031 A 
ATOM     37  C   UNL A   1      42.679  29.741  28.359  1.00  0.00     0.074 A 
ATOM     38  C   UNL A   1      41.866  27.420  28.042  1.00  0.00     0.049 A 
ATOM     39  N   UNL A   1      43.943  29.612  28.047  1.00  0.00    -0.248 NA
ATOM     40  C   UNL A   1      42.289  31.118  28.708  1.00  0.00     0.031 C 
ATOM     41  C   UNL A   1      40.884  26.336  27.965  1.00  0.00     0.029 A 
ATOM     42  N   UNL A   1      43.050  26.816  27.702  1.00  0.00    -0.354 N 
ATOM     43  C   UNL A   1      44.488  30.887  28.147  1.00  0.00     0.074 A 
ATOM     44  C   UNL A   1      43.408  31.787  28.480  1.00  0.00     0.031 C 
ATOM     45  C   UNL A   1      41.510  25.196  27.637  1.00  0.00     0.029 A 
ATOM     46  C   UNL A   1      42.927  25.474  27.432  1.00  0.00     0.049 A 
ATOM     47  H   UNL A   1      43.907  27.298  27.656  1.00  0.00     0.167 HD
ATOM     48  C   UNL A   1      45.780  31.267  28.006  1.00  0.00     0.037 A 
ATOM     49  C   UNL A   1      43.853  24.570  27.053  1.00  0.00     0.037 A 
ATOM     50  C   UNL A   1      46.851  30.356  27.703  1.00  0.00     0.049 A 
ATOM     51  C   UNL A   1      45.281  25.018  26.896  1.00  0.00     0.074 A 
ATOM     52  C   UNL A   1      48.204  30.623  27.597  1.00  0.00     0.029 A 
ATOM     53  N   UNL A   1      46.690  29.000  27.450  1.00  0.00    -0.354 N 
ATOM     54  N   UNL A   1      45.793  26.215  27.066  1.00  0.00    -0.248 NA
ATOM     55  C   UNL A   1      46.258  23.995  26.503  1.00  0.00     0.031 C 
ATOM     56  C   UNL A   1      48.853  29.442  27.225  1.00  0.00     0.029 A 
ATOM     57  C   UNL A   1      47.915  28.424  27.161  1.00  0.00     0.049 A 
ATOM     58  H   UNL A   1      45.831  28.519  27.474  1.00  0.00     0.167 HD
ATOM     59  C   UNL A   1      47.155  26.082  26.827  1.00  0.00     0.074 A 
ATOM     60  C   UNL A   1      47.389  24.687  26.518  1.00  0.00     0.031 C 
ATOM     61  C   UNL A   1      48.127  27.029  26.860  1.00  0.00     0.037 A 
BRANCH  48  62
ATOM     62  C   UNL A   1      46.105  32.727  28.183  1.00  0.00     0.058 A 
ATOM     63  C   UNL A   1      46.036  33.636  27.114  1.00  0.00     0.135 A 
ATOM     64  C   UNL A   1      46.459  33.231  29.445  1.00  0.00     0.135 A 
ATOM     65  F   UNL A   1      45.722  33.209  25.880  1.00  0.00    -0.206 F 
ATOM     66  C   UNL A   1      46.333  34.985  27.283  1.00  0.00     0.059 A 
ATOM     67  C   UNL A   1      46.727  34.582  29.645  1.00  0.00     0.059 A 
ATOM     68  F   UNL A   1      46.545  32.409  30.502  1.00  0.00    -0.206 F 
ATOM     69  C   UNL A   1      46.675  35.450  28.554  1.00  0.00     0.060 A 
BRANCH  69  70
ATOM     70  S   UNL A   1      47.042  37.205  28.758  1.00  0.00     0.124 S 
ATOM     71  O   UNL A   1      45.758  37.719  29.225  1.00  0.00    -0.237 OA
ATOM     72  O   UNL A   1      48.113  37.183  29.750  1.00  0.00    -0.237 OA
ATOM     73  O   UNL A   1      47.439  37.629  27.420  1.00  0.00    -0.744 OA
ENDBRANCH  69  70
ENDBRANCH  48  62
BRANCH  49  74
ATOM     74  C   UNL A   1      43.459  23.155  26.816  1.00  0.00     0.058 A 
ATOM     75  C   UNL A   1      43.417  22.623  25.519  1.00  0.00     0.135 A 
ATOM     76  C   UNL A   1      43.133  22.300  27.882  1.00  0.00     0.135 A 
ATOM     77  F   UNL A   1      43.716  23.399  24.466  1.00  0.00    -0.206 F 
ATOM     78  C   UNL A   1      43.046  21.302  25.282  1.00  0.00     0.059 A 
ATOM     79  C   UNL A   1      42.789  20.968  27.673  1.00  0.00     0.059 A 
ATOM     80  F   UNL A   1      43.175  22.752  29.144  1.00  0.00    -0.206 F 
ATOM     81  C   UNL A   1      42.737  20.481  26.368  1.00  0.00     0.060 A 
BRANCH  81  82
ATOM     82  S   UNL A   1      42.300  18.758  26.053  1.00  0.00     0.124 S 
ATOM     83  O   UNL A   1      40.897  18.875  25.672  1.00  0.00    -0.237 OA
ATOM     84  O   UNL A   1      43.226  18.399  24.983  1.00  0.00    -0.237 OA
ATOM     85  O   UNL A   1      42.553  18.107  27.336  1.00  0.00    -0.744 OA
ENDBRANCH  81  82
ENDBRANCH  49  74
BRANCH  61  86
ATOM     86  C   UNL A   1      49.537  26.583  26.585  1.00  0.00     0.058 A 
ATOM     87  C   UNL A   1      50.368  26.086  27.600  1.00  0.00     0.135 A 
ATOM     88  C   UNL A   1      50.044  26.605  25.274  1.00  0.00     0.135 A 
ATOM     89  F   UNL A   1      49.934  26.049  28.871  1.00  0.00    -0.206 F 
ATOM     90  C   UNL A   1      51.661  25.651  27.332  1.00  0.00     0.059 A 
ATOM     91  C   UNL A   1      51.322  26.143  24.978  1.00  0.00     0.059 A 
ATOM     92  F   UNL A   1      49.287  27.061  24.263  1.00  0.00    -0.206 F 
ATOM     93  C   UNL A   1      52.127  25.679  26.016  1.00  0.00     0.060 A 
BRANCH  93  94
ATOM     94  S   UNL A   1      53.796  25.079  25.679  1.00  0.00     0.124 S 
ATOM     95  O   UNL A   1      54.486  25.418  26.919  1.00  0.00    -0.237 OA
ATOM     96  O   UNL A   1      53.573  23.656  25.445  1.00  0.00    -0.237 OA
ATOM     97  O   UNL A   1      54.203  25.846  24.505  1.00  0.00    -0.744 OA
ENDBRANCH  93  94
ENDBRANCH  61  86
ENDBRANCH  35  36
ENDBRANCH  27  30
ENDBRANCH  25  26
ENDBRANCH  24  25
ENDBRANCH   1  24
TORSDOF 17
ENDMDL
