MODEL 1
REMARK VINA RESULT:     -13.6      0.000      0.000
REMARK SMILES CCOc1c(Br)cc(CNc2cccc(C(=O)NCCCNC(=O)c3ccc(-c4c5nc(c(-c6c(F)cc(S(=O)(=O)[O-])cc6F)c6ccc([nH]6)c(-c6c(F)cc(S(=O)(=O)[O-])cc6F)c6nc(c(-c7c(F)cc(S(=O)(=O)[O-])cc7F)c7ccc4[nH]7)C=C6)C=C5)cc3)c2C)cc1OC
REMARK SMILES IDX 19 1 18 2 16 3 17 4 15 6 11 7 12 8 91 9 13 10 92 11 14 12
REMARK SMILES IDX 10 13 9 15 8 16 4 17 5 18 94 19 6 20 7 21 93 22 3 23 2 24
REMARK SMILES IDX 1 25 95 26 96 27 20 28 21 29 22 30 23 31 24 33 25 34 26 35
REMARK SMILES IDX 90 36 27 37 89 38 28 39 29 40 30 41 83 42 31 43 88 44 82 45
REMARK SMILES IDX 84 46 32 47 87 48 81 49 80 50 33 52 67 53 46 54 66 55 47 56
REMARK SMILES IDX 50 57 65 58 85 59 48 60 49 61 64 63 86 64 51 65 34 66 35 67
REMARK SMILES IDX 44 68 36 69 37 70 43 71 45 72 38 73 39 74 40 75 41 76 42 77
REMARK SMILES IDX 68 78 69 79 78 80 70 81 71 82 77 83 79 84 72 85 73 86 74 87
REMARK SMILES IDX 75 88 76 89 52 90 53 91 62 92 54 93 55 94 61 95 63 96 56 97
REMARK SMILES IDX 57 98 58 99 59 100 60 101
REMARK H PARENT 18 5 10 14 22 32 84 51 50 62
REMARK Flexibility Score: inf
ROOT
ATOM      1  C   UNL A   1      32.570  30.464  25.886  1.00  0.00     0.118 C 
ENDROOT
BRANCH   1   2
ATOM      2  N   UNL A   1      33.095  29.647  24.795  1.00  0.00    -0.352 N 
ATOM      3  C   UNL A   1      32.701  28.515  24.123  1.00  0.00     0.251 C 
ATOM      4  O   UNL A   1      33.338  28.306  23.089  1.00  0.00    -0.269 OA
ATOM      5  H   UNL A   1      33.950  29.996  24.453  1.00  0.00     0.163 HD
BRANCH   3   6
ATOM      6  C   UNL A   1      31.584  27.573  24.534  1.00  0.00     0.044 A 
ATOM      7  C   UNL A   1      30.709  25.725  25.941  1.00  0.00     0.038 A 
ATOM      8  C   UNL A   1      29.560  25.694  25.144  1.00  0.00     0.026 A 
ATOM      9  C   UNL A   1      31.706  26.714  25.677  1.00  0.00    -0.015 A 
ATOM     10  C   UNL A   1      29.395  26.576  24.092  1.00  0.00     0.003 A 
ATOM     11  C   UNL A   1      32.904  26.773  26.604  1.00  0.00     0.047 C 
ATOM     12  C   UNL A   1      30.404  27.483  23.785  1.00  0.00     0.014 A 
BRANCH   7  13
ATOM     13  N   UNL A   1      30.886  24.754  26.924  1.00  0.00    -0.381 N 
ATOM     14  H   UNL A   1      31.125  25.037  27.835  1.00  0.00     0.160 HD
BRANCH  13  15
ATOM     15  C   UNL A   1      30.726  23.338  26.647  1.00  0.00     0.149 C 
BRANCH  15  16
ATOM     16  C   UNL A   1      31.973  22.822  25.965  1.00  0.00    -0.024 A 
ATOM     17  C   UNL A   1      34.319  21.821  24.747  1.00  0.00     0.175 A 
ATOM     18  C   UNL A   1      34.372  22.925  25.617  1.00  0.00     0.064 A 
ATOM     19  C   UNL A   1      33.070  21.265  24.426  1.00  0.00     0.162 A 
ATOM     20  Br  UNL A   1      35.988  23.864  25.969  1.00  0.00    -0.047 Br
ATOM     21  C   UNL A   1      33.215  23.402  26.240  1.00  0.00     0.025 A 
ATOM     22  C   UNL A   1      31.916  21.759  25.056  1.00  0.00     0.056 A 
BRANCH  17  23
ATOM     23  O   UNL A   1      35.490  21.365  24.194  1.00  0.00    -0.489 OA
BRANCH  23  24
ATOM     24  C   UNL A   1      36.118  20.358  25.003  1.00  0.00     0.226 C 
ATOM     25  C   UNL A   1      37.631  20.478  24.956  1.00  0.00     0.049 C 
ENDBRANCH  23  24
ENDBRANCH  17  23
BRANCH  19  26
ATOM     26  O   UNL A   1      32.790  20.242  23.558  1.00  0.00    -0.493 OA
ATOM     27  C   UNL A   1      32.467  18.969  24.094  1.00  0.00     0.278 C 
ENDBRANCH  19  26
ENDBRANCH  15  16
ENDBRANCH  13  15
ENDBRANCH   7  13
ENDBRANCH   3   6
ENDBRANCH   1   2
BRANCH   1  28
ATOM     28  C   UNL A   1      33.044  29.994  27.262  1.00  0.00     0.042 C 
BRANCH  28  29
ATOM     29  C   UNL A   1      34.561  29.964  27.379  1.00  0.00     0.118 C 
BRANCH  29  30
ATOM     30  N   UNL A   1      35.112  31.031  28.209  1.00  0.00    -0.352 N 
ATOM     31  C   UNL A   1      36.239  30.971  29.015  1.00  0.00     0.251 C 
ATOM     32  H   UNL A   1      34.629  31.888  28.195  1.00  0.00     0.163 HD
ATOM     33  O   UNL A   1      36.545  31.843  29.801  1.00  0.00    -0.269 OA
BRANCH  31  34
ATOM     34  C   UNL A   1      37.123  29.810  28.793  1.00  0.00     0.039 A 
ATOM     35  C   UNL A   1      37.339  28.958  29.883  1.00  0.00     0.014 A 
ATOM     36  C   UNL A   1      37.952  29.794  27.674  1.00  0.00     0.014 A 
ATOM     37  C   UNL A   1      38.503  28.198  29.925  1.00  0.00     0.010 A 
ATOM     38  C   UNL A   1      39.147  29.106  27.759  1.00  0.00     0.010 A 
ATOM     39  C   UNL A   1      39.441  28.347  28.901  1.00  0.00    -0.014 A 
BRANCH  39  40
ATOM     40  C   UNL A   1      40.793  27.808  28.983  1.00  0.00     0.031 A 
ATOM     41  C   UNL A   1      41.067  26.436  28.506  1.00  0.00     0.074 A 
ATOM     42  C   UNL A   1      41.801  28.582  29.442  1.00  0.00     0.049 A 
ATOM     43  N   UNL A   1      42.051  25.707  28.909  1.00  0.00    -0.248 NA
ATOM     44  C   UNL A   1      40.206  25.756  27.546  1.00  0.00     0.031 C 
ATOM     45  C   UNL A   1      43.232  28.307  29.363  1.00  0.00     0.029 A 
ATOM     46  N   UNL A   1      41.707  29.707  30.270  1.00  0.00    -0.354 N 
ATOM     47  C   UNL A   1      42.114  24.594  28.099  1.00  0.00     0.074 A 
ATOM     48  C   UNL A   1      40.912  24.649  27.298  1.00  0.00     0.031 C 
ATOM     49  C   UNL A   1      43.865  29.032  30.298  1.00  0.00     0.029 A 
ATOM     50  C   UNL A   1      42.847  29.691  31.099  1.00  0.00     0.049 A 
ATOM     51  H   UNL A   1      40.986  30.376  30.275  1.00  0.00     0.167 HD
ATOM     52  C   UNL A   1      43.238  23.820  28.105  1.00  0.00     0.037 A 
ATOM     53  C   UNL A   1      42.734  29.583  32.454  1.00  0.00     0.037 A 
ATOM     54  C   UNL A   1      44.200  24.309  29.091  1.00  0.00     0.049 A 
ATOM     55  C   UNL A   1      43.383  28.338  33.020  1.00  0.00     0.074 A 
ATOM     56  C   UNL A   1      45.299  25.146  28.983  1.00  0.00     0.029 A 
ATOM     57  N   UNL A   1      43.910  24.213  30.448  1.00  0.00    -0.354 N 
ATOM     58  N   UNL A   1      43.708  27.294  32.306  1.00  0.00    -0.248 NA
ATOM     59  C   UNL A   1      43.716  28.167  34.431  1.00  0.00     0.031 C 
ATOM     60  C   UNL A   1      45.629  25.609  30.280  1.00  0.00     0.029 A 
ATOM     61  C   UNL A   1      44.747  25.035  31.179  1.00  0.00     0.049 A 
ATOM     62  H   UNL A   1      43.207  23.641  30.834  1.00  0.00     0.167 HD
ATOM     63  C   UNL A   1      44.250  26.327  33.116  1.00  0.00     0.074 A 
ATOM     64  C   UNL A   1      44.256  26.935  34.434  1.00  0.00     0.031 C 
ATOM     65  C   UNL A   1      44.645  25.111  32.631  1.00  0.00     0.037 A 
BRANCH  52  66
ATOM     66  C   UNL A   1      43.575  22.829  27.009  1.00  0.00     0.058 A 
ATOM     67  C   UNL A   1      42.859  21.617  26.882  1.00  0.00     0.135 A 
ATOM     68  C   UNL A   1      44.631  22.982  26.089  1.00  0.00     0.135 A 
ATOM     69  F   UNL A   1      41.763  21.368  27.611  1.00  0.00    -0.206 F 
ATOM     70  C   UNL A   1      43.242  20.593  26.012  1.00  0.00     0.059 A 
ATOM     71  C   UNL A   1      45.070  21.951  25.251  1.00  0.00     0.059 A 
ATOM     72  F   UNL A   1      45.254  24.160  25.940  1.00  0.00    -0.206 F 
ATOM     73  C   UNL A   1      44.375  20.751  25.228  1.00  0.00     0.060 A 
BRANCH  73  74
ATOM     74  S   UNL A   1      44.913  19.378  24.190  1.00  0.00     0.124 S 
ATOM     75  O   UNL A   1      44.213  18.245  24.789  1.00  0.00    -0.237 OA
ATOM     76  O   UNL A   1      44.443  19.791  22.873  1.00  0.00    -0.237 OA
ATOM     77  O   UNL A   1      46.363  19.367  24.365  1.00  0.00    -0.744 OA
ENDBRANCH  73  74
ENDBRANCH  52  66
BRANCH  53  78
ATOM     78  C   UNL A   1      41.535  30.278  33.000  1.00  0.00     0.058 A 
ATOM     79  C   UNL A   1      40.391  29.500  33.274  1.00  0.00     0.135 A 
ATOM     80  C   UNL A   1      41.620  31.532  33.618  1.00  0.00     0.135 A 
ATOM     81  F   UNL A   1      40.250  28.293  32.701  1.00  0.00    -0.206 F 
ATOM     82  C   UNL A   1      39.449  29.881  34.224  1.00  0.00     0.059 A 
ATOM     83  C   UNL A   1      40.681  31.939  34.571  1.00  0.00     0.059 A 
ATOM     84  F   UNL A   1      42.683  32.321  33.400  1.00  0.00    -0.206 F 
ATOM     85  C   UNL A   1      39.633  31.080  34.908  1.00  0.00     0.060 A 
BRANCH  85  86
ATOM     86  S   UNL A   1      38.566  31.421  36.330  1.00  0.00     0.124 S 
ATOM     87  O   UNL A   1      39.458  32.172  37.205  1.00  0.00    -0.237 OA
ATOM     88  O   UNL A   1      37.485  32.199  35.725  1.00  0.00    -0.237 OA
ATOM     89  O   UNL A   1      38.191  30.091  36.795  1.00  0.00    -0.744 OA
ENDBRANCH  85  86
ENDBRANCH  53  78
BRANCH  65  90
ATOM     90  C   UNL A   1      45.065  23.903  33.445  1.00  0.00     0.058 A 
ATOM     91  C   UNL A   1      46.386  23.634  33.841  1.00  0.00     0.135 A 
ATOM     92  C   UNL A   1      44.083  23.033  33.988  1.00  0.00     0.135 A 
ATOM     93  F   UNL A   1      47.398  24.438  33.491  1.00  0.00    -0.206 F 
ATOM     94  C   UNL A   1      46.718  22.552  34.662  1.00  0.00     0.059 A 
ATOM     95  C   UNL A   1      44.386  21.985  34.855  1.00  0.00     0.059 A 
ATOM     96  F   UNL A   1      42.781  23.181  33.706  1.00  0.00    -0.206 F 
ATOM     97  C   UNL A   1      45.712  21.734  35.168  1.00  0.00     0.060 A 
BRANCH  97  98
ATOM     98  S   UNL A   1      46.121  20.387  36.293  1.00  0.00     0.124 S 
ATOM     99  O   UNL A   1      45.653  20.920  37.568  1.00  0.00    -0.237 OA
ATOM    100  O   UNL A   1      45.350  19.269  35.758  1.00  0.00    -0.237 OA
ATOM    101  O   UNL A   1      47.568  20.264  36.150  1.00  0.00    -0.744 OA
ENDBRANCH  97  98
ENDBRANCH  65  90
ENDBRANCH  39  40
ENDBRANCH  31  34
ENDBRANCH  29  30
ENDBRANCH  28  29
ENDBRANCH   1  28
TORSDOF 19
ENDMDL
MODEL 2
REMARK VINA RESULT:     -13.2      1.178      1.897
REMARK SMILES CCOc1c(Br)cc(CNc2cccc(C(=O)NCCCNC(=O)c3ccc(-c4c5nc(c(-c6c(F)cc(S(=O)(=O)[O-])cc6F)c6ccc([nH]6)c(-c6c(F)cc(S(=O)(=O)[O-])cc6F)c6nc(c(-c7c(F)cc(S(=O)(=O)[O-])cc7F)c7ccc4[nH]7)C=C6)C=C5)cc3)c2C)cc1OC
REMARK SMILES IDX 19 1 18 2 16 3 17 4 15 6 11 7 12 8 91 9 13 10 92 11 14 12
REMARK SMILES IDX 10 13 9 15 8 16 4 17 5 18 94 19 6 20 7 21 93 22 3 23 2 24
REMARK SMILES IDX 1 25 95 26 96 27 20 28 21 29 22 30 23 31 24 33 25 34 26 35
REMARK SMILES IDX 90 36 27 37 89 38 28 39 29 40 30 41 83 42 31 43 88 44 82 45
REMARK SMILES IDX 84 46 32 47 87 48 81 49 80 50 33 52 67 53 46 54 66 55 47 56
REMARK SMILES IDX 50 57 65 58 85 59 48 60 49 61 64 63 86 64 51 65 34 66 35 67
REMARK SMILES IDX 44 68 36 69 37 70 43 71 45 72 38 73 39 74 40 75 41 76 42 77
REMARK SMILES IDX 68 78 69 79 78 80 70 81 71 82 77 83 79 84 72 85 73 86 74 87
REMARK SMILES IDX 75 88 76 89 52 90 53 91 62 92 54 93 55 94 61 95 63 96 56 97
REMARK SMILES IDX 57 98 58 99 59 100 60 101
REMARK H PARENT 18 5 10 14 22 32 84 51 50 62
REMARK Flexibility Score: inf
ROOT
ATOM      1  C   UNL A   1      33.403  29.120  25.292  1.00  0.00     0.118 C 
ENDROOT
BRANCH   1   2
ATOM      2  N   UNL A   1      32.452  29.447  24.233  1.00  0.00    -0.352 N 
ATOM      3  C   UNL A   1      31.714  28.747  23.309  1.00  0.00     0.251 C 
ATOM      4  O   UNL A   1      30.841  29.421  22.759  1.00  0.00    -0.269 OA
ATOM      5  H   UNL A   1      32.300  30.418  24.162  1.00  0.00     0.163 HD
BRANCH   3   6
ATOM      6  C   UNL A   1      31.879  27.280  22.958  1.00  0.00     0.044 A 
ATOM      7  C   UNL A   1      31.235  24.898  23.220  1.00  0.00     0.038 A 
ATOM      8  C   UNL A   1      32.338  24.538  22.440  1.00  0.00     0.026 A 
ATOM      9  C   UNL A   1      30.961  26.284  23.431  1.00  0.00    -0.015 A 
ATOM     10  C   UNL A   1      33.181  25.496  21.907  1.00  0.00     0.003 A 
ATOM     11  C   UNL A   1      29.715  26.646  24.216  1.00  0.00     0.047 C 
ATOM     12  C   UNL A   1      32.961  26.842  22.183  1.00  0.00     0.014 A 
BRANCH   7  13
ATOM     13  N   UNL A   1      30.471  23.902  23.825  1.00  0.00    -0.381 N 
ATOM     14  H   UNL A   1      29.810  23.414  23.284  1.00  0.00     0.160 HD
BRANCH  13  15
ATOM     15  C   UNL A   1      30.620  23.561  25.229  1.00  0.00     0.149 C 
BRANCH  15  16
ATOM     16  C   UNL A   1      31.901  22.783  25.418  1.00  0.00    -0.024 A 
ATOM     17  C   UNL A   1      34.312  21.335  25.705  1.00  0.00     0.175 A 
ATOM     18  C   UNL A   1      33.142  20.705  25.246  1.00  0.00     0.064 A 
ATOM     19  C   UNL A   1      34.253  22.683  26.095  1.00  0.00     0.162 A 
ATOM     20  Br  UNL A   1      33.073  18.842  24.871  1.00  0.00    -0.047 Br
ATOM     21  C   UNL A   1      31.957  21.427  25.080  1.00  0.00     0.025 A 
ATOM     22  C   UNL A   1      33.054  23.395  25.926  1.00  0.00     0.056 A 
BRANCH  17  23
ATOM     23  O   UNL A   1      35.460  20.590  25.811  1.00  0.00    -0.489 OA
BRANCH  23  24
ATOM     24  C   UNL A   1      36.318  20.746  24.670  1.00  0.00     0.226 C 
ATOM     25  C   UNL A   1      37.584  19.920  24.815  1.00  0.00     0.049 C 
ENDBRANCH  23  24
ENDBRANCH  17  23
BRANCH  19  26
ATOM     26  O   UNL A   1      35.247  23.461  26.627  1.00  0.00    -0.493 OA
ATOM     27  C   UNL A   1      36.240  23.981  25.756  1.00  0.00     0.278 C 
ENDBRANCH  19  26
ENDBRANCH  15  16
ENDBRANCH  13  15
ENDBRANCH   7  13
ENDBRANCH   3   6
ENDBRANCH   1   2
BRANCH   1  28
ATOM     28  C   UNL A   1      33.261  30.021  26.519  1.00  0.00     0.042 C 
BRANCH  28  29
ATOM     29  C   UNL A   1      34.279  29.695  27.604  1.00  0.00     0.118 C 
BRANCH  29  30
ATOM     30  N   UNL A   1      34.887  30.873  28.216  1.00  0.00    -0.352 N 
ATOM     31  C   UNL A   1      36.105  30.941  28.875  1.00  0.00     0.251 C 
ATOM     32  H   UNL A   1      34.375  31.711  28.156  1.00  0.00     0.163 HD
ATOM     33  O   UNL A   1      36.472  31.914  29.499  1.00  0.00    -0.269 OA
BRANCH  31  34
ATOM     34  C   UNL A   1      36.998  29.780  28.692  1.00  0.00     0.039 A 
ATOM     35  C   UNL A   1      37.217  28.965  29.809  1.00  0.00     0.014 A 
ATOM     36  C   UNL A   1      37.829  29.733  27.575  1.00  0.00     0.014 A 
ATOM     37  C   UNL A   1      38.386  28.215  29.878  1.00  0.00     0.010 A 
ATOM     38  C   UNL A   1      39.028  29.057  27.685  1.00  0.00     0.010 A 
ATOM     39  C   UNL A   1      39.325  28.337  28.851  1.00  0.00    -0.014 A 
BRANCH  39  40
ATOM     40  C   UNL A   1      40.681  27.810  28.952  1.00  0.00     0.031 A 
ATOM     41  C   UNL A   1      40.968  26.431  28.506  1.00  0.00     0.074 A 
ATOM     42  C   UNL A   1      41.680  28.601  29.402  1.00  0.00     0.049 A 
ATOM     43  N   UNL A   1      41.955  25.718  28.930  1.00  0.00    -0.248 NA
ATOM     44  C   UNL A   1      40.118  25.724  27.555  1.00  0.00     0.031 C 
ATOM     45  C   UNL A   1      43.114  28.336  29.337  1.00  0.00     0.029 A 
ATOM     46  N   UNL A   1      41.572  29.742  30.206  1.00  0.00    -0.354 N 
ATOM     47  C   UNL A   1      42.031  24.589  28.144  1.00  0.00     0.074 A 
ATOM     48  C   UNL A   1      40.834  24.618  27.335  1.00  0.00     0.031 C 
ATOM     49  C   UNL A   1      43.735  29.085  30.261  1.00  0.00     0.029 A 
ATOM     50  C   UNL A   1      42.707  29.752  31.041  1.00  0.00     0.049 A 
ATOM     51  H   UNL A   1      40.846  30.406  30.192  1.00  0.00     0.167 HD
ATOM     52  C   UNL A   1      43.161  23.824  28.173  1.00  0.00     0.037 A 
ATOM     53  C   UNL A   1      42.586  29.672  32.398  1.00  0.00     0.037 A 
ATOM     54  C   UNL A   1      44.114  24.340  29.155  1.00  0.00     0.049 A 
ATOM     55  C   UNL A   1      43.241  28.443  32.993  1.00  0.00     0.074 A 
ATOM     56  C   UNL A   1      45.206  25.183  29.036  1.00  0.00     0.029 A 
ATOM     57  N   UNL A   1      43.815  24.270  30.511  1.00  0.00    -0.354 N 
ATOM     58  N   UNL A   1      43.579  27.387  32.304  1.00  0.00    -0.248 NA
ATOM     59  C   UNL A   1      43.566  28.304  34.410  1.00  0.00     0.031 C 
ATOM     60  C   UNL A   1      45.524  25.676  30.325  1.00  0.00     0.029 A 
ATOM     61  C   UNL A   1      44.642  25.113  31.230  1.00  0.00     0.049 A 
ATOM     62  H   UNL A   1      43.115  23.701  30.904  1.00  0.00     0.167 HD
ATOM     63  C   UNL A   1      44.123  26.441  33.137  1.00  0.00     0.074 A 
ATOM     64  C   UNL A   1      44.116  27.076  34.442  1.00  0.00     0.031 C 
ATOM     65  C   UNL A   1      44.529  25.219  32.680  1.00  0.00     0.037 A 
BRANCH  52  66
ATOM     66  C   UNL A   1      43.513  22.813  27.099  1.00  0.00     0.058 A 
ATOM     67  C   UNL A   1      42.819  21.585  27.004  1.00  0.00     0.135 A 
ATOM     68  C   UNL A   1      44.563  22.963  26.172  1.00  0.00     0.135 A 
ATOM     69  F   UNL A   1      41.730  21.334  27.743  1.00  0.00    -0.206 F 
ATOM     70  C   UNL A   1      43.218  20.548  26.158  1.00  0.00     0.059 A 
ATOM     71  C   UNL A   1      45.018  21.921  25.357  1.00  0.00     0.059 A 
ATOM     72  F   UNL A   1      45.163  24.148  25.992  1.00  0.00    -0.206 F 
ATOM     73  C   UNL A   1      44.345  20.708  25.366  1.00  0.00     0.060 A 
BRANCH  73  74
ATOM     74  S   UNL A   1      44.904  19.320  24.360  1.00  0.00     0.124 S 
ATOM     75  O   UNL A   1      44.134  18.208  24.909  1.00  0.00    -0.237 OA
ATOM     76  O   UNL A   1      44.531  19.749  23.017  1.00  0.00    -0.237 OA
ATOM     77  O   UNL A   1      46.340  19.265  24.624  1.00  0.00    -0.744 OA
ENDBRANCH  73  74
ENDBRANCH  52  66
BRANCH  53  78
ATOM     78  C   UNL A   1      41.378  30.368  32.922  1.00  0.00     0.058 A 
ATOM     79  C   UNL A   1      40.247  29.584  33.227  1.00  0.00     0.135 A 
ATOM     80  C   UNL A   1      41.447  31.645  33.494  1.00  0.00     0.135 A 
ATOM     81  F   UNL A   1      40.122  28.356  32.698  1.00  0.00    -0.206 F 
ATOM     82  C   UNL A   1      39.301  29.986  34.166  1.00  0.00     0.059 A 
ATOM     83  C   UNL A   1      40.504  32.073  34.434  1.00  0.00     0.059 A 
ATOM     84  F   UNL A   1      42.497  32.441  33.244  1.00  0.00    -0.206 F 
ATOM     85  C   UNL A   1      39.470  31.211  34.806  1.00  0.00     0.060 A 
BRANCH  85  86
ATOM     86  S   UNL A   1      38.401  31.588  36.217  1.00  0.00     0.124 S 
ATOM     87  O   UNL A   1      38.142  30.261  36.764  1.00  0.00    -0.237 OA
ATOM     88  O   UNL A   1      39.260  32.443  37.036  1.00  0.00    -0.237 OA
ATOM     89  O   UNL A   1      37.260  32.256  35.604  1.00  0.00    -0.744 OA
ENDBRANCH  85  86
ENDBRANCH  53  78
BRANCH  65  90
ATOM     90  C   UNL A   1      44.953  24.032  33.521  1.00  0.00     0.058 A 
ATOM     91  C   UNL A   1      44.100  22.980  33.897  1.00  0.00     0.135 A 
ATOM     92  C   UNL A   1      46.320  23.849  33.860  1.00  0.00     0.135 A 
ATOM     93  F   UNL A   1      42.807  22.970  33.547  1.00  0.00    -0.206 F 
ATOM     94  C   UNL A   1      44.552  21.862  34.605  1.00  0.00     0.059 A 
ATOM     95  C   UNL A   1      46.801  22.717  34.512  1.00  0.00     0.059 A 
ATOM     96  F   UNL A   1      47.248  24.767  33.551  1.00  0.00    -0.206 F 
ATOM     97  C   UNL A   1      45.906  21.737  34.905  1.00  0.00     0.060 A 
BRANCH  97  98
ATOM     98  S   UNL A   1      46.512  20.261  35.745  1.00  0.00     0.124 S 
ATOM     99  O   UNL A   1      47.946  20.348  35.488  1.00  0.00    -0.237 OA
ATOM    100  O   UNL A   1      46.107  20.484  37.130  1.00  0.00    -0.237 OA
ATOM    101  O   UNL A   1      45.810  19.179  35.063  1.00  0.00    -0.744 OA
ENDBRANCH  97  98
ENDBRANCH  65  90
ENDBRANCH  39  40
ENDBRANCH  31  34
ENDBRANCH  29  30
ENDBRANCH  28  29
ENDBRANCH   1  28
TORSDOF 19
ENDMDL
MODEL 3
REMARK VINA RESULT:     -12.9      4.967     11.598
REMARK SMILES CCOc1c(Br)cc(CNc2cccc(C(=O)NCCCNC(=O)c3ccc(-c4c5nc(c(-c6c(F)cc(S(=O)(=O)[O-])cc6F)c6ccc([nH]6)c(-c6c(F)cc(S(=O)(=O)[O-])cc6F)c6nc(c(-c7c(F)cc(S(=O)(=O)[O-])cc7F)c7ccc4[nH]7)C=C6)C=C5)cc3)c2C)cc1OC
REMARK SMILES IDX 19 1 18 2 16 3 17 4 15 6 11 7 12 8 91 9 13 10 92 11 14 12
REMARK SMILES IDX 10 13 9 15 8 16 4 17 5 18 94 19 6 20 7 21 93 22 3 23 2 24
REMARK SMILES IDX 1 25 95 26 96 27 20 28 21 29 22 30 23 31 24 33 25 34 26 35
REMARK SMILES IDX 90 36 27 37 89 38 28 39 29 40 30 41 83 42 31 43 88 44 82 45
REMARK SMILES IDX 84 46 32 47 87 48 81 49 80 50 33 52 67 53 46 54 66 55 47 56
REMARK SMILES IDX 50 57 65 58 85 59 48 60 49 61 64 63 86 64 51 65 34 66 35 67
REMARK SMILES IDX 44 68 36 69 37 70 43 71 45 72 38 73 39 74 40 75 41 76 42 77
REMARK SMILES IDX 68 78 69 79 78 80 70 81 71 82 77 83 79 84 72 85 73 86 74 87
REMARK SMILES IDX 75 88 76 89 52 90 53 91 62 92 54 93 55 94 61 95 63 96 56 97
REMARK SMILES IDX 57 98 58 99 59 100 60 101
REMARK H PARENT 18 5 10 14 22 32 84 51 50 62
REMARK Flexibility Score: inf
ROOT
ATOM      1  C   UNL A   1      37.261  21.174  25.787  1.00  0.00     0.118 C 
ENDROOT
BRANCH   1   2
ATOM      2  N   UNL A   1      36.200  20.313  25.271  1.00  0.00    -0.352 N 
ATOM      3  C   UNL A   1      34.838  20.402  25.111  1.00  0.00     0.251 C 
ATOM      4  O   UNL A   1      34.365  19.516  24.397  1.00  0.00    -0.269 OA
ATOM      5  H   UNL A   1      36.549  19.446  24.959  1.00  0.00     0.163 HD
BRANCH   3   6
ATOM      6  C   UNL A   1      33.935  21.469  25.702  1.00  0.00     0.044 A 
ATOM      7  C   UNL A   1      32.610  23.556  25.488  1.00  0.00     0.038 A 
ATOM      8  C   UNL A   1      32.421  23.550  26.874  1.00  0.00     0.026 A 
ATOM      9  C   UNL A   1      33.319  22.474  24.883  1.00  0.00    -0.015 A 
ATOM     10  C   UNL A   1      32.938  22.539  27.663  1.00  0.00     0.003 A 
ATOM     11  C   UNL A   1      33.443  22.467  23.373  1.00  0.00     0.047 C 
ATOM     12  C   UNL A   1      33.700  21.530  27.082  1.00  0.00     0.014 A 
BRANCH   7  13
ATOM     13  N   UNL A   1      32.164  24.645  24.742  1.00  0.00    -0.381 N 
ATOM     14  H   UNL A   1      32.779  25.397  24.583  1.00  0.00     0.160 HD
BRANCH  13  15
ATOM     15  C   UNL A   1      30.822  24.705  24.192  1.00  0.00     0.149 C 
BRANCH  15  16
ATOM     16  C   UNL A   1      30.511  26.130  23.795  1.00  0.00    -0.024 A 
ATOM     17  C   UNL A   1      29.926  28.811  23.118  1.00  0.00     0.175 A 
ATOM     18  C   UNL A   1      28.899  27.912  23.457  1.00  0.00     0.064 A 
ATOM     19  C   UNL A   1      31.247  28.342  23.044  1.00  0.00     0.162 A 
ATOM     20  Br  UNL A   1      27.062  28.401  23.404  1.00  0.00    -0.047 Br
ATOM     21  C   UNL A   1      29.192  26.593  23.817  1.00  0.00     0.025 A 
ATOM     22  C   UNL A   1      31.525  27.012  23.404  1.00  0.00     0.056 A 
BRANCH  17  23
ATOM     23  O   UNL A   1      29.589  30.107  22.814  1.00  0.00    -0.489 OA
BRANCH  23  24
ATOM     24  C   UNL A   1      29.318  30.285  21.415  1.00  0.00     0.226 C 
ATOM     25  C   UNL A   1      28.345  31.427  21.183  1.00  0.00     0.049 C 
ENDBRANCH  23  24
ENDBRANCH  17  23
BRANCH  19  26
ATOM     26  O   UNL A   1      32.375  29.025  22.672  1.00  0.00    -0.493 OA
ATOM     27  C   UNL A   1      33.576  28.294  22.473  1.00  0.00     0.278 C 
ENDBRANCH  19  26
ENDBRANCH  15  16
ENDBRANCH  13  15
ENDBRANCH   7  13
ENDBRANCH   3   6
ENDBRANCH   1   2
BRANCH   1  28
ATOM     28  C   UNL A   1      37.420  22.467  24.987  1.00  0.00     0.042 C 
BRANCH  28  29
ATOM     29  C   UNL A   1      38.067  23.581  25.799  1.00  0.00     0.118 C 
BRANCH  29  30
ATOM     30  N   UNL A   1      39.363  23.223  26.366  1.00  0.00    -0.352 N 
ATOM     31  C   UNL A   1      40.268  24.068  26.991  1.00  0.00     0.251 C 
ATOM     32  H   UNL A   1      39.624  22.277  26.296  1.00  0.00     0.163 HD
ATOM     33  O   UNL A   1      41.394  23.733  27.293  1.00  0.00    -0.269 OA
BRANCH  31  34
ATOM     34  C   UNL A   1      39.747  25.396  27.370  1.00  0.00     0.039 A 
ATOM     35  C   UNL A   1      40.225  26.495  26.647  1.00  0.00     0.014 A 
ATOM     36  C   UNL A   1      39.104  25.548  28.596  1.00  0.00     0.014 A 
ATOM     37  C   UNL A   1      40.211  27.752  27.243  1.00  0.00     0.010 A 
ATOM     38  C   UNL A   1      39.171  26.779  29.218  1.00  0.00     0.010 A 
ATOM     39  C   UNL A   1      39.764  27.867  28.561  1.00  0.00    -0.014 A 
BRANCH  39  40
ATOM     40  C   UNL A   1      39.955  29.073  29.359  1.00  0.00     0.031 A 
ATOM     41  C   UNL A   1      38.917  30.125  29.359  1.00  0.00     0.074 A 
ATOM     42  C   UNL A   1      41.052  29.199  30.137  1.00  0.00     0.049 A 
ATOM     43  N   UNL A   1      39.137  31.365  29.635  1.00  0.00    -0.248 NA
ATOM     44  C   UNL A   1      37.530  29.855  29.001  1.00  0.00     0.031 C 
ATOM     45  C   UNL A   1      41.289  30.198  31.174  1.00  0.00     0.029 A 
ATOM     46  N   UNL A   1      42.282  28.546  29.994  1.00  0.00    -0.354 N 
ATOM     47  C   UNL A   1      37.918  31.997  29.747  1.00  0.00     0.074 A 
ATOM     48  C   UNL A   1      36.951  31.023  29.294  1.00  0.00     0.031 C 
ATOM     49  C   UNL A   1      42.610  30.296  31.387  1.00  0.00     0.029 A 
ATOM     50  C   UNL A   1      43.273  29.464  30.398  1.00  0.00     0.049 A 
ATOM     51  H   UNL A   1      42.428  27.627  29.673  1.00  0.00     0.167 HD
ATOM     52  C   UNL A   1      37.849  33.228  30.332  1.00  0.00     0.037 A 
ATOM     53  C   UNL A   1      44.227  29.902  29.527  1.00  0.00     0.037 A 
ATOM     54  C   UNL A   1      39.184  33.710  30.688  1.00  0.00     0.049 A 
ATOM     55  C   UNL A   1      44.183  31.395  29.281  1.00  0.00     0.074 A 
ATOM     56  C   UNL A   1      39.905  33.663  31.870  1.00  0.00     0.029 A 
ATOM     57  N   UNL A   1      40.090  34.038  29.685  1.00  0.00    -0.354 N 
ATOM     58  N   UNL A   1      43.159  32.154  29.564  1.00  0.00    -0.248 NA
ATOM     59  C   UNL A   1      45.286  32.153  28.697  1.00  0.00     0.031 C 
ATOM     60  C   UNL A   1      41.267  33.901  31.564  1.00  0.00     0.029 A 
ATOM     61  C   UNL A   1      41.371  34.116  30.200  1.00  0.00     0.049 A 
ATOM     62  H   UNL A   1      39.853  34.194  28.742  1.00  0.00     0.167 HD
ATOM     63  C   UNL A   1      43.425  33.450  29.197  1.00  0.00     0.074 A 
ATOM     64  C   UNL A   1      44.781  33.400  28.683  1.00  0.00     0.031 C 
ATOM     65  C   UNL A   1      42.504  34.450  29.347  1.00  0.00     0.037 A 
BRANCH  52  66
ATOM     66  C   UNL A   1      36.561  33.835  30.854  1.00  0.00     0.058 A 
ATOM     67  C   UNL A   1      35.519  34.191  29.970  1.00  0.00     0.135 A 
ATOM     68  C   UNL A   1      36.315  34.147  32.205  1.00  0.00     0.135 A 
ATOM     69  F   UNL A   1      35.556  33.865  28.671  1.00  0.00    -0.206 F 
ATOM     70  C   UNL A   1      34.393  34.915  30.371  1.00  0.00     0.059 A 
ATOM     71  C   UNL A   1      35.226  34.921  32.623  1.00  0.00     0.059 A 
ATOM     72  F   UNL A   1      37.103  33.675  33.181  1.00  0.00    -0.206 F 
ATOM     73  C   UNL A   1      34.274  35.314  31.694  1.00  0.00     0.060 A 
BRANCH  73  74
ATOM     74  S   UNL A   1      32.868  36.336  32.171  1.00  0.00     0.124 S 
ATOM     75  O   UNL A   1      32.694  37.190  30.999  1.00  0.00    -0.237 OA
ATOM     76  O   UNL A   1      31.826  35.339  32.389  1.00  0.00    -0.237 OA
ATOM     77  O   UNL A   1      33.338  37.025  33.370  1.00  0.00    -0.744 OA
ENDBRANCH  73  74
ENDBRANCH  52  66
BRANCH  53  78
ATOM     78  C   UNL A   1      44.656  28.860  28.553  1.00  0.00     0.058 A 
ATOM     79  C   UNL A   1      44.073  28.880  27.269  1.00  0.00     0.135 A 
ATOM     80  C   UNL A   1      45.855  28.153  28.702  1.00  0.00     0.135 A 
ATOM     81  F   UNL A   1      42.917  29.534  27.069  1.00  0.00    -0.206 F 
ATOM     82  C   UNL A   1      44.719  28.350  26.157  1.00  0.00     0.059 A 
ATOM     83  C   UNL A   1      46.518  27.605  27.600  1.00  0.00     0.059 A 
ATOM     84  F   UNL A   1      46.461  28.094  29.897  1.00  0.00    -0.206 F 
ATOM     85  C   UNL A   1      45.970  27.762  26.325  1.00  0.00     0.060 A 
BRANCH  85  86
ATOM     86  S   UNL A   1      46.917  27.337  24.841  1.00  0.00     0.124 S 
ATOM     87  O   UNL A   1      46.283  26.093  24.423  1.00  0.00    -0.237 OA
ATOM     88  O   UNL A   1      46.665  28.488  23.974  1.00  0.00    -0.237 OA
ATOM     89  O   UNL A   1      48.282  27.218  25.338  1.00  0.00    -0.744 OA
ENDBRANCH  85  86
ENDBRANCH  53  78
BRANCH  65  90
ATOM     90  C   UNL A   1      42.602  35.861  28.803  1.00  0.00     0.058 A 
ATOM     91  C   UNL A   1      42.072  36.274  27.569  1.00  0.00     0.135 A 
ATOM     92  C   UNL A   1      43.129  36.902  29.612  1.00  0.00     0.135 A 
ATOM     93  F   UNL A   1      41.448  35.414  26.754  1.00  0.00    -0.206 F 
ATOM     94  C   UNL A   1      42.112  37.605  27.142  1.00  0.00     0.059 A 
ATOM     95  C   UNL A   1      43.126  38.242  29.231  1.00  0.00     0.059 A 
ATOM     96  F   UNL A   1      43.655  36.654  30.820  1.00  0.00    -0.206 F 
ATOM     97  C   UNL A   1      42.638  38.584  27.981  1.00  0.00     0.060 A 
BRANCH  97  98
ATOM     98  S   UNL A   1      42.620  40.313  27.474  1.00  0.00     0.124 S 
ATOM     99  O   UNL A   1      43.493  40.283  26.304  1.00  0.00    -0.237 OA
ATOM    100  O   UNL A   1      41.207  40.558  27.198  1.00  0.00    -0.237 OA
ATOM    101  O   UNL A   1      43.150  41.008  28.642  1.00  0.00    -0.744 OA
ENDBRANCH  97  98
ENDBRANCH  65  90
ENDBRANCH  39  40
ENDBRANCH  31  34
ENDBRANCH  29  30
ENDBRANCH  28  29
ENDBRANCH   1  28
TORSDOF 19
ENDMDL
