MODEL 1
REMARK VINA RESULT:     -11.7      0.000      0.000
REMARK SMILES Cc1cc(OC(F)(F)F)cc2c1O[C@H](C(F)(F)F)C(C(=O)NCCCNC(=O)c1ccc(-c3c4nc(c(-c5c(F)cc(S(=O)(=O)[O-])cc5F)c5ccc([nH]5)c(-c5c(F)cc(S(=O)(=O)[O-])cc5F)c5nc(c(-c6c(F)cc(S(=O)(=O)[O-])cc6F)c6ccc3[nH]6)C=C5)C=C4)cc1)=C2
REMARK SMILES IDX 24 1 23 2 22 3 20 4 21 5 19 7 1 8 2 9 3 10 12 11 4 12 11 13
REMARK SMILES IDX 13 14 10 15 95 16 14 17 5 18 6 19 7 20 8 21 9 22 15 23 16 24
REMARK SMILES IDX 17 25 18 26 25 27 26 28 27 29 28 31 29 32 30 33 94 34 31 35
REMARK SMILES IDX 93 36 32 37 33 38 34 39 87 40 35 41 92 42 86 43 88 44 36 45
REMARK SMILES IDX 91 46 85 47 84 48 37 50 71 51 50 52 70 53 51 54 54 55 69 56
REMARK SMILES IDX 89 57 52 58 53 59 68 61 90 62 55 63 38 64 39 65 48 66 40 67
REMARK SMILES IDX 41 68 47 69 49 70 42 71 43 72 44 73 45 74 46 75 72 76 73 77
REMARK SMILES IDX 82 78 74 79 75 80 81 81 83 82 76 83 77 84 78 85 79 86 80 87
REMARK SMILES IDX 56 88 57 89 66 90 58 91 59 92 65 93 67 94 60 95 61 96 62 97
REMARK SMILES IDX 63 98 64 99
REMARK H PARENT 22 6 26 30 88 49 54 60
REMARK Flexibility Score: inf
ROOT
ATOM      1  C   UNL A   1      34.020  28.225  25.366  1.00  0.00     0.042 C 
ENDROOT
BRANCH   1   2
ATOM      2  C   UNL A   1      32.779  27.736  24.635  1.00  0.00     0.118 C 
BRANCH   2   3
ATOM      3  N   UNL A   1      31.731  27.326  25.559  1.00  0.00    -0.352 N 
ATOM      4  C   UNL A   1      31.256  26.170  26.076  1.00  0.00     0.251 C 
ATOM      5  O   UNL A   1      30.307  26.296  26.858  1.00  0.00    -0.270 OA
ATOM      6  H   UNL A   1      31.233  28.103  25.903  1.00  0.00     0.163 HD
BRANCH   4   7
ATOM      7  C   UNL A   1      31.792  24.810  25.780  1.00  0.00     0.067 C 
ATOM      8  C   UNL A   1      32.512  19.842  24.690  1.00  0.00     0.048 C 
ATOM      9  C   UNL A   1      33.371  20.958  25.216  1.00  0.00    -0.005 A 
ATOM     10  C   UNL A   1      34.746  20.750  25.410  1.00  0.00     0.054 A 
ATOM     11  C   UNL A   1      32.838  22.230  25.455  1.00  0.00     0.131 A 
ATOM     12  C   UNL A   1      35.566  21.782  25.872  1.00  0.00     0.130 A 
ATOM     13  C   UNL A   1      33.644  23.268  25.923  1.00  0.00     0.021 A 
ATOM     14  O   UNL A   1      31.496  22.397  25.254  1.00  0.00    -0.475 OA
ATOM     15  C   UNL A   1      35.006  23.038  26.133  1.00  0.00     0.058 A 
ATOM     16  C   UNL A   1      33.044  24.566  26.212  1.00  0.00     0.025 C 
ATOM     17  C   UNL A   1      31.046  23.756  25.015  1.00  0.00     0.314 C 
BRANCH  12  18
ATOM     18  O   UNL A   1      36.910  21.704  26.110  1.00  0.00    -0.406 OA
BRANCH  18  19
ATOM     19  C   UNL A   1      37.779  22.364  25.206  1.00  0.00     0.573 C 
ATOM     20  F   UNL A   1      37.373  22.204  23.929  1.00  0.00    -0.132 F 
ATOM     21  F   UNL A   1      37.871  23.681  25.491  1.00  0.00    -0.132 F 
ATOM     22  F   UNL A   1      39.014  21.827  25.323  1.00  0.00    -0.132 F 
ENDBRANCH  18  19
ENDBRANCH  12  18
BRANCH  17  23
ATOM     23  C   UNL A   1      31.030  24.026  23.499  1.00  0.00     0.429 C 
ATOM     24  F   UNL A   1      30.936  22.864  22.807  1.00  0.00    -0.167 F 
ATOM     25  F   UNL A   1      29.975  24.786  23.116  1.00  0.00    -0.167 F 
ATOM     26  F   UNL A   1      32.143  24.663  23.069  1.00  0.00    -0.167 F 
ENDBRANCH  17  23
ENDBRANCH   4   7
ENDBRANCH   2   3
ENDBRANCH   1   2
BRANCH   1  27
ATOM     27  C   UNL A   1      33.798  28.308  26.872  1.00  0.00     0.118 C 
BRANCH  27  28
ATOM     28  N   UNL A   1      33.658  29.693  27.316  1.00  0.00    -0.352 N 
ATOM     29  C   UNL A   1      34.510  30.450  28.083  1.00  0.00     0.251 C 
ATOM     30  H   UNL A   1      32.836  30.148  27.026  1.00  0.00     0.163 HD
ATOM     31  O   UNL A   1      34.108  31.484  28.611  1.00  0.00    -0.269 OA
BRANCH  29  32
ATOM     32  C   UNL A   1      35.904  30.009  28.270  1.00  0.00     0.039 A 
ATOM     33  C   UNL A   1      36.813  30.125  27.217  1.00  0.00     0.014 A 
ATOM     34  C   UNL A   1      36.302  29.470  29.497  1.00  0.00     0.014 A 
ATOM     35  C   UNL A   1      38.146  29.760  27.419  1.00  0.00     0.010 A 
ATOM     36  C   UNL A   1      37.642  29.180  29.720  1.00  0.00     0.010 A 
ATOM     37  C   UNL A   1      38.573  29.312  28.680  1.00  0.00    -0.014 A 
BRANCH  37  38
ATOM     38  C   UNL A   1      39.985  28.941  28.925  1.00  0.00     0.031 A 
ATOM     39  C   UNL A   1      40.925  29.953  29.520  1.00  0.00     0.074 A 
ATOM     40  C   UNL A   1      40.427  27.722  28.562  1.00  0.00     0.049 A 
ATOM     41  N   UNL A   1      42.199  29.836  29.786  1.00  0.00    -0.248 NA
ATOM     42  C   UNL A   1      40.364  31.278  29.835  1.00  0.00     0.031 C 
ATOM     43  C   UNL A   1      39.615  26.682  27.928  1.00  0.00     0.029 A 
ATOM     44  N   UNL A   1      41.670  27.151  28.672  1.00  0.00    -0.354 N 
ATOM     45  C   UNL A   1      42.589  31.065  30.301  1.00  0.00     0.074 A 
ATOM     46  C   UNL A   1      41.438  31.937  30.246  1.00  0.00     0.031 C 
ATOM     47  C   UNL A   1      40.373  25.589  27.734  1.00  0.00     0.029 A 
ATOM     48  C   UNL A   1      41.727  25.859  28.206  1.00  0.00     0.049 A 
ATOM     49  H   UNL A   1      42.447  27.622  29.051  1.00  0.00     0.167 HD
ATOM     50  C   UNL A   1      43.790  31.423  30.810  1.00  0.00     0.037 A 
ATOM     51  C   UNL A   1      42.756  24.990  28.173  1.00  0.00     0.037 A 
ATOM     52  C   UNL A   1      44.921  30.540  30.885  1.00  0.00     0.049 A 
ATOM     53  C   UNL A   1      44.088  25.414  28.732  1.00  0.00     0.074 A 
ATOM     54  C   UNL A   1      46.169  30.787  31.429  1.00  0.00     0.029 A 
ATOM     55  N   UNL A   1      44.939  29.239  30.407  1.00  0.00    -0.354 N 
ATOM     56  N   UNL A   1      44.421  26.560  29.276  1.00  0.00    -0.248 NA
ATOM     57  C   UNL A   1      45.180  24.432  28.676  1.00  0.00     0.031 C 
ATOM     58  C   UNL A   1      46.953  29.643  31.248  1.00  0.00     0.029 A 
ATOM     59  C   UNL A   1      46.181  28.673  30.627  1.00  0.00     0.049 A 
ATOM     60  H   UNL A   1      44.179  28.785  29.975  1.00  0.00     0.167 HD
ATOM     61  C   UNL A   1      45.753  26.428  29.652  1.00  0.00     0.074 A 
ATOM     62  C   UNL A   1      46.164  25.091  29.275  1.00  0.00     0.031 C 
ATOM     63  C   UNL A   1      46.562  27.333  30.256  1.00  0.00     0.037 A 
BRANCH  50  64
ATOM     64  C   UNL A   1      43.928  32.818  31.352  1.00  0.00     0.058 A 
ATOM     65  C   UNL A   1      43.690  33.098  32.707  1.00  0.00     0.135 A 
ATOM     66  C   UNL A   1      44.332  33.877  30.523  1.00  0.00     0.135 A 
ATOM     67  F   UNL A   1      43.284  32.124  33.537  1.00  0.00    -0.206 F 
ATOM     68  C   UNL A   1      43.823  34.384  33.217  1.00  0.00     0.059 A 
ATOM     69  C   UNL A   1      44.496  35.167  31.019  1.00  0.00     0.059 A 
ATOM     70  F   UNL A   1      44.568  33.663  29.220  1.00  0.00    -0.206 F 
ATOM     71  C   UNL A   1      44.227  35.412  32.365  1.00  0.00     0.060 A 
BRANCH  71  72
ATOM     72  S   UNL A   1      44.402  37.074  33.049  1.00  0.00     0.124 S 
ATOM     73  O   UNL A   1      44.408  37.887  31.837  1.00  0.00    -0.237 OA
ATOM     74  O   UNL A   1      43.214  37.193  33.887  1.00  0.00    -0.237 OA
ATOM     75  O   UNL A   1      45.670  37.013  33.769  1.00  0.00    -0.744 OA
ENDBRANCH  71  72
ENDBRANCH  50  64
BRANCH  51  76
ATOM     76  C   UNL A   1      42.548  23.618  27.641  1.00  0.00     0.058 A 
ATOM     77  C   UNL A   1      42.639  23.363  26.265  1.00  0.00     0.135 A 
ATOM     78  C   UNL A   1      42.292  22.532  28.491  1.00  0.00     0.135 A 
ATOM     79  F   UNL A   1      42.880  24.371  25.412  1.00  0.00    -0.206 F 
ATOM     80  C   UNL A   1      42.477  22.083  25.748  1.00  0.00     0.059 A 
ATOM     81  C   UNL A   1      42.145  21.237  28.000  1.00  0.00     0.059 A 
ATOM     82  F   UNL A   1      42.212  22.720  29.818  1.00  0.00    -0.206 F 
ATOM     83  C   UNL A   1      42.235  21.024  26.625  1.00  0.00     0.060 A 
BRANCH  83  84
ATOM     84  S   UNL A   1      42.088  19.357  25.946  1.00  0.00     0.124 S 
ATOM     85  O   UNL A   1      40.652  19.263  25.706  1.00  0.00    -0.237 OA
ATOM     86  O   UNL A   1      42.930  19.436  24.757  1.00  0.00    -0.237 OA
ATOM     87  O   UNL A   1      42.607  18.512  27.016  1.00  0.00    -0.744 OA
ENDBRANCH  83  84
ENDBRANCH  51  76
BRANCH  63  88
ATOM     88  C   UNL A   1      47.969  26.918  30.570  1.00  0.00     0.058 A 
ATOM     89  C   UNL A   1      49.020  27.176  29.679  1.00  0.00     0.135 A 
ATOM     90  C   UNL A   1      48.286  26.383  31.830  1.00  0.00     0.135 A 
ATOM     91  F   UNL A   1      48.764  27.680  28.461  1.00  0.00    -0.206 F 
ATOM     92  C   UNL A   1      50.342  26.930  30.030  1.00  0.00     0.059 A 
ATOM     93  C   UNL A   1      49.602  26.148  32.209  1.00  0.00     0.059 A 
ATOM     94  F   UNL A   1      47.313  26.127  32.719  1.00  0.00    -0.206 F 
ATOM     95  C   UNL A   1      50.625  26.429  31.303  1.00  0.00     0.060 A 
BRANCH  95  96
ATOM     96  S   UNL A   1      52.352  26.210  31.779  1.00  0.00     0.124 S 
ATOM     97  O   UNL A   1      53.044  26.531  30.534  1.00  0.00    -0.237 OA
ATOM     98  O   UNL A   1      52.503  27.184  32.856  1.00  0.00    -0.237 OA
ATOM     99  O   UNL A   1      52.418  24.812  32.192  1.00  0.00    -0.744 OA
ENDBRANCH  95  96
ENDBRANCH  63  88
ENDBRANCH  37  38
ENDBRANCH  29  32
ENDBRANCH  27  28
ENDBRANCH   1  27
TORSDOF 16
ENDMDL
MODEL 2
REMARK VINA RESULT:     -11.7      2.878      3.806
REMARK SMILES Cc1cc(OC(F)(F)F)cc2c1O[C@H](C(F)(F)F)C(C(=O)NCCCNC(=O)c1ccc(-c3c4nc(c(-c5c(F)cc(S(=O)(=O)[O-])cc5F)c5ccc([nH]5)c(-c5c(F)cc(S(=O)(=O)[O-])cc5F)c5nc(c(-c6c(F)cc(S(=O)(=O)[O-])cc6F)c6ccc3[nH]6)C=C5)C=C4)cc1)=C2
REMARK SMILES IDX 24 1 23 2 22 3 20 4 21 5 19 7 1 8 2 9 3 10 12 11 4 12 11 13
REMARK SMILES IDX 13 14 10 15 95 16 14 17 5 18 6 19 7 20 8 21 9 22 15 23 16 24
REMARK SMILES IDX 17 25 18 26 25 27 26 28 27 29 28 31 29 32 30 33 94 34 31 35
REMARK SMILES IDX 93 36 32 37 33 38 34 39 87 40 35 41 92 42 86 43 88 44 36 45
REMARK SMILES IDX 91 46 85 47 84 48 37 50 71 51 50 52 70 53 51 54 54 55 69 56
REMARK SMILES IDX 89 57 52 58 53 59 68 61 90 62 55 63 38 64 39 65 48 66 40 67
REMARK SMILES IDX 41 68 47 69 49 70 42 71 43 72 44 73 45 74 46 75 72 76 73 77
REMARK SMILES IDX 82 78 74 79 75 80 81 81 83 82 76 83 77 84 78 85 79 86 80 87
REMARK SMILES IDX 56 88 57 89 66 90 58 91 59 92 65 93 67 94 60 95 61 96 62 97
REMARK SMILES IDX 63 98 64 99
REMARK H PARENT 22 6 26 30 88 49 54 60
REMARK Flexibility Score: inf
ROOT
ATOM      1  C   UNL A   1      34.480  31.182  27.606  1.00  0.00     0.042 C 
ENDROOT
BRANCH   1   2
ATOM      2  C   UNL A   1      34.492  29.679  27.364  1.00  0.00     0.118 C 
BRANCH   2   3
ATOM      3  N   UNL A   1      33.220  29.064  27.715  1.00  0.00    -0.352 N 
ATOM      4  C   UNL A   1      32.425  28.081  27.237  1.00  0.00     0.251 C 
ATOM      5  O   UNL A   1      31.385  27.889  27.878  1.00  0.00    -0.270 OA
ATOM      6  H   UNL A   1      32.834  29.476  28.522  1.00  0.00     0.163 HD
BRANCH   4   7
ATOM      7  C   UNL A   1      32.717  27.242  26.039  1.00  0.00     0.067 C 
ATOM      8  C   UNL A   1      32.801  24.895  21.471  1.00  0.00     0.048 C 
ATOM      9  C   UNL A   1      33.447  24.658  22.807  1.00  0.00    -0.005 A 
ATOM     10  C   UNL A   1      34.398  23.636  22.953  1.00  0.00     0.054 A 
ATOM     11  C   UNL A   1      33.167  25.485  23.902  1.00  0.00     0.131 A 
ATOM     12  C   UNL A   1      35.028  23.417  24.181  1.00  0.00     0.130 A 
ATOM     13  C   UNL A   1      33.785  25.274  25.135  1.00  0.00     0.021 A 
ATOM     14  O   UNL A   1      32.238  26.472  23.723  1.00  0.00    -0.475 OA
ATOM     15  C   UNL A   1      34.712  24.238  25.270  1.00  0.00     0.058 A 
ATOM     16  C   UNL A   1      33.430  26.122  26.267  1.00  0.00     0.025 C 
ATOM     17  C   UNL A   1      32.308  27.595  24.639  1.00  0.00     0.314 C 
BRANCH  12  18
ATOM     18  O   UNL A   1      35.959  22.454  24.452  1.00  0.00    -0.406 OA
BRANCH  18  19
ATOM     19  C   UNL A   1      35.517  21.275  25.103  1.00  0.00     0.573 C 
ATOM     20  F   UNL A   1      36.214  20.195  24.691  1.00  0.00    -0.132 F 
ATOM     21  F   UNL A   1      35.617  21.393  26.445  1.00  0.00    -0.132 F 
ATOM     22  F   UNL A   1      34.215  21.074  24.800  1.00  0.00    -0.132 F 
ENDBRANCH  18  19
ENDBRANCH  12  18
BRANCH  17  23
ATOM     23  C   UNL A   1      33.195  28.696  24.025  1.00  0.00     0.429 C 
ATOM     24  F   UNL A   1      32.986  28.787  22.688  1.00  0.00    -0.167 F 
ATOM     25  F   UNL A   1      32.934  29.922  24.539  1.00  0.00    -0.167 F 
ATOM     26  F   UNL A   1      34.515  28.470  24.212  1.00  0.00    -0.167 F 
ENDBRANCH  17  23
ENDBRANCH   4   7
ENDBRANCH   2   3
ENDBRANCH   1   2
BRANCH   1  27
ATOM     27  C   UNL A   1      35.695  31.640  28.405  1.00  0.00     0.118 C 
BRANCH  27  28
ATOM     28  N   UNL A   1      35.558  31.311  29.822  1.00  0.00    -0.352 N 
ATOM     29  C   UNL A   1      36.379  30.556  30.622  1.00  0.00     0.251 C 
ATOM     30  H   UNL A   1      34.763  31.684  30.266  1.00  0.00     0.163 HD
ATOM     31  O   UNL A   1      35.968  30.134  31.701  1.00  0.00    -0.269 OA
BRANCH  29  32
ATOM     32  C   UNL A   1      37.751  30.254  30.175  1.00  0.00     0.039 A 
ATOM     33  C   UNL A   1      38.783  30.177  31.113  1.00  0.00     0.014 A 
ATOM     34  C   UNL A   1      38.010  30.056  28.816  1.00  0.00     0.014 A 
ATOM     35  C   UNL A   1      40.068  29.833  30.691  1.00  0.00     0.010 A 
ATOM     36  C   UNL A   1      39.270  29.639  28.408  1.00  0.00     0.010 A 
ATOM     37  C   UNL A   1      40.312  29.535  29.340  1.00  0.00    -0.014 A 
BRANCH  37  38
ATOM     38  C   UNL A   1      41.662  29.145  28.872  1.00  0.00     0.031 A 
ATOM     39  C   UNL A   1      42.757  30.175  28.826  1.00  0.00     0.074 A 
ATOM     40  C   UNL A   1      41.882  27.888  28.442  1.00  0.00     0.049 A 
ATOM     41  N   UNL A   1      43.994  30.043  28.425  1.00  0.00    -0.248 NA
ATOM     42  C   UNL A   1      42.409  31.537  29.266  1.00  0.00     0.031 C 
ATOM     43  C   UNL A   1      40.877  26.824  28.393  1.00  0.00     0.029 A 
ATOM     44  N   UNL A   1      43.020  27.293  27.961  1.00  0.00    -0.354 N 
ATOM     45  C   UNL A   1      44.570  31.299  28.568  1.00  0.00     0.074 A 
ATOM     46  C   UNL A   1      43.533  32.196  29.024  1.00  0.00     0.031 C 
ATOM     47  C   UNL A   1      41.453  25.697  27.939  1.00  0.00     0.029 A 
ATOM     48  C   UNL A   1      42.856  25.966  27.642  1.00  0.00     0.049 A 
ATOM     49  H   UNL A   1      43.875  27.771  27.856  1.00  0.00     0.167 HD
ATOM     50  C   UNL A   1      45.858  31.663  28.372  1.00  0.00     0.037 A 
ATOM     51  C   UNL A   1      43.744  25.067  27.171  1.00  0.00     0.037 A 
ATOM     52  C   UNL A   1      46.888  30.757  27.943  1.00  0.00     0.049 A 
ATOM     53  C   UNL A   1      45.168  25.497  26.946  1.00  0.00     0.074 A 
ATOM     54  C   UNL A   1      48.236  31.011  27.763  1.00  0.00     0.029 A 
ATOM     55  N   UNL A   1      46.684  29.420  27.634  1.00  0.00    -0.354 N 
ATOM     56  N   UNL A   1      45.711  26.674  27.149  1.00  0.00    -0.248 NA
ATOM     57  C   UNL A   1      46.100  24.483  26.434  1.00  0.00     0.031 C 
ATOM     58  C   UNL A   1      48.841  29.834  27.312  1.00  0.00     0.029 A 
ATOM     59  C   UNL A   1      47.877  28.839  27.247  1.00  0.00     0.049 A 
ATOM     60  H   UNL A   1      45.817  28.955  27.683  1.00  0.00     0.167 HD
ATOM     61  C   UNL A   1      47.054  26.535  26.815  1.00  0.00     0.074 A 
ATOM     62  C   UNL A   1      47.241  25.160  26.398  1.00  0.00     0.031 C 
ATOM     63  C   UNL A   1      48.042  27.462  26.852  1.00  0.00     0.037 A 
BRANCH  50  64
ATOM     64  C   UNL A   1      46.227  33.092  28.649  1.00  0.00     0.058 A 
ATOM     65  C   UNL A   1      46.668  33.495  29.920  1.00  0.00     0.135 A 
ATOM     66  C   UNL A   1      46.172  34.061  27.635  1.00  0.00     0.135 A 
ATOM     67  F   UNL A   1      46.720  32.611  30.929  1.00  0.00    -0.206 F 
ATOM     68  C   UNL A   1      47.018  34.814  30.183  1.00  0.00     0.059 A 
ATOM     69  C   UNL A   1      46.543  35.382  27.870  1.00  0.00     0.059 A 
ATOM     70  F   UNL A   1      45.754  33.729  26.404  1.00  0.00    -0.206 F 
ATOM     71  C   UNL A   1      46.952  35.751  29.151  1.00  0.00     0.060 A 
BRANCH  71  72
ATOM     72  S   UNL A   1      47.420  37.457  29.511  1.00  0.00     0.124 S 
ATOM     73  O   UNL A   1      48.530  37.263  30.439  1.00  0.00    -0.237 OA
ATOM     74  O   UNL A   1      47.779  37.967  28.192  1.00  0.00    -0.237 OA
ATOM     75  O   UNL A   1      46.209  38.027  30.092  1.00  0.00    -0.744 OA
ENDBRANCH  71  72
ENDBRANCH  50  64
BRANCH  51  76
ATOM     76  C   UNL A   1      43.318  23.663  26.934  1.00  0.00     0.058 A 
ATOM     77  C   UNL A   1      43.062  23.203  25.635  1.00  0.00     0.135 A 
ATOM     78  C   UNL A   1      43.194  22.747  27.989  1.00  0.00     0.135 A 
ATOM     79  F   UNL A   1      43.164  24.044  24.594  1.00  0.00    -0.206 F 
ATOM     80  C   UNL A   1      42.692  21.885  25.387  1.00  0.00     0.059 A 
ATOM     81  C   UNL A   1      42.844  21.417  27.766  1.00  0.00     0.059 A 
ATOM     82  F   UNL A   1      43.445  23.133  29.250  1.00  0.00    -0.206 F 
ATOM     83  C   UNL A   1      42.590  20.998  26.460  1.00  0.00     0.060 A 
BRANCH  83  84
ATOM     84  S   UNL A   1      42.168  19.275  26.119  1.00  0.00     0.124 S 
ATOM     85  O   UNL A   1      42.540  18.628  27.372  1.00  0.00    -0.237 OA
ATOM     86  O   UNL A   1      40.738  19.359  25.843  1.00  0.00    -0.237 OA
ATOM     87  O   UNL A   1      43.002  18.948  24.966  1.00  0.00    -0.744 OA
ENDBRANCH  83  84
ENDBRANCH  51  76
BRANCH  63  88
ATOM     88  C   UNL A   1      49.422  27.034  26.451  1.00  0.00     0.058 A 
ATOM     89  C   UNL A   1      50.291  26.427  27.369  1.00  0.00     0.135 A 
ATOM     90  C   UNL A   1      49.825  27.107  25.107  1.00  0.00     0.135 A 
ATOM     91  F   UNL A   1      49.952  26.342  28.665  1.00  0.00    -0.206 F 
ATOM     92  C   UNL A   1      51.510  25.894  26.966  1.00  0.00     0.059 A 
ATOM     93  C   UNL A   1      51.031  26.563  24.680  1.00  0.00     0.059 A 
ATOM     94  F   UNL A   1      49.022  27.673  24.192  1.00  0.00    -0.206 F 
ATOM     95  C   UNL A   1      51.865  25.954  25.617  1.00  0.00     0.060 A 
BRANCH  95  96
ATOM     96  S   UNL A   1      53.404  25.169  25.094  1.00  0.00     0.124 S 
ATOM     97  O   UNL A   1      54.368  25.772  26.009  1.00  0.00    -0.237 OA
ATOM     98  O   UNL A   1      53.120  23.754  25.315  1.00  0.00    -0.237 OA
ATOM     99  O   UNL A   1      53.533  25.566  23.695  1.00  0.00    -0.744 OA
ENDBRANCH  95  96
ENDBRANCH  63  88
ENDBRANCH  37  38
ENDBRANCH  29  32
ENDBRANCH  27  28
ENDBRANCH   1  27
TORSDOF 16
ENDMDL
MODEL 3
REMARK VINA RESULT:     -11.7      4.843     10.346
REMARK SMILES Cc1cc(OC(F)(F)F)cc2c1O[C@H](C(F)(F)F)C(C(=O)NCCCNC(=O)c1ccc(-c3c4nc(c(-c5c(F)cc(S(=O)(=O)[O-])cc5F)c5ccc([nH]5)c(-c5c(F)cc(S(=O)(=O)[O-])cc5F)c5nc(c(-c6c(F)cc(S(=O)(=O)[O-])cc6F)c6ccc3[nH]6)C=C5)C=C4)cc1)=C2
REMARK SMILES IDX 24 1 23 2 22 3 20 4 21 5 19 7 1 8 2 9 3 10 12 11 4 12 11 13
REMARK SMILES IDX 13 14 10 15 95 16 14 17 5 18 6 19 7 20 8 21 9 22 15 23 16 24
REMARK SMILES IDX 17 25 18 26 25 27 26 28 27 29 28 31 29 32 30 33 94 34 31 35
REMARK SMILES IDX 93 36 32 37 33 38 34 39 87 40 35 41 92 42 86 43 88 44 36 45
REMARK SMILES IDX 91 46 85 47 84 48 37 50 71 51 50 52 70 53 51 54 54 55 69 56
REMARK SMILES IDX 89 57 52 58 53 59 68 61 90 62 55 63 38 64 39 65 48 66 40 67
REMARK SMILES IDX 41 68 47 69 49 70 42 71 43 72 44 73 45 74 46 75 72 76 73 77
REMARK SMILES IDX 82 78 74 79 75 80 81 81 83 82 76 83 77 84 78 85 79 86 80 87
REMARK SMILES IDX 56 88 57 89 66 90 58 91 59 92 65 93 67 94 60 95 61 96 62 97
REMARK SMILES IDX 63 98 64 99
REMARK H PARENT 22 6 26 30 88 49 54 60
REMARK Flexibility Score: inf
ROOT
ATOM      1  C   UNL A   1      37.597  23.638  25.449  1.00  0.00     0.042 C 
ENDROOT
BRANCH   1   2
ATOM      2  C   UNL A   1      37.133  22.196  25.597  1.00  0.00     0.118 C 
BRANCH   2   3
ATOM      3  N   UNL A   1      35.913  22.097  26.386  1.00  0.00    -0.352 N 
ATOM      4  C   UNL A   1      34.664  22.614  26.356  1.00  0.00     0.251 C 
ATOM      5  O   UNL A   1      33.920  22.242  27.270  1.00  0.00    -0.270 OA
ATOM      6  H   UNL A   1      36.029  21.487  27.150  1.00  0.00     0.163 HD
BRANCH   4   7
ATOM      7  C   UNL A   1      34.147  23.559  25.324  1.00  0.00     0.067 C 
ATOM      8  C   UNL A   1      32.602  25.938  21.041  1.00  0.00     0.048 C 
ATOM      9  C   UNL A   1      32.924  26.365  22.446  1.00  0.00    -0.005 A 
ATOM     10  C   UNL A   1      32.703  27.694  22.841  1.00  0.00     0.054 A 
ATOM     11  C   UNL A   1      33.382  25.443  23.394  1.00  0.00     0.131 A 
ATOM     12  C   UNL A   1      32.971  28.104  24.149  1.00  0.00     0.130 A 
ATOM     13  C   UNL A   1      33.660  25.841  24.703  1.00  0.00     0.021 A 
ATOM     14  O   UNL A   1      33.584  24.158  22.976  1.00  0.00    -0.475 OA
ATOM     15  C   UNL A   1      33.456  27.172  25.074  1.00  0.00     0.058 A 
ATOM     16  C   UNL A   1      34.185  24.865  25.651  1.00  0.00     0.025 C 
ATOM     17  C   UNL A   1      33.567  23.135  24.005  1.00  0.00     0.314 C 
BRANCH  12  18
ATOM     18  O   UNL A   1      32.808  29.365  24.652  1.00  0.00    -0.406 OA
BRANCH  18  19
ATOM     19  C   UNL A   1      31.630  29.632  25.394  1.00  0.00     0.573 C 
ATOM     20  F   UNL A   1      31.189  30.889  25.179  1.00  0.00    -0.132 F 
ATOM     21  F   UNL A   1      30.652  28.750  25.090  1.00  0.00    -0.132 F 
ATOM     22  F   UNL A   1      31.909  29.504  26.710  1.00  0.00    -0.132 F 
ENDBRANCH  18  19
ENDBRANCH  12  18
BRANCH  17  23
ATOM     23  C   UNL A   1      32.137  22.577  24.141  1.00  0.00     0.429 C 
ATOM     24  F   UNL A   1      31.507  23.131  25.206  1.00  0.00    -0.167 F 
ATOM     25  F   UNL A   1      31.368  22.846  23.058  1.00  0.00    -0.167 F 
ATOM     26  F   UNL A   1      32.113  21.235  24.310  1.00  0.00    -0.167 F 
ENDBRANCH  17  23
ENDBRANCH   4   7
ENDBRANCH   2   3
ENDBRANCH   1   2
BRANCH   1  27
ATOM     27  C   UNL A   1      38.536  24.051  26.576  1.00  0.00     0.118 C 
BRANCH  27  28
ATOM     28  N   UNL A   1      39.926  24.087  26.127  1.00  0.00    -0.352 N 
ATOM     29  C   UNL A   1      40.893  25.033  26.367  1.00  0.00     0.251 C 
ATOM     30  H   UNL A   1      40.210  23.326  25.573  1.00  0.00     0.163 HD
ATOM     31  O   UNL A   1      41.909  25.064  25.676  1.00  0.00    -0.269 OA
BRANCH  29  32
ATOM     32  C   UNL A   1      40.699  26.010  27.453  1.00  0.00     0.039 A 
ATOM     33  C   UNL A   1      39.768  25.747  28.461  1.00  0.00     0.014 A 
ATOM     34  C   UNL A   1      41.440  27.195  27.463  1.00  0.00     0.014 A 
ATOM     35  C   UNL A   1      39.631  26.649  29.519  1.00  0.00     0.010 A 
ATOM     36  C   UNL A   1      41.358  28.051  28.553  1.00  0.00     0.010 A 
ATOM     37  C   UNL A   1      40.446  27.791  29.584  1.00  0.00    -0.014 A 
BRANCH  37  38
ATOM     38  C   UNL A   1      40.335  28.749  30.708  1.00  0.00     0.031 A 
ATOM     39  C   UNL A   1      41.240  28.602  31.899  1.00  0.00     0.074 A 
ATOM     40  C   UNL A   1      39.390  29.708  30.676  1.00  0.00     0.049 A 
ATOM     41  N   UNL A   1      41.284  29.317  32.992  1.00  0.00    -0.248 NA
ATOM     42  C   UNL A   1      42.207  27.491  31.869  1.00  0.00     0.031 C 
ATOM     43  C   UNL A   1      38.424  29.907  29.594  1.00  0.00     0.029 A 
ATOM     44  N   UNL A   1      39.083  30.693  31.581  1.00  0.00    -0.354 N 
ATOM     45  C   UNL A   1      42.280  28.747  33.774  1.00  0.00     0.074 A 
ATOM     46  C   UNL A   1      42.768  27.587  33.065  1.00  0.00     0.031 C 
ATOM     47  C   UNL A   1      37.654  30.970  29.883  1.00  0.00     0.029 A 
ATOM     48  C   UNL A   1      38.053  31.509  31.179  1.00  0.00     0.049 A 
ATOM     49  H   UNL A   1      39.558  30.805  32.436  1.00  0.00     0.167 HD
ATOM     50  C   UNL A   1      42.770  29.175  34.960  1.00  0.00     0.037 A 
ATOM     51  C   UNL A   1      37.501  32.579  31.786  1.00  0.00     0.037 A 
ATOM     52  C   UNL A   1      42.296  30.346  35.645  1.00  0.00     0.049 A 
ATOM     53  C   UNL A   1      38.053  33.029  33.112  1.00  0.00     0.074 A 
ATOM     54  C   UNL A   1      42.758  30.897  36.826  1.00  0.00     0.029 A 
ATOM     55  N   UNL A   1      41.255  31.149  35.204  1.00  0.00    -0.354 N 
ATOM     56  N   UNL A   1      39.041  32.517  33.807  1.00  0.00    -0.248 NA
ATOM     57  C   UNL A   1      37.421  34.200  33.736  1.00  0.00     0.031 C 
ATOM     58  C   UNL A   1      41.972  32.016  37.118  1.00  0.00     0.029 A 
ATOM     59  C   UNL A   1      41.046  32.183  36.099  1.00  0.00     0.049 A 
ATOM     60  H   UNL A   1      40.740  31.005  34.378  1.00  0.00     0.167 HD
ATOM     61  C   UNL A   1      39.167  33.318  34.936  1.00  0.00     0.074 A 
ATOM     62  C   UNL A   1      38.156  34.350  34.831  1.00  0.00     0.031 C 
ATOM     63  C   UNL A   1      40.043  33.209  35.965  1.00  0.00     0.037 A 
BRANCH  50  64
ATOM     64  C   UNL A   1      43.895  28.390  35.572  1.00  0.00     0.058 A 
ATOM     65  C   UNL A   1      43.645  27.358  36.492  1.00  0.00     0.135 A 
ATOM     66  C   UNL A   1      45.229  28.645  35.218  1.00  0.00     0.135 A 
ATOM     67  F   UNL A   1      42.388  27.087  36.879  1.00  0.00    -0.206 F 
ATOM     68  C   UNL A   1      44.680  26.623  37.057  1.00  0.00     0.059 A 
ATOM     69  C   UNL A   1      46.279  27.903  35.752  1.00  0.00     0.059 A 
ATOM     70  F   UNL A   1      45.522  29.623  34.347  1.00  0.00    -0.206 F 
ATOM     71  C   UNL A   1      45.994  26.902  36.680  1.00  0.00     0.060 A 
BRANCH  71  72
ATOM     72  S   UNL A   1      47.323  25.929  37.419  1.00  0.00     0.124 S 
ATOM     73  O   UNL A   1      48.254  25.814  36.301  1.00  0.00    -0.237 OA
ATOM     74  O   UNL A   1      47.757  26.780  38.522  1.00  0.00    -0.237 OA
ATOM     75  O   UNL A   1      46.659  24.689  37.812  1.00  0.00    -0.744 OA
ENDBRANCH  71  72
ENDBRANCH  50  64
BRANCH  51  76
ATOM     76  C   UNL A   1      36.403  33.323  31.118  1.00  0.00     0.058 A 
ATOM     77  C   UNL A   1      35.094  33.269  31.619  1.00  0.00     0.135 A 
ATOM     78  C   UNL A   1      36.640  34.128  29.994  1.00  0.00     0.135 A 
ATOM     79  F   UNL A   1      34.818  32.510  32.690  1.00  0.00    -0.206 F 
ATOM     80  C   UNL A   1      34.057  33.981  31.027  1.00  0.00     0.059 A 
ATOM     81  C   UNL A   1      35.623  34.866  29.395  1.00  0.00     0.059 A 
ATOM     82  F   UNL A   1      37.879  34.227  29.486  1.00  0.00    -0.206 F 
ATOM     83  C   UNL A   1      34.332  34.782  29.916  1.00  0.00     0.060 A 
BRANCH  83  84
ATOM     84  S   UNL A   1      32.988  35.750  29.195  1.00  0.00     0.124 S 
ATOM     85  O   UNL A   1      32.409  34.794  28.257  1.00  0.00    -0.237 OA
ATOM     86  O   UNL A   1      32.178  36.066  30.366  1.00  0.00    -0.237 OA
ATOM     87  O   UNL A   1      33.678  36.886  28.594  1.00  0.00    -0.744 OA
ENDBRANCH  83  84
ENDBRANCH  51  76
BRANCH  63  88
ATOM     88  C   UNL A   1      39.972  34.233  37.059  1.00  0.00     0.058 A 
ATOM     89  C   UNL A   1      40.728  35.413  37.002  1.00  0.00     0.135 A 
ATOM     90  C   UNL A   1      39.039  34.095  38.100  1.00  0.00     0.135 A 
ATOM     91  F   UNL A   1      41.637  35.585  36.029  1.00  0.00    -0.206 F 
ATOM     92  C   UNL A   1      40.553  36.429  37.934  1.00  0.00     0.059 A 
ATOM     93  C   UNL A   1      38.834  35.107  39.031  1.00  0.00     0.059 A 
ATOM     94  F   UNL A   1      38.288  32.986  38.190  1.00  0.00    -0.206 F 
ATOM     95  C   UNL A   1      39.593  36.273  38.936  1.00  0.00     0.060 A 
BRANCH  95  96
ATOM     96  S   UNL A   1      39.308  37.642  40.077  1.00  0.00     0.124 S 
ATOM     97  O   UNL A   1      39.063  36.936  41.331  1.00  0.00    -0.237 OA
ATOM     98  O   UNL A   1      40.567  38.377  40.000  1.00  0.00    -0.237 OA
ATOM     99  O   UNL A   1      38.153  38.328  39.506  1.00  0.00    -0.744 OA
ENDBRANCH  95  96
ENDBRANCH  63  88
ENDBRANCH  37  38
ENDBRANCH  29  32
ENDBRANCH  27  28
ENDBRANCH   1  27
TORSDOF 16
ENDMDL
