MODEL 1
REMARK VINA RESULT:     -11.6      0.000      0.000
REMARK SMILES Cn1nc(N2CCC(CC(=O)NCCCNC(=O)c3ccc(-c4c5nc(c(-c6c(F)cc(S(=O)(=O)[O-])cc6F)c6ccc([nH]6)c(-c6c(F)cc(S(=O)(=O)[O-])cc6F)c6nc(c(-c7c(F)cc(S(=O)(=O)[O-])cc7F)c7ccc4[nH]7)C=C6)C=C5)cc3)CC2)c(=O)n(C)c1=O
REMARK SMILES IDX 14 1 13 2 12 3 10 4 11 5 9 7 8 8 5 9 6 10 86 11 7 12 85 13
REMARK SMILES IDX 4 14 1 15 2 16 3 17 91 18 89 19 92 20 87 21 90 22 88 23
REMARK SMILES IDX 15 24 16 25 17 26 18 28 19 29 20 30 84 31 21 32 83 33 22 34
REMARK SMILES IDX 23 35 24 36 77 37 25 38 82 39 76 40 78 41 26 42 81 43 75 44
REMARK SMILES IDX 74 45 27 47 61 48 40 49 60 50 41 51 44 52 59 53 79 54 42 55
REMARK SMILES IDX 43 56 58 58 80 59 45 60 28 61 29 62 38 63 30 64 31 65 37 66
REMARK SMILES IDX 39 67 32 68 33 69 34 70 35 71 36 72 62 73 63 74 72 75 64 76
REMARK SMILES IDX 65 77 71 78 73 79 66 80 67 81 68 82 69 83 70 84 46 85 47 86
REMARK SMILES IDX 56 87 48 88 49 89 55 90 57 91 50 92 51 93 52 94 53 95 54 96
REMARK H PARENT 12 6 16 27 78 46 44 57
REMARK Flexibility Score: inf
ROOT
ATOM      1  C   UNL A   1      33.858  28.021  25.689  1.00  0.00     0.042 C 
ENDROOT
BRANCH   1   2
ATOM      2  C   UNL A   1      32.858  27.112  24.969  1.00  0.00     0.117 C 
BRANCH   2   3
ATOM      3  N   UNL A   1      31.731  26.724  25.811  1.00  0.00    -0.356 N 
ATOM      4  C   UNL A   1      30.694  25.865  25.596  1.00  0.00     0.220 C 
ATOM      5  O   UNL A   1      29.874  25.707  26.503  1.00  0.00    -0.275 OA
ATOM      6  H   UNL A   1      31.717  27.161  26.693  1.00  0.00     0.163 HD
BRANCH   4   7
ATOM      7  C   UNL A   1      30.539  25.125  24.279  1.00  0.00     0.103 C 
BRANCH   7   8
ATOM      8  C   UNL A   1      31.021  23.659  24.333  1.00  0.00     0.002 C 
ATOM      9  N   UNL A   1      33.355  22.053  24.787  1.00  0.00    -0.351 N 
ATOM     10  C   UNL A   1      32.877  22.123  23.425  1.00  0.00     0.118 C 
ATOM     11  C   UNL A   1      32.327  22.014  25.807  1.00  0.00     0.118 C 
ATOM     12  C   UNL A   1      32.092  23.412  23.264  1.00  0.00     0.025 C 
ATOM     13  C   UNL A   1      31.541  23.327  25.750  1.00  0.00     0.025 C 
BRANCH   9  14
ATOM     14  C   UNL A   1      34.703  21.961  25.073  1.00  0.00     0.215 A 
ATOM     15  C   UNL A   1      37.402  24.079  26.127  1.00  0.00     0.180 C 
ATOM     16  N   UNL A   1      36.723  22.871  25.685  1.00  0.00    -0.216 N 
ATOM     17  N   UNL A   1      35.385  23.014  25.422  1.00  0.00    -0.145 NA
ATOM     18  C   UNL A   1      37.459  21.703  25.490  1.00  0.00     0.346 A 
ATOM     19  N   UNL A   1      36.752  20.605  25.045  1.00  0.00    -0.259 N 
ATOM     20  O   UNL A   1      38.668  21.652  25.730  1.00  0.00    -0.246 OA
ATOM     21  C   UNL A   1      35.380  20.600  24.937  1.00  0.00     0.299 A 
ATOM     22  C   UNL A   1      37.446  19.369  24.747  1.00  0.00     0.159 C 
ATOM     23  O   UNL A   1      34.682  19.608  24.741  1.00  0.00    -0.265 OA
ENDBRANCH   9  14
ENDBRANCH   7   8
ENDBRANCH   4   7
ENDBRANCH   2   3
ENDBRANCH   1   2
BRANCH   1  24
ATOM     24  C   UNL A   1      33.560  28.244  27.166  1.00  0.00     0.118 C 
BRANCH  24  25
ATOM     25  N   UNL A   1      33.516  29.658  27.490  1.00  0.00    -0.352 N 
ATOM     26  C   UNL A   1      34.452  30.445  28.119  1.00  0.00     0.251 C 
ATOM     27  H   UNL A   1      32.692  30.123  27.220  1.00  0.00     0.163 HD
ATOM     28  O   UNL A   1      34.101  31.539  28.558  1.00  0.00    -0.269 OA
BRANCH  26  29
ATOM     29  C   UNL A   1      35.861  30.004  28.281  1.00  0.00     0.039 A 
ATOM     30  C   UNL A   1      36.279  29.546  29.536  1.00  0.00     0.014 A 
ATOM     31  C   UNL A   1      36.799  30.126  27.250  1.00  0.00     0.014 A 
ATOM     32  C   UNL A   1      37.616  29.188  29.746  1.00  0.00     0.010 A 
ATOM     33  C   UNL A   1      38.118  29.703  27.441  1.00  0.00     0.010 A 
ATOM     34  C   UNL A   1      38.547  29.252  28.698  1.00  0.00    -0.014 A 
BRANCH  34  35
ATOM     35  C   UNL A   1      39.980  28.911  28.919  1.00  0.00     0.031 A 
ATOM     36  C   UNL A   1      40.919  29.938  29.500  1.00  0.00     0.074 A 
ATOM     37  C   UNL A   1      40.446  27.690  28.586  1.00  0.00     0.049 A 
ATOM     38  N   UNL A   1      42.207  29.852  29.718  1.00  0.00    -0.248 NA
ATOM     39  C   UNL A   1      40.340  31.241  29.868  1.00  0.00     0.031 C 
ATOM     40  C   UNL A   1      39.651  26.614  27.993  1.00  0.00     0.029 A 
ATOM     41  N   UNL A   1      41.704  27.150  28.692  1.00  0.00    -0.354 N 
ATOM     42  C   UNL A   1      42.590  31.084  30.236  1.00  0.00     0.074 A 
ATOM     43  C   UNL A   1      41.410  31.920  30.256  1.00  0.00     0.031 C 
ATOM     44  C   UNL A   1      40.432  25.537  27.812  1.00  0.00     0.029 A 
ATOM     45  C   UNL A   1      41.792  25.853  28.242  1.00  0.00     0.049 A 
ATOM     46  H   UNL A   1      42.473  27.645  29.058  1.00  0.00     0.167 HD
ATOM     47  C   UNL A   1      43.807  31.476  30.683  1.00  0.00     0.037 A 
ATOM     48  C   UNL A   1      42.846  25.015  28.180  1.00  0.00     0.037 A 
ATOM     49  C   UNL A   1      44.974  30.633  30.704  1.00  0.00     0.049 A 
ATOM     50  C   UNL A   1      44.190  25.479  28.673  1.00  0.00     0.074 A 
ATOM     51  C   UNL A   1      46.239  30.930  31.181  1.00  0.00     0.029 A 
ATOM     52  N   UNL A   1      45.017  29.328  30.241  1.00  0.00    -0.354 N 
ATOM     53  N   UNL A   1      44.522  26.638  29.191  1.00  0.00    -0.248 NA
ATOM     54  C   UNL A   1      45.304  24.525  28.574  1.00  0.00     0.031 C 
ATOM     55  C   UNL A   1      47.056  29.813  30.977  1.00  0.00     0.029 A 
ATOM     56  C   UNL A   1      46.290  28.809  30.408  1.00  0.00     0.049 A 
ATOM     57  H   UNL A   1      44.256  28.840  29.851  1.00  0.00     0.167 HD
ATOM     58  C   UNL A   1      45.875  26.543  29.497  1.00  0.00     0.074 A 
ATOM     59  C   UNL A   1      46.298  25.210  29.122  1.00  0.00     0.031 C 
ATOM     60  C   UNL A   1      46.694  27.477  30.039  1.00  0.00     0.037 A 
BRANCH  47  61
ATOM     61  C   UNL A   1      43.946  32.874  31.218  1.00  0.00     0.058 A 
ATOM     62  C   UNL A   1      44.215  33.956  30.367  1.00  0.00     0.135 A 
ATOM     63  C   UNL A   1      43.725  33.148  32.578  1.00  0.00     0.135 A 
ATOM     64  F   UNL A   1      44.452  33.748  29.062  1.00  0.00    -0.206 F 
ATOM     65  C   UNL A   1      44.266  35.261  30.844  1.00  0.00     0.059 A 
ATOM     66  C   UNL A   1      43.747  34.449  33.073  1.00  0.00     0.059 A 
ATOM     67  F   UNL A   1      43.466  32.148  33.434  1.00  0.00    -0.206 F 
ATOM     68  C   UNL A   1      44.024  35.498  32.198  1.00  0.00     0.060 A 
BRANCH  68  69
ATOM     69  S   UNL A   1      44.052  37.204  32.790  1.00  0.00     0.124 S 
ATOM     70  O   UNL A   1      43.804  37.944  31.558  1.00  0.00    -0.237 OA
ATOM     71  O   UNL A   1      42.964  37.213  33.764  1.00  0.00    -0.237 OA
ATOM     72  O   UNL A   1      45.392  37.349  33.350  1.00  0.00    -0.744 OA
ENDBRANCH  68  69
ENDBRANCH  47  61
BRANCH  48  73
ATOM     73  C   UNL A   1      42.675  23.639  27.641  1.00  0.00     0.058 A 
ATOM     74  C   UNL A   1      42.405  22.559  28.494  1.00  0.00     0.135 A 
ATOM     75  C   UNL A   1      42.788  23.375  26.267  1.00  0.00     0.135 A 
ATOM     76  F   UNL A   1      42.298  22.760  29.816  1.00  0.00    -0.206 F 
ATOM     77  C   UNL A   1      42.271  21.262  28.009  1.00  0.00     0.059 A 
ATOM     78  C   UNL A   1      42.635  22.090  25.755  1.00  0.00     0.059 A 
ATOM     79  F   UNL A   1      43.031  24.376  25.407  1.00  0.00    -0.206 F 
ATOM     80  C   UNL A   1      42.389  21.037  26.635  1.00  0.00     0.060 A 
BRANCH  80  81
ATOM     81  S   UNL A   1      42.179  19.357  26.010  1.00  0.00     0.124 S 
ATOM     82  O   UNL A   1      42.655  18.563  27.136  1.00  0.00    -0.237 OA
ATOM     83  O   UNL A   1      40.743  19.301  25.750  1.00  0.00    -0.237 OA
ATOM     84  O   UNL A   1      43.023  19.336  24.819  1.00  0.00    -0.744 OA
ENDBRANCH  80  81
ENDBRANCH  48  73
BRANCH  60  85
ATOM     85  C   UNL A   1      48.127  27.095  30.279  1.00  0.00     0.058 A 
ATOM     86  C   UNL A   1      49.131  27.399  29.348  1.00  0.00     0.135 A 
ATOM     87  C   UNL A   1      48.510  26.488  31.487  1.00  0.00     0.135 A 
ATOM     88  F   UNL A   1      48.814  27.973  28.177  1.00  0.00    -0.206 F 
ATOM     89  C   UNL A   1      50.466  27.106  29.602  1.00  0.00     0.059 A 
ATOM     90  C   UNL A   1      49.843  26.208  31.770  1.00  0.00     0.059 A 
ATOM     91  F   UNL A   1      47.588  26.187  32.415  1.00  0.00    -0.206 F 
ATOM     92  C   UNL A   1      50.814  26.515  30.819  1.00  0.00     0.060 A 
BRANCH  92  93
ATOM     93  S   UNL A   1      52.558  26.190  31.153  1.00  0.00     0.124 S 
ATOM     94  O   UNL A   1      52.902  27.304  32.030  1.00  0.00    -0.237 OA
ATOM     95  O   UNL A   1      52.514  24.876  31.787  1.00  0.00    -0.237 OA
ATOM     96  O   UNL A   1      53.170  26.221  29.829  1.00  0.00    -0.744 OA
ENDBRANCH  92  93
ENDBRANCH  60  85
ENDBRANCH  34  35
ENDBRANCH  26  29
ENDBRANCH  24  25
ENDBRANCH   1  24
TORSDOF 15
ENDMDL
MODEL 2
REMARK VINA RESULT:     -11.5      2.799      3.854
REMARK SMILES Cn1nc(N2CCC(CC(=O)NCCCNC(=O)c3ccc(-c4c5nc(c(-c6c(F)cc(S(=O)(=O)[O-])cc6F)c6ccc([nH]6)c(-c6c(F)cc(S(=O)(=O)[O-])cc6F)c6nc(c(-c7c(F)cc(S(=O)(=O)[O-])cc7F)c7ccc4[nH]7)C=C6)C=C5)cc3)CC2)c(=O)n(C)c1=O
REMARK SMILES IDX 14 1 13 2 12 3 10 4 11 5 9 7 8 8 5 9 6 10 86 11 7 12 85 13
REMARK SMILES IDX 4 14 1 15 2 16 3 17 91 18 89 19 92 20 87 21 90 22 88 23
REMARK SMILES IDX 15 24 16 25 17 26 18 28 19 29 20 30 84 31 21 32 83 33 22 34
REMARK SMILES IDX 23 35 24 36 77 37 25 38 82 39 76 40 78 41 26 42 81 43 75 44
REMARK SMILES IDX 74 45 27 47 61 48 40 49 60 50 41 51 44 52 59 53 79 54 42 55
REMARK SMILES IDX 43 56 58 58 80 59 45 60 28 61 29 62 38 63 30 64 31 65 37 66
REMARK SMILES IDX 39 67 32 68 33 69 34 70 35 71 36 72 62 73 63 74 72 75 64 76
REMARK SMILES IDX 65 77 71 78 73 79 66 80 67 81 68 82 69 83 70 84 46 85 47 86
REMARK SMILES IDX 56 87 48 88 49 89 55 90 57 91 50 92 51 93 52 94 53 95 54 96
REMARK H PARENT 12 6 16 27 78 46 44 57
REMARK Flexibility Score: inf
ROOT
ATOM      1  C   UNL A   1      34.301  30.486  27.400  1.00  0.00     0.042 C 
ENDROOT
BRANCH   1   2
ATOM      2  C   UNL A   1      34.091  28.974  27.287  1.00  0.00     0.117 C 
BRANCH   2   3
ATOM      3  N   UNL A   1      32.730  28.561  27.610  1.00  0.00    -0.356 N 
ATOM      4  C   UNL A   1      31.931  27.587  27.087  1.00  0.00     0.220 C 
ATOM      5  O   UNL A   1      30.806  27.439  27.569  1.00  0.00    -0.275 OA
ATOM      6  H   UNL A   1      32.313  29.078  28.337  1.00  0.00     0.163 HD
BRANCH   4   7
ATOM      7  C   UNL A   1      32.399  26.712  25.938  1.00  0.00     0.103 C 
BRANCH   7   8
ATOM      8  C   UNL A   1      31.570  25.420  25.769  1.00  0.00     0.002 C 
ATOM      9  N   UNL A   1      31.830  22.606  25.272  1.00  0.00    -0.351 N 
ATOM     10  C   UNL A   1      31.298  23.403  24.191  1.00  0.00     0.118 C 
ATOM     11  C   UNL A   1      31.408  22.997  26.602  1.00  0.00     0.118 C 
ATOM     12  C   UNL A   1      31.785  24.829  24.370  1.00  0.00     0.025 C 
ATOM     13  C   UNL A   1      31.938  24.408  26.878  1.00  0.00     0.025 C 
BRANCH   9  14
ATOM     14  C   UNL A   1      32.628  21.505  25.030  1.00  0.00     0.215 A 
ATOM     15  C   UNL A   1      32.284  17.985  24.424  1.00  0.00     0.180 C 
ATOM     16  N   UNL A   1      32.944  19.261  24.648  1.00  0.00    -0.216 N 
ATOM     17  N   UNL A   1      32.107  20.323  24.874  1.00  0.00    -0.145 NA
ATOM     18  C   UNL A   1      34.337  19.314  24.691  1.00  0.00     0.346 A 
ATOM     19  N   UNL A   1      34.892  20.554  24.933  1.00  0.00    -0.259 N 
ATOM     20  O   UNL A   1      35.029  18.311  24.495  1.00  0.00    -0.246 OA
ATOM     21  C   UNL A   1      34.141  21.705  24.983  1.00  0.00     0.299 A 
ATOM     22  C   UNL A   1      36.327  20.690  25.066  1.00  0.00     0.159 C 
ATOM     23  O   UNL A   1      34.588  22.850  24.996  1.00  0.00    -0.265 OA
ENDBRANCH   9  14
ENDBRANCH   7   8
ENDBRANCH   4   7
ENDBRANCH   2   3
ENDBRANCH   1   2
BRANCH   1  24
ATOM     24  C   UNL A   1      35.624  30.894  28.037  1.00  0.00     0.118 C 
BRANCH  24  25
ATOM     25  N   UNL A   1      35.573  30.781  29.483  1.00  0.00    -0.352 N 
ATOM     26  C   UNL A   1      36.477  30.218  30.353  1.00  0.00     0.251 C 
ATOM     27  H   UNL A   1      34.770  31.164  29.904  1.00  0.00     0.163 HD
ATOM     28  O   UNL A   1      36.111  29.964  31.499  1.00  0.00    -0.269 OA
BRANCH  26  29
ATOM     29  C   UNL A   1      37.871  29.910  29.940  1.00  0.00     0.039 A 
ATOM     30  C   UNL A   1      38.175  29.893  28.574  1.00  0.00     0.014 A 
ATOM     31  C   UNL A   1      38.854  29.544  30.865  1.00  0.00     0.014 A 
ATOM     32  C   UNL A   1      39.460  29.539  28.143  1.00  0.00     0.010 A 
ATOM     33  C   UNL A   1      40.154  29.259  30.438  1.00  0.00     0.010 A 
ATOM     34  C   UNL A   1      40.466  29.229  29.071  1.00  0.00    -0.014 A 
BRANCH  34  35
ATOM     35  C   UNL A   1      41.824  28.814  28.623  1.00  0.00     0.031 A 
ATOM     36  C   UNL A   1      42.938  29.829  28.553  1.00  0.00     0.074 A 
ATOM     37  C   UNL A   1      42.059  27.536  28.263  1.00  0.00     0.049 A 
ATOM     38  N   UNL A   1      44.170  29.676  28.140  1.00  0.00    -0.248 NA
ATOM     39  C   UNL A   1      42.621  31.200  28.986  1.00  0.00     0.031 C 
ATOM     40  C   UNL A   1      41.065  26.461  28.261  1.00  0.00     0.029 A 
ATOM     41  N   UNL A   1      43.207  26.923  27.825  1.00  0.00    -0.354 N 
ATOM     42  C   UNL A   1      44.770  30.926  28.254  1.00  0.00     0.074 A 
ATOM     43  C   UNL A   1      43.754  31.839  28.729  1.00  0.00     0.031 C 
ATOM     44  C   UNL A   1      41.652  25.319  27.866  1.00  0.00     0.029 A 
ATOM     45  C   UNL A   1      43.053  25.583  27.554  1.00  0.00     0.049 A 
ATOM     46  H   UNL A   1      44.063  27.399  27.715  1.00  0.00     0.167 HD
ATOM     47  C   UNL A   1      46.056  31.277  28.015  1.00  0.00     0.037 A 
ATOM     48  C   UNL A   1      43.938  24.672  27.102  1.00  0.00     0.037 A 
ATOM     49  C   UNL A   1      47.079  30.361  27.583  1.00  0.00     0.049 A 
ATOM     50  C   UNL A   1      45.359  25.091  26.833  1.00  0.00     0.074 A 
ATOM     51  C   UNL A   1      48.421  30.617  27.358  1.00  0.00     0.029 A 
ATOM     52  N   UNL A   1      46.880  29.015  27.322  1.00  0.00    -0.354 N 
ATOM     53  N   UNL A   1      45.912  26.271  26.980  1.00  0.00    -0.248 NA
ATOM     54  C   UNL A   1      46.278  24.056  26.336  1.00  0.00     0.031 C 
ATOM     55  C   UNL A   1      49.027  29.432  26.931  1.00  0.00     0.029 A 
ATOM     56  C   UNL A   1      48.070  28.429  26.926  1.00  0.00     0.049 A 
ATOM     57  H   UNL A   1      46.019  28.544  27.406  1.00  0.00     0.167 HD
ATOM     58  C   UNL A   1      47.244  26.115  26.615  1.00  0.00     0.074 A 
ATOM     59  C   UNL A   1      47.420  24.724  26.254  1.00  0.00     0.031 C 
ATOM     60  C   UNL A   1      48.233  27.041  26.579  1.00  0.00     0.037 A 
BRANCH  47  61
ATOM     61  C   UNL A   1      46.450  32.710  28.239  1.00  0.00     0.058 A 
ATOM     62  C   UNL A   1      46.969  33.139  29.469  1.00  0.00     0.135 A 
ATOM     63  C   UNL A   1      46.389  33.644  27.191  1.00  0.00     0.135 A 
ATOM     64  F   UNL A   1      47.032  32.292  30.509  1.00  0.00    -0.206 F 
ATOM     65  C   UNL A   1      47.408  34.444  29.658  1.00  0.00     0.059 A 
ATOM     66  C   UNL A   1      46.845  34.949  27.350  1.00  0.00     0.059 A 
ATOM     67  F   UNL A   1      45.899  33.284  25.994  1.00  0.00    -0.206 F 
ATOM     68  C   UNL A   1      47.349  35.341  28.589  1.00  0.00     0.060 A 
BRANCH  68  69
ATOM     69  S   UNL A   1      47.965  37.019  28.841  1.00  0.00     0.124 S 
ATOM     70  O   UNL A   1      48.123  37.058  30.291  1.00  0.00    -0.237 OA
ATOM     71  O   UNL A   1      49.204  37.015  28.069  1.00  0.00    -0.237 OA
ATOM     72  O   UNL A   1      46.898  37.859  28.305  1.00  0.00    -0.744 OA
ENDBRANCH  68  69
ENDBRANCH  47  61
BRANCH  48  73
ATOM     73  C   UNL A   1      43.514  23.262  26.886  1.00  0.00     0.058 A 
ATOM     74  C   UNL A   1      43.298  22.765  25.593  1.00  0.00     0.135 A 
ATOM     75  C   UNL A   1      43.308  22.390  27.966  1.00  0.00     0.135 A 
ATOM     76  F   UNL A   1      43.473  23.563  24.530  1.00  0.00    -0.206 F 
ATOM     77  C   UNL A   1      42.874  21.457  25.376  1.00  0.00     0.059 A 
ATOM     78  C   UNL A   1      42.906  21.072  27.774  1.00  0.00     0.059 A 
ATOM     79  F   UNL A   1      43.515  22.813  29.223  1.00  0.00    -0.206 F 
ATOM     80  C   UNL A   1      42.679  20.618  26.475  1.00  0.00     0.060 A 
BRANCH  80  81
ATOM     81  S   UNL A   1      42.163  18.912  26.183  1.00  0.00     0.124 S 
ATOM     82  O   UNL A   1      43.067  18.511  25.112  1.00  0.00    -0.237 OA
ATOM     83  O   UNL A   1      42.397  18.292  27.484  1.00  0.00    -0.237 OA
ATOM     84  O   UNL A   1      40.758  19.049  25.809  1.00  0.00    -0.744 OA
ENDBRANCH  80  81
ENDBRANCH  48  73
BRANCH  60  85
ATOM     85  C   UNL A   1      49.600  26.587  26.154  1.00  0.00     0.058 A 
ATOM     86  C   UNL A   1      50.060  26.781  24.843  1.00  0.00     0.135 A 
ATOM     87  C   UNL A   1      50.486  26.023  27.087  1.00  0.00     0.135 A 
ATOM     88  F   UNL A   1      49.249  27.311  23.914  1.00  0.00    -0.206 F 
ATOM     89  C   UNL A   1      51.350  26.423  24.468  1.00  0.00     0.059 A 
ATOM     90  C   UNL A   1      51.788  25.680  26.738  1.00  0.00     0.059 A 
ATOM     91  F   UNL A   1      50.097  25.827  28.356  1.00  0.00    -0.206 F 
ATOM     92  C   UNL A   1      52.210  25.878  25.424  1.00  0.00     0.060 A 
BRANCH  92  93
ATOM     93  S   UNL A   1      53.898  25.467  24.933  1.00  0.00     0.124 S 
ATOM     94  O   UNL A   1      54.665  25.965  26.070  1.00  0.00    -0.237 OA
ATOM     95  O   UNL A   1      53.839  24.015  24.797  1.00  0.00    -0.237 OA
ATOM     96  O   UNL A   1      54.077  26.201  23.685  1.00  0.00    -0.744 OA
ENDBRANCH  92  93
ENDBRANCH  60  85
ENDBRANCH  34  35
ENDBRANCH  26  29
ENDBRANCH  24  25
ENDBRANCH   1  24
TORSDOF 15
ENDMDL
MODEL 3
REMARK VINA RESULT:     -11.4      4.665     10.614
REMARK SMILES Cn1nc(N2CCC(CC(=O)NCCCNC(=O)c3ccc(-c4c5nc(c(-c6c(F)cc(S(=O)(=O)[O-])cc6F)c6ccc([nH]6)c(-c6c(F)cc(S(=O)(=O)[O-])cc6F)c6nc(c(-c7c(F)cc(S(=O)(=O)[O-])cc7F)c7ccc4[nH]7)C=C6)C=C5)cc3)CC2)c(=O)n(C)c1=O
REMARK SMILES IDX 14 1 13 2 12 3 10 4 11 5 9 7 8 8 5 9 6 10 86 11 7 12 85 13
REMARK SMILES IDX 4 14 1 15 2 16 3 17 91 18 89 19 92 20 87 21 90 22 88 23
REMARK SMILES IDX 15 24 16 25 17 26 18 28 19 29 20 30 84 31 21 32 83 33 22 34
REMARK SMILES IDX 23 35 24 36 77 37 25 38 82 39 76 40 78 41 26 42 81 43 75 44
REMARK SMILES IDX 74 45 27 47 61 48 40 49 60 50 41 51 44 52 59 53 79 54 42 55
REMARK SMILES IDX 43 56 58 58 80 59 45 60 28 61 29 62 38 63 30 64 31 65 37 66
REMARK SMILES IDX 39 67 32 68 33 69 34 70 35 71 36 72 62 73 63 74 72 75 64 76
REMARK SMILES IDX 65 77 71 78 73 79 66 80 67 81 68 82 69 83 70 84 46 85 47 86
REMARK SMILES IDX 56 87 48 88 49 89 55 90 57 91 50 92 51 93 52 94 53 95 54 96
REMARK H PARENT 12 6 16 27 78 46 44 57
REMARK Flexibility Score: inf
ROOT
ATOM      1  C   UNL A   1      38.999  21.960  26.116  1.00  0.00     0.042 C 
ENDROOT
BRANCH   1   2
ATOM      2  C   UNL A   1      37.694  22.471  25.497  1.00  0.00     0.117 C 
BRANCH   2   3
ATOM      3  N   UNL A   1      36.535  21.662  25.858  1.00  0.00    -0.356 N 
ATOM      4  C   UNL A   1      35.290  22.008  26.293  1.00  0.00     0.220 C 
ATOM      5  O   UNL A   1      34.481  21.105  26.512  1.00  0.00    -0.275 OA
ATOM      6  H   UNL A   1      36.678  20.692  25.771  1.00  0.00     0.163 HD
BRANCH   4   7
ATOM      7  C   UNL A   1      34.903  23.460  26.514  1.00  0.00     0.103 C 
BRANCH   7   8
ATOM      8  C   UNL A   1      33.886  23.992  25.480  1.00  0.00     0.002 C 
ATOM      9  N   UNL A   1      32.371  26.326  24.783  1.00  0.00    -0.351 N 
ATOM     10  C   UNL A   1      31.627  25.219  25.338  1.00  0.00     0.118 C 
ATOM     11  C   UNL A   1      33.458  25.965  23.896  1.00  0.00     0.118 C 
ATOM     12  C   UNL A   1      32.577  24.384  26.176  1.00  0.00     0.025 C 
ATOM     13  C   UNL A   1      34.497  25.180  24.703  1.00  0.00     0.025 C 
BRANCH   9  14
ATOM     14  C   UNL A   1      32.011  27.635  25.036  1.00  0.00     0.215 A 
ATOM     15  C   UNL A   1      29.812  30.147  23.719  1.00  0.00     0.180 C 
ATOM     16  N   UNL A   1      30.830  29.552  24.569  1.00  0.00    -0.216 N 
ATOM     17  N   UNL A   1      31.145  28.248  24.282  1.00  0.00    -0.145 NA
ATOM     18  C   UNL A   1      31.454  30.332  25.540  1.00  0.00     0.346 A 
ATOM     19  N   UNL A   1      32.429  29.706  26.292  1.00  0.00    -0.259 N 
ATOM     20  O   UNL A   1      31.132  31.508  25.732  1.00  0.00    -0.246 OA
ATOM     21  C   UNL A   1      32.678  28.356  26.205  1.00  0.00     0.299 A 
ATOM     22  C   UNL A   1      33.180  30.459  27.274  1.00  0.00     0.159 C 
ATOM     23  O   UNL A   1      33.383  27.709  26.976  1.00  0.00    -0.265 OA
ENDBRANCH   9  14
ENDBRANCH   7   8
ENDBRANCH   4   7
ENDBRANCH   2   3
ENDBRANCH   1   2
BRANCH   1  24
ATOM     24  C   UNL A   1      39.770  23.003  26.914  1.00  0.00     0.118 C 
BRANCH  24  25
ATOM     25  N   UNL A   1      40.973  23.421  26.218  1.00  0.00    -0.352 N 
ATOM     26  C   UNL A   1      41.634  24.625  26.250  1.00  0.00     0.251 C 
ATOM     27  H   UNL A   1      41.376  22.737  25.635  1.00  0.00     0.163 HD
ATOM     28  O   UNL A   1      42.457  24.869  25.369  1.00  0.00    -0.269 OA
BRANCH  26  29
ATOM     29  C   UNL A   1      41.376  25.630  27.314  1.00  0.00     0.039 A 
ATOM     30  C   UNL A   1      42.263  26.704  27.450  1.00  0.00     0.014 A 
ATOM     31  C   UNL A   1      40.335  25.481  28.237  1.00  0.00     0.014 A 
ATOM     32  C   UNL A   1      42.093  27.632  28.485  1.00  0.00     0.010 A 
ATOM     33  C   UNL A   1      40.125  26.446  29.226  1.00  0.00     0.010 A 
ATOM     34  C   UNL A   1      41.016  27.520  29.376  1.00  0.00    -0.014 A 
BRANCH  34  35
ATOM     35  C   UNL A   1      40.846  28.478  30.503  1.00  0.00     0.031 A 
ATOM     36  C   UNL A   1      41.738  28.384  31.715  1.00  0.00     0.074 A 
ATOM     37  C   UNL A   1      39.883  29.422  30.452  1.00  0.00     0.049 A 
ATOM     38  N   UNL A   1      41.712  29.089  32.817  1.00  0.00    -0.248 NA
ATOM     39  C   UNL A   1      42.785  27.349  31.695  1.00  0.00     0.031 C 
ATOM     40  C   UNL A   1      38.937  29.607  29.350  1.00  0.00     0.029 A 
ATOM     41  N   UNL A   1      39.537  30.401  31.350  1.00  0.00    -0.354 N 
ATOM     42  C   UNL A   1      42.728  28.580  33.620  1.00  0.00     0.074 A 
ATOM     43  C   UNL A   1      43.320  27.474  32.901  1.00  0.00     0.031 C 
ATOM     44  C   UNL A   1      38.137  30.649  29.627  1.00  0.00     0.029 A 
ATOM     45  C   UNL A   1      38.486  31.188  30.938  1.00  0.00     0.049 A 
ATOM     46  H   UNL A   1      40.000  30.530  32.211  1.00  0.00     0.167 HD
ATOM     47  C   UNL A   1      43.149  29.012  34.833  1.00  0.00     0.037 A 
ATOM     48  C   UNL A   1      37.872  32.222  31.548  1.00  0.00     0.037 A 
ATOM     49  C   UNL A   1      42.589  30.139  35.532  1.00  0.00     0.049 A 
ATOM     50  C   UNL A   1      38.353  32.674  32.901  1.00  0.00     0.074 A 
ATOM     51  C   UNL A   1      42.981  30.677  36.746  1.00  0.00     0.029 A 
ATOM     52  N   UNL A   1      41.528  30.906  35.079  1.00  0.00    -0.354 N 
ATOM     53  N   UNL A   1      39.337  32.199  33.626  1.00  0.00    -0.248 NA
ATOM     54  C   UNL A   1      37.642  33.803  33.519  1.00  0.00     0.031 C 
ATOM     55  C   UNL A   1      42.137  31.752  37.041  1.00  0.00     0.029 A 
ATOM     56  C   UNL A   1      41.243  31.906  35.993  1.00  0.00     0.049 A 
ATOM     57  H   UNL A   1      41.048  30.762  34.231  1.00  0.00     0.167 HD
ATOM     58  C   UNL A   1      39.375  32.983  34.774  1.00  0.00     0.074 A 
ATOM     59  C   UNL A   1      38.326  33.972  34.642  1.00  0.00     0.031 C 
ATOM     60  C   UNL A   1      40.202  32.890  35.843  1.00  0.00     0.037 A 
BRANCH  47  61
ATOM     61  C   UNL A   1      44.294  28.285  35.482  1.00  0.00     0.058 A 
ATOM     62  C   UNL A   1      44.073  27.207  36.352  1.00  0.00     0.135 A 
ATOM     63  C   UNL A   1      45.623  28.613  35.167  1.00  0.00     0.135 A 
ATOM     64  F   UNL A   1      42.823  26.863  36.700  1.00  0.00    -0.206 F 
ATOM     65  C   UNL A   1      45.128  26.481  36.893  1.00  0.00     0.059 A 
ATOM     66  C   UNL A   1      46.695  27.885  35.678  1.00  0.00     0.059 A 
ATOM     67  F   UNL A   1      45.888  29.637  34.342  1.00  0.00    -0.206 F 
ATOM     68  C   UNL A   1      46.436  26.824  36.545  1.00  0.00     0.060 A 
BRANCH  68  69
ATOM     69  S   UNL A   1      47.791  25.842  37.223  1.00  0.00     0.124 S 
ATOM     70  O   UNL A   1      48.894  26.220  36.346  1.00  0.00    -0.237 OA
ATOM     71  O   UNL A   1      47.875  26.334  38.595  1.00  0.00    -0.237 OA
ATOM     72  O   UNL A   1      47.320  24.467  37.080  1.00  0.00    -0.744 OA
ENDBRANCH  68  69
ENDBRANCH  47  61
BRANCH  48  73
ATOM     73  C   UNL A   1      36.739  32.916  30.879  1.00  0.00     0.058 A 
ATOM     74  C   UNL A   1      35.418  32.710  31.301  1.00  0.00     0.135 A 
ATOM     75  C   UNL A   1      36.953  33.790  29.802  1.00  0.00     0.135 A 
ATOM     76  F   UNL A   1      35.163  31.877  32.321  1.00  0.00    -0.206 F 
ATOM     77  C   UNL A   1      34.345  33.330  30.669  1.00  0.00     0.059 A 
ATOM     78  C   UNL A   1      35.899  34.439  29.167  1.00  0.00     0.059 A 
ATOM     79  F   UNL A   1      38.200  34.031  29.369  1.00  0.00    -0.206 F 
ATOM     80  C   UNL A   1      34.596  34.194  29.600  1.00  0.00     0.060 A 
BRANCH  80  81
ATOM     81  S   UNL A   1      33.201  35.021  28.807  1.00  0.00     0.124 S 
ATOM     82  O   UNL A   1      32.341  35.305  29.949  1.00  0.00    -0.237 OA
ATOM     83  O   UNL A   1      33.841  36.177  28.185  1.00  0.00    -0.237 OA
ATOM     84  O   UNL A   1      32.704  34.015  27.873  1.00  0.00    -0.744 OA
ENDBRANCH  80  81
ENDBRANCH  48  73
BRANCH  60  85
ATOM     85  C   UNL A   1      40.028  33.890  36.951  1.00  0.00     0.058 A 
ATOM     86  C   UNL A   1      40.690  35.127  36.929  1.00  0.00     0.135 A 
ATOM     87  C   UNL A   1      39.133  33.639  38.004  1.00  0.00     0.135 A 
ATOM     88  F   UNL A   1      41.560  35.410  35.948  1.00  0.00    -0.206 F 
ATOM     89  C   UNL A   1      40.475  36.079  37.919  1.00  0.00     0.059 A 
ATOM     90  C   UNL A   1      38.887  34.587  38.991  1.00  0.00     0.059 A 
ATOM     91  F   UNL A   1      38.468  32.474  38.063  1.00  0.00    -0.206 F 
ATOM     92  C   UNL A   1      39.568  35.803  38.944  1.00  0.00     0.060 A 
BRANCH  92  93
ATOM     93  S   UNL A   1      39.263  37.071  40.193  1.00  0.00     0.124 S 
ATOM     94  O   UNL A   1      38.519  36.320  41.199  1.00  0.00    -0.237 OA
ATOM     95  O   UNL A   1      40.615  37.468  40.571  1.00  0.00    -0.237 OA
ATOM     96  O   UNL A   1      38.498  38.082  39.471  1.00  0.00    -0.744 OA
ENDBRANCH  92  93
ENDBRANCH  60  85
ENDBRANCH  34  35
ENDBRANCH  26  29
ENDBRANCH  24  25
ENDBRANCH   1  24
TORSDOF 15
ENDMDL
