MODEL 1
REMARK VINA RESULT:      -9.4      0.000      0.000
REMARK SMILES C[C@@H](CO)CS[C@@H](C)C[C@@](C)([NH3+])C(=O)NCCCNC(=O)c1ccc(-c2c3nc(c(-c4c(F)cc(S(=O)(=O)[O-])cc4F)c4ccc([nH]4)c(-c4c(F)cc(S(=O)(=O)[O-])cc4F)c4nc(c(-c5c(F)cc(S(=O)(=O)[O-])cc5F)c5ccc2[nH]5)C=C4)C=C3)cc1
REMARK SMILES IDX 13 1 14 2 15 3 10 5 11 6 9 7 7 8 8 9 6 10 5 11 2 12 1 13
REMARK SMILES IDX 3 14 4 15 12 17 16 21 17 22 18 23 19 24 20 25 21 27 22 28
REMARK SMILES IDX 23 29 87 30 24 31 86 32 25 33 26 34 27 35 80 36 28 37 85 38
REMARK SMILES IDX 79 39 81 40 29 41 84 42 78 43 77 44 30 46 64 47 43 48 63 49
REMARK SMILES IDX 44 50 47 51 62 52 82 53 45 54 46 55 61 57 83 58 48 59 31 60
REMARK SMILES IDX 32 61 41 62 33 63 34 64 40 65 42 66 35 67 36 68 37 69 38 70
REMARK SMILES IDX 39 71 65 72 66 73 75 74 67 75 68 76 74 77 76 78 69 79 70 80
REMARK SMILES IDX 71 81 72 82 73 83 49 84 50 85 59 86 51 87 52 88 58 89 60 90
REMARK SMILES IDX 53 91 54 92 55 93 56 94 57 95
REMARK H PARENT 15 4 4 16 12 18 12 19 12 20 19 26 81 45 47 56
REMARK Flexibility Score: inf
ROOT
ATOM      1  C   UNL A   1      33.352  27.939  22.312  1.00  0.00     0.281 C 
ATOM      2  O   UNL A   1      34.397  28.168  21.707  1.00  0.00    -0.268 OA
ATOM      3  N   UNL A   1      33.038  28.885  23.243  1.00  0.00    -0.351 N 
ATOM      4  H   UNL A   1      33.079  29.819  22.931  1.00  0.00     0.163 HD
ENDROOT
BRANCH   1   5
ATOM      5  C   UNL A   1      32.495  26.642  22.130  1.00  0.00     0.172 C 
ATOM      6  C   UNL A   1      32.864  25.912  20.828  1.00  0.00     0.090 C 
BRANCH   5   7
ATOM      7  C   UNL A   1      32.546  25.607  23.303  1.00  0.00     0.093 C 
BRANCH   7   8
ATOM      8  C   UNL A   1      32.262  24.100  23.104  1.00  0.00     0.050 C 
ATOM      9  C   UNL A   1      30.957  23.713  23.817  1.00  0.00     0.019 C 
BRANCH   8  10
ATOM     10  S   UNL A   1      33.566  22.861  23.491  1.00  0.00    -0.158 SA
BRANCH  10  11
ATOM     11  C   UNL A   1      34.698  23.661  24.714  1.00  0.00     0.075 C 
BRANCH  11  12
ATOM     12  C   UNL A   1      36.223  23.398  24.648  1.00  0.00     0.021 C 
ATOM     13  C   UNL A   1      36.971  23.771  25.928  1.00  0.00     0.011 C 
BRANCH  12  14
ATOM     14  C   UNL A   1      36.493  21.914  24.349  1.00  0.00     0.160 C 
BRANCH  14  15
ATOM     15  O   UNL A   1      36.296  21.108  25.505  1.00  0.00    -0.396 OA
ATOM     16  H   UNL A   1      35.406  21.261  25.857  1.00  0.00     0.210 HD
ENDBRANCH  14  15
ENDBRANCH  12  14
ENDBRANCH  11  12
ENDBRANCH  10  11
ENDBRANCH   8  10
ENDBRANCH   7   8
ENDBRANCH   5   7
BRANCH   5  17
ATOM     17  N   UNL A   1      31.066  27.059  22.087  1.00  0.00    -0.345 N 
ATOM     18  H   UNL A   1      30.977  27.911  21.533  1.00  0.00     0.345 HD
ATOM     19  H   UNL A   1      30.732  27.234  23.035  1.00  0.00     0.345 HD
ATOM     20  H   UNL A   1      30.508  26.317  21.663  1.00  0.00     0.345 HD
ENDBRANCH   5  17
ENDBRANCH   1   5
BRANCH   3  21
ATOM     21  C   UNL A   1      32.651  28.706  24.631  1.00  0.00     0.118 C 
BRANCH  21  22
ATOM     22  C   UNL A   1      33.838  28.256  25.485  1.00  0.00     0.042 C 
BRANCH  22  23
ATOM     23  C   UNL A   1      33.620  28.377  26.993  1.00  0.00     0.118 C 
BRANCH  23  24
ATOM     24  N   UNL A   1      33.534  29.763  27.439  1.00  0.00    -0.352 N 
ATOM     25  C   UNL A   1      34.434  30.525  28.136  1.00  0.00     0.251 C 
ATOM     26  H   UNL A   1      32.697  30.222  27.202  1.00  0.00     0.163 HD
ATOM     27  O   UNL A   1      34.073  31.609  28.604  1.00  0.00    -0.269 OA
BRANCH  25  28
ATOM     28  C   UNL A   1      35.817  30.054  28.346  1.00  0.00     0.039 A 
ATOM     29  C   UNL A   1      36.715  30.084  27.275  1.00  0.00     0.014 A 
ATOM     30  C   UNL A   1      36.227  29.565  29.589  1.00  0.00     0.014 A 
ATOM     31  C   UNL A   1      38.041  29.694  27.472  1.00  0.00     0.010 A 
ATOM     32  C   UNL A   1      37.567  29.253  29.803  1.00  0.00     0.010 A 
ATOM     33  C   UNL A   1      38.489  29.312  28.748  1.00  0.00    -0.014 A 
BRANCH  33  34
ATOM     34  C   UNL A   1      39.915  28.978  28.999  1.00  0.00     0.031 A 
ATOM     35  C   UNL A   1      40.855  30.023  29.539  1.00  0.00     0.074 A 
ATOM     36  C   UNL A   1      40.379  27.755  28.673  1.00  0.00     0.049 A 
ATOM     37  N   UNL A   1      42.144  29.945  29.748  1.00  0.00    -0.248 NA
ATOM     38  C   UNL A   1      40.274  31.337  29.861  1.00  0.00     0.031 C 
ATOM     39  C   UNL A   1      39.579  26.673  28.093  1.00  0.00     0.029 A 
ATOM     40  N   UNL A   1      41.638  27.217  28.769  1.00  0.00    -0.354 N 
ATOM     41  C   UNL A   1      42.530  31.199  30.206  1.00  0.00     0.074 A 
ATOM     42  C   UNL A   1      41.349  32.034  30.196  1.00  0.00     0.031 C 
ATOM     43  C   UNL A   1      40.360  25.597  27.906  1.00  0.00     0.029 A 
ATOM     44  C   UNL A   1      41.724  25.924  28.312  1.00  0.00     0.049 A 
ATOM     45  H   UNL A   1      42.409  27.712  29.131  1.00  0.00     0.167 HD
ATOM     46  C   UNL A   1      43.753  31.611  30.620  1.00  0.00     0.037 A 
ATOM     47  C   UNL A   1      42.782  25.094  28.219  1.00  0.00     0.037 A 
ATOM     48  C   UNL A   1      44.918  30.765  30.652  1.00  0.00     0.049 A 
ATOM     49  C   UNL A   1      44.130  25.572  28.689  1.00  0.00     0.074 A 
ATOM     50  C   UNL A   1      46.187  31.068  31.113  1.00  0.00     0.029 A 
ATOM     51  N   UNL A   1      44.958  29.452  30.206  1.00  0.00    -0.354 N 
ATOM     52  N   UNL A   1      44.462  26.742  29.182  1.00  0.00    -0.248 NA
ATOM     53  C   UNL A   1      45.243  24.619  28.597  1.00  0.00     0.031 C 
ATOM     54  C   UNL A   1      47.006  29.953  30.904  1.00  0.00     0.029 A 
ATOM     55  C   UNL A   1      46.235  28.938  30.361  1.00  0.00     0.049 A 
ATOM     56  H   UNL A   1      44.192  28.958  29.834  1.00  0.00     0.167 HD
ATOM     57  C   UNL A   1      45.817  26.654  29.485  1.00  0.00     0.074 A 
ATOM     58  C   UNL A   1      46.237  25.314  29.131  1.00  0.00     0.031 C 
ATOM     59  C   UNL A   1      46.637  27.598  30.011  1.00  0.00     0.037 A 
BRANCH  46  60
ATOM     60  C   UNL A   1      43.894  33.038  31.075  1.00  0.00     0.058 A 
ATOM     61  C   UNL A   1      44.230  34.068  30.181  1.00  0.00     0.135 A 
ATOM     62  C   UNL A   1      43.654  33.388  32.415  1.00  0.00     0.135 A 
ATOM     63  F   UNL A   1      44.484  33.789  28.893  1.00  0.00    -0.206 F 
ATOM     64  C   UNL A   1      44.353  35.387  30.604  1.00  0.00     0.059 A 
ATOM     65  C   UNL A   1      43.744  34.707  32.853  1.00  0.00     0.059 A 
ATOM     66  F   UNL A   1      43.330  32.445  33.312  1.00  0.00    -0.206 F 
ATOM     67  C   UNL A   1      44.108  35.697  31.943  1.00  0.00     0.060 A 
BRANCH  67  68
ATOM     68  S   UNL A   1      44.266  37.416  32.472  1.00  0.00     0.124 S 
ATOM     69  O   UNL A   1      43.839  38.130  31.272  1.00  0.00    -0.237 OA
ATOM     70  O   UNL A   1      43.349  37.479  33.606  1.00  0.00    -0.237 OA
ATOM     71  O   UNL A   1      45.682  37.540  32.805  1.00  0.00    -0.744 OA
ENDBRANCH  67  68
ENDBRANCH  46  60
BRANCH  47  72
ATOM     72  C   UNL A   1      42.605  23.720  27.678  1.00  0.00     0.058 A 
ATOM     73  C   UNL A   1      42.678  23.474  26.299  1.00  0.00     0.135 A 
ATOM     74  C   UNL A   1      42.375  22.625  28.525  1.00  0.00     0.135 A 
ATOM     75  F   UNL A   1      42.891  24.489  25.447  1.00  0.00    -0.206 F 
ATOM     76  C   UNL A   1      42.513  22.194  25.777  1.00  0.00     0.059 A 
ATOM     77  C   UNL A   1      42.233  21.333  28.029  1.00  0.00     0.059 A 
ATOM     78  F   UNL A   1      42.314  22.804  29.855  1.00  0.00    -0.206 F 
ATOM     79  C   UNL A   1      42.293  21.129  26.651  1.00  0.00     0.060 A 
BRANCH  79  80
ATOM     80  S   UNL A   1      42.133  19.466  25.967  1.00  0.00     0.124 S 
ATOM     81  O   UNL A   1      43.007  19.541  24.803  1.00  0.00    -0.237 OA
ATOM     82  O   UNL A   1      42.605  18.634  27.069  1.00  0.00    -0.237 OA
ATOM     83  O   UNL A   1      40.705  19.359  25.679  1.00  0.00    -0.744 OA
ENDBRANCH  79  80
ENDBRANCH  47  72
BRANCH  59  84
ATOM     84  C   UNL A   1      48.066  27.207  30.272  1.00  0.00     0.058 A 
ATOM     85  C   UNL A   1      49.089  27.489  29.354  1.00  0.00     0.135 A 
ATOM     86  C   UNL A   1      48.422  26.590  31.482  1.00  0.00     0.135 A 
ATOM     87  F   UNL A   1      48.802  28.072  28.178  1.00  0.00    -0.206 F 
ATOM     88  C   UNL A   1      50.413  27.154  29.616  1.00  0.00     0.059 A 
ATOM     89  C   UNL A   1      49.743  26.271  31.778  1.00  0.00     0.059 A 
ATOM     90  F   UNL A   1      47.483  26.306  32.399  1.00  0.00    -0.206 F 
ATOM     91  C   UNL A   1      50.731  26.546  30.833  1.00  0.00     0.060 A 
BRANCH  91  92
ATOM     92  S   UNL A   1      52.458  26.148  31.177  1.00  0.00     0.124 S 
ATOM     93  O   UNL A   1      52.995  25.987  29.830  1.00  0.00    -0.237 OA
ATOM     94  O   UNL A   1      52.912  27.328  31.904  1.00  0.00    -0.237 OA
ATOM     95  O   UNL A   1      52.373  24.925  31.969  1.00  0.00    -0.744 OA
ENDBRANCH  91  92
ENDBRANCH  59  84
ENDBRANCH  33  34
ENDBRANCH  25  28
ENDBRANCH  23  24
ENDBRANCH  22  23
ENDBRANCH  21  22
ENDBRANCH   3  21
TORSDOF 21
ENDMDL
MODEL 2
REMARK VINA RESULT:      -9.3      3.237      4.469
REMARK SMILES C[C@@H](CO)CS[C@@H](C)C[C@@](C)([NH3+])C(=O)NCCCNC(=O)c1ccc(-c2c3nc(c(-c4c(F)cc(S(=O)(=O)[O-])cc4F)c4ccc([nH]4)c(-c4c(F)cc(S(=O)(=O)[O-])cc4F)c4nc(c(-c5c(F)cc(S(=O)(=O)[O-])cc5F)c5ccc2[nH]5)C=C4)C=C3)cc1
REMARK SMILES IDX 13 1 14 2 15 3 10 5 11 6 9 7 7 8 8 9 6 10 5 11 2 12 1 13
REMARK SMILES IDX 3 14 4 15 12 17 16 21 17 22 18 23 19 24 20 25 21 27 22 28
REMARK SMILES IDX 23 29 87 30 24 31 86 32 25 33 26 34 27 35 80 36 28 37 85 38
REMARK SMILES IDX 79 39 81 40 29 41 84 42 78 43 77 44 30 46 64 47 43 48 63 49
REMARK SMILES IDX 44 50 47 51 62 52 82 53 45 54 46 55 61 57 83 58 48 59 31 60
REMARK SMILES IDX 32 61 41 62 33 63 34 64 40 65 42 66 35 67 36 68 37 69 38 70
REMARK SMILES IDX 39 71 65 72 66 73 75 74 67 75 68 76 74 77 76 78 69 79 70 80
REMARK SMILES IDX 71 81 72 82 73 83 49 84 50 85 59 86 51 87 52 88 58 89 60 90
REMARK SMILES IDX 53 91 54 92 55 93 56 94 57 95
REMARK H PARENT 15 4 4 16 12 18 12 19 12 20 19 26 81 45 47 56
REMARK Flexibility Score: inf
ROOT
ATOM      1  C   UNL A   1      32.805  26.396  22.164  1.00  0.00     0.281 C 
ATOM      2  O   UNL A   1      33.600  26.260  21.238  1.00  0.00    -0.268 OA
ATOM      3  N   UNL A   1      32.536  27.697  22.472  1.00  0.00    -0.351 N 
ATOM      4  H   UNL A   1      32.304  28.275  21.709  1.00  0.00     0.163 HD
ENDROOT
BRANCH   1   5
ATOM      5  C   UNL A   1      32.219  25.210  23.002  1.00  0.00     0.172 C 
ATOM      6  C   UNL A   1      32.971  25.048  24.334  1.00  0.00     0.090 C 
BRANCH   5   7
ATOM      7  C   UNL A   1      30.686  25.271  23.311  1.00  0.00     0.093 C 
BRANCH   7   8
ATOM      8  C   UNL A   1      30.049  26.376  24.185  1.00  0.00     0.050 C 
ATOM      9  C   UNL A   1      29.860  25.866  25.622  1.00  0.00     0.019 C 
BRANCH   8  10
ATOM     10  S   UNL A   1      28.512  27.218  23.624  1.00  0.00    -0.158 SA
BRANCH  10  11
ATOM     11  C   UNL A   1      29.041  28.826  22.882  1.00  0.00     0.075 C 
BRANCH  11  12
ATOM     12  C   UNL A   1      27.982  29.882  22.480  1.00  0.00     0.021 C 
ATOM     13  C   UNL A   1      27.658  30.886  23.587  1.00  0.00     0.011 C 
BRANCH  12  14
ATOM     14  C   UNL A   1      28.454  30.665  21.245  1.00  0.00     0.160 C 
BRANCH  14  15
ATOM     15  O   UNL A   1      29.405  31.664  21.596  1.00  0.00    -0.396 OA
ATOM     16  H   UNL A   1      28.943  32.440  21.949  1.00  0.00     0.210 HD
ENDBRANCH  14  15
ENDBRANCH  12  14
ENDBRANCH  11  12
ENDBRANCH  10  11
ENDBRANCH   8  10
ENDBRANCH   7   8
ENDBRANCH   5   7
BRANCH   5  17
ATOM     17  N   UNL A   1      32.368  23.974  22.185  1.00  0.00    -0.345 N 
ATOM     18  H   UNL A   1      33.103  24.112  21.492  1.00  0.00     0.345 HD
ATOM     19  H   UNL A   1      31.488  23.771  21.711  1.00  0.00     0.345 HD
ATOM     20  H   UNL A   1      32.615  23.192  22.793  1.00  0.00     0.345 HD
ENDBRANCH   5  17
ENDBRANCH   1   5
BRANCH   3  21
ATOM     21  C   UNL A   1      32.543  28.348  23.770  1.00  0.00     0.118 C 
BRANCH  21  22
ATOM     22  C   UNL A   1      33.967  28.492  24.311  1.00  0.00     0.042 C 
BRANCH  22  23
ATOM     23  C   UNL A   1      34.062  28.609  25.832  1.00  0.00     0.118 C 
BRANCH  23  24
ATOM     24  N   UNL A   1      33.807  29.964  26.307  1.00  0.00    -0.352 N 
ATOM     25  C   UNL A   1      34.407  30.676  27.312  1.00  0.00     0.251 C 
ATOM     26  H   UNL A   1      33.090  30.442  25.831  1.00  0.00     0.163 HD
ATOM     27  O   UNL A   1      33.891  31.730  27.697  1.00  0.00    -0.269 OA
BRANCH  25  28
ATOM     28  C   UNL A   1      35.646  30.186  27.947  1.00  0.00     0.039 A 
ATOM     29  C   UNL A   1      36.863  30.354  27.280  1.00  0.00     0.014 A 
ATOM     30  C   UNL A   1      35.612  29.545  29.187  1.00  0.00     0.014 A 
ATOM     31  C   UNL A   1      38.050  29.945  27.891  1.00  0.00     0.010 A 
ATOM     32  C   UNL A   1      36.801  29.211  29.829  1.00  0.00     0.010 A 
ATOM     33  C   UNL A   1      38.034  29.406  29.188  1.00  0.00    -0.014 A 
BRANCH  33  34
ATOM     34  C   UNL A   1      39.292  29.047  29.892  1.00  0.00     0.031 A 
ATOM     35  C   UNL A   1      39.729  29.821  31.108  1.00  0.00     0.074 A 
ATOM     36  C   UNL A   1      40.078  28.071  29.394  1.00  0.00     0.049 A 
ATOM     37  N   UNL A   1      40.829  29.709  31.806  1.00  0.00    -0.248 NA
ATOM     38  C   UNL A   1      38.822  30.878  31.584  1.00  0.00     0.031 C 
ATOM     39  C   UNL A   1      39.789  27.284  28.193  1.00  0.00     0.029 A 
ATOM     40  N   UNL A   1      41.285  27.581  29.827  1.00  0.00    -0.354 N 
ATOM     41  C   UNL A   1      40.756  30.689  32.789  1.00  0.00     0.074 A 
ATOM     42  C   UNL A   1      39.528  31.420  32.565  1.00  0.00     0.031 C 
ATOM     43  C   UNL A   1      40.779  26.397  27.998  1.00  0.00     0.029 A 
ATOM     44  C   UNL A   1      41.792  26.580  29.033  1.00  0.00     0.049 A 
ATOM     45  H   UNL A   1      41.745  27.916  30.630  1.00  0.00     0.167 HD
ATOM     46  C   UNL A   1      41.621  30.943  33.800  1.00  0.00     0.037 A 
ATOM     47  C   UNL A   1      42.947  25.891  29.121  1.00  0.00     0.037 A 
ATOM     48  C   UNL A   1      42.829  30.193  34.032  1.00  0.00     0.049 A 
ATOM     49  C   UNL A   1      43.891  26.187  30.255  1.00  0.00     0.074 A 
ATOM     50  C   UNL A   1      43.740  30.328  35.065  1.00  0.00     0.029 A 
ATOM     51  N   UNL A   1      43.294  29.168  33.222  1.00  0.00    -0.354 N 
ATOM     52  N   UNL A   1      43.772  27.074  31.214  1.00  0.00    -0.248 NA
ATOM     53  C   UNL A   1      45.120  25.386  30.324  1.00  0.00     0.031 C 
ATOM     54  C   UNL A   1      44.779  29.417  34.854  1.00  0.00     0.029 A 
ATOM     55  C   UNL A   1      44.490  28.676  33.719  1.00  0.00     0.049 A 
ATOM     56  H   UNL A   1      42.842  28.838  32.413  1.00  0.00     0.167 HD
ATOM     57  C   UNL A   1      44.898  26.917  32.017  1.00  0.00     0.074 A 
ATOM     58  C   UNL A   1      45.677  25.843  31.436  1.00  0.00     0.031 C 
ATOM     59  C   UNL A   1      45.252  27.600  33.134  1.00  0.00     0.037 A 
BRANCH  46  60
ATOM     60  C   UNL A   1      41.293  32.075  34.735  1.00  0.00     0.058 A 
ATOM     61  C   UNL A   1      41.773  33.376  34.516  1.00  0.00     0.135 A 
ATOM     62  C   UNL A   1      40.459  31.865  35.846  1.00  0.00     0.135 A 
ATOM     63  F   UNL A   1      42.585  33.631  33.478  1.00  0.00    -0.206 F 
ATOM     64  C   UNL A   1      41.462  34.422  35.379  1.00  0.00     0.059 A 
ATOM     65  C   UNL A   1      40.112  32.903  36.707  1.00  0.00     0.059 A 
ATOM     66  F   UNL A   1      39.972  30.641  36.105  1.00  0.00    -0.206 F 
ATOM     67  C   UNL A   1      40.630  34.175  36.473  1.00  0.00     0.060 A 
BRANCH  67  68
ATOM     68  S   UNL A   1      40.233  35.546  37.578  1.00  0.00     0.124 S 
ATOM     69  O   UNL A   1      41.478  35.685  38.328  1.00  0.00    -0.237 OA
ATOM     70  O   UNL A   1      39.934  36.625  36.641  1.00  0.00    -0.237 OA
ATOM     71  O   UNL A   1      39.093  35.048  38.342  1.00  0.00    -0.744 OA
ENDBRANCH  67  68
ENDBRANCH  46  60
BRANCH  47  72
ATOM     72  C   UNL A   1      43.264  24.841  28.116  1.00  0.00     0.058 A 
ATOM     73  C   UNL A   1      43.926  25.162  26.922  1.00  0.00     0.135 A 
ATOM     74  C   UNL A   1      42.929  23.496  28.335  1.00  0.00     0.135 A 
ATOM     75  F   UNL A   1      44.264  26.435  26.664  1.00  0.00    -0.206 F 
ATOM     76  C   UNL A   1      44.230  24.192  25.972  1.00  0.00     0.059 A 
ATOM     77  C   UNL A   1      43.244  22.504  27.412  1.00  0.00     0.059 A 
ATOM     78  F   UNL A   1      42.311  23.132  29.470  1.00  0.00    -0.206 F 
ATOM     79  C   UNL A   1      43.886  22.863  26.228  1.00  0.00     0.060 A 
BRANCH  79  80
ATOM     80  S   UNL A   1      44.331  21.604  25.012  1.00  0.00     0.124 S 
ATOM     81  O   UNL A   1      43.327  20.579  25.270  1.00  0.00    -0.237 OA
ATOM     82  O   UNL A   1      44.194  22.331  23.754  1.00  0.00    -0.237 OA
ATOM     83  O   UNL A   1      45.701  21.255  25.377  1.00  0.00    -0.744 OA
ENDBRANCH  79  80
ENDBRANCH  47  72
BRANCH  59  84
ATOM     84  C   UNL A   1      46.520  27.186  33.827  1.00  0.00     0.058 A 
ATOM     85  C   UNL A   1      47.755  27.780  33.527  1.00  0.00     0.135 A 
ATOM     86  C   UNL A   1      46.488  26.217  34.844  1.00  0.00     0.135 A 
ATOM     87  F   UNL A   1      47.843  28.706  32.559  1.00  0.00    -0.206 F 
ATOM     88  C   UNL A   1      48.919  27.414  34.196  1.00  0.00     0.059 A 
ATOM     89  C   UNL A   1      47.633  25.856  35.545  1.00  0.00     0.059 A 
ATOM     90  F   UNL A   1      45.330  25.624  35.177  1.00  0.00    -0.206 F 
ATOM     91  C   UNL A   1      48.847  26.451  35.205  1.00  0.00     0.060 A 
BRANCH  91  92
ATOM     92  S   UNL A   1      50.358  26.010  36.089  1.00  0.00     0.124 S 
ATOM     93  O   UNL A   1      50.178  24.575  36.281  1.00  0.00    -0.237 OA
ATOM     94  O   UNL A   1      51.399  26.397  35.142  1.00  0.00    -0.237 OA
ATOM     95  O   UNL A   1      50.291  26.820  37.302  1.00  0.00    -0.744 OA
ENDBRANCH  91  92
ENDBRANCH  59  84
ENDBRANCH  33  34
ENDBRANCH  25  28
ENDBRANCH  23  24
ENDBRANCH  22  23
ENDBRANCH  21  22
ENDBRANCH   3  21
TORSDOF 21
ENDMDL
MODEL 3
REMARK VINA RESULT:      -9.3      3.073      3.860
REMARK SMILES C[C@@H](CO)CS[C@@H](C)C[C@@](C)([NH3+])C(=O)NCCCNC(=O)c1ccc(-c2c3nc(c(-c4c(F)cc(S(=O)(=O)[O-])cc4F)c4ccc([nH]4)c(-c4c(F)cc(S(=O)(=O)[O-])cc4F)c4nc(c(-c5c(F)cc(S(=O)(=O)[O-])cc5F)c5ccc2[nH]5)C=C4)C=C3)cc1
REMARK SMILES IDX 13 1 14 2 15 3 10 5 11 6 9 7 7 8 8 9 6 10 5 11 2 12 1 13
REMARK SMILES IDX 3 14 4 15 12 17 16 21 17 22 18 23 19 24 20 25 21 27 22 28
REMARK SMILES IDX 23 29 87 30 24 31 86 32 25 33 26 34 27 35 80 36 28 37 85 38
REMARK SMILES IDX 79 39 81 40 29 41 84 42 78 43 77 44 30 46 64 47 43 48 63 49
REMARK SMILES IDX 44 50 47 51 62 52 82 53 45 54 46 55 61 57 83 58 48 59 31 60
REMARK SMILES IDX 32 61 41 62 33 63 34 64 40 65 42 66 35 67 36 68 37 69 38 70
REMARK SMILES IDX 39 71 65 72 66 73 75 74 67 75 68 76 74 77 76 78 69 79 70 80
REMARK SMILES IDX 71 81 72 82 73 83 49 84 50 85 59 86 51 87 52 88 58 89 60 90
REMARK SMILES IDX 53 91 54 92 55 93 56 94 57 95
REMARK H PARENT 15 4 4 16 12 18 12 19 12 20 19 26 81 45 47 56
REMARK Flexibility Score: inf
ROOT
ATOM      1  C   UNL A   1      31.344  28.942  24.349  1.00  0.00     0.281 C 
ATOM      2  O   UNL A   1      31.027  30.073  24.711  1.00  0.00    -0.268 OA
ATOM      3  N   UNL A   1      31.321  28.017  25.352  1.00  0.00    -0.351 N 
ATOM      4  H   UNL A   1      30.503  28.006  25.901  1.00  0.00     0.163 HD
ENDROOT
BRANCH   1   5
ATOM      5  C   UNL A   1      31.835  28.584  22.906  1.00  0.00     0.172 C 
ATOM      6  C   UNL A   1      33.369  28.649  22.811  1.00  0.00     0.090 C 
BRANCH   5   7
ATOM      7  C   UNL A   1      31.369  27.203  22.338  1.00  0.00     0.093 C 
BRANCH   7   8
ATOM      8  C   UNL A   1      32.326  26.002  22.160  1.00  0.00     0.050 C 
ATOM      9  C   UNL A   1      32.556  25.730  20.665  1.00  0.00     0.019 C 
BRANCH   8  10
ATOM     10  S   UNL A   1      31.982  24.417  23.028  1.00  0.00    -0.158 SA
BRANCH  10  11
ATOM     11  C   UNL A   1      33.531  23.415  22.917  1.00  0.00     0.075 C 
BRANCH  11  12
ATOM     12  C   UNL A   1      34.849  23.952  23.528  1.00  0.00     0.021 C 
ATOM     13  C   UNL A   1      34.698  24.479  24.956  1.00  0.00     0.011 C 
BRANCH  12  14
ATOM     14  C   UNL A   1      35.920  22.850  23.534  1.00  0.00     0.160 C 
BRANCH  14  15
ATOM     15  O   UNL A   1      36.749  22.925  22.380  1.00  0.00    -0.396 OA
ATOM     16  H   UNL A   1      36.198  22.883  21.583  1.00  0.00     0.210 HD
ENDBRANCH  14  15
ENDBRANCH  12  14
ENDBRANCH  11  12
ENDBRANCH  10  11
ENDBRANCH   8  10
ENDBRANCH   7   8
ENDBRANCH   5   7
BRANCH   5  17
ATOM     17  N   UNL A   1      31.230  29.575  21.974  1.00  0.00    -0.345 N 
ATOM     18  H   UNL A   1      31.560  30.510  22.211  1.00  0.00     0.345 HD
ATOM     19  H   UNL A   1      30.213  29.543  22.056  1.00  0.00     0.345 HD
ATOM     20  H   UNL A   1      31.501  29.350  21.016  1.00  0.00     0.345 HD
ENDBRANCH   5  17
ENDBRANCH   1   5
BRANCH   3  21
ATOM     21  C   UNL A   1      32.337  27.048  25.722  1.00  0.00     0.118 C 
BRANCH  21  22
ATOM     22  C   UNL A   1      33.294  27.619  26.770  1.00  0.00     0.042 C 
BRANCH  22  23
ATOM     23  C   UNL A   1      34.298  28.637  26.229  1.00  0.00     0.118 C 
BRANCH  23  24
ATOM     24  N   UNL A   1      33.909  30.014  26.512  1.00  0.00    -0.352 N 
ATOM     25  C   UNL A   1      34.381  30.891  27.452  1.00  0.00     0.251 C 
ATOM     26  H   UNL A   1      33.194  30.369  25.936  1.00  0.00     0.163 HD
ATOM     27  O   UNL A   1      33.762  31.937  27.668  1.00  0.00    -0.269 OA
BRANCH  25  28
ATOM     28  C   UNL A   1      35.605  30.586  28.219  1.00  0.00     0.039 A 
ATOM     29  C   UNL A   1      35.536  29.674  29.276  1.00  0.00     0.014 A 
ATOM     30  C   UNL A   1      36.817  31.209  27.913  1.00  0.00     0.014 A 
ATOM     31  C   UNL A   1      36.695  29.334  29.975  1.00  0.00     0.010 A 
ATOM     32  C   UNL A   1      37.985  30.810  28.557  1.00  0.00     0.010 A 
ATOM     33  C   UNL A   1      37.938  29.869  29.596  1.00  0.00    -0.014 A 
BRANCH  33  34
ATOM     34  C   UNL A   1      39.196  29.454  30.268  1.00  0.00     0.031 A 
ATOM     35  C   UNL A   1      39.676  30.181  31.496  1.00  0.00     0.074 A 
ATOM     36  C   UNL A   1      39.944  28.469  29.730  1.00  0.00     0.049 A 
ATOM     37  N   UNL A   1      40.785  30.018  32.172  1.00  0.00    -0.248 NA
ATOM     38  C   UNL A   1      38.810  31.251  32.016  1.00  0.00     0.031 C 
ATOM     39  C   UNL A   1      39.612  27.724  28.513  1.00  0.00     0.029 A 
ATOM     40  N   UNL A   1      41.143  27.932  30.128  1.00  0.00    -0.354 N 
ATOM     41  C   UNL A   1      40.757  30.972  33.182  1.00  0.00     0.074 A 
ATOM     42  C   UNL A   1      39.547  31.745  32.999  1.00  0.00     0.031 C 
ATOM     43  C   UNL A   1      40.571  26.815  28.277  1.00  0.00     0.029 A 
ATOM     44  C   UNL A   1      41.606  26.939  29.299  1.00  0.00     0.049 A 
ATOM     45  H   UNL A   1      41.626  28.231  30.932  1.00  0.00     0.167 HD
ATOM     46  C   UNL A   1      41.646  31.172  34.184  1.00  0.00     0.037 A 
ATOM     47  C   UNL A   1      42.741  26.214  29.348  1.00  0.00     0.037 A 
ATOM     48  C   UNL A   1      42.834  30.380  34.375  1.00  0.00     0.049 A 
ATOM     49  C   UNL A   1      43.713  26.450  30.472  1.00  0.00     0.074 A 
ATOM     50  C   UNL A   1      43.766  30.460  35.395  1.00  0.00     0.029 A 
ATOM     51  N   UNL A   1      43.255  29.364  33.529  1.00  0.00    -0.354 N 
ATOM     52  N   UNL A   1      43.637  27.314  31.457  1.00  0.00    -0.248 NA
ATOM     53  C   UNL A   1      44.918  25.612  30.499  1.00  0.00     0.031 C 
ATOM     54  C   UNL A   1      44.774  29.525  35.141  1.00  0.00     0.029 A 
ATOM     55  C   UNL A   1      44.444  28.824  33.992  1.00  0.00     0.049 A 
ATOM     56  H   UNL A   1      42.780  29.070  32.719  1.00  0.00     0.167 HD
ATOM     57  C   UNL A   1      44.770  27.102  32.236  1.00  0.00     0.074 A 
ATOM     58  C   UNL A   1      45.508  26.022  31.612  1.00  0.00     0.031 C 
ATOM     59  C   UNL A   1      45.163  27.743  33.365  1.00  0.00     0.037 A 
BRANCH  46  60
ATOM     60  C   UNL A   1      41.368  32.287  35.155  1.00  0.00     0.058 A 
ATOM     61  C   UNL A   1      40.556  32.095  36.286  1.00  0.00     0.135 A 
ATOM     62  C   UNL A   1      41.947  33.554  34.975  1.00  0.00     0.135 A 
ATOM     63  F   UNL A   1      39.966  30.909  36.500  1.00  0.00    -0.206 F 
ATOM     64  C   UNL A   1      40.306  33.126  37.185  1.00  0.00     0.059 A 
ATOM     65  C   UNL A   1      41.733  34.591  35.879  1.00  0.00     0.059 A 
ATOM     66  F   UNL A   1      42.731  33.793  33.912  1.00  0.00    -0.206 F 
ATOM     67  C   UNL A   1      40.900  34.371  36.973  1.00  0.00     0.060 A 
BRANCH  67  68
ATOM     68  S   UNL A   1      40.569  35.695  38.155  1.00  0.00     0.124 S 
ATOM     69  O   UNL A   1      39.433  35.149  38.893  1.00  0.00    -0.237 OA
ATOM     70  O   UNL A   1      41.825  35.775  38.894  1.00  0.00    -0.237 OA
ATOM     71  O   UNL A   1      40.269  36.843  37.305  1.00  0.00    -0.744 OA
ENDBRANCH  67  68
ENDBRANCH  46  60
BRANCH  47  72
ATOM     72  C   UNL A   1      43.010  25.183  28.310  1.00  0.00     0.058 A 
ATOM     73  C   UNL A   1      43.497  25.544  27.045  1.00  0.00     0.135 A 
ATOM     74  C   UNL A   1      42.803  23.818  28.564  1.00  0.00     0.135 A 
ATOM     75  F   UNL A   1      43.708  26.836  26.751  1.00  0.00    -0.206 F 
ATOM     76  C   UNL A   1      43.754  24.591  26.063  1.00  0.00     0.059 A 
ATOM     77  C   UNL A   1      43.076  22.846  27.608  1.00  0.00     0.059 A 
ATOM     78  F   UNL A   1      42.355  23.418  29.765  1.00  0.00    -0.206 F 
ATOM     79  C   UNL A   1      43.541  23.243  26.356  1.00  0.00     0.060 A 
BRANCH  79  80
ATOM     80  S   UNL A   1      43.926  22.012  25.092  1.00  0.00     0.124 S 
ATOM     81  O   UNL A   1      42.870  21.030  25.307  1.00  0.00    -0.237 OA
ATOM     82  O   UNL A   1      43.832  22.793  23.863  1.00  0.00    -0.237 OA
ATOM     83  O   UNL A   1      45.274  21.578  25.446  1.00  0.00    -0.744 OA
ENDBRANCH  79  80
ENDBRANCH  47  72
BRANCH  59  84
ATOM     84  C   UNL A   1      46.430  27.272  34.024  1.00  0.00     0.058 A 
ATOM     85  C   UNL A   1      47.670  27.870  33.754  1.00  0.00     0.135 A 
ATOM     86  C   UNL A   1      46.391  26.243  34.979  1.00  0.00     0.135 A 
ATOM     87  F   UNL A   1      47.764  28.853  32.845  1.00  0.00    -0.206 F 
ATOM     88  C   UNL A   1      48.833  27.450  34.393  1.00  0.00     0.059 A 
ATOM     89  C   UNL A   1      47.536  25.826  35.650  1.00  0.00     0.059 A 
ATOM     90  F   UNL A   1      45.228  25.644  35.281  1.00  0.00    -0.206 F 
ATOM     91  C   UNL A   1      48.755  26.428  35.342  1.00  0.00     0.060 A 
BRANCH  91  92
ATOM     92  S   UNL A   1      50.265  25.916  36.188  1.00  0.00     0.124 S 
ATOM     93  O   UNL A   1      50.258  26.791  37.356  1.00  0.00    -0.237 OA
ATOM     94  O   UNL A   1      50.011  24.503  36.453  1.00  0.00    -0.237 OA
ATOM     95  O   UNL A   1      51.312  26.186  35.208  1.00  0.00    -0.744 OA
ENDBRANCH  91  92
ENDBRANCH  59  84
ENDBRANCH  33  34
ENDBRANCH  25  28
ENDBRANCH  23  24
ENDBRANCH  22  23
ENDBRANCH  21  22
ENDBRANCH   3  21
TORSDOF 21
ENDMDL
