MODEL 1
REMARK VINA RESULT:     -12.1      0.000      0.000
REMARK SMILES O=C(NCCCNC(=O)c1cc(NC(=S)NC(=O)c2ccccc2F)ccc1Cl)c1ccc(-c2c3nc(c(-c4c(F)cc(S(=O)(=O)[O-])cc4F)c4ccc([nH]4)c(-c4c(F)cc(S(=O)(=O)[O-])cc4F)c4nc(c(-c5c(F)cc(S(=O)(=O)[O-])cc5F)c5ccc2[nH]5)C=C4)C=C3)cc1
REMARK SMILES IDX 5 1 4 2 3 3 1 4 2 5 30 7 31 8 95 9 32 10 94 11 33 12 34 13
REMARK SMILES IDX 35 14 88 15 36 16 93 17 87 18 89 19 37 20 92 21 86 22 85 23
REMARK SMILES IDX 38 25 72 26 51 27 71 28 52 29 55 30 70 31 90 32 53 33 54 34
REMARK SMILES IDX 69 36 91 37 56 38 39 39 40 40 49 41 41 42 42 43 48 44 50 45
REMARK SMILES IDX 43 46 44 47 45 48 46 49 47 50 73 51 74 52 83 53 75 54 76 55
REMARK SMILES IDX 82 56 84 57 77 58 78 59 79 60 80 61 81 62 57 63 58 64 67 65
REMARK SMILES IDX 59 66 60 67 66 68 68 69 61 70 62 71 63 72 64 73 65 74 6 75
REMARK SMILES IDX 7 76 8 77 9 79 10 80 11 81 28 82 12 83 27 84 29 85 26 86
REMARK SMILES IDX 13 87 14 89 15 90 16 91 17 92 18 94 19 95 20 96 24 97 21 98
REMARK SMILES IDX 23 99 25 100 22 101
REMARK H PARENT 3 6 89 24 55 35 7 78 13 88 16 93
REMARK Flexibility Score: inf
ROOT
ATOM      1  C   UNL A   1      37.585  24.207  25.759  1.00  0.00     0.042 C 
ENDROOT
BRANCH   1   2
ATOM      2  C   UNL A   1      38.719  24.010  26.763  1.00  0.00     0.118 C 
BRANCH   2   3
ATOM      3  N   UNL A   1      40.034  24.221  26.163  1.00  0.00    -0.352 N 
ATOM      4  O   UNL A   1      41.878  25.390  25.601  1.00  0.00    -0.269 OA
ATOM      5  C   UNL A   1      40.935  25.235  26.369  1.00  0.00     0.251 C 
ATOM      6  H   UNL A   1      40.315  23.535  25.516  1.00  0.00     0.163 HD
BRANCH   5   7
ATOM      7  C   UNL A   1      40.739  26.143  27.513  1.00  0.00     0.039 A 
ATOM      8  C   UNL A   1      41.514  27.298  27.620  1.00  0.00     0.014 A 
ATOM      9  C   UNL A   1      39.787  25.834  28.486  1.00  0.00     0.014 A 
ATOM     10  C   UNL A   1      41.464  28.053  28.780  1.00  0.00     0.010 A 
ATOM     11  C   UNL A   1      39.654  26.663  29.601  1.00  0.00     0.010 A 
ATOM     12  C   UNL A   1      40.511  27.763  29.768  1.00  0.00    -0.014 A 
BRANCH  12  13
ATOM     13  C   UNL A   1      40.363  28.687  30.917  1.00  0.00     0.031 A 
ATOM     14  C   UNL A   1      39.319  29.764  30.922  1.00  0.00     0.074 A 
ATOM     15  C   UNL A   1      41.196  28.531  31.964  1.00  0.00     0.049 A 
ATOM     16  N   UNL A   1      39.088  30.674  31.832  1.00  0.00    -0.248 NA
ATOM     17  C   UNL A   1      38.425  29.838  29.757  1.00  0.00     0.031 C 
ATOM     18  C   UNL A   1      42.248  27.514  32.055  1.00  0.00     0.029 A 
ATOM     19  N   UNL A   1      41.291  29.209  33.151  1.00  0.00    -0.354 N 
ATOM     20  C   UNL A   1      38.043  31.447  31.340  1.00  0.00     0.074 A 
ATOM     21  C   UNL A   1      37.697  30.910  30.041  1.00  0.00     0.031 C 
ATOM     22  C   UNL A   1      42.850  27.605  33.247  1.00  0.00     0.029 A 
ATOM     23  C   UNL A   1      42.289  28.740  33.969  1.00  0.00     0.049 A 
ATOM     24  H   UNL A   1      40.700  29.959  33.394  1.00  0.00     0.167 HD
ATOM     25  C   UNL A   1      37.436  32.507  31.927  1.00  0.00     0.037 A 
ATOM     26  C   UNL A   1      42.737  29.191  35.157  1.00  0.00     0.037 A 
ATOM     27  C   UNL A   1      37.794  33.012  33.229  1.00  0.00     0.049 A 
ATOM     28  C   UNL A   1      42.074  30.385  35.769  1.00  0.00     0.074 A 
ATOM     29  C   UNL A   1      37.207  34.048  33.936  1.00  0.00     0.029 A 
ATOM     30  N   UNL A   1      38.834  32.532  34.013  1.00  0.00    -0.354 N 
ATOM     31  N   UNL A   1      41.066  31.088  35.307  1.00  0.00    -0.248 NA
ATOM     32  C   UNL A   1      42.605  30.858  37.051  1.00  0.00     0.031 C 
ATOM     33  C   UNL A   1      37.935  34.236  35.115  1.00  0.00     0.029 A 
ATOM     34  C   UNL A   1      38.933  33.276  35.179  1.00  0.00     0.049 A 
ATOM     35  H   UNL A   1      39.417  31.776  33.776  1.00  0.00     0.167 HD
ATOM     36  C   UNL A   1      40.835  32.081  36.247  1.00  0.00     0.074 A 
ATOM     37  C   UNL A   1      41.800  31.882  37.310  1.00  0.00     0.031 C 
ATOM     38  C   UNL A   1      39.904  33.068  36.226  1.00  0.00     0.037 A 
BRANCH  25  39
ATOM     39  C   UNL A   1      36.351  33.216  31.161  1.00  0.00     0.058 A 
ATOM     40  C   UNL A   1      36.675  34.018  30.054  1.00  0.00     0.135 A 
ATOM     41  C   UNL A   1      35.001  33.150  31.544  1.00  0.00     0.135 A 
ATOM     42  F   UNL A   1      37.948  34.119  29.641  1.00  0.00    -0.206 F 
ATOM     43  C   UNL A   1      35.704  34.732  29.359  1.00  0.00     0.059 A 
ATOM     44  C   UNL A   1      34.008  33.834  30.845  1.00  0.00     0.059 A 
ATOM     45  F   UNL A   1      34.630  32.386  32.584  1.00  0.00    -0.206 F 
ATOM     46  C   UNL A   1      34.372  34.630  29.760  1.00  0.00     0.060 A 
BRANCH  46  47
ATOM     47  S   UNL A   1      33.117  35.513  28.808  1.00  0.00     0.124 S 
ATOM     48  O   UNL A   1      32.299  36.104  29.860  1.00  0.00    -0.237 OA
ATOM     49  O   UNL A   1      33.926  36.446  28.027  1.00  0.00    -0.237 OA
ATOM     50  O   UNL A   1      32.476  34.455  28.031  1.00  0.00    -0.744 OA
ENDBRANCH  46  47
ENDBRANCH  25  39
BRANCH  26  51
ATOM     51  C   UNL A   1      43.875  28.489  35.804  1.00  0.00     0.058 A 
ATOM     52  C   UNL A   1      43.654  27.488  36.764  1.00  0.00     0.135 A 
ATOM     53  C   UNL A   1      45.197  28.892  35.571  1.00  0.00     0.135 A 
ATOM     54  F   UNL A   1      42.404  27.080  37.037  1.00  0.00    -0.206 F 
ATOM     55  C   UNL A   1      44.696  26.951  37.509  1.00  0.00     0.059 A 
ATOM     56  C   UNL A   1      46.261  28.349  36.284  1.00  0.00     0.059 A 
ATOM     57  F   UNL A   1      45.457  29.840  34.658  1.00  0.00    -0.206 F 
ATOM     58  C   UNL A   1      45.996  27.397  37.270  1.00  0.00     0.060 A 
BRANCH  58  59
ATOM     59  S   UNL A   1      47.326  26.736  38.296  1.00  0.00     0.124 S 
ATOM     60  O   UNL A   1      47.283  25.318  37.954  1.00  0.00    -0.237 OA
ATOM     61  O   UNL A   1      48.484  27.473  37.804  1.00  0.00    -0.237 OA
ATOM     62  O   UNL A   1      46.903  27.068  39.653  1.00  0.00    -0.744 OA
ENDBRANCH  58  59
ENDBRANCH  26  51
BRANCH  38  63
ATOM     63  C   UNL A   1      39.865  34.014  37.394  1.00  0.00     0.058 A 
ATOM     64  C   UNL A   1      40.642  35.182  37.385  1.00  0.00     0.135 A 
ATOM     65  C   UNL A   1      39.151  33.707  38.562  1.00  0.00     0.135 A 
ATOM     66  F   UNL A   1      41.344  35.520  36.291  1.00  0.00    -0.206 F 
ATOM     67  C   UNL A   1      40.744  35.995  38.508  1.00  0.00     0.059 A 
ATOM     68  C   UNL A   1      39.216  34.521  39.689  1.00  0.00     0.059 A 
ATOM     69  F   UNL A   1      38.380  32.609  38.615  1.00  0.00    -0.206 F 
ATOM     70  C   UNL A   1      40.034  35.650  39.659  1.00  0.00     0.060 A 
BRANCH  70  71
ATOM     71  S   UNL A   1      40.206  36.701  41.116  1.00  0.00     0.124 S 
ATOM     72  O   UNL A   1      41.604  37.110  41.027  1.00  0.00    -0.237 OA
ATOM     73  O   UNL A   1      39.220  37.747  40.858  1.00  0.00    -0.237 OA
ATOM     74  O   UNL A   1      39.884  35.804  42.222  1.00  0.00    -0.744 OA
ENDBRANCH  70  71
ENDBRANCH  38  63
ENDBRANCH  12  13
ENDBRANCH   5   7
ENDBRANCH   2   3
ENDBRANCH   1   2
BRANCH   1  75
ATOM     75  C   UNL A   1      36.315  23.456  26.140  1.00  0.00     0.118 C 
BRANCH  75  76
ATOM     76  N   UNL A   1      36.310  22.137  25.537  1.00  0.00    -0.352 N 
ATOM     77  C   UNL A   1      35.313  21.344  25.054  1.00  0.00     0.252 C 
ATOM     78  H   UNL A   1      37.205  21.735  25.462  1.00  0.00     0.163 HD
ATOM     79  O   UNL A   1      35.626  20.215  24.684  1.00  0.00    -0.269 OA
BRANCH  77  80
ATOM     80  C   UNL A   1      33.904  21.888  24.837  1.00  0.00     0.060 A 
ATOM     81  C   UNL A   1      32.846  22.689  23.315  1.00  0.00     0.041 A 
ATOM     82  C   UNL A   1      33.116  22.019  26.469  1.00  0.00     0.053 A 
ATOM     83  C   UNL A   1      31.399  23.560  23.548  1.00  0.00     0.041 A 
ATOM     84  C   UNL A   1      31.538  22.846  26.581  1.00  0.00     0.023 A 
ATOM     85  Cl  UNL A   1      33.845  21.479  27.930  1.00  0.00    -0.083 Cl
ATOM     86  C   UNL A   1      30.725  23.600  25.165  1.00  0.00     0.028 A 
BRANCH  83  87
ATOM     87  N   UNL A   1      31.266  24.531  22.538  1.00  0.00    -0.332 N 
ATOM     88  H   UNL A   1      31.093  24.168  21.639  1.00  0.00     0.169 HD
BRANCH  87  89
ATOM     89  C   UNL A   1      31.338  25.909  22.602  1.00  0.00     0.177 C 
ATOM     90  S   UNL A   1      29.943  26.688  23.137  1.00  0.00    -0.040 S 
BRANCH  89  91
ATOM     91  N   UNL A   1      32.443  26.776  22.299  1.00  0.00    -0.299 N 
ATOM     92  C   UNL A   1      33.608  27.674  22.625  1.00  0.00     0.260 C 
ATOM     93  H   UNL A   1      32.434  26.795  21.313  1.00  0.00     0.172 HD
ATOM     94  O   UNL A   1      34.299  28.110  21.708  1.00  0.00    -0.269 OA
BRANCH  92  95
ATOM     95  C   UNL A   1      33.938  28.055  24.061  1.00  0.00     0.075 A 
ATOM     96  C   UNL A   1      32.922  29.451  24.342  1.00  0.00     0.017 A 
ATOM     97  C   UNL A   1      33.961  26.616  25.146  1.00  0.00     0.135 A 
ATOM     98  C   UNL A   1      31.666  29.325  25.582  1.00  0.00     0.001 A 
ATOM     99  C   UNL A   1      32.751  26.346  26.432  1.00  0.00     0.040 A 
ATOM    100  F   UNL A   1      34.614  25.523  24.719  1.00  0.00    -0.206 F 
ATOM    101  C   UNL A   1      31.503  27.635  26.691  1.00  0.00     0.003 A 
ENDBRANCH  92  95
ENDBRANCH  89  91
ENDBRANCH  87  89
ENDBRANCH  83  87
ENDBRANCH  77  80
ENDBRANCH  75  76
ENDBRANCH   1  75
TORSDOF 17
ENDMDL
MODEL 2
REMARK VINA RESULT:     -11.7      1.490      2.041
REMARK SMILES O=C(NCCCNC(=O)c1cc(NC(=S)NC(=O)c2ccccc2F)ccc1Cl)c1ccc(-c2c3nc(c(-c4c(F)cc(S(=O)(=O)[O-])cc4F)c4ccc([nH]4)c(-c4c(F)cc(S(=O)(=O)[O-])cc4F)c4nc(c(-c5c(F)cc(S(=O)(=O)[O-])cc5F)c5ccc2[nH]5)C=C4)C=C3)cc1
REMARK SMILES IDX 5 1 4 2 3 3 1 4 2 5 30 7 31 8 95 9 32 10 94 11 33 12 34 13
REMARK SMILES IDX 35 14 88 15 36 16 93 17 87 18 89 19 37 20 92 21 86 22 85 23
REMARK SMILES IDX 38 25 72 26 51 27 71 28 52 29 55 30 70 31 90 32 53 33 54 34
REMARK SMILES IDX 69 36 91 37 56 38 39 39 40 40 49 41 41 42 42 43 48 44 50 45
REMARK SMILES IDX 43 46 44 47 45 48 46 49 47 50 73 51 74 52 83 53 75 54 76 55
REMARK SMILES IDX 82 56 84 57 77 58 78 59 79 60 80 61 81 62 57 63 58 64 67 65
REMARK SMILES IDX 59 66 60 67 66 68 68 69 61 70 62 71 63 72 64 73 65 74 6 75
REMARK SMILES IDX 7 76 8 77 9 79 10 80 11 81 28 82 12 83 27 84 29 85 26 86
REMARK SMILES IDX 13 87 14 89 15 90 16 91 17 92 18 94 19 95 20 96 24 97 21 98
REMARK SMILES IDX 23 99 25 100 22 101
REMARK H PARENT 3 6 89 24 55 35 7 78 13 88 16 93
REMARK Flexibility Score: inf
ROOT
ATOM      1  C   UNL A   1      38.900  24.551  26.398  1.00  0.00     0.042 C 
ENDROOT
BRANCH   1   2
ATOM      2  C   UNL A   1      40.182  23.904  26.917  1.00  0.00     0.118 C 
BRANCH   2   3
ATOM      3  N   UNL A   1      41.372  24.399  26.231  1.00  0.00    -0.352 N 
ATOM      4  O   UNL A   1      42.862  25.947  25.547  1.00  0.00    -0.269 OA
ATOM      5  C   UNL A   1      42.031  25.593  26.377  1.00  0.00     0.251 C 
ATOM      6  H   UNL A   1      41.759  23.785  25.565  1.00  0.00     0.163 HD
BRANCH   5   7
ATOM      7  C   UNL A   1      41.711  26.450  27.532  1.00  0.00     0.039 A 
ATOM      8  C   UNL A   1      42.221  27.747  27.595  1.00  0.00     0.014 A 
ATOM      9  C   UNL A   1      40.909  25.952  28.560  1.00  0.00     0.014 A 
ATOM     10  C   UNL A   1      42.076  28.485  28.758  1.00  0.00     0.010 A 
ATOM     11  C   UNL A   1      40.665  26.744  29.684  1.00  0.00     0.010 A 
ATOM     12  C   UNL A   1      41.269  28.005  29.801  1.00  0.00    -0.014 A 
BRANCH  12  13
ATOM     13  C   UNL A   1      40.993  28.887  30.959  1.00  0.00     0.031 A 
ATOM     14  C   UNL A   1      39.881  29.894  30.923  1.00  0.00     0.074 A 
ATOM     15  C   UNL A   1      41.770  28.759  32.051  1.00  0.00     0.049 A 
ATOM     16  N   UNL A   1      39.537  30.764  31.836  1.00  0.00    -0.248 NA
ATOM     17  C   UNL A   1      39.057  29.942  29.707  1.00  0.00     0.031 C 
ATOM     18  C   UNL A   1      42.879  27.809  32.184  1.00  0.00     0.029 A 
ATOM     19  N   UNL A   1      41.749  29.409  33.256  1.00  0.00    -0.354 N 
ATOM     20  C   UNL A   1      38.475  31.481  31.299  1.00  0.00     0.074 A 
ATOM     21  C   UNL A   1      38.244  30.957  29.970  1.00  0.00     0.031 C 
ATOM     22  C   UNL A   1      43.401  27.907  33.413  1.00  0.00     0.029 A 
ATOM     23  C   UNL A   1      42.725  28.985  34.124  1.00  0.00     0.049 A 
ATOM     24  H   UNL A   1      41.096  30.113  33.479  1.00  0.00     0.167 HD
ATOM     25  C   UNL A   1      37.766  32.485  31.870  1.00  0.00     0.037 A 
ATOM     26  C   UNL A   1      43.070  29.432  35.346  1.00  0.00     0.037 A 
ATOM     27  C   UNL A   1      38.011  32.977  33.203  1.00  0.00     0.049 A 
ATOM     28  C   UNL A   1      42.294  30.565  35.943  1.00  0.00     0.074 A 
ATOM     29  C   UNL A   1      37.316  33.954  33.895  1.00  0.00     0.029 A 
ATOM     30  N   UNL A   1      39.032  32.545  34.039  1.00  0.00    -0.354 N 
ATOM     31  N   UNL A   1      41.272  31.213  35.435  1.00  0.00    -0.248 NA
ATOM     32  C   UNL A   1      42.715  31.038  37.266  1.00  0.00     0.031 C 
ATOM     33  C   UNL A   1      37.957  34.158  35.121  1.00  0.00     0.029 A 
ATOM     34  C   UNL A   1      39.011  33.263  35.224  1.00  0.00     0.049 A 
ATOM     35  H   UNL A   1      39.676  31.834  33.822  1.00  0.00     0.167 HD
ATOM     36  C   UNL A   1      40.920  32.165  36.381  1.00  0.00     0.074 A 
ATOM     37  C   UNL A   1      41.830  32.000  37.497  1.00  0.00     0.031 C 
ATOM     38  C   UNL A   1      39.929  33.090  36.325  1.00  0.00     0.037 A 
BRANCH  25  39
ATOM     39  C   UNL A   1      36.685  33.142  31.055  1.00  0.00     0.058 A 
ATOM     40  C   UNL A   1      35.333  32.862  31.318  1.00  0.00     0.135 A 
ATOM     41  C   UNL A   1      36.974  34.004  29.985  1.00  0.00     0.135 A 
ATOM     42  F   UNL A   1      34.995  32.047  32.328  1.00  0.00    -0.206 F 
ATOM     43  C   UNL A   1      34.310  33.408  30.547  1.00  0.00     0.059 A 
ATOM     44  C   UNL A   1      35.965  34.584  29.218  1.00  0.00     0.059 A 
ATOM     45  F   UNL A   1      38.248  34.321  29.698  1.00  0.00    -0.206 F 
ATOM     46  C   UNL A   1      34.637  34.271  29.502  1.00  0.00     0.060 A 
BRANCH  46  47
ATOM     47  S   UNL A   1      33.295  35.020  28.554  1.00  0.00     0.124 S 
ATOM     48  O   UNL A   1      32.468  35.600  29.604  1.00  0.00    -0.237 OA
ATOM     49  O   UNL A   1      34.012  35.969  27.707  1.00  0.00    -0.237 OA
ATOM     50  O   UNL A   1      32.708  33.885  27.845  1.00  0.00    -0.744 OA
ENDBRANCH  46  47
ENDBRANCH  25  39
BRANCH  26  51
ATOM     51  C   UNL A   1      44.211  28.788  36.047  1.00  0.00     0.058 A 
ATOM     52  C   UNL A   1      44.003  27.714  36.928  1.00  0.00     0.135 A 
ATOM     53  C   UNL A   1      45.506  29.314  35.949  1.00  0.00     0.135 A 
ATOM     54  F   UNL A   1      42.777  27.187  37.071  1.00  0.00    -0.206 F 
ATOM     55  C   UNL A   1      45.026  27.220  37.727  1.00  0.00     0.059 A 
ATOM     56  C   UNL A   1      46.554  28.817  36.718  1.00  0.00     0.059 A 
ATOM     57  F   UNL A   1      45.753  30.336  35.115  1.00  0.00    -0.206 F 
ATOM     58  C   UNL A   1      46.297  27.787  37.623  1.00  0.00     0.060 A 
BRANCH  58  59
ATOM     59  S   UNL A   1      47.595  27.176  38.718  1.00  0.00     0.124 S 
ATOM     60  O   UNL A   1      48.559  26.644  37.761  1.00  0.00    -0.237 OA
ATOM     61  O   UNL A   1      47.998  28.389  39.419  1.00  0.00    -0.237 OA
ATOM     62  O   UNL A   1      46.907  26.181  39.535  1.00  0.00    -0.744 OA
ENDBRANCH  58  59
ENDBRANCH  26  51
BRANCH  38  63
ATOM     63  C   UNL A   1      39.758  34.001  37.509  1.00  0.00     0.058 A 
ATOM     64  C   UNL A   1      40.495  35.192  37.598  1.00  0.00     0.135 A 
ATOM     65  C   UNL A   1      38.955  33.639  38.601  1.00  0.00     0.135 A 
ATOM     66  F   UNL A   1      41.278  35.581  36.580  1.00  0.00    -0.206 F 
ATOM     67  C   UNL A   1      40.473  35.975  38.746  1.00  0.00     0.059 A 
ATOM     68  C   UNL A   1      38.895  34.423  39.750  1.00  0.00     0.059 A 
ATOM     69  F   UNL A   1      38.218  32.518  38.557  1.00  0.00    -0.206 F 
ATOM     70  C   UNL A   1      39.676  35.576  39.821  1.00  0.00     0.060 A 
BRANCH  70  71
ATOM     71  S   UNL A   1      39.686  36.590  41.315  1.00  0.00     0.124 S 
ATOM     72  O   UNL A   1      41.108  36.621  41.645  1.00  0.00    -0.237 OA
ATOM     73  O   UNL A   1      39.117  37.846  40.836  1.00  0.00    -0.237 OA
ATOM     74  O   UNL A   1      38.843  35.839  42.240  1.00  0.00    -0.744 OA
ENDBRANCH  70  71
ENDBRANCH  38  63
ENDBRANCH  12  13
ENDBRANCH   5   7
ENDBRANCH   2   3
ENDBRANCH   1   2
BRANCH   1  75
ATOM     75  C   UNL A   1      37.807  23.538  26.084  1.00  0.00     0.118 C 
BRANCH  75  76
ATOM     76  N   UNL A   1      37.598  23.449  24.652  1.00  0.00    -0.352 N 
ATOM     77  C   UNL A   1      36.506  23.159  23.892  1.00  0.00     0.252 C 
ATOM     78  H   UNL A   1      38.407  23.636  24.123  1.00  0.00     0.163 HD
ATOM     79  O   UNL A   1      36.677  23.069  22.677  1.00  0.00    -0.269 OA
BRANCH  77  80
ATOM     80  C   UNL A   1      35.109  23.104  24.502  1.00  0.00     0.060 A 
ATOM     81  C   UNL A   1      33.661  24.418  25.007  1.00  0.00     0.041 A 
ATOM     82  C   UNL A   1      34.848  21.409  25.105  1.00  0.00     0.053 A 
ATOM     83  C   UNL A   1      32.370  24.022  26.048  1.00  0.00     0.041 A 
ATOM     84  C   UNL A   1      33.394  21.077  26.087  1.00  0.00     0.023 A 
ATOM     85  Cl  UNL A   1      35.969  20.126  24.869  1.00  0.00    -0.083 Cl
ATOM     86  C   UNL A   1      32.211  22.350  26.548  1.00  0.00     0.028 A 
BRANCH  83  87
ATOM     87  N   UNL A   1      31.963  25.171  26.750  1.00  0.00    -0.332 N 
ATOM     88  H   UNL A   1      32.231  25.192  27.697  1.00  0.00     0.169 HD
BRANCH  87  89
ATOM     89  C   UNL A   1      31.249  26.277  26.328  1.00  0.00     0.177 C 
ATOM     90  S   UNL A   1      31.701  27.745  27.022  1.00  0.00    -0.040 S 
BRANCH  89  91
ATOM     91  N   UNL A   1      30.190  26.359  25.361  1.00  0.00    -0.299 N 
ATOM     92  C   UNL A   1      29.578  26.698  24.026  1.00  0.00     0.260 C 
ATOM     93  H   UNL A   1      29.426  25.974  25.850  1.00  0.00     0.172 HD
ATOM     94  O   UNL A   1      28.417  26.366  23.803  1.00  0.00    -0.269 OA
BRANCH  92  95
ATOM     95  C   UNL A   1      30.364  27.448  22.960  1.00  0.00     0.075 A 
ATOM     96  C   UNL A   1      30.670  28.997  23.712  1.00  0.00     0.017 A 
ATOM     97  C   UNL A   1      31.663  26.424  22.244  1.00  0.00     0.135 A 
ATOM     98  C   UNL A   1      32.352  29.445  24.031  1.00  0.00     0.001 A 
ATOM     99  C   UNL A   1      33.402  26.743  22.491  1.00  0.00     0.040 A 
ATOM    100  F   UNL A   1      31.344  25.168  21.890  1.00  0.00    -0.206 F 
ATOM    101  C   UNL A   1      33.856  28.221  23.440  1.00  0.00     0.003 A 
ENDBRANCH  92  95
ENDBRANCH  89  91
ENDBRANCH  87  89
ENDBRANCH  83  87
ENDBRANCH  77  80
ENDBRANCH  75  76
ENDBRANCH   1  75
TORSDOF 17
ENDMDL
MODEL 3
REMARK VINA RESULT:     -11.7      6.713     12.244
REMARK SMILES O=C(NCCCNC(=O)c1cc(NC(=S)NC(=O)c2ccccc2F)ccc1Cl)c1ccc(-c2c3nc(c(-c4c(F)cc(S(=O)(=O)[O-])cc4F)c4ccc([nH]4)c(-c4c(F)cc(S(=O)(=O)[O-])cc4F)c4nc(c(-c5c(F)cc(S(=O)(=O)[O-])cc5F)c5ccc2[nH]5)C=C4)C=C3)cc1
REMARK SMILES IDX 5 1 4 2 3 3 1 4 2 5 30 7 31 8 95 9 32 10 94 11 33 12 34 13
REMARK SMILES IDX 35 14 88 15 36 16 93 17 87 18 89 19 37 20 92 21 86 22 85 23
REMARK SMILES IDX 38 25 72 26 51 27 71 28 52 29 55 30 70 31 90 32 53 33 54 34
REMARK SMILES IDX 69 36 91 37 56 38 39 39 40 40 49 41 41 42 42 43 48 44 50 45
REMARK SMILES IDX 43 46 44 47 45 48 46 49 47 50 73 51 74 52 83 53 75 54 76 55
REMARK SMILES IDX 82 56 84 57 77 58 78 59 79 60 80 61 81 62 57 63 58 64 67 65
REMARK SMILES IDX 59 66 60 67 66 68 68 69 61 70 62 71 63 72 64 73 65 74 6 75
REMARK SMILES IDX 7 76 8 77 9 79 10 80 11 81 28 82 12 83 27 84 29 85 26 86
REMARK SMILES IDX 13 87 14 89 15 90 16 91 17 92 18 94 19 95 20 96 24 97 21 98
REMARK SMILES IDX 23 99 25 100 22 101
REMARK H PARENT 3 6 89 24 55 35 7 78 13 88 16 93
REMARK Flexibility Score: inf
ROOT
ATOM      1  C   UNL A   1      36.103  33.207  31.969  1.00  0.00     0.042 C 
ENDROOT
BRANCH   1   2
ATOM      2  C   UNL A   1      37.238  32.185  32.010  1.00  0.00     0.118 C 
BRANCH   2   3
ATOM      3  N   UNL A   1      36.915  31.029  32.841  1.00  0.00    -0.352 N 
ATOM      4  O   UNL A   1      36.852  28.845  33.398  1.00  0.00    -0.269 OA
ATOM      5  C   UNL A   1      37.414  29.752  32.792  1.00  0.00     0.251 C 
ATOM      6  H   UNL A   1      36.239  31.189  33.539  1.00  0.00     0.163 HD
BRANCH   5   7
ATOM      7  C   UNL A   1      38.619  29.486  31.987  1.00  0.00     0.039 A 
ATOM      8  C   UNL A   1      39.759  28.964  32.599  1.00  0.00     0.014 A 
ATOM      9  C   UNL A   1      38.613  29.768  30.620  1.00  0.00     0.014 A 
ATOM     10  C   UNL A   1      40.944  28.887  31.888  1.00  0.00     0.010 A 
ATOM     11  C   UNL A   1      39.779  29.578  29.877  1.00  0.00     0.010 A 
ATOM     12  C   UNL A   1      40.959  29.162  30.512  1.00  0.00    -0.014 A 
BRANCH  12  13
ATOM     13  C   UNL A   1      42.200  28.907  29.742  1.00  0.00     0.031 A 
ATOM     14  C   UNL A   1      42.428  27.599  29.044  1.00  0.00     0.074 A 
ATOM     15  C   UNL A   1      43.121  29.887  29.685  1.00  0.00     0.049 A 
ATOM     16  N   UNL A   1      43.474  27.207  28.364  1.00  0.00    -0.248 NA
ATOM     17  C   UNL A   1      41.354  26.598  29.124  1.00  0.00     0.031 C 
ATOM     18  C   UNL A   1      42.994  31.197  30.332  1.00  0.00     0.029 A 
ATOM     19  N   UNL A   1      44.334  29.950  29.052  1.00  0.00    -0.354 N 
ATOM     20  C   UNL A   1      43.199  25.906  27.959  1.00  0.00     0.074 A 
ATOM     21  C   UNL A   1      41.894  25.568  28.485  1.00  0.00     0.031 C 
ATOM     22  C   UNL A   1      44.060  31.946  30.028  1.00  0.00     0.029 A 
ATOM     23  C   UNL A   1      44.987  31.145  29.240  1.00  0.00     0.049 A 
ATOM     24  H   UNL A   1      44.702  29.211  28.515  1.00  0.00     0.167 HD
ATOM     25  C   UNL A   1      43.973  25.079  27.216  1.00  0.00     0.037 A 
ATOM     26  C   UNL A   1      46.213  31.546  28.854  1.00  0.00     0.037 A 
ATOM     27  C   UNL A   1      45.264  25.448  26.692  1.00  0.00     0.049 A 
ATOM     28  C   UNL A   1      47.063  30.602  28.064  1.00  0.00     0.074 A 
ATOM     29  C   UNL A   1      46.106  24.703  25.885  1.00  0.00     0.029 A 
ATOM     30  N   UNL A   1      45.908  26.655  26.932  1.00  0.00    -0.354 N 
ATOM     31  N   UNL A   1      46.778  29.385  27.661  1.00  0.00    -0.248 NA
ATOM     32  C   UNL A   1      48.400  31.068  27.682  1.00  0.00     0.031 C 
ATOM     33  C   UNL A   1      47.284  25.432  25.693  1.00  0.00     0.029 A 
ATOM     34  C   UNL A   1      47.152  26.660  26.322  1.00  0.00     0.049 A 
ATOM     35  H   UNL A   1      45.535  27.398  27.459  1.00  0.00     0.167 HD
ATOM     36  C   UNL A   1      47.896  28.944  26.968  1.00  0.00     0.074 A 
ATOM     37  C   UNL A   1      48.859  30.028  26.997  1.00  0.00     0.031 C 
ATOM     38  C   UNL A   1      48.102  27.747  26.364  1.00  0.00     0.037 A 
BRANCH  25  39
ATOM     39  C   UNL A   1      43.469  23.685  26.950  1.00  0.00     0.058 A 
ATOM     40  C   UNL A   1      43.536  22.706  27.954  1.00  0.00     0.135 A 
ATOM     41  C   UNL A   1      42.969  23.298  25.696  1.00  0.00     0.135 A 
ATOM     42  F   UNL A   1      44.004  23.017  29.173  1.00  0.00    -0.206 F 
ATOM     43  C   UNL A   1      43.133  21.394  27.725  1.00  0.00     0.059 A 
ATOM     44  C   UNL A   1      42.532  21.997  25.453  1.00  0.00     0.059 A 
ATOM     45  F   UNL A   1      42.865  24.196  24.702  1.00  0.00    -0.206 F 
ATOM     46  C   UNL A   1      42.628  21.050  26.472  1.00  0.00     0.060 A 
BRANCH  46  47
ATOM     47  S   UNL A   1      42.049  19.360  26.211  1.00  0.00     0.124 S 
ATOM     48  O   UNL A   1      40.611  19.550  26.069  1.00  0.00    -0.237 OA
ATOM     49  O   UNL A   1      42.766  18.975  24.997  1.00  0.00    -0.237 OA
ATOM     50  O   UNL A   1      42.476  18.665  27.423  1.00  0.00    -0.744 OA
ENDBRANCH  46  47
ENDBRANCH  25  39
BRANCH  26  51
ATOM     51  C   UNL A   1      46.671  32.907  29.237  1.00  0.00     0.058 A 
ATOM     52  C   UNL A   1      46.508  33.995  28.364  1.00  0.00     0.135 A 
ATOM     53  C   UNL A   1      47.393  33.118  30.419  1.00  0.00     0.135 A 
ATOM     54  F   UNL A   1      45.841  33.839  27.210  1.00  0.00    -0.206 F 
ATOM     55  C   UNL A   1      47.090  35.230  28.624  1.00  0.00     0.059 A 
ATOM     56  C   UNL A   1      47.961  34.353  30.716  1.00  0.00     0.059 A 
ATOM     57  F   UNL A   1      47.569  32.108  31.286  1.00  0.00    -0.206 F 
ATOM     58  C   UNL A   1      47.826  35.395  29.798  1.00  0.00     0.060 A 
BRANCH  58  59
ATOM     59  S   UNL A   1      48.629  36.986  30.083  1.00  0.00     0.124 S 
ATOM     60  O   UNL A   1      47.522  37.785  30.597  1.00  0.00    -0.237 OA
ATOM     61  O   UNL A   1      49.663  36.635  31.050  1.00  0.00    -0.237 OA
ATOM     62  O   UNL A   1      49.113  37.362  28.758  1.00  0.00    -0.744 OA
ENDBRANCH  58  59
ENDBRANCH  26  51
BRANCH  38  63
ATOM     63  C   UNL A   1      49.416  27.535  25.667  1.00  0.00     0.058 A 
ATOM     64  C   UNL A   1      49.483  27.544  24.265  1.00  0.00     0.135 A 
ATOM     65  C   UNL A   1      50.581  27.210  26.380  1.00  0.00     0.135 A 
ATOM     66  F   UNL A   1      48.397  27.847  23.537  1.00  0.00    -0.206 F 
ATOM     67  C   UNL A   1      50.650  27.201  23.591  1.00  0.00     0.059 A 
ATOM     68  C   UNL A   1      51.768  26.892  25.726  1.00  0.00     0.059 A 
ATOM     69  F   UNL A   1      50.572  27.205  27.722  1.00  0.00    -0.206 F 
ATOM     70  C   UNL A   1      51.785  26.867  24.332  1.00  0.00     0.060 A 
BRANCH  70  71
ATOM     71  S   UNL A   1      53.280  26.393  23.439  1.00  0.00     0.124 S 
ATOM     72  O   UNL A   1      54.161  27.525  23.709  1.00  0.00    -0.237 OA
ATOM     73  O   UNL A   1      53.641  25.137  24.089  1.00  0.00    -0.237 OA
ATOM     74  O   UNL A   1      52.825  26.269  22.057  1.00  0.00    -0.744 OA
ENDBRANCH  70  71
ENDBRANCH  38  63
ENDBRANCH  12  13
ENDBRANCH   5   7
ENDBRANCH   2   3
ENDBRANCH   1   2
BRANCH   1  75
ATOM     75  C   UNL A   1      34.836  32.664  31.323  1.00  0.00     0.118 C 
BRANCH  75  76
ATOM     76  N   UNL A   1      34.336  33.596  30.331  1.00  0.00    -0.352 N 
ATOM     77  C   UNL A   1      34.233  33.536  28.974  1.00  0.00     0.252 C 
ATOM     78  H   UNL A   1      34.006  34.441  30.714  1.00  0.00     0.163 HD
ATOM     79  O   UNL A   1      33.844  34.550  28.397  1.00  0.00    -0.269 OA
BRANCH  77  80
ATOM     80  C   UNL A   1      34.438  32.225  28.221  1.00  0.00     0.060 A 
ATOM     81  C   UNL A   1      33.289  30.702  27.559  1.00  0.00     0.041 A 
ATOM     82  C   UNL A   1      36.229  31.926  28.134  1.00  0.00     0.053 A 
ATOM     83  C   UNL A   1      33.927  29.190  27.098  1.00  0.00     0.041 A 
ATOM     84  C   UNL A   1      36.792  30.348  27.518  1.00  0.00     0.023 A 
ATOM     85  Cl  UNL A   1      37.414  33.036  28.701  1.00  0.00    -0.083 Cl
ATOM     86  C   UNL A   1      35.671  29.028  27.033  1.00  0.00     0.028 A 
BRANCH  83  87
ATOM     87  N   UNL A   1      32.980  28.182  27.354  1.00  0.00    -0.332 N 
ATOM     88  H   UNL A   1      32.543  28.242  28.234  1.00  0.00     0.169 HD
BRANCH  87  89
ATOM     89  C   UNL A   1      32.561  27.123  26.572  1.00  0.00     0.177 C 
ATOM     90  S   UNL A   1      33.708  26.510  25.500  1.00  0.00    -0.040 S 
BRANCH  89  91
ATOM     91  N   UNL A   1      31.292  26.449  26.558  1.00  0.00    -0.299 N 
ATOM     92  C   UNL A   1      30.081  25.824  25.915  1.00  0.00     0.260 C 
ATOM     93  H   UNL A   1      31.107  26.326  27.518  1.00  0.00     0.172 HD
ATOM     94  O   UNL A   1      29.257  25.256  26.626  1.00  0.00    -0.269 OA
BRANCH  92  95
ATOM     95  C   UNL A   1      29.858  25.891  24.411  1.00  0.00     0.075 A 
ATOM     96  C   UNL A   1      30.024  27.597  24.062  1.00  0.00     0.017 A 
ATOM     97  C   UNL A   1      30.782  24.610  23.541  1.00  0.00     0.135 A 
ATOM     98  C   UNL A   1      31.355  28.102  23.011  1.00  0.00     0.001 A 
ATOM     99  C   UNL A   1      32.157  24.967  22.459  1.00  0.00     0.040 A 
ATOM    100  F   UNL A   1      30.735  23.362  24.034  1.00  0.00    -0.206 F 
ATOM    101  C   UNL A   1      32.569  26.710  22.174  1.00  0.00     0.003 A 
ENDBRANCH  92  95
ENDBRANCH  89  91
ENDBRANCH  87  89
ENDBRANCH  83  87
ENDBRANCH  77  80
ENDBRANCH  75  76
ENDBRANCH   1  75
TORSDOF 17
ENDMDL
