MODEL 1
REMARK VINA RESULT:     -11.3      0.000      0.000
REMARK SMILES C[C@@H]1CN(S(=O)(=O)[C@@H](C)C(=O)NCCCNC(=O)c2ccc(-c3c4nc(c(-c5c(F)cc(S(=O)(=O)[O-])cc5F)c5ccc([nH]5)c(-c5c(F)cc(S(=O)(=O)[O-])cc5F)c5nc(c(-c6c(F)cc(S(=O)(=O)[O-])cc6F)c6ccc3[nH]6)C=C5)C=C4)cc2)CC[C@@H]1[NH3+]
REMARK SMILES IDX 14 1 13 2 12 3 10 4 11 5 8 7 9 8 5 9 6 10 7 11 4 12 1 13
REMARK SMILES IDX 2 14 3 15 87 16 86 17 85 18 88 19 15 23 16 24 17 25 18 27
REMARK SMILES IDX 19 28 20 29 84 30 21 31 83 32 22 33 23 34 24 35 77 36 25 37
REMARK SMILES IDX 82 38 76 39 78 40 26 41 81 42 75 43 74 44 27 46 61 47 40 48
REMARK SMILES IDX 60 49 41 50 44 51 59 52 79 53 42 54 43 55 58 57 80 58 45 59
REMARK SMILES IDX 28 60 29 61 38 62 30 63 31 64 37 65 39 66 32 67 33 68 34 69
REMARK SMILES IDX 35 70 36 71 62 72 63 73 72 74 64 75 65 76 71 77 73 78 66 79
REMARK SMILES IDX 67 80 68 81 69 82 70 83 46 84 47 85 56 86 48 87 49 88 55 89
REMARK SMILES IDX 57 90 50 91 51 92 52 93 53 94 54 95
REMARK H PARENT 12 6 88 20 88 21 88 22 16 26 78 45 44 56
REMARK Flexibility Score: inf
ROOT
ATOM      1  C   UNL A   1      31.623  27.810  27.213  1.00  0.00     0.042 C 
ENDROOT
BRANCH   1   2
ATOM      2  C   UNL A   1      31.235  26.721  26.185  1.00  0.00     0.117 C 
BRANCH   2   3
ATOM      3  N   UNL A   1      30.904  27.344  24.900  1.00  0.00    -0.355 N 
ATOM      4  C   UNL A   1      31.583  27.738  23.789  1.00  0.00     0.239 C 
ATOM      5  O   UNL A   1      30.908  28.430  23.013  1.00  0.00    -0.274 OA
ATOM      6  H   UNL A   1      29.939  27.527  24.822  1.00  0.00     0.163 HD
BRANCH   4   7
ATOM      7  C   UNL A   1      32.979  27.319  23.386  1.00  0.00     0.210 C 
ATOM      8  C   UNL A   1      33.938  28.362  22.852  1.00  0.00     0.037 C 
BRANCH   7   9
ATOM      9  S   UNL A   1      33.078  25.722  22.570  1.00  0.00     0.225 S 
ATOM     10  O   UNL A   1      33.614  25.864  21.228  1.00  0.00    -0.211 OA
ATOM     11  O   UNL A   1      31.797  25.079  22.768  1.00  0.00    -0.211 OA
BRANCH   9  12
ATOM     12  N   UNL A   1      34.224  24.806  23.461  1.00  0.00    -0.200 NA
ATOM     13  C   UNL A   1      36.576  22.926  23.224  1.00  0.00     0.015 C 
ATOM     14  C   UNL A   1      35.238  22.585  23.902  1.00  0.00     0.059 C 
ATOM     15  C   UNL A   1      34.054  23.343  23.298  1.00  0.00     0.111 C 
ATOM     16  C   UNL A   1      35.222  22.866  25.410  1.00  0.00     0.186 C 
ATOM     17  C   UNL A   1      35.330  24.368  25.679  1.00  0.00     0.082 C 
ATOM     18  C   UNL A   1      34.249  25.155  24.927  1.00  0.00     0.108 C 
BRANCH  16  19
ATOM     19  N   UNL A   1      36.284  22.119  26.076  1.00  0.00    -0.355 N 
ATOM     20  H   UNL A   1      36.039  21.130  26.104  1.00  0.00     0.344 HD
ATOM     21  H   UNL A   1      36.400  22.467  27.028  1.00  0.00     0.344 HD
ATOM     22  H   UNL A   1      37.157  22.239  25.563  1.00  0.00     0.344 HD
ENDBRANCH  16  19
ENDBRANCH   9  12
ENDBRANCH   7   9
ENDBRANCH   4   7
ENDBRANCH   2   3
ENDBRANCH   1   2
BRANCH   1  23
ATOM     23  C   UNL A   1      33.082  28.249  27.222  1.00  0.00     0.118 C 
BRANCH  23  24
ATOM     24  N   UNL A   1      33.254  29.653  27.536  1.00  0.00    -0.352 N 
ATOM     25  C   UNL A   1      34.271  30.455  27.992  1.00  0.00     0.251 C 
ATOM     26  H   UNL A   1      32.428  30.165  27.383  1.00  0.00     0.163 HD
ATOM     27  O   UNL A   1      33.967  31.652  28.067  1.00  0.00    -0.269 OA
BRANCH  25  28
ATOM     28  C   UNL A   1      35.660  30.050  28.403  1.00  0.00     0.039 A 
ATOM     29  C   UNL A   1      36.624  30.044  27.372  1.00  0.00     0.014 A 
ATOM     30  C   UNL A   1      36.097  29.668  29.673  1.00  0.00     0.014 A 
ATOM     31  C   UNL A   1      37.963  29.674  27.590  1.00  0.00     0.010 A 
ATOM     32  C   UNL A   1      37.453  29.318  29.901  1.00  0.00     0.010 A 
ATOM     33  C   UNL A   1      38.406  29.320  28.867  1.00  0.00    -0.014 A 
BRANCH  33  34
ATOM     34  C   UNL A   1      39.851  29.012  29.126  1.00  0.00     0.031 A 
ATOM     35  C   UNL A   1      40.815  30.074  29.596  1.00  0.00     0.074 A 
ATOM     36  C   UNL A   1      40.332  27.768  28.915  1.00  0.00     0.049 A 
ATOM     37  N   UNL A   1      42.110  29.990  29.784  1.00  0.00    -0.248 NA
ATOM     38  C   UNL A   1      40.248  31.392  29.914  1.00  0.00     0.031 C 
ATOM     39  C   UNL A   1      39.531  26.607  28.532  1.00  0.00     0.029 A 
ATOM     40  N   UNL A   1      41.616  27.272  28.967  1.00  0.00    -0.354 N 
ATOM     41  C   UNL A   1      42.515  31.235  30.253  1.00  0.00     0.074 A 
ATOM     42  C   UNL A   1      41.329  32.071  30.280  1.00  0.00     0.031 C 
ATOM     43  C   UNL A   1      40.339  25.559  28.315  1.00  0.00     0.029 A 
ATOM     44  C   UNL A   1      41.723  25.967  28.545  1.00  0.00     0.049 A 
ATOM     45  H   UNL A   1      42.385  27.802  29.279  1.00  0.00     0.167 HD
ATOM     46  C   UNL A   1      43.748  31.640  30.648  1.00  0.00     0.037 A 
ATOM     47  C   UNL A   1      42.799  25.180  28.343  1.00  0.00     0.037 A 
ATOM     48  C   UNL A   1      44.933  30.817  30.643  1.00  0.00     0.049 A 
ATOM     49  C   UNL A   1      44.175  25.688  28.667  1.00  0.00     0.074 A 
ATOM     50  C   UNL A   1      46.203  31.135  31.099  1.00  0.00     0.029 A 
ATOM     51  N   UNL A   1      45.005  29.524  30.148  1.00  0.00    -0.354 N 
ATOM     52  N   UNL A   1      44.525  26.850  29.158  1.00  0.00    -0.248 NA
ATOM     53  C   UNL A   1      45.302  24.773  28.425  1.00  0.00     0.031 C 
ATOM     54  C   UNL A   1      47.054  30.055  30.830  1.00  0.00     0.029 A 
ATOM     55  C   UNL A   1      46.306  29.049  30.246  1.00  0.00     0.049 A 
ATOM     56  H   UNL A   1      44.245  29.017  29.782  1.00  0.00     0.167 HD
ATOM     57  C   UNL A   1      45.907  26.798  29.310  1.00  0.00     0.074 A 
ATOM     58  C   UNL A   1      46.330  25.489  28.860  1.00  0.00     0.031 C 
ATOM     59  C   UNL A   1      46.740  27.753  29.788  1.00  0.00     0.037 A 
BRANCH  46  60
ATOM     60  C   UNL A   1      43.896  33.058  31.130  1.00  0.00     0.058 A 
ATOM     61  C   UNL A   1      44.287  34.090  30.265  1.00  0.00     0.135 A 
ATOM     62  C   UNL A   1      43.577  33.398  32.456  1.00  0.00     0.135 A 
ATOM     63  F   UNL A   1      44.606  33.819  28.989  1.00  0.00    -0.206 F 
ATOM     64  C   UNL A   1      44.386  35.408  30.702  1.00  0.00     0.059 A 
ATOM     65  C   UNL A   1      43.647  34.712  32.910  1.00  0.00     0.059 A 
ATOM     66  F   UNL A   1      43.188  32.449  33.321  1.00  0.00    -0.206 F 
ATOM     67  C   UNL A   1      44.067  35.708  32.029  1.00  0.00     0.060 A 
BRANCH  67  68
ATOM     68  S   UNL A   1      44.207  37.421  32.584  1.00  0.00     0.124 S 
ATOM     69  O   UNL A   1      45.620  37.493  32.943  1.00  0.00    -0.237 OA
ATOM     70  O   UNL A   1      43.818  38.169  31.394  1.00  0.00    -0.237 OA
ATOM     71  O   UNL A   1      43.271  37.493  33.701  1.00  0.00    -0.744 OA
ENDBRANCH  67  68
ENDBRANCH  46  60
BRANCH  47  72
ATOM     72  C   UNL A   1      42.615  23.816  27.782  1.00  0.00     0.058 A 
ATOM     73  C   UNL A   1      42.552  23.600  26.399  1.00  0.00     0.135 A 
ATOM     74  C   UNL A   1      42.509  22.698  28.627  1.00  0.00     0.135 A 
ATOM     75  F   UNL A   1      42.638  24.640  25.555  1.00  0.00    -0.206 F 
ATOM     76  C   UNL A   1      42.382  22.325  25.869  1.00  0.00     0.059 A 
ATOM     77  C   UNL A   1      42.356  21.413  28.120  1.00  0.00     0.059 A 
ATOM     78  F   UNL A   1      42.577  22.853  29.958  1.00  0.00    -0.206 F 
ATOM     79  C   UNL A   1      42.287  21.237  26.739  1.00  0.00     0.060 A 
BRANCH  79  80
ATOM     80  S   UNL A   1      42.125  19.580  26.041  1.00  0.00     0.124 S 
ATOM     81  O   UNL A   1      42.532  18.747  27.166  1.00  0.00    -0.237 OA
ATOM     82  O   UNL A   1      40.709  19.534  25.689  1.00  0.00    -0.237 OA
ATOM     83  O   UNL A   1      43.045  19.605  24.907  1.00  0.00    -0.744 OA
ENDBRANCH  79  80
ENDBRANCH  47  72
BRANCH  59  84
ATOM     84  C   UNL A   1      48.207  27.425  29.862  1.00  0.00     0.058 A 
ATOM     85  C   UNL A   1      49.050  27.589  28.753  1.00  0.00     0.135 A 
ATOM     86  C   UNL A   1      48.787  26.991  31.065  1.00  0.00     0.135 A 
ATOM     87  F   UNL A   1      48.545  27.989  27.574  1.00  0.00    -0.206 F 
ATOM     88  C   UNL A   1      50.414  27.323  28.829  1.00  0.00     0.059 A 
ATOM     89  C   UNL A   1      50.153  26.740  31.171  1.00  0.00     0.059 A 
ATOM     90  F   UNL A   1      48.027  26.820  32.159  1.00  0.00    -0.206 F 
ATOM     91  C   UNL A   1      50.958  26.902  30.044  1.00  0.00     0.060 A 
BRANCH  91  92
ATOM     92  S   UNL A   1      52.737  26.609  30.143  1.00  0.00     0.124 S 
ATOM     93  O   UNL A   1      53.066  26.322  28.750  1.00  0.00    -0.237 OA
ATOM     94  O   UNL A   1      53.237  27.877  30.663  1.00  0.00    -0.237 OA
ATOM     95  O   UNL A   1      52.845  25.476  31.059  1.00  0.00    -0.744 OA
ENDBRANCH  91  92
ENDBRANCH  59  84
ENDBRANCH  33  34
ENDBRANCH  25  28
ENDBRANCH  23  24
ENDBRANCH   1  23
TORSDOF 16
ENDMDL
MODEL 2
REMARK VINA RESULT:     -11.2      1.135      1.948
REMARK SMILES C[C@@H]1CN(S(=O)(=O)[C@@H](C)C(=O)NCCCNC(=O)c2ccc(-c3c4nc(c(-c5c(F)cc(S(=O)(=O)[O-])cc5F)c5ccc([nH]5)c(-c5c(F)cc(S(=O)(=O)[O-])cc5F)c5nc(c(-c6c(F)cc(S(=O)(=O)[O-])cc6F)c6ccc3[nH]6)C=C5)C=C4)cc2)CC[C@@H]1[NH3+]
REMARK SMILES IDX 14 1 13 2 12 3 10 4 11 5 8 7 9 8 5 9 6 10 7 11 4 12 1 13
REMARK SMILES IDX 2 14 3 15 87 16 86 17 85 18 88 19 15 23 16 24 17 25 18 27
REMARK SMILES IDX 19 28 20 29 84 30 21 31 83 32 22 33 23 34 24 35 77 36 25 37
REMARK SMILES IDX 82 38 76 39 78 40 26 41 81 42 75 43 74 44 27 46 61 47 40 48
REMARK SMILES IDX 60 49 41 50 44 51 59 52 79 53 42 54 43 55 58 57 80 58 45 59
REMARK SMILES IDX 28 60 29 61 38 62 30 63 31 64 37 65 39 66 32 67 33 68 34 69
REMARK SMILES IDX 35 70 36 71 62 72 63 73 72 74 64 75 65 76 71 77 73 78 66 79
REMARK SMILES IDX 67 80 68 81 69 82 70 83 46 84 47 85 56 86 48 87 49 88 55 89
REMARK SMILES IDX 57 90 50 91 51 92 52 93 53 94 54 95
REMARK H PARENT 12 6 88 20 88 21 88 22 16 26 78 45 44 56
REMARK Flexibility Score: inf
ROOT
ATOM      1  C   UNL A   1      31.469  27.900  27.313  1.00  0.00     0.042 C 
ENDROOT
BRANCH   1   2
ATOM      2  C   UNL A   1      31.044  26.848  26.262  1.00  0.00     0.117 C 
BRANCH   2   3
ATOM      3  N   UNL A   1      31.124  25.505  26.842  1.00  0.00    -0.355 N 
ATOM      4  C   UNL A   1      31.368  24.246  26.388  1.00  0.00     0.239 C 
ATOM      5  O   UNL A   1      31.119  23.360  27.218  1.00  0.00    -0.274 OA
ATOM      6  H   UNL A   1      30.956  25.516  27.812  1.00  0.00     0.163 HD
BRANCH   4   7
ATOM      7  C   UNL A   1      32.003  23.867  25.068  1.00  0.00     0.210 C 
ATOM      8  C   UNL A   1      31.783  22.475  24.516  1.00  0.00     0.037 C 
BRANCH   7   9
ATOM      9  S   UNL A   1      33.654  24.523  24.813  1.00  0.00     0.225 S 
ATOM     10  O   UNL A   1      34.113  25.234  25.993  1.00  0.00    -0.211 OA
ATOM     11  O   UNL A   1      33.638  25.194  23.531  1.00  0.00    -0.211 OA
BRANCH   9  12
ATOM     12  N   UNL A   1      34.682  23.159  24.634  1.00  0.00    -0.200 NA
ATOM     13  C   UNL A   1      34.840  20.156  24.909  1.00  0.00     0.015 C 
ATOM     14  C   UNL A   1      35.708  21.160  25.687  1.00  0.00     0.059 C 
ATOM     15  C   UNL A   1      35.004  22.499  25.921  1.00  0.00     0.111 C 
ATOM     16  C   UNL A   1      37.045  21.475  25.005  1.00  0.00     0.186 C 
ATOM     17  C   UNL A   1      36.817  22.218  23.688  1.00  0.00     0.082 C 
ATOM     18  C   UNL A   1      35.955  23.472  23.890  1.00  0.00     0.108 C 
BRANCH  16  19
ATOM     19  N   UNL A   1      37.815  20.250  24.809  1.00  0.00    -0.355 N 
ATOM     20  H   UNL A   1      38.763  20.385  25.157  1.00  0.00     0.344 HD
ATOM     21  H   UNL A   1      37.846  20.025  23.814  1.00  0.00     0.344 HD
ATOM     22  H   UNL A   1      37.371  19.485  25.317  1.00  0.00     0.344 HD
ENDBRANCH  16  19
ENDBRANCH   9  12
ENDBRANCH   7   9
ENDBRANCH   4   7
ENDBRANCH   2   3
ENDBRANCH   1   2
BRANCH   1  23
ATOM     23  C   UNL A   1      32.945  28.275  27.344  1.00  0.00     0.118 C 
BRANCH  23  24
ATOM     24  N   UNL A   1      33.170  29.696  27.519  1.00  0.00    -0.352 N 
ATOM     25  C   UNL A   1      34.219  30.501  27.889  1.00  0.00     0.251 C 
ATOM     26  H   UNL A   1      32.361  30.221  27.322  1.00  0.00     0.163 HD
ATOM     27  O   UNL A   1      33.959  31.710  27.849  1.00  0.00    -0.269 OA
BRANCH  25  28
ATOM     28  C   UNL A   1      35.597  30.087  28.329  1.00  0.00     0.039 A 
ATOM     29  C   UNL A   1      36.588  30.098  27.324  1.00  0.00     0.014 A 
ATOM     30  C   UNL A   1      36.000  29.683  29.603  1.00  0.00     0.014 A 
ATOM     31  C   UNL A   1      37.920  29.722  27.570  1.00  0.00     0.010 A 
ATOM     32  C   UNL A   1      37.350  29.328  29.861  1.00  0.00     0.010 A 
ATOM     33  C   UNL A   1      38.330  29.346  28.852  1.00  0.00    -0.014 A 
BRANCH  33  34
ATOM     34  C   UNL A   1      39.767  29.032  29.143  1.00  0.00     0.031 A 
ATOM     35  C   UNL A   1      40.722  30.088  29.643  1.00  0.00     0.074 A 
ATOM     36  C   UNL A   1      40.249  27.787  28.937  1.00  0.00     0.049 A 
ATOM     37  N   UNL A   1      42.013  29.999  29.861  1.00  0.00    -0.248 NA
ATOM     38  C   UNL A   1      40.153  31.406  29.955  1.00  0.00     0.031 C 
ATOM     39  C   UNL A   1      39.453  26.631  28.529  1.00  0.00     0.029 A 
ATOM     40  N   UNL A   1      41.530  27.287  29.017  1.00  0.00    -0.354 N 
ATOM     41  C   UNL A   1      42.410  31.240  30.346  1.00  0.00     0.074 A 
ATOM     42  C   UNL A   1      41.227  32.079  30.350  1.00  0.00     0.031 C 
ATOM     43  C   UNL A   1      40.263  25.582  28.325  1.00  0.00     0.029 A 
ATOM     44  C   UNL A   1      41.642  25.983  28.590  1.00  0.00     0.049 A 
ATOM     45  H   UNL A   1      42.293  27.813  29.350  1.00  0.00     0.167 HD
ATOM     46  C   UNL A   1      43.635  31.638  30.772  1.00  0.00     0.037 A 
ATOM     47  C   UNL A   1      42.720  25.194  28.410  1.00  0.00     0.037 A 
ATOM     48  C   UNL A   1      44.817  30.811  30.791  1.00  0.00     0.049 A 
ATOM     49  C   UNL A   1      44.090  25.696  28.769  1.00  0.00     0.074 A 
ATOM     50  C   UNL A   1      46.077  31.122  31.278  1.00  0.00     0.029 A 
ATOM     51  N   UNL A   1      44.897  29.520  30.291  1.00  0.00    -0.354 N 
ATOM     52  N   UNL A   1      44.432  26.854  29.275  1.00  0.00    -0.248 NA
ATOM     53  C   UNL A   1      45.219  24.779  28.549  1.00  0.00     0.031 C 
ATOM     54  C   UNL A   1      46.930  30.041  31.024  1.00  0.00     0.029 A 
ATOM     55  C   UNL A   1      46.193  29.041  30.417  1.00  0.00     0.049 A 
ATOM     56  H   UNL A   1      44.144  29.018  29.904  1.00  0.00     0.167 HD
ATOM     57  C   UNL A   1      45.809  26.796  29.458  1.00  0.00     0.074 A 
ATOM     58  C   UNL A   1      46.240  25.488  29.011  1.00  0.00     0.031 C 
ATOM     59  C   UNL A   1      46.635  27.746  29.962  1.00  0.00     0.037 A 
BRANCH  46  60
ATOM     60  C   UNL A   1      43.776  33.053  31.266  1.00  0.00     0.058 A 
ATOM     61  C   UNL A   1      44.035  34.115  30.386  1.00  0.00     0.135 A 
ATOM     62  C   UNL A   1      43.582  33.358  32.623  1.00  0.00     0.135 A 
ATOM     63  F   UNL A   1      44.232  33.878  29.080  1.00  0.00    -0.206 F 
ATOM     64  C   UNL A   1      44.127  35.428  30.839  1.00  0.00     0.059 A 
ATOM     65  C   UNL A   1      43.646  34.667  33.095  1.00  0.00     0.059 A 
ATOM     66  F   UNL A   1      43.321  32.380  33.505  1.00  0.00    -0.206 F 
ATOM     67  C   UNL A   1      43.935  35.693  32.196  1.00  0.00     0.060 A 
BRANCH  67  68
ATOM     68  S   UNL A   1      44.063  37.400  32.770  1.00  0.00     0.124 S 
ATOM     69  O   UNL A   1      42.985  37.457  33.751  1.00  0.00    -0.237 OA
ATOM     70  O   UNL A   1      45.417  37.447  33.313  1.00  0.00    -0.237 OA
ATOM     71  O   UNL A   1      43.850  38.183  31.557  1.00  0.00    -0.744 OA
ENDBRANCH  67  68
ENDBRANCH  46  60
BRANCH  47  72
ATOM     72  C   UNL A   1      42.545  23.834  27.837  1.00  0.00     0.058 A 
ATOM     73  C   UNL A   1      42.501  22.698  28.657  1.00  0.00     0.135 A 
ATOM     74  C   UNL A   1      42.408  23.649  26.451  1.00  0.00     0.135 A 
ATOM     75  F   UNL A   1      42.638  22.826  29.985  1.00  0.00    -0.206 F 
ATOM     76  C   UNL A   1      42.335  21.424  28.125  1.00  0.00     0.059 A 
ATOM     77  C   UNL A   1      42.223  22.387  25.898  1.00  0.00     0.059 A 
ATOM     78  F   UNL A   1      42.430  24.707  25.626  1.00  0.00    -0.206 F 
ATOM     79  C   UNL A   1      42.194  21.280  26.743  1.00  0.00     0.060 A 
BRANCH  79  80
ATOM     80  S   UNL A   1      41.921  19.627  26.068  1.00  0.00     0.124 S 
ATOM     81  O   UNL A   1      40.501  19.676  25.740  1.00  0.00    -0.237 OA
ATOM     82  O   UNL A   1      42.839  19.605  24.933  1.00  0.00    -0.237 OA
ATOM     83  O   UNL A   1      42.285  18.750  27.176  1.00  0.00    -0.744 OA
ENDBRANCH  79  80
ENDBRANCH  47  72
BRANCH  59  84
ATOM     84  C   UNL A   1      48.098  27.413  30.069  1.00  0.00     0.058 A 
ATOM     85  C   UNL A   1      49.011  27.800  29.076  1.00  0.00     0.135 A 
ATOM     86  C   UNL A   1      48.603  26.745  31.196  1.00  0.00     0.135 A 
ATOM     87  F   UNL A   1      48.579  28.430  27.971  1.00  0.00    -0.206 F 
ATOM     88  C   UNL A   1      50.371  27.527  29.190  1.00  0.00     0.059 A 
ATOM     89  C   UNL A   1      49.962  26.480  31.342  1.00  0.00     0.059 A 
ATOM     90  F   UNL A   1      47.774  26.354  32.178  1.00  0.00    -0.206 F 
ATOM     91  C   UNL A   1      50.838  26.870  30.330  1.00  0.00     0.060 A 
BRANCH  91  92
ATOM     92  S   UNL A   1      52.612  26.566  30.489  1.00  0.00     0.124 S 
ATOM     93  O   UNL A   1      52.985  26.271  29.110  1.00  0.00    -0.237 OA
ATOM     94  O   UNL A   1      53.101  27.833  31.021  1.00  0.00    -0.237 OA
ATOM     95  O   UNL A   1      52.681  25.437  31.413  1.00  0.00    -0.744 OA
ENDBRANCH  91  92
ENDBRANCH  59  84
ENDBRANCH  33  34
ENDBRANCH  25  28
ENDBRANCH  23  24
ENDBRANCH   1  23
TORSDOF 16
ENDMDL
MODEL 3
REMARK VINA RESULT:     -11.0      5.148     10.734
REMARK SMILES C[C@@H]1CN(S(=O)(=O)[C@@H](C)C(=O)NCCCNC(=O)c2ccc(-c3c4nc(c(-c5c(F)cc(S(=O)(=O)[O-])cc5F)c5ccc([nH]5)c(-c5c(F)cc(S(=O)(=O)[O-])cc5F)c5nc(c(-c6c(F)cc(S(=O)(=O)[O-])cc6F)c6ccc3[nH]6)C=C5)C=C4)cc2)CC[C@@H]1[NH3+]
REMARK SMILES IDX 14 1 13 2 12 3 10 4 11 5 8 7 9 8 5 9 6 10 7 11 4 12 1 13
REMARK SMILES IDX 2 14 3 15 87 16 86 17 85 18 88 19 15 23 16 24 17 25 18 27
REMARK SMILES IDX 19 28 20 29 84 30 21 31 83 32 22 33 23 34 24 35 77 36 25 37
REMARK SMILES IDX 82 38 76 39 78 40 26 41 81 42 75 43 74 44 27 46 61 47 40 48
REMARK SMILES IDX 60 49 41 50 44 51 59 52 79 53 42 54 43 55 58 57 80 58 45 59
REMARK SMILES IDX 28 60 29 61 38 62 30 63 31 64 37 65 39 66 32 67 33 68 34 69
REMARK SMILES IDX 35 70 36 71 62 72 63 73 72 74 64 75 65 76 71 77 73 78 66 79
REMARK SMILES IDX 67 80 68 81 69 82 70 83 46 84 47 85 56 86 48 87 49 88 55 89
REMARK SMILES IDX 57 90 50 91 51 92 52 93 53 94 54 95
REMARK H PARENT 12 6 88 20 88 21 88 22 16 26 78 45 44 56
REMARK Flexibility Score: inf
ROOT
ATOM      1  C   UNL A   1      40.722  22.042  27.482  1.00  0.00     0.042 C 
ENDROOT
BRANCH   1   2
ATOM      2  C   UNL A   1      39.644  21.740  26.415  1.00  0.00     0.117 C 
BRANCH   2   3
ATOM      3  N   UNL A   1      38.576  22.741  26.488  1.00  0.00    -0.355 N 
ATOM      4  C   UNL A   1      37.486  23.078  25.748  1.00  0.00     0.239 C 
ATOM      5  O   UNL A   1      36.973  24.156  26.081  1.00  0.00    -0.274 OA
ATOM      6  H   UNL A   1      38.674  23.321  27.278  1.00  0.00     0.163 HD
BRANCH   4   7
ATOM      7  C   UNL A   1      36.811  22.230  24.693  1.00  0.00     0.210 C 
ATOM      8  C   UNL A   1      36.773  22.724  23.262  1.00  0.00     0.037 C 
BRANCH   7   9
ATOM      9  S   UNL A   1      35.316  21.399  25.239  1.00  0.00     0.225 S 
ATOM     10  O   UNL A   1      35.075  21.651  26.648  1.00  0.00    -0.211 OA
ATOM     11  O   UNL A   1      35.402  20.038  24.757  1.00  0.00    -0.211 OA
BRANCH   9  12
ATOM     12  N   UNL A   1      34.024  22.138  24.382  1.00  0.00    -0.200 NA
ATOM     13  C   UNL A   1      33.233  24.545  22.739  1.00  0.00     0.015 C 
ATOM     14  C   UNL A   1      32.591  24.140  24.077  1.00  0.00     0.059 C 
ATOM     15  C   UNL A   1      33.561  23.401  25.003  1.00  0.00     0.111 C 
ATOM     16  C   UNL A   1      31.356  23.244  23.922  1.00  0.00     0.186 C 
ATOM     17  C   UNL A   1      31.746  21.883  23.342  1.00  0.00     0.082 C 
ATOM     18  C   UNL A   1      32.853  21.214  24.169  1.00  0.00     0.108 C 
BRANCH  16  19
ATOM     19  N   UNL A   1      30.346  23.910  23.105  1.00  0.00    -0.355 N 
ATOM     20  H   UNL A   1      30.773  24.686  22.601  1.00  0.00     0.344 HD
ATOM     21  H   UNL A   1      29.602  24.263  23.706  1.00  0.00     0.344 HD
ATOM     22  H   UNL A   1      29.956  23.244  22.437  1.00  0.00     0.344 HD
ENDBRANCH  16  19
ENDBRANCH   9  12
ENDBRANCH   7   9
ENDBRANCH   4   7
ENDBRANCH   2   3
ENDBRANCH   1   2
BRANCH   1  23
ATOM     23  C   UNL A   1      42.104  22.421  26.966  1.00  0.00     0.118 C 
BRANCH  23  24
ATOM     24  N   UNL A   1      42.079  23.514  26.015  1.00  0.00    -0.352 N 
ATOM     25  C   UNL A   1      41.929  24.878  26.067  1.00  0.00     0.251 C 
ATOM     26  H   UNL A   1      42.202  23.196  25.091  1.00  0.00     0.163 HD
ATOM     27  O   UNL A   1      42.030  25.433  24.966  1.00  0.00    -0.269 OA
BRANCH  25  28
ATOM     28  C   UNL A   1      41.656  25.736  27.272  1.00  0.00     0.039 A 
ATOM     29  C   UNL A   1      42.610  26.743  27.533  1.00  0.00     0.014 A 
ATOM     30  C   UNL A   1      40.584  25.642  28.161  1.00  0.00     0.014 A 
ATOM     31  C   UNL A   1      42.507  27.617  28.629  1.00  0.00     0.010 A 
ATOM     32  C   UNL A   1      40.464  26.539  29.254  1.00  0.00     0.010 A 
ATOM     33  C   UNL A   1      41.419  27.542  29.502  1.00  0.00    -0.014 A 
BRANCH  33  34
ATOM     34  C   UNL A   1      41.255  28.528  30.620  1.00  0.00     0.031 A 
ATOM     35  C   UNL A   1      42.052  28.416  31.896  1.00  0.00     0.074 A 
ATOM     36  C   UNL A   1      40.359  29.534  30.518  1.00  0.00     0.049 A 
ATOM     37  N   UNL A   1      41.967  29.136  32.990  1.00  0.00    -0.248 NA
ATOM     38  C   UNL A   1      43.089  27.376  31.944  1.00  0.00     0.031 C 
ATOM     39  C   UNL A   1      39.561  29.834  29.331  1.00  0.00     0.029 A 
ATOM     40  N   UNL A   1      39.949  30.478  31.432  1.00  0.00    -0.354 N 
ATOM     41  C   UNL A   1      42.943  28.648  33.852  1.00  0.00     0.074 A 
ATOM     42  C   UNL A   1      43.581  27.540  33.167  1.00  0.00     0.031 C 
ATOM     43  C   UNL A   1      38.711  30.835  29.608  1.00  0.00     0.029 A 
ATOM     44  C   UNL A   1      38.902  31.256  30.993  1.00  0.00     0.049 A 
ATOM     45  H   UNL A   1      40.367  30.587  32.317  1.00  0.00     0.167 HD
ATOM     46  C   UNL A   1      43.295  29.093  35.084  1.00  0.00     0.037 A 
ATOM     47  C   UNL A   1      38.159  32.189  31.622  1.00  0.00     0.037 A 
ATOM     48  C   UNL A   1      42.682  30.204  35.771  1.00  0.00     0.049 A 
ATOM     49  C   UNL A   1      38.483  32.583  33.035  1.00  0.00     0.074 A 
ATOM     50  C   UNL A   1      43.035  30.760  36.991  1.00  0.00     0.029 A 
ATOM     51  N   UNL A   1      41.585  30.919  35.315  1.00  0.00    -0.354 N 
ATOM     52  N   UNL A   1      39.443  32.143  33.809  1.00  0.00    -0.248 NA
ATOM     53  C   UNL A   1      37.632  33.610  33.656  1.00  0.00     0.031 C 
ATOM     54  C   UNL A   1      42.119  31.775  37.297  1.00  0.00     0.029 A 
ATOM     55  C   UNL A   1      41.222  31.879  36.249  1.00  0.00     0.049 A 
ATOM     56  H   UNL A   1      41.132  30.768  34.455  1.00  0.00     0.167 HD
ATOM     57  C   UNL A   1      39.330  32.858  34.997  1.00  0.00     0.074 A 
ATOM     58  C   UNL A   1      38.209  33.760  34.841  1.00  0.00     0.031 C 
ATOM     59  C   UNL A   1      40.098  32.772  36.109  1.00  0.00     0.037 A 
BRANCH  46  60
ATOM     60  C   UNL A   1      44.412  28.375  35.793  1.00  0.00     0.058 A 
ATOM     61  C   UNL A   1      44.160  27.302  36.660  1.00  0.00     0.135 A 
ATOM     62  C   UNL A   1      45.751  28.721  35.549  1.00  0.00     0.135 A 
ATOM     63  F   UNL A   1      42.898  26.933  36.931  1.00  0.00    -0.206 F 
ATOM     64  C   UNL A   1      45.196  26.613  37.285  1.00  0.00     0.059 A 
ATOM     65  C   UNL A   1      46.804  28.032  36.145  1.00  0.00     0.059 A 
ATOM     66  F   UNL A   1      46.047  29.734  34.719  1.00  0.00    -0.206 F 
ATOM     67  C   UNL A   1      46.515  26.989  37.024  1.00  0.00     0.060 A 
BRANCH  67  68
ATOM     68  S   UNL A   1      47.848  26.092  37.847  1.00  0.00     0.124 S 
ATOM     69  O   UNL A   1      47.123  25.416  38.918  1.00  0.00    -0.237 OA
ATOM     70  O   UNL A   1      48.351  25.230  36.782  1.00  0.00    -0.237 OA
ATOM     71  O   UNL A   1      48.757  27.150  38.274  1.00  0.00    -0.744 OA
ENDBRANCH  67  68
ENDBRANCH  46  60
BRANCH  47  72
ATOM     72  C   UNL A   1      37.010  32.810  30.913  1.00  0.00     0.058 A 
ATOM     73  C   UNL A   1      35.704  32.329  31.082  1.00  0.00     0.135 A 
ATOM     74  C   UNL A   1      37.199  33.909  30.059  1.00  0.00     0.135 A 
ATOM     75  F   UNL A   1      35.478  31.274  31.880  1.00  0.00    -0.206 F 
ATOM     76  C   UNL A   1      34.625  32.908  30.423  1.00  0.00     0.059 A 
ATOM     77  C   UNL A   1      36.134  34.516  29.404  1.00  0.00     0.059 A 
ATOM     78  F   UNL A   1      38.429  34.415  29.877  1.00  0.00    -0.206 F 
ATOM     79  C   UNL A   1      34.851  34.004  29.587  1.00  0.00     0.060 A 
BRANCH  79  80
ATOM     80  S   UNL A   1      33.437  34.785  28.781  1.00  0.00     0.124 S 
ATOM     81  O   UNL A   1      32.525  34.970  29.905  1.00  0.00    -0.237 OA
ATOM     82  O   UNL A   1      34.029  36.000  28.232  1.00  0.00    -0.237 OA
ATOM     83  O   UNL A   1      33.027  33.793  27.791  1.00  0.00    -0.744 OA
ENDBRANCH  79  80
ENDBRANCH  47  72
BRANCH  59  84
ATOM     84  C   UNL A   1      39.765  33.684  37.259  1.00  0.00     0.058 A 
ATOM     85  C   UNL A   1      38.831  33.315  38.238  1.00  0.00     0.135 A 
ATOM     86  C   UNL A   1      40.421  34.916  37.413  1.00  0.00     0.135 A 
ATOM     87  F   UNL A   1      38.165  32.153  38.132  1.00  0.00    -0.206 F 
ATOM     88  C   UNL A   1      38.548  34.140  39.323  1.00  0.00     0.059 A 
ATOM     89  C   UNL A   1      40.171  35.748  38.502  1.00  0.00     0.059 A 
ATOM     90  F   UNL A   1      41.327  35.318  36.507  1.00  0.00    -0.206 F 
ATOM     91  C   UNL A   1      39.227  35.354  39.449  1.00  0.00     0.060 A 
BRANCH  91  92
ATOM     92  S   UNL A   1      38.888  36.392  40.888  1.00  0.00     0.124 S 
ATOM     93  O   UNL A   1      40.189  36.414  41.548  1.00  0.00    -0.237 OA
ATOM     94  O   UNL A   1      38.466  37.648  40.277  1.00  0.00    -0.237 OA
ATOM     95  O   UNL A   1      37.838  35.661  41.593  1.00  0.00    -0.744 OA
ENDBRANCH  91  92
ENDBRANCH  59  84
ENDBRANCH  33  34
ENDBRANCH  25  28
ENDBRANCH  23  24
ENDBRANCH   1  23
TORSDOF 16
ENDMDL
