MODEL 1
REMARK VINA RESULT:     -11.1      0.000      0.000
REMARK SMILES CC[C@](C)(C(=O)NCCCNC(=O)c1ccc(-c2c3nc(c(-c4c(F)cc(S(=O)(=O)[O-])cc4F)c4ccc([nH]4)c(-c4c(F)cc(S(=O)(=O)[O-])cc4F)c4nc(c(-c5c(F)cc(S(=O)(=O)[O-])cc5F)c5ccc2[nH]5)C=C4)C=C3)cc1)[C@@H]1CCC[C@@H]1O
REMARK SMILES IDX 9 1 8 2 7 3 5 4 6 5 3 7 4 8 2 9 1 10 80 11 81 12 84 13 82 14
REMARK SMILES IDX 83 15 85 16 10 18 11 19 12 20 13 22 14 23 15 24 79 25 16 26
REMARK SMILES IDX 78 27 17 28 18 29 19 30 72 31 20 32 77 33 71 34 73 35 21 36
REMARK SMILES IDX 76 37 70 38 69 39 22 41 56 42 35 43 55 44 36 45 39 46 54 47
REMARK SMILES IDX 74 48 37 49 38 50 53 52 75 53 40 54 23 55 24 56 33 57 25 58
REMARK SMILES IDX 26 59 32 60 34 61 27 62 28 63 29 64 30 65 31 66 57 67 58 68
REMARK SMILES IDX 67 69 59 70 60 71 66 72 68 73 61 74 62 75 63 76 64 77 65 78
REMARK SMILES IDX 41 79 42 80 51 81 43 82 44 83 50 84 52 85 45 86 46 87 47 88
REMARK SMILES IDX 48 89 49 90
REMARK H PARENT 7 6 85 17 11 21 73 40 39 51
REMARK Flexibility Score: inf
ROOT
ATOM      1  C   UNL A   1      37.488  23.593  25.224  1.00  0.00     0.042 C 
ENDROOT
BRANCH   1   2
ATOM      2  C   UNL A   1      36.036  24.027  25.317  1.00  0.00     0.117 C 
BRANCH   2   3
ATOM      3  N   UNL A   1      35.363  23.399  26.437  1.00  0.00    -0.356 N 
ATOM      4  C   UNL A   1      34.064  23.048  26.637  1.00  0.00     0.226 C 
ATOM      5  O   UNL A   1      33.777  22.766  27.806  1.00  0.00    -0.274 OA
ATOM      6  H   UNL A   1      35.956  23.186  27.194  1.00  0.00     0.163 HD
BRANCH   4   7
ATOM      7  C   UNL A   1      32.994  23.064  25.502  1.00  0.00     0.051 C 
ATOM      8  C   UNL A   1      31.801  22.277  26.101  1.00  0.00     0.022 C 
BRANCH   7   9
ATOM      9  C   UNL A   1      32.647  24.527  25.077  1.00  0.00     0.013 C 
ATOM     10  C   UNL A   1      33.038  25.646  26.047  1.00  0.00     0.005 C 
ENDBRANCH   7   9
BRANCH   7  11
ATOM     11  C   UNL A   1      33.571  22.225  24.277  1.00  0.00     0.033 C 
ATOM     12  C   UNL A   1      32.651  22.118  23.036  1.00  0.00     0.007 C 
ATOM     13  C   UNL A   1      34.015  20.762  24.487  1.00  0.00     0.118 C 
ATOM     14  C   UNL A   1      32.225  20.666  22.866  1.00  0.00     0.003 C 
ATOM     15  C   UNL A   1      32.873  19.884  23.988  1.00  0.00     0.032 C 
BRANCH  13  16
ATOM     16  O   UNL A   1      34.355  20.438  25.815  1.00  0.00    -0.393 OA
ATOM     17  H   UNL A   1      33.546  20.283  26.328  1.00  0.00     0.210 HD
ENDBRANCH  13  16
ENDBRANCH   7  11
ENDBRANCH   4   7
ENDBRANCH   2   3
ENDBRANCH   1   2
BRANCH   1  18
ATOM     18  C   UNL A   1      38.329  24.103  26.381  1.00  0.00     0.118 C 
BRANCH  18  19
ATOM     19  N   UNL A   1      39.755  23.872  26.171  1.00  0.00    -0.352 N 
ATOM     20  C   UNL A   1      40.831  24.624  26.572  1.00  0.00     0.251 C 
ATOM     21  H   UNL A   1      39.978  23.056  25.666  1.00  0.00     0.163 HD
ATOM     22  O   UNL A   1      41.945  24.397  26.106  1.00  0.00    -0.269 OA
BRANCH  20  23
ATOM     23  C   UNL A   1      40.635  25.713  27.551  1.00  0.00     0.039 A 
ATOM     24  C   UNL A   1      39.656  25.579  28.539  1.00  0.00     0.014 A 
ATOM     25  C   UNL A   1      41.433  26.857  27.500  1.00  0.00     0.014 A 
ATOM     26  C   UNL A   1      39.532  26.563  29.521  1.00  0.00     0.010 A 
ATOM     27  C   UNL A   1      41.380  27.779  28.536  1.00  0.00     0.010 A 
ATOM     28  C   UNL A   1      40.422  27.651  29.551  1.00  0.00    -0.014 A 
BRANCH  28  29
ATOM     29  C   UNL A   1      40.367  28.676  30.621  1.00  0.00     0.031 A 
ATOM     30  C   UNL A   1      41.237  28.529  31.841  1.00  0.00     0.074 A 
ATOM     31  C   UNL A   1      39.473  29.681  30.540  1.00  0.00     0.049 A 
ATOM     32  N   UNL A   1      41.257  29.246  32.934  1.00  0.00    -0.248 NA
ATOM     33  C   UNL A   1      42.184  27.400  31.847  1.00  0.00     0.031 C 
ATOM     34  C   UNL A   1      38.534  29.891  29.436  1.00  0.00     0.029 A 
ATOM     35  N   UNL A   1      39.191  30.702  31.413  1.00  0.00    -0.354 N 
ATOM     36  C   UNL A   1      42.198  28.645  33.761  1.00  0.00     0.074 A 
ATOM     37  C   UNL A   1      42.681  27.470  33.072  1.00  0.00     0.031 C 
ATOM     38  C   UNL A   1      37.790  30.979  29.692  1.00  0.00     0.029 A 
ATOM     39  C   UNL A   1      38.167  31.519  30.995  1.00  0.00     0.049 A 
ATOM     40  H   UNL A   1      39.677  30.836  32.258  1.00  0.00     0.167 HD
ATOM     41  C   UNL A   1      42.639  29.052  34.976  1.00  0.00     0.037 A 
ATOM     42  C   UNL A   1      37.584  32.572  31.601  1.00  0.00     0.037 A 
ATOM     43  C   UNL A   1      42.168  30.238  35.641  1.00  0.00     0.049 A 
ATOM     44  C   UNL A   1      38.092  33.012  32.946  1.00  0.00     0.074 A 
ATOM     45  C   UNL A   1      42.595  30.779  36.841  1.00  0.00     0.029 A 
ATOM     46  N   UNL A   1      41.159  31.065  35.166  1.00  0.00    -0.354 N 
ATOM     47  N   UNL A   1      39.039  32.478  33.683  1.00  0.00    -0.248 NA
ATOM     48  C   UNL A   1      37.464  34.198  33.541  1.00  0.00     0.031 C 
ATOM     49  C   UNL A   1      41.810  31.903  37.115  1.00  0.00     0.029 A 
ATOM     50  C   UNL A   1      40.932  32.097  36.059  1.00  0.00     0.049 A 
ATOM     51  H   UNL A   1      40.676  30.935  34.317  1.00  0.00     0.167 HD
ATOM     52  C   UNL A   1      39.136  33.278  34.816  1.00  0.00     0.074 A 
ATOM     53  C   UNL A   1      38.159  34.338  34.662  1.00  0.00     0.031 C 
ATOM     54  C   UNL A   1      39.959  33.148  35.886  1.00  0.00     0.037 A 
BRANCH  41  55
ATOM     55  C   UNL A   1      43.680  28.205  35.657  1.00  0.00     0.058 A 
ATOM     56  C   UNL A   1      43.331  27.200  36.575  1.00  0.00     0.135 A 
ATOM     57  C   UNL A   1      45.044  28.394  35.384  1.00  0.00     0.135 A 
ATOM     58  F   UNL A   1      42.044  26.983  36.886  1.00  0.00    -0.206 F 
ATOM     59  C   UNL A   1      44.298  26.444  37.230  1.00  0.00     0.059 A 
ATOM     60  C   UNL A   1      46.028  27.626  36.003  1.00  0.00     0.059 A 
ATOM     61  F   UNL A   1      45.436  29.338  34.515  1.00  0.00    -0.206 F 
ATOM     62  C   UNL A   1      45.645  26.668  36.940  1.00  0.00     0.060 A 
BRANCH  62  63
ATOM     63  S   UNL A   1      46.887  25.689  37.810  1.00  0.00     0.124 S 
ATOM     64  O   UNL A   1      46.518  24.333  37.413  1.00  0.00    -0.237 OA
ATOM     65  O   UNL A   1      48.135  26.195  37.247  1.00  0.00    -0.237 OA
ATOM     66  O   UNL A   1      46.656  26.016  39.213  1.00  0.00    -0.744 OA
ENDBRANCH  62  63
ENDBRANCH  41  55
BRANCH  42  67
ATOM     67  C   UNL A   1      36.464  33.282  30.926  1.00  0.00     0.058 A 
ATOM     68  C   UNL A   1      35.153  33.199  31.416  1.00  0.00     0.135 A 
ATOM     69  C   UNL A   1      36.691  34.088  29.799  1.00  0.00     0.135 A 
ATOM     70  F   UNL A   1      34.884  32.436  32.486  1.00  0.00    -0.206 F 
ATOM     71  C   UNL A   1      34.103  33.881  30.810  1.00  0.00     0.059 A 
ATOM     72  C   UNL A   1      35.662  34.802  29.192  1.00  0.00     0.059 A 
ATOM     73  F   UNL A   1      37.930  34.217  29.303  1.00  0.00    -0.206 F 
ATOM     74  C   UNL A   1      34.370  34.687  29.701  1.00  0.00     0.060 A 
BRANCH  74  75
ATOM     75  S   UNL A   1      33.010  35.620  28.962  1.00  0.00     0.124 S 
ATOM     76  O   UNL A   1      32.370  34.604  28.136  1.00  0.00    -0.237 OA
ATOM     77  O   UNL A   1      32.263  36.053  30.139  1.00  0.00    -0.237 OA
ATOM     78  O   UNL A   1      33.692  36.687  28.236  1.00  0.00    -0.744 OA
ENDBRANCH  74  75
ENDBRANCH  42  67
BRANCH  54  79
ATOM     79  C   UNL A   1      39.870  34.193  36.964  1.00  0.00     0.058 A 
ATOM     80  C   UNL A   1      40.489  35.445  36.832  1.00  0.00     0.135 A 
ATOM     81  C   UNL A   1      39.089  33.963  38.109  1.00  0.00     0.135 A 
ATOM     82  F   UNL A   1      41.252  35.714  35.761  1.00  0.00    -0.206 F 
ATOM     83  C   UNL A   1      40.347  36.430  37.805  1.00  0.00     0.059 A 
ATOM     84  C   UNL A   1      38.911  34.943  39.080  1.00  0.00     0.059 A 
ATOM     85  F   UNL A   1      38.468  32.785  38.279  1.00  0.00    -0.206 F 
ATOM     86  C   UNL A   1      39.550  36.172  38.922  1.00  0.00     0.060 A 
BRANCH  86  87
ATOM     87  S   UNL A   1      39.330  37.477  40.149  1.00  0.00     0.124 S 
ATOM     88  O   UNL A   1      38.745  36.737  41.263  1.00  0.00    -0.237 OA
ATOM     89  O   UNL A   1      40.697  37.949  40.350  1.00  0.00    -0.237 OA
ATOM     90  O   UNL A   1      38.438  38.423  39.486  1.00  0.00    -0.744 OA
ENDBRANCH  86  87
ENDBRANCH  54  79
ENDBRANCH  28  29
ENDBRANCH  20  23
ENDBRANCH  18  19
ENDBRANCH   1  18
TORSDOF 16
ENDMDL
MODEL 2
REMARK VINA RESULT:     -11.0      5.216     10.815
REMARK SMILES CC[C@](C)(C(=O)NCCCNC(=O)c1ccc(-c2c3nc(c(-c4c(F)cc(S(=O)(=O)[O-])cc4F)c4ccc([nH]4)c(-c4c(F)cc(S(=O)(=O)[O-])cc4F)c4nc(c(-c5c(F)cc(S(=O)(=O)[O-])cc5F)c5ccc2[nH]5)C=C4)C=C3)cc1)[C@@H]1CCC[C@@H]1O
REMARK SMILES IDX 9 1 8 2 7 3 5 4 6 5 3 7 4 8 2 9 1 10 80 11 81 12 84 13 82 14
REMARK SMILES IDX 83 15 85 16 10 18 11 19 12 20 13 22 14 23 15 24 79 25 16 26
REMARK SMILES IDX 78 27 17 28 18 29 19 30 72 31 20 32 77 33 71 34 73 35 21 36
REMARK SMILES IDX 76 37 70 38 69 39 22 41 56 42 35 43 55 44 36 45 39 46 54 47
REMARK SMILES IDX 74 48 37 49 38 50 53 52 75 53 40 54 23 55 24 56 33 57 25 58
REMARK SMILES IDX 26 59 32 60 34 61 27 62 28 63 29 64 30 65 31 66 57 67 58 68
REMARK SMILES IDX 67 69 59 70 60 71 66 72 68 73 61 74 62 75 63 76 64 77 65 78
REMARK SMILES IDX 41 79 42 80 51 81 43 82 44 83 50 84 52 85 45 86 46 87 47 88
REMARK SMILES IDX 48 89 49 90
REMARK H PARENT 7 6 85 17 11 21 73 40 39 51
REMARK Flexibility Score: inf
ROOT
ATOM      1  C   UNL A   1      33.687  28.058  25.747  1.00  0.00     0.042 C 
ENDROOT
BRANCH   1   2
ATOM      2  C   UNL A   1      33.638  26.578  25.412  1.00  0.00     0.117 C 
BRANCH   2   3
ATOM      3  N   UNL A   1      34.006  26.332  24.031  1.00  0.00    -0.356 N 
ATOM      4  C   UNL A   1      33.267  26.006  22.937  1.00  0.00     0.226 C 
ATOM      5  O   UNL A   1      33.923  25.616  21.965  1.00  0.00    -0.274 OA
ATOM      6  H   UNL A   1      34.971  26.417  23.852  1.00  0.00     0.163 HD
BRANCH   4   7
ATOM      7  C   UNL A   1      31.707  26.053  22.920  1.00  0.00     0.051 C 
ATOM      8  C   UNL A   1      31.350  26.091  21.413  1.00  0.00     0.022 C 
BRANCH   7   9
ATOM      9  C   UNL A   1      31.101  24.836  23.690  1.00  0.00     0.013 C 
ATOM     10  C   UNL A   1      31.602  23.442  23.298  1.00  0.00     0.005 C 
ENDBRANCH   7   9
BRANCH   7  11
ATOM     11  C   UNL A   1      31.253  27.434  23.569  1.00  0.00     0.033 C 
ATOM     12  C   UNL A   1      29.728  27.624  23.762  1.00  0.00     0.007 C 
ATOM     13  C   UNL A   1      31.671  28.767  22.912  1.00  0.00     0.118 C 
ATOM     14  C   UNL A   1      29.255  28.749  22.853  1.00  0.00     0.003 C 
ATOM     15  C   UNL A   1      30.472  29.250  22.105  1.00  0.00     0.032 C 
BRANCH  13  16
ATOM     16  O   UNL A   1      32.822  28.686  22.103  1.00  0.00    -0.393 OA
ATOM     17  H   UNL A   1      32.761  27.904  21.532  1.00  0.00     0.210 HD
ENDBRANCH  13  16
ENDBRANCH   7  11
ENDBRANCH   4   7
ENDBRANCH   2   3
ENDBRANCH   1   2
BRANCH   1  18
ATOM     18  C   UNL A   1      33.530  28.330  27.234  1.00  0.00     0.118 C 
BRANCH  18  19
ATOM     19  N   UNL A   1      33.453  29.757  27.528  1.00  0.00    -0.352 N 
ATOM     20  C   UNL A   1      34.372  30.575  28.139  1.00  0.00     0.251 C 
ATOM     21  H   UNL A   1      32.618  30.199  27.249  1.00  0.00     0.163 HD
ATOM     22  O   UNL A   1      34.041  31.698  28.510  1.00  0.00    -0.269 OA
BRANCH  20  23
ATOM     23  C   UNL A   1      35.749  30.088  28.358  1.00  0.00     0.039 A 
ATOM     24  C   UNL A   1      36.686  30.192  27.326  1.00  0.00     0.014 A 
ATOM     25  C   UNL A   1      36.116  29.544  29.590  1.00  0.00     0.014 A 
ATOM     26  C   UNL A   1      38.010  29.819  27.561  1.00  0.00     0.010 A 
ATOM     27  C   UNL A   1      37.452  29.276  29.854  1.00  0.00     0.010 A 
ATOM     28  C   UNL A   1      38.412  29.397  28.840  1.00  0.00    -0.014 A 
BRANCH  28  29
ATOM     29  C   UNL A   1      39.825  29.064  29.145  1.00  0.00     0.031 A 
ATOM     30  C   UNL A   1      40.735  30.119  29.715  1.00  0.00     0.074 A 
ATOM     31  C   UNL A   1      40.311  27.849  28.823  1.00  0.00     0.049 A 
ATOM     32  N   UNL A   1      42.021  30.066  29.943  1.00  0.00    -0.248 NA
ATOM     33  C   UNL A   1      40.121  31.420  30.036  1.00  0.00     0.031 C 
ATOM     34  C   UNL A   1      39.540  26.766  28.208  1.00  0.00     0.029 A 
ATOM     35  N   UNL A   1      41.573  27.327  28.946  1.00  0.00    -0.354 N 
ATOM     36  C   UNL A   1      42.372  31.327  30.411  1.00  0.00     0.074 A 
ATOM     37  C   UNL A   1      41.178  32.141  30.375  1.00  0.00     0.031 C 
ATOM     38  C   UNL A   1      40.343  25.706  28.020  1.00  0.00     0.029 A 
ATOM     39  C   UNL A   1      41.693  26.046  28.460  1.00  0.00     0.049 A 
ATOM     40  H   UNL A   1      42.324  27.823  29.346  1.00  0.00     0.167 HD
ATOM     41  C   UNL A   1      43.576  31.760  30.856  1.00  0.00     0.037 A 
ATOM     42  C   UNL A   1      42.770  25.244  28.360  1.00  0.00     0.037 A 
ATOM     43  C   UNL A   1      44.752  30.932  30.911  1.00  0.00     0.049 A 
ATOM     44  C   UNL A   1      44.097  25.740  28.866  1.00  0.00     0.074 A 
ATOM     45  C   UNL A   1      46.004  31.248  31.406  1.00  0.00     0.029 A 
ATOM     46  N   UNL A   1      44.822  29.625  30.448  1.00  0.00    -0.354 N 
ATOM     47  N   UNL A   1      44.397  26.910  29.380  1.00  0.00    -0.248 NA
ATOM     48  C   UNL A   1      45.230  24.809  28.790  1.00  0.00     0.031 C 
ATOM     49  C   UNL A   1      46.845  30.150  31.196  1.00  0.00     0.029 A 
ATOM     50  C   UNL A   1      46.103  29.129  30.623  1.00  0.00     0.049 A 
ATOM     51  H   UNL A   1      44.071  29.125  30.053  1.00  0.00     0.167 HD
ATOM     52  C   UNL A   1      45.746  26.847  29.709  1.00  0.00     0.074 A 
ATOM     53  C   UNL A   1      46.201  25.520  29.347  1.00  0.00     0.031 C 
ATOM     54  C   UNL A   1      46.536  27.801  30.262  1.00  0.00     0.037 A 
BRANCH  41  55
ATOM     55  C   UNL A   1      43.675  33.190  31.316  1.00  0.00     0.058 A 
ATOM     56  C   UNL A   1      44.033  34.226  30.437  1.00  0.00     0.135 A 
ATOM     57  C   UNL A   1      43.402  33.531  32.650  1.00  0.00     0.135 A 
ATOM     58  F   UNL A   1      44.318  33.958  29.154  1.00  0.00    -0.206 F 
ATOM     59  C   UNL A   1      44.159  35.541  30.874  1.00  0.00     0.059 A 
ATOM     60  C   UNL A   1      43.490  34.846  33.102  1.00  0.00     0.059 A 
ATOM     61  F   UNL A   1      43.055  32.583  33.534  1.00  0.00    -0.206 F 
ATOM     62  C   UNL A   1      43.889  35.839  32.211  1.00  0.00     0.060 A 
BRANCH  62  63
ATOM     63  S   UNL A   1      44.073  37.548  32.765  1.00  0.00     0.124 S 
ATOM     64  O   UNL A   1      43.013  37.643  33.765  1.00  0.00    -0.237 OA
ATOM     65  O   UNL A   1      45.436  37.563  33.285  1.00  0.00    -0.237 OA
ATOM     66  O   UNL A   1      43.859  38.325  31.549  1.00  0.00    -0.744 OA
ENDBRANCH  62  63
ENDBRANCH  41  55
BRANCH  42  67
ATOM     67  C   UNL A   1      42.626  23.887  27.769  1.00  0.00     0.058 A 
ATOM     68  C   UNL A   1      42.689  23.690  26.382  1.00  0.00     0.135 A 
ATOM     69  C   UNL A   1      42.458  22.755  28.581  1.00  0.00     0.135 A 
ATOM     70  F   UNL A   1      42.842  24.742  25.561  1.00  0.00    -0.206 F 
ATOM     71  C   UNL A   1      42.584  22.423  25.818  1.00  0.00     0.059 A 
ATOM     72  C   UNL A   1      42.376  21.473  28.044  1.00  0.00     0.059 A 
ATOM     73  F   UNL A   1      42.410  22.886  29.915  1.00  0.00    -0.206 F 
ATOM     74  C   UNL A   1      42.434  21.318  26.660  1.00  0.00     0.060 A 
BRANCH  74  75
ATOM     75  S   UNL A   1      42.364  19.671  25.922  1.00  0.00     0.124 S 
ATOM     76  O   UNL A   1      43.376  19.773  24.877  1.00  0.00    -0.237 OA
ATOM     77  O   UNL A   1      42.697  18.814  27.055  1.00  0.00    -0.237 OA
ATOM     78  O   UNL A   1      40.984  19.571  25.456  1.00  0.00    -0.744 OA
ENDBRANCH  74  75
ENDBRANCH  42  67
BRANCH  54  79
ATOM     79  C   UNL A   1      47.968  27.440  30.545  1.00  0.00     0.058 A 
ATOM     80  C   UNL A   1      48.351  26.818  31.742  1.00  0.00     0.135 A 
ATOM     81  C   UNL A   1      48.957  27.652  29.570  1.00  0.00     0.135 A 
ATOM     82  F   UNL A   1      47.447  26.598  32.711  1.00  0.00    -0.206 F 
ATOM     83  C   UNL A   1      49.668  26.428  31.969  1.00  0.00     0.059 A 
ATOM     84  C   UNL A   1      50.273  27.245  29.764  1.00  0.00     0.059 A 
ATOM     85  F   UNL A   1      48.642  28.235  28.402  1.00  0.00    -0.206 F 
ATOM     86  C   UNL A   1      50.620  26.640  30.971  1.00  0.00     0.060 A 
BRANCH  86  87
ATOM     87  S   UNL A   1      52.312  26.080  31.255  1.00  0.00     0.124 S 
ATOM     88  O   UNL A   1      52.867  26.125  29.906  1.00  0.00    -0.237 OA
ATOM     89  O   UNL A   1      52.821  27.086  32.183  1.00  0.00    -0.237 OA
ATOM     90  O   UNL A   1      52.141  24.745  31.819  1.00  0.00    -0.744 OA
ENDBRANCH  86  87
ENDBRANCH  54  79
ENDBRANCH  28  29
ENDBRANCH  20  23
ENDBRANCH  18  19
ENDBRANCH   1  18
TORSDOF 16
ENDMDL
MODEL 3
REMARK VINA RESULT:     -10.9      4.960     10.537
REMARK SMILES CC[C@](C)(C(=O)NCCCNC(=O)c1ccc(-c2c3nc(c(-c4c(F)cc(S(=O)(=O)[O-])cc4F)c4ccc([nH]4)c(-c4c(F)cc(S(=O)(=O)[O-])cc4F)c4nc(c(-c5c(F)cc(S(=O)(=O)[O-])cc5F)c5ccc2[nH]5)C=C4)C=C3)cc1)[C@@H]1CCC[C@@H]1O
REMARK SMILES IDX 9 1 8 2 7 3 5 4 6 5 3 7 4 8 2 9 1 10 80 11 81 12 84 13 82 14
REMARK SMILES IDX 83 15 85 16 10 18 11 19 12 20 13 22 14 23 15 24 79 25 16 26
REMARK SMILES IDX 78 27 17 28 18 29 19 30 72 31 20 32 77 33 71 34 73 35 21 36
REMARK SMILES IDX 76 37 70 38 69 39 22 41 56 42 35 43 55 44 36 45 39 46 54 47
REMARK SMILES IDX 74 48 37 49 38 50 53 52 75 53 40 54 23 55 24 56 33 57 25 58
REMARK SMILES IDX 26 59 32 60 34 61 27 62 28 63 29 64 30 65 31 66 57 67 58 68
REMARK SMILES IDX 67 69 59 70 60 71 66 72 68 73 61 74 62 75 63 76 64 77 65 78
REMARK SMILES IDX 41 79 42 80 51 81 43 82 44 83 50 84 52 85 45 86 46 87 47 88
REMARK SMILES IDX 48 89 49 90
REMARK H PARENT 7 6 85 17 11 21 73 40 39 51
REMARK Flexibility Score: inf
ROOT
ATOM      1  C   UNL A   1      33.971  27.937  25.931  1.00  0.00     0.042 C 
ENDROOT
BRANCH   1   2
ATOM      2  C   UNL A   1      33.494  26.575  25.461  1.00  0.00     0.117 C 
BRANCH   2   3
ATOM      3  N   UNL A   1      33.561  26.457  24.017  1.00  0.00    -0.356 N 
ATOM      4  C   UNL A   1      33.660  25.376  23.197  1.00  0.00     0.226 C 
ATOM      5  O   UNL A   1      33.953  25.639  22.025  1.00  0.00    -0.274 OA
ATOM      6  H   UNL A   1      33.528  27.318  23.542  1.00  0.00     0.163 HD
BRANCH   4   7
ATOM      7  C   UNL A   1      33.487  23.909  23.699  1.00  0.00     0.051 C 
ATOM      8  C   UNL A   1      32.193  23.955  24.552  1.00  0.00     0.022 C 
BRANCH   7   9
ATOM      9  C   UNL A   1      33.427  22.909  22.500  1.00  0.00     0.013 C 
ATOM     10  C   UNL A   1      32.228  21.955  22.446  1.00  0.00     0.005 C 
ENDBRANCH   7   9
BRANCH   7  11
ATOM     11  C   UNL A   1      34.704  23.578  24.670  1.00  0.00     0.033 C 
ATOM     12  C   UNL A   1      36.110  23.582  24.021  1.00  0.00     0.007 C 
ATOM     13  C   UNL A   1      34.714  22.259  25.471  1.00  0.00     0.118 C 
ATOM     14  C   UNL A   1      36.669  22.167  24.053  1.00  0.00     0.003 C 
ATOM     15  C   UNL A   1      35.622  21.296  24.714  1.00  0.00     0.032 C 
BRANCH  13  16
ATOM     16  O   UNL A   1      33.441  21.691  25.680  1.00  0.00    -0.393 OA
ATOM     17  H   UNL A   1      33.543  20.789  26.023  1.00  0.00     0.210 HD
ENDBRANCH  13  16
ENDBRANCH   7  11
ENDBRANCH   4   7
ENDBRANCH   2   3
ENDBRANCH   1   2
BRANCH   1  18
ATOM     18  C   UNL A   1      33.452  28.298  27.313  1.00  0.00     0.118 C 
BRANCH  18  19
ATOM     19  N   UNL A   1      33.396  29.741  27.522  1.00  0.00    -0.352 N 
ATOM     20  C   UNL A   1      34.330  30.580  28.078  1.00  0.00     0.251 C 
ATOM     21  H   UNL A   1      32.566  30.177  27.221  1.00  0.00     0.163 HD
ATOM     22  O   UNL A   1      34.018  31.728  28.383  1.00  0.00    -0.269 OA
BRANCH  20  23
ATOM     23  C   UNL A   1      35.701  30.087  28.319  1.00  0.00     0.039 A 
ATOM     24  C   UNL A   1      36.634  30.120  27.279  1.00  0.00     0.014 A 
ATOM     25  C   UNL A   1      36.067  29.610  29.579  1.00  0.00     0.014 A 
ATOM     26  C   UNL A   1      37.955  29.742  27.529  1.00  0.00     0.010 A 
ATOM     27  C   UNL A   1      37.401  29.338  29.852  1.00  0.00     0.010 A 
ATOM     28  C   UNL A   1      38.358  29.389  28.829  1.00  0.00    -0.014 A 
BRANCH  28  29
ATOM     29  C   UNL A   1      39.767  29.053  29.146  1.00  0.00     0.031 A 
ATOM     30  C   UNL A   1      40.678  30.112  29.709  1.00  0.00     0.074 A 
ATOM     31  C   UNL A   1      40.250  27.833  28.842  1.00  0.00     0.049 A 
ATOM     32  N   UNL A   1      41.962  30.057  29.946  1.00  0.00    -0.248 NA
ATOM     33  C   UNL A   1      40.067  31.419  30.010  1.00  0.00     0.031 C 
ATOM     34  C   UNL A   1      39.479  26.745  28.236  1.00  0.00     0.029 A 
ATOM     35  N   UNL A   1      41.510  27.308  28.979  1.00  0.00    -0.354 N 
ATOM     36  C   UNL A   1      42.315  31.322  30.400  1.00  0.00     0.074 A 
ATOM     37  C   UNL A   1      41.124  32.140  30.347  1.00  0.00     0.031 C 
ATOM     38  C   UNL A   1      40.279  25.680  28.066  1.00  0.00     0.029 A 
ATOM     39  C   UNL A   1      41.627  26.020  28.510  1.00  0.00     0.049 A 
ATOM     40  H   UNL A   1      42.260  27.806  29.378  1.00  0.00     0.167 HD
ATOM     41  C   UNL A   1      43.518  31.756  30.847  1.00  0.00     0.037 A 
ATOM     42  C   UNL A   1      42.702  25.213  28.427  1.00  0.00     0.037 A 
ATOM     43  C   UNL A   1      44.691  30.924  30.919  1.00  0.00     0.049 A 
ATOM     44  C   UNL A   1      44.028  25.710  28.935  1.00  0.00     0.074 A 
ATOM     45  C   UNL A   1      45.941  31.241  31.418  1.00  0.00     0.029 A 
ATOM     46  N   UNL A   1      44.758  29.611  30.473  1.00  0.00    -0.354 N 
ATOM     47  N   UNL A   1      44.329  26.885  29.435  1.00  0.00    -0.248 NA
ATOM     48  C   UNL A   1      45.158  24.774  28.876  1.00  0.00     0.031 C 
ATOM     49  C   UNL A   1      46.779  30.138  31.227  1.00  0.00     0.029 A 
ATOM     50  C   UNL A   1      46.036  29.113  30.662  1.00  0.00     0.049 A 
ATOM     51  H   UNL A   1      44.008  29.109  30.079  1.00  0.00     0.167 HD
ATOM     52  C   UNL A   1      45.676  26.821  29.774  1.00  0.00     0.074 A 
ATOM     53  C   UNL A   1      46.128  25.488  29.431  1.00  0.00     0.031 C 
ATOM     54  C   UNL A   1      46.466  27.778  30.320  1.00  0.00     0.037 A 
BRANCH  41  55
ATOM     55  C   UNL A   1      43.620  33.191  31.290  1.00  0.00     0.058 A 
ATOM     56  C   UNL A   1      44.072  34.202  30.425  1.00  0.00     0.135 A 
ATOM     57  C   UNL A   1      43.254  33.563  32.593  1.00  0.00     0.135 A 
ATOM     58  F   UNL A   1      44.449  33.903  29.172  1.00  0.00    -0.206 F 
ATOM     59  C   UNL A   1      44.199  35.520  30.849  1.00  0.00     0.059 A 
ATOM     60  C   UNL A   1      43.342  34.883  33.030  1.00  0.00     0.059 A 
ATOM     61  F   UNL A   1      42.814  32.641  33.463  1.00  0.00    -0.206 F 
ATOM     62  C   UNL A   1      43.835  35.850  32.156  1.00  0.00     0.060 A 
BRANCH  62  63
ATOM     63  S   UNL A   1      44.022  37.563  32.695  1.00  0.00     0.124 S 
ATOM     64  O   UNL A   1      43.758  38.287  31.455  1.00  0.00    -0.237 OA
ATOM     65  O   UNL A   1      42.996  37.679  33.726  1.00  0.00    -0.237 OA
ATOM     66  O   UNL A   1      45.399  37.621  33.174  1.00  0.00    -0.744 OA
ENDBRANCH  62  63
ENDBRANCH  41  55
BRANCH  42  67
ATOM     67  C   UNL A   1      42.556  23.849  27.850  1.00  0.00     0.058 A 
ATOM     68  C   UNL A   1      42.464  22.720  28.676  1.00  0.00     0.135 A 
ATOM     69  C   UNL A   1      42.467  23.653  26.463  1.00  0.00     0.135 A 
ATOM     70  F   UNL A   1      42.550  22.853  30.008  1.00  0.00    -0.206 F 
ATOM     71  C   UNL A   1      42.298  21.443  28.150  1.00  0.00     0.059 A 
ATOM     72  C   UNL A   1      42.275  22.389  25.913  1.00  0.00     0.059 A 
ATOM     73  F   UNL A   1      42.530  24.703  25.630  1.00  0.00    -0.206 F 
ATOM     74  C   UNL A   1      42.198  21.288  26.765  1.00  0.00     0.060 A 
BRANCH  74  75
ATOM     75  S   UNL A   1      41.917  19.634  26.096  1.00  0.00     0.124 S 
ATOM     76  O   UNL A   1      42.316  18.792  27.217  1.00  0.00    -0.237 OA
ATOM     77  O   UNL A   1      40.490  19.665  25.794  1.00  0.00    -0.237 OA
ATOM     78  O   UNL A   1      42.795  19.591  24.930  1.00  0.00    -0.744 OA
ENDBRANCH  74  75
ENDBRANCH  42  67
BRANCH  54  79
ATOM     79  C   UNL A   1      47.895  27.416  30.616  1.00  0.00     0.058 A 
ATOM     80  C   UNL A   1      48.264  26.781  31.811  1.00  0.00     0.135 A 
ATOM     81  C   UNL A   1      48.896  27.639  29.655  1.00  0.00     0.135 A 
ATOM     82  F   UNL A   1      47.349  26.551  32.766  1.00  0.00    -0.206 F 
ATOM     83  C   UNL A   1      49.579  26.390  32.049  1.00  0.00     0.059 A 
ATOM     84  C   UNL A   1      50.209  27.231  29.860  1.00  0.00     0.059 A 
ATOM     85  F   UNL A   1      48.593  28.235  28.490  1.00  0.00    -0.206 F 
ATOM     86  C   UNL A   1      50.542  26.613  31.064  1.00  0.00     0.060 A 
BRANCH  86  87
ATOM     87  S   UNL A   1      52.231  26.051  31.363  1.00  0.00     0.124 S 
ATOM     88  O   UNL A   1      52.814  26.150  30.028  1.00  0.00    -0.237 OA
ATOM     89  O   UNL A   1      52.715  27.024  32.338  1.00  0.00    -0.237 OA
ATOM     90  O   UNL A   1      52.056  24.695  31.873  1.00  0.00    -0.744 OA
ENDBRANCH  86  87
ENDBRANCH  54  79
ENDBRANCH  28  29
ENDBRANCH  20  23
ENDBRANCH  18  19
ENDBRANCH   1  18
TORSDOF 16
ENDMDL
