MODEL 1
REMARK VINA RESULT:     -10.8      0.000      0.000
REMARK SMILES CCc1ccc(S(=O)(=O)N[C@H](C(=O)NCCCNC(=O)c2ccc(-c3c4nc(c(-c5c(F)cc(S(=O)(=O)[O-])cc5F)c5ccc([nH]5)c(-c5c(F)cc(S(=O)(=O)[O-])cc5F)c5nc(c(-c6c(F)cc(S(=O)(=O)[O-])cc6F)c6ccc3[nH]6)C=C5)C=C4)cc2)C(C)C)cc1
REMARK SMILES IDX 15 1 14 2 12 3 13 4 11 6 10 7 7 9 8 10 9 11 6 12 3 13 4 14
REMARK SMILES IDX 91 15 5 16 90 17 2 18 1 19 87 20 88 21 89 22 16 23 17 24
REMARK SMILES IDX 18 25 19 26 20 28 21 29 22 30 86 31 23 32 85 33 24 34 25 35
REMARK SMILES IDX 26 36 79 37 27 38 84 39 78 40 80 41 28 42 83 43 77 44 76 45
REMARK SMILES IDX 29 47 63 48 42 49 62 50 43 51 46 52 61 53 81 54 44 55 45 56
REMARK SMILES IDX 60 58 82 59 47 60 30 61 31 62 40 63 32 64 33 65 39 66 41 67
REMARK SMILES IDX 34 68 35 69 36 70 37 71 38 72 64 73 65 74 74 75 66 76 67 77
REMARK SMILES IDX 73 78 75 79 68 80 69 81 70 82 71 83 72 84 48 85 49 86 58 87
REMARK SMILES IDX 50 88 51 89 57 90 59 91 52 92 53 93 54 94 55 95 56 96
REMARK H PARENT 14 5 10 8 18 27 80 46 46 57
REMARK Flexibility Score: inf
ROOT
ATOM      1  C   UNL A   1      33.877  33.396  28.257  1.00  0.00     0.117 C 
ENDROOT
BRANCH   1   2
ATOM      2  N   UNL A   1      33.599  34.816  28.185  1.00  0.00    -0.355 N 
ATOM      3  C   UNL A   1      33.320  35.710  29.171  1.00  0.00     0.238 C 
ATOM      4  O   UNL A   1      33.280  36.904  28.851  1.00  0.00    -0.273 OA
ATOM      5  H   UNL A   1      33.614  35.195  27.276  1.00  0.00     0.163 HD
BRANCH   3   6
ATOM      6  C   UNL A   1      33.130  35.273  30.647  1.00  0.00     0.161 C 
BRANCH   6   7
ATOM      7  N   UNL A   1      34.518  34.989  31.061  1.00  0.00    -0.198 NA
ATOM      8  H   UNL A   1      35.029  34.813  30.196  1.00  0.00     0.142 HD
BRANCH   7   9
ATOM      9  S   UNL A   1      34.972  33.777  32.099  1.00  0.00     0.241 S 
ATOM     10  O   UNL A   1      34.328  32.558  31.658  1.00  0.00    -0.207 OA
ATOM     11  O   UNL A   1      34.780  34.290  33.434  1.00  0.00    -0.207 OA
BRANCH   9  12
ATOM     12  C   UNL A   1      36.718  33.556  31.874  1.00  0.00     0.082 A 
ATOM     13  C   UNL A   1      39.502  33.431  31.515  1.00  0.00    -0.048 A 
ATOM     14  C   UNL A   1      38.662  33.841  30.469  1.00  0.00     0.005 A 
ATOM     15  C   UNL A   1      38.915  33.015  32.720  1.00  0.00     0.005 A 
ATOM     16  C   UNL A   1      37.280  33.913  30.646  1.00  0.00     0.022 A 
ATOM     17  C   UNL A   1      37.525  33.074  32.903  1.00  0.00     0.022 A 
BRANCH  13  18
ATOM     18  C   UNL A   1      40.996  33.451  31.268  1.00  0.00     0.032 C 
ATOM     19  C   UNL A   1      41.796  34.538  31.971  1.00  0.00     0.009 C 
ENDBRANCH  13  18
ENDBRANCH   9  12
ENDBRANCH   7   9
ENDBRANCH   6   7
BRANCH   6  20
ATOM     20  C   UNL A   1      32.516  36.459  31.430  1.00  0.00     0.010 C 
ATOM     21  C   UNL A   1      31.510  35.950  32.475  1.00  0.00     0.009 C 
ATOM     22  C   UNL A   1      33.567  37.311  32.144  1.00  0.00     0.009 C 
ENDBRANCH   6  20
ENDBRANCH   3   6
ENDBRANCH   1   2
BRANCH   1  23
ATOM     23  C   UNL A   1      35.343  33.063  28.031  1.00  0.00     0.042 C 
BRANCH  23  24
ATOM     24  C   UNL A   1      35.658  31.572  28.068  1.00  0.00     0.118 C 
BRANCH  24  25
ATOM     25  N   UNL A   1      35.574  30.999  29.406  1.00  0.00    -0.352 N 
ATOM     26  C   UNL A   1      36.485  30.273  30.136  1.00  0.00     0.251 C 
ATOM     27  H   UNL A   1      34.718  31.160  29.866  1.00  0.00     0.163 HD
ATOM     28  O   UNL A   1      36.119  29.739  31.182  1.00  0.00    -0.269 OA
BRANCH  26  29
ATOM     29  C   UNL A   1      37.878  30.102  29.667  1.00  0.00     0.039 A 
ATOM     30  C   UNL A   1      38.910  30.054  30.611  1.00  0.00     0.014 A 
ATOM     31  C   UNL A   1      38.180  30.006  28.308  1.00  0.00     0.014 A 
ATOM     32  C   UNL A   1      40.224  29.819  30.195  1.00  0.00     0.010 A 
ATOM     33  C   UNL A   1      39.472  29.679  27.903  1.00  0.00     0.010 A 
ATOM     34  C   UNL A   1      40.508  29.578  28.842  1.00  0.00    -0.014 A 
BRANCH  34  35
ATOM     35  C   UNL A   1      41.873  29.205  28.385  1.00  0.00     0.031 A 
ATOM     36  C   UNL A   1      42.180  27.787  27.982  1.00  0.00     0.074 A 
ATOM     37  C   UNL A   1      42.861  30.122  28.422  1.00  0.00     0.049 A 
ATOM     38  N   UNL A   1      43.329  27.248  27.668  1.00  0.00    -0.248 NA
ATOM     39  C   UNL A   1      41.051  26.842  27.967  1.00  0.00     0.031 C 
ATOM     40  C   UNL A   1      42.710  31.514  28.854  1.00  0.00     0.029 A 
ATOM     41  N   UNL A   1      44.194  30.018  28.109  1.00  0.00    -0.354 N 
ATOM     42  C   UNL A   1      43.068  25.900  27.446  1.00  0.00     0.074 A 
ATOM     43  C   UNL A   1      41.660  25.695  27.707  1.00  0.00     0.031 C 
ATOM     44  C   UNL A   1      43.895  32.137  28.759  1.00  0.00     0.029 A 
ATOM     45  C   UNL A   1      44.898  31.183  28.297  1.00  0.00     0.049 A 
ATOM     46  H   UNL A   1      44.605  29.186  27.781  1.00  0.00     0.167 HD
ATOM     47  C   UNL A   1      43.920  24.926  27.042  1.00  0.00     0.037 A 
ATOM     48  C   UNL A   1      46.206  31.454  28.126  1.00  0.00     0.037 A 
ATOM     49  C   UNL A   1      45.309  25.144  26.739  1.00  0.00     0.049 A 
ATOM     50  C   UNL A   1      47.124  30.369  27.637  1.00  0.00     0.074 A 
ATOM     51  C   UNL A   1      46.235  24.240  26.247  1.00  0.00     0.029 A 
ATOM     52  N   UNL A   1      45.974  26.352  26.894  1.00  0.00    -0.354 N 
ATOM     53  N   UNL A   1      46.846  29.115  27.372  1.00  0.00    -0.248 NA
ATOM     54  C   UNL A   1      48.531  30.735  27.417  1.00  0.00     0.031 C 
ATOM     55  C   UNL A   1      47.468  24.894  26.134  1.00  0.00     0.029 A 
ATOM     56  C   UNL A   1      47.300  26.214  26.520  1.00  0.00     0.049 A 
ATOM     57  H   UNL A   1      45.563  27.184  27.221  1.00  0.00     0.167 HD
ATOM     58  C   UNL A   1      48.037  28.547  26.934  1.00  0.00     0.074 A 
ATOM     59  C   UNL A   1      49.035  29.597  26.959  1.00  0.00     0.031 C 
ATOM     60  C   UNL A   1      48.280  27.271  26.546  1.00  0.00     0.037 A 
BRANCH  47  61
ATOM     61  C   UNL A   1      43.364  23.537  26.895  1.00  0.00     0.058 A 
ATOM     62  C   UNL A   1      43.174  22.698  28.005  1.00  0.00     0.135 A 
ATOM     63  C   UNL A   1      42.998  23.044  25.632  1.00  0.00     0.135 A 
ATOM     64  F   UNL A   1      43.522  23.114  29.233  1.00  0.00    -0.206 F 
ATOM     65  C   UNL A   1      42.676  21.407  27.864  1.00  0.00     0.059 A 
ATOM     66  C   UNL A   1      42.473  21.765  25.471  1.00  0.00     0.059 A 
ATOM     67  F   UNL A   1      43.157  23.804  24.537  1.00  0.00    -0.206 F 
ATOM     68  C   UNL A   1      42.333  20.947  26.592  1.00  0.00     0.060 A 
BRANCH  68  69
ATOM     69  S   UNL A   1      41.697  19.266  26.423  1.00  0.00     0.124 S 
ATOM     70  O   UNL A   1      41.696  18.818  27.812  1.00  0.00    -0.237 OA
ATOM     71  O   UNL A   1      40.383  19.486  25.828  1.00  0.00    -0.237 OA
ATOM     72  O   UNL A   1      42.675  18.619  25.554  1.00  0.00    -0.744 OA
ENDBRANCH  68  69
ENDBRANCH  47  61
BRANCH  48  73
ATOM     73  C   UNL A   1      46.717  32.825  28.392  1.00  0.00     0.058 A 
ATOM     74  C   UNL A   1      46.703  33.803  27.387  1.00  0.00     0.135 A 
ATOM     75  C   UNL A   1      47.194  33.193  29.659  1.00  0.00     0.135 A 
ATOM     76  F   UNL A   1      46.260  33.495  26.158  1.00  0.00    -0.206 F 
ATOM     77  C   UNL A   1      47.152  35.098  27.625  1.00  0.00     0.059 A 
ATOM     78  C   UNL A   1      47.629  34.487  29.927  1.00  0.00     0.059 A 
ATOM     79  F   UNL A   1      47.209  32.297  30.659  1.00  0.00    -0.206 F 
ATOM     80  C   UNL A   1      47.610  35.431  28.901  1.00  0.00     0.060 A 
BRANCH  80  81
ATOM     81  S   UNL A   1      48.125  37.132  29.220  1.00  0.00     0.124 S 
ATOM     82  O   UNL A   1      47.212  37.881  28.365  1.00  0.00    -0.237 OA
ATOM     83  O   UNL A   1      47.904  37.257  30.657  1.00  0.00    -0.237 OA
ATOM     84  O   UNL A   1      49.526  37.139  28.809  1.00  0.00    -0.744 OA
ENDBRANCH  80  81
ENDBRANCH  48  73
BRANCH  60  85
ATOM     85  C   UNL A   1      49.673  26.942  26.089  1.00  0.00     0.058 A 
ATOM     86  C   UNL A   1      50.622  26.392  26.964  1.00  0.00     0.135 A 
ATOM     87  C   UNL A   1      50.045  27.133  24.748  1.00  0.00     0.135 A 
ATOM     88  F   UNL A   1      50.318  26.198  28.257  1.00  0.00    -0.206 F 
ATOM     89  C   UNL A   1      51.901  26.057  26.529  1.00  0.00     0.059 A 
ATOM     90  C   UNL A   1      51.309  26.785  24.287  1.00  0.00     0.059 A 
ATOM     91  F   UNL A   1      49.170  27.649  23.871  1.00  0.00    -0.206 F 
ATOM     92  C   UNL A   1      52.235  26.257  25.188  1.00  0.00     0.060 A 
BRANCH  92  93
ATOM     93  S   UNL A   1      53.883  25.785  24.625  1.00  0.00     0.124 S 
ATOM     94  O   UNL A   1      53.830  26.160  23.216  1.00  0.00    -0.237 OA
ATOM     95  O   UNL A   1      54.749  26.604  25.467  1.00  0.00    -0.237 OA
ATOM     96  O   UNL A   1      53.935  24.350  24.893  1.00  0.00    -0.744 OA
ENDBRANCH  92  93
ENDBRANCH  60  85
ENDBRANCH  34  35
ENDBRANCH  26  29
ENDBRANCH  24  25
ENDBRANCH  23  24
ENDBRANCH   1  23
TORSDOF 18
ENDMDL
MODEL 2
REMARK VINA RESULT:     -10.7      0.633      8.282
REMARK SMILES CCc1ccc(S(=O)(=O)N[C@H](C(=O)NCCCNC(=O)c2ccc(-c3c4nc(c(-c5c(F)cc(S(=O)(=O)[O-])cc5F)c5ccc([nH]5)c(-c5c(F)cc(S(=O)(=O)[O-])cc5F)c5nc(c(-c6c(F)cc(S(=O)(=O)[O-])cc6F)c6ccc3[nH]6)C=C5)C=C4)cc2)C(C)C)cc1
REMARK SMILES IDX 15 1 14 2 12 3 13 4 11 6 10 7 7 9 8 10 9 11 6 12 3 13 4 14
REMARK SMILES IDX 91 15 5 16 90 17 2 18 1 19 87 20 88 21 89 22 16 23 17 24
REMARK SMILES IDX 18 25 19 26 20 28 21 29 22 30 86 31 23 32 85 33 24 34 25 35
REMARK SMILES IDX 26 36 79 37 27 38 84 39 78 40 80 41 28 42 83 43 77 44 76 45
REMARK SMILES IDX 29 47 63 48 42 49 62 50 43 51 46 52 61 53 81 54 44 55 45 56
REMARK SMILES IDX 60 58 82 59 47 60 30 61 31 62 40 63 32 64 33 65 39 66 41 67
REMARK SMILES IDX 34 68 35 69 36 70 37 71 38 72 64 73 65 74 74 75 66 76 67 77
REMARK SMILES IDX 73 78 75 79 68 80 69 81 70 82 71 83 72 84 48 85 49 86 58 87
REMARK SMILES IDX 50 88 51 89 57 90 59 91 52 92 53 93 54 94 55 95 56 96
REMARK H PARENT 14 5 10 8 18 27 80 46 46 57
REMARK Flexibility Score: inf
ROOT
ATOM      1  C   UNL A   1      33.979  33.441  28.362  1.00  0.00     0.117 C 
ENDROOT
BRANCH   1   2
ATOM      2  N   UNL A   1      33.717  34.864  28.271  1.00  0.00    -0.355 N 
ATOM      3  C   UNL A   1      33.395  35.763  29.239  1.00  0.00     0.238 C 
ATOM      4  O   UNL A   1      33.383  36.956  28.915  1.00  0.00    -0.273 OA
ATOM      5  H   UNL A   1      33.784  35.239  27.364  1.00  0.00     0.163 HD
BRANCH   3   6
ATOM      6  C   UNL A   1      33.122  35.332  30.704  1.00  0.00     0.161 C 
BRANCH   6   7
ATOM      7  N   UNL A   1      34.484  35.048  31.195  1.00  0.00    -0.198 NA
ATOM      8  H   UNL A   1      35.007  34.731  30.379  1.00  0.00     0.142 HD
BRANCH   7   9
ATOM      9  S   UNL A   1      34.855  33.973  32.405  1.00  0.00     0.241 S 
ATOM     10  O   UNL A   1      34.091  32.766  32.167  1.00  0.00    -0.207 OA
ATOM     11  O   UNL A   1      34.744  34.701  33.646  1.00  0.00    -0.207 OA
BRANCH   9  12
ATOM     12  C   UNL A   1      36.567  33.558  32.196  1.00  0.00     0.082 A 
ATOM     13  C   UNL A   1      39.327  33.119  31.902  1.00  0.00    -0.048 A 
ATOM     14  C   UNL A   1      38.602  33.811  30.920  1.00  0.00     0.005 A 
ATOM     15  C   UNL A   1      38.628  32.587  32.997  1.00  0.00     0.005 A 
ATOM     16  C   UNL A   1      37.234  34.039  31.067  1.00  0.00     0.022 A 
ATOM     17  C   UNL A   1      37.250  32.803  33.147  1.00  0.00     0.022 A 
BRANCH  13  18
ATOM     18  C   UNL A   1      40.821  32.977  31.706  1.00  0.00     0.032 C 
ATOM     19  C   UNL A   1      41.719  33.699  32.702  1.00  0.00     0.009 C 
ENDBRANCH  13  18
ENDBRANCH   9  12
ENDBRANCH   7   9
ENDBRANCH   6   7
BRANCH   6  20
ATOM     20  C   UNL A   1      32.468  36.522  31.447  1.00  0.00     0.010 C 
ATOM     21  C   UNL A   1      31.512  36.014  32.538  1.00  0.00     0.009 C 
ATOM     22  C   UNL A   1      33.491  37.456  32.096  1.00  0.00     0.009 C 
ENDBRANCH   6  20
ENDBRANCH   3   6
ENDBRANCH   1   2
BRANCH   1  23
ATOM     23  C   UNL A   1      35.411  33.075  28.012  1.00  0.00     0.042 C 
BRANCH  23  24
ATOM     24  C   UNL A   1      35.776  31.623  28.308  1.00  0.00     0.118 C 
BRANCH  24  25
ATOM     25  N   UNL A   1      35.595  31.260  29.708  1.00  0.00    -0.352 N 
ATOM     26  C   UNL A   1      36.330  30.439  30.530  1.00  0.00     0.251 C 
ATOM     27  H   UNL A   1      34.812  31.673  30.140  1.00  0.00     0.163 HD
ATOM     28  O   UNL A   1      35.878  30.141  31.634  1.00  0.00    -0.269 OA
BRANCH  26  29
ATOM     29  C   UNL A   1      37.633  29.889  30.093  1.00  0.00     0.039 A 
ATOM     30  C   UNL A   1      37.938  29.874  28.728  1.00  0.00     0.014 A 
ATOM     31  C   UNL A   1      38.549  29.373  31.011  1.00  0.00     0.014 A 
ATOM     32  C   UNL A   1      39.192  29.427  28.299  1.00  0.00     0.010 A 
ATOM     33  C   UNL A   1      39.829  29.018  30.593  1.00  0.00     0.010 A 
ATOM     34  C   UNL A   1      40.167  29.044  29.233  1.00  0.00    -0.014 A 
BRANCH  34  35
ATOM     35  C   UNL A   1      41.548  28.683  28.817  1.00  0.00     0.031 A 
ATOM     36  C   UNL A   1      42.617  29.739  28.725  1.00  0.00     0.074 A 
ATOM     37  C   UNL A   1      41.817  27.419  28.430  1.00  0.00     0.049 A 
ATOM     38  N   UNL A   1      43.841  29.639  28.276  1.00  0.00    -0.248 NA
ATOM     39  C   UNL A   1      42.249  31.095  29.163  1.00  0.00     0.031 C 
ATOM     40  C   UNL A   1      40.853  26.315  28.410  1.00  0.00     0.029 A 
ATOM     41  N   UNL A   1      42.976  26.851  27.962  1.00  0.00    -0.354 N 
ATOM     42  C   UNL A   1      44.378  30.919  28.350  1.00  0.00     0.074 A 
ATOM     43  C   UNL A   1      43.332  31.788  28.844  1.00  0.00     0.031 C 
ATOM     44  C   UNL A   1      41.464  25.203  27.973  1.00  0.00     0.029 A 
ATOM     45  C   UNL A   1      42.851  25.519  27.646  1.00  0.00     0.049 A 
ATOM     46  H   UNL A   1      43.817  27.353  27.861  1.00  0.00     0.167 HD
ATOM     47  C   UNL A   1      45.635  31.331  28.051  1.00  0.00     0.037 A 
ATOM     48  C   UNL A   1      43.748  24.650  27.143  1.00  0.00     0.037 A 
ATOM     49  C   UNL A   1      46.686  30.456  27.604  1.00  0.00     0.049 A 
ATOM     50  C   UNL A   1      45.147  25.119  26.860  1.00  0.00     0.074 A 
ATOM     51  C   UNL A   1      48.012  30.761  27.352  1.00  0.00     0.029 A 
ATOM     52  N   UNL A   1      46.532  29.101  27.345  1.00  0.00    -0.354 N 
ATOM     53  N   UNL A   1      45.654  26.321  26.995  1.00  0.00    -0.248 NA
ATOM     54  C   UNL A   1      46.098  24.115  26.361  1.00  0.00     0.031 C 
ATOM     55  C   UNL A   1      48.653  29.597  26.912  1.00  0.00     0.029 A 
ATOM     56  C   UNL A   1      47.735  28.560  26.925  1.00  0.00     0.049 A 
ATOM     57  H   UNL A   1      45.692  28.599  27.446  1.00  0.00     0.167 HD
ATOM     58  C   UNL A   1      46.989  26.213  26.620  1.00  0.00     0.074 A 
ATOM     59  C   UNL A   1      47.213  24.827  26.262  1.00  0.00     0.031 C 
ATOM     60  C   UNL A   1      47.942  27.176  26.577  1.00  0.00     0.037 A 
BRANCH  47  61
ATOM     61  C   UNL A   1      45.942  32.794  28.212  1.00  0.00     0.058 A 
ATOM     62  C   UNL A   1      45.743  33.708  27.165  1.00  0.00     0.135 A 
ATOM     63  C   UNL A   1      46.422  33.293  29.434  1.00  0.00     0.135 A 
ATOM     64  F   UNL A   1      45.299  33.282  25.972  1.00  0.00    -0.206 F 
ATOM     65  C   UNL A   1      46.043  35.058  27.311  1.00  0.00     0.059 A 
ATOM     66  C   UNL A   1      46.704  34.644  29.611  1.00  0.00     0.059 A 
ATOM     67  F   UNL A   1      46.629  32.463  30.469  1.00  0.00    -0.206 F 
ATOM     68  C   UNL A   1      46.529  35.516  28.537  1.00  0.00     0.060 A 
BRANCH  68  69
ATOM     69  S   UNL A   1      46.924  37.269  28.709  1.00  0.00     0.124 S 
ATOM     70  O   UNL A   1      46.074  37.859  27.680  1.00  0.00    -0.237 OA
ATOM     71  O   UNL A   1      46.534  37.545  30.088  1.00  0.00    -0.237 OA
ATOM     72  O   UNL A   1      48.359  37.321  28.445  1.00  0.00    -0.744 OA
ENDBRANCH  68  69
ENDBRANCH  47  61
BRANCH  48  73
ATOM     73  C   UNL A   1      43.352  23.237  26.904  1.00  0.00     0.058 A 
ATOM     74  C   UNL A   1      43.157  22.757  25.602  1.00  0.00     0.135 A 
ATOM     75  C   UNL A   1      43.195  22.334  27.966  1.00  0.00     0.135 A 
ATOM     76  F   UNL A   1      43.291  23.586  24.554  1.00  0.00    -0.206 F 
ATOM     77  C   UNL A   1      42.813  21.431  25.358  1.00  0.00     0.059 A 
ATOM     78  C   UNL A   1      42.871  20.999  27.747  1.00  0.00     0.059 A 
ATOM     79  F   UNL A   1      43.390  22.741  29.231  1.00  0.00    -0.206 F 
ATOM     80  C   UNL A   1      42.675  20.559  26.438  1.00  0.00     0.060 A 
BRANCH  80  81
ATOM     81  S   UNL A   1      42.296  18.824  26.108  1.00  0.00     0.124 S 
ATOM     82  O   UNL A   1      43.254  18.509  25.056  1.00  0.00    -0.237 OA
ATOM     83  O   UNL A   1      42.543  18.203  27.405  1.00  0.00    -0.237 OA
ATOM     84  O   UNL A   1      40.895  18.861  25.699  1.00  0.00    -0.744 OA
ENDBRANCH  80  81
ENDBRANCH  48  73
BRANCH  60  85
ATOM     85  C   UNL A   1      49.323  26.762  26.154  1.00  0.00     0.058 A 
ATOM     86  C   UNL A   1      50.192  26.098  27.033  1.00  0.00     0.135 A 
ATOM     87  C   UNL A   1      49.761  26.987  24.839  1.00  0.00     0.135 A 
ATOM     88  F   UNL A   1      49.822  25.866  28.302  1.00  0.00    -0.206 F 
ATOM     89  C   UNL A   1      51.457  25.685  26.628  1.00  0.00     0.059 A 
ATOM     90  C   UNL A   1      51.013  26.563  24.406  1.00  0.00     0.059 A 
ATOM     91  F   UNL A   1      48.963  27.611  23.958  1.00  0.00    -0.206 F 
ATOM     92  C   UNL A   1      51.859  25.922  25.312  1.00  0.00     0.060 A 
BRANCH  92  93
ATOM     93  S   UNL A   1      53.487  25.350  24.785  1.00  0.00     0.124 S 
ATOM     94  O   UNL A   1      54.367  26.250  25.523  1.00  0.00    -0.237 OA
ATOM     95  O   UNL A   1      53.490  23.959  25.226  1.00  0.00    -0.237 OA
ATOM     96  O   UNL A   1      53.463  25.542  23.337  1.00  0.00    -0.744 OA
ENDBRANCH  92  93
ENDBRANCH  60  85
ENDBRANCH  34  35
ENDBRANCH  26  29
ENDBRANCH  24  25
ENDBRANCH  23  24
ENDBRANCH   1  23
TORSDOF 18
ENDMDL
MODEL 3
REMARK VINA RESULT:     -10.3      4.978     11.392
REMARK SMILES CCc1ccc(S(=O)(=O)N[C@H](C(=O)NCCCNC(=O)c2ccc(-c3c4nc(c(-c5c(F)cc(S(=O)(=O)[O-])cc5F)c5ccc([nH]5)c(-c5c(F)cc(S(=O)(=O)[O-])cc5F)c5nc(c(-c6c(F)cc(S(=O)(=O)[O-])cc6F)c6ccc3[nH]6)C=C5)C=C4)cc2)C(C)C)cc1
REMARK SMILES IDX 15 1 14 2 12 3 13 4 11 6 10 7 7 9 8 10 9 11 6 12 3 13 4 14
REMARK SMILES IDX 91 15 5 16 90 17 2 18 1 19 87 20 88 21 89 22 16 23 17 24
REMARK SMILES IDX 18 25 19 26 20 28 21 29 22 30 86 31 23 32 85 33 24 34 25 35
REMARK SMILES IDX 26 36 79 37 27 38 84 39 78 40 80 41 28 42 83 43 77 44 76 45
REMARK SMILES IDX 29 47 63 48 42 49 62 50 43 51 46 52 61 53 81 54 44 55 45 56
REMARK SMILES IDX 60 58 82 59 47 60 30 61 31 62 40 63 32 64 33 65 39 66 41 67
REMARK SMILES IDX 34 68 35 69 36 70 37 71 38 72 64 73 65 74 74 75 66 76 67 77
REMARK SMILES IDX 73 78 75 79 68 80 69 81 70 82 71 83 72 84 48 85 49 86 58 87
REMARK SMILES IDX 50 88 51 89 57 90 59 91 52 92 53 93 54 94 55 95 56 96
REMARK H PARENT 14 5 10 8 18 27 80 46 46 57
REMARK Flexibility Score: inf
ROOT
ATOM      1  C   UNL A   1      33.563  26.413  25.967  1.00  0.00     0.117 C 
ENDROOT
BRANCH   1   2
ATOM      2  N   UNL A   1      33.717  26.268  24.534  1.00  0.00    -0.355 N 
ATOM      3  C   UNL A   1      34.086  25.189  23.793  1.00  0.00     0.238 C 
ATOM      4  O   UNL A   1      33.982  25.290  22.565  1.00  0.00    -0.273 OA
ATOM      5  H   UNL A   1      33.523  27.080  24.013  1.00  0.00     0.163 HD
BRANCH   3   6
ATOM      6  C   UNL A   1      34.551  23.863  24.447  1.00  0.00     0.161 C 
BRANCH   6   7
ATOM      7  N   UNL A   1      33.950  22.856  23.552  1.00  0.00    -0.198 NA
ATOM      8  H   UNL A   1      33.779  23.342  22.671  1.00  0.00     0.142 HD
BRANCH   7   9
ATOM      9  S   UNL A   1      32.556  22.011  23.869  1.00  0.00     0.241 S 
ATOM     10  O   UNL A   1      31.676  22.176  22.730  1.00  0.00    -0.207 OA
ATOM     11  O   UNL A   1      32.145  22.389  25.200  1.00  0.00    -0.207 OA
BRANCH   9  12
ATOM     12  C   UNL A   1      33.014  20.299  23.933  1.00  0.00     0.082 A 
ATOM     13  C   UNL A   1      33.700  17.593  24.256  1.00  0.00    -0.048 A 
ATOM     14  C   UNL A   1      34.543  18.608  24.733  1.00  0.00     0.005 A 
ATOM     15  C   UNL A   1      32.544  17.961  23.549  1.00  0.00     0.005 A 
ATOM     16  C   UNL A   1      34.201  19.952  24.582  1.00  0.00     0.022 A 
ATOM     17  C   UNL A   1      32.199  19.311  23.383  1.00  0.00     0.022 A 
BRANCH  13  18
ATOM     18  C   UNL A   1      34.104  16.158  24.523  1.00  0.00     0.032 C 
ATOM     19  C   UNL A   1      33.091  15.281  25.246  1.00  0.00     0.009 C 
ENDBRANCH  13  18
ENDBRANCH   9  12
ENDBRANCH   7   9
ENDBRANCH   6   7
BRANCH   6  20
ATOM     20  C   UNL A   1      36.099  23.821  24.417  1.00  0.00     0.010 C 
ATOM     21  C   UNL A   1      36.659  23.649  25.838  1.00  0.00     0.009 C 
ATOM     22  C   UNL A   1      36.650  22.698  23.539  1.00  0.00     0.009 C 
ENDBRANCH   6  20
ENDBRANCH   3   6
ENDBRANCH   1   2
BRANCH   1  23
ATOM     23  C   UNL A   1      33.070  27.790  26.378  1.00  0.00     0.042 C 
BRANCH  23  24
ATOM     24  C   UNL A   1      34.047  28.922  26.073  1.00  0.00     0.118 C 
BRANCH  24  25
ATOM     25  N   UNL A   1      33.868  30.084  26.935  1.00  0.00    -0.352 N 
ATOM     26  C   UNL A   1      34.654  30.590  27.943  1.00  0.00     0.251 C 
ATOM     27  H   UNL A   1      33.043  30.595  26.765  1.00  0.00     0.163 HD
ATOM     28  O   UNL A   1      34.205  31.487  28.654  1.00  0.00    -0.269 OA
BRANCH  26  29
ATOM     29  C   UNL A   1      36.009  30.052  28.199  1.00  0.00     0.039 A 
ATOM     30  C   UNL A   1      36.968  30.122  27.183  1.00  0.00     0.014 A 
ATOM     31  C   UNL A   1      36.338  29.463  29.421  1.00  0.00     0.014 A 
ATOM     32  C   UNL A   1      38.274  29.687  27.427  1.00  0.00     0.010 A 
ATOM     33  C   UNL A   1      37.659  29.119  29.694  1.00  0.00     0.010 A 
ATOM     34  C   UNL A   1      38.644  29.230  28.702  1.00  0.00    -0.014 A 
BRANCH  34  35
ATOM     35  C   UNL A   1      40.051  28.877  29.028  1.00  0.00     0.031 A 
ATOM     36  C   UNL A   1      40.967  29.897  29.650  1.00  0.00     0.074 A 
ATOM     37  C   UNL A   1      40.532  27.667  28.676  1.00  0.00     0.049 A 
ATOM     38  N   UNL A   1      42.248  29.813  29.900  1.00  0.00    -0.248 NA
ATOM     39  C   UNL A   1      40.372  31.195  30.005  1.00  0.00     0.031 C 
ATOM     40  C   UNL A   1      39.765  26.611  28.009  1.00  0.00     0.029 A 
ATOM     41  N   UNL A   1      41.785  27.124  28.814  1.00  0.00    -0.354 N 
ATOM     42  C   UNL A   1      42.617  31.051  30.412  1.00  0.00     0.074 A 
ATOM     43  C   UNL A   1      41.434  31.884  30.394  1.00  0.00     0.031 C 
ATOM     44  C   UNL A   1      40.557  25.545  27.815  1.00  0.00     0.029 A 
ATOM     45  C   UNL A   1      41.896  25.852  28.308  1.00  0.00     0.049 A 
ATOM     46  H   UNL A   1      42.534  27.604  29.237  1.00  0.00     0.167 HD
ATOM     47  C   UNL A   1      43.826  31.453  30.874  1.00  0.00     0.037 A 
ATOM     48  C   UNL A   1      42.957  25.025  28.239  1.00  0.00     0.037 A 
ATOM     49  C   UNL A   1      44.989  30.608  30.933  1.00  0.00     0.049 A 
ATOM     50  C   UNL A   1      44.278  25.476  28.796  1.00  0.00     0.074 A 
ATOM     51  C   UNL A   1      46.238  30.896  31.456  1.00  0.00     0.029 A 
ATOM     52  N   UNL A   1      45.047  29.306  30.455  1.00  0.00    -0.354 N 
ATOM     53  N   UNL A   1      44.592  26.630  29.334  1.00  0.00    -0.248 NA
ATOM     54  C   UNL A   1      45.388  24.513  28.742  1.00  0.00     0.031 C 
ATOM     55  C   UNL A   1      47.059  29.778  31.268  1.00  0.00     0.029 A 
ATOM     56  C   UNL A   1      46.312  28.782  30.660  1.00  0.00     0.049 A 
ATOM     57  H   UNL A   1      44.298  28.826  30.034  1.00  0.00     0.167 HD
ATOM     58  C   UNL A   1      45.929  26.525  29.704  1.00  0.00     0.074 A 
ATOM     59  C   UNL A   1      46.360  25.192  29.337  1.00  0.00     0.031 C 
ATOM     60  C   UNL A   1      46.725  27.450  30.294  1.00  0.00     0.037 A 
BRANCH  47  61
ATOM     61  C   UNL A   1      43.946  32.870  31.363  1.00  0.00     0.058 A 
ATOM     62  C   UNL A   1      43.744  33.203  32.712  1.00  0.00     0.135 A 
ATOM     63  C   UNL A   1      44.287  33.905  30.476  1.00  0.00     0.135 A 
ATOM     64  F   UNL A   1      43.402  32.255  33.598  1.00  0.00    -0.206 F 
ATOM     65  C   UNL A   1      43.840  34.517  33.158  1.00  0.00     0.059 A 
ATOM     66  C   UNL A   1      44.414  35.222  30.907  1.00  0.00     0.059 A 
ATOM     67  F   UNL A   1      44.492  33.641  29.176  1.00  0.00    -0.206 F 
ATOM     68  C   UNL A   1      44.170  35.521  32.247  1.00  0.00     0.060 A 
BRANCH  68  69
ATOM     69  S   UNL A   1      44.280  37.223  32.838  1.00  0.00     0.124 S 
ATOM     70  O   UNL A   1      43.052  37.337  33.619  1.00  0.00    -0.237 OA
ATOM     71  O   UNL A   1      45.521  37.209  33.607  1.00  0.00    -0.237 OA
ATOM     72  O   UNL A   1      44.318  38.008  31.608  1.00  0.00    -0.744 OA
ENDBRANCH  68  69
ENDBRANCH  47  61
BRANCH  48  73
ATOM     73  C   UNL A   1      42.800  23.671  27.644  1.00  0.00     0.058 A 
ATOM     74  C   UNL A   1      43.020  23.459  26.276  1.00  0.00     0.135 A 
ATOM     75  C   UNL A   1      42.463  22.562  28.435  1.00  0.00     0.135 A 
ATOM     76  F   UNL A   1      43.340  24.491  25.481  1.00  0.00    -0.206 F 
ATOM     77  C   UNL A   1      42.904  22.195  25.708  1.00  0.00     0.059 A 
ATOM     78  C   UNL A   1      42.361  21.285  27.893  1.00  0.00     0.059 A 
ATOM     79  F   UNL A   1      42.261  22.711  29.754  1.00  0.00    -0.206 F 
ATOM     80  C   UNL A   1      42.578  21.113  26.526  1.00  0.00     0.060 A 
BRANCH  80  81
ATOM     81  S   UNL A   1      42.497  19.464  25.792  1.00  0.00     0.124 S 
ATOM     82  O   UNL A   1      42.911  18.625  26.909  1.00  0.00    -0.237 OA
ATOM     83  O   UNL A   1      41.093  19.368  25.405  1.00  0.00    -0.237 OA
ATOM     84  O   UNL A   1      43.439  19.548  24.679  1.00  0.00    -0.744 OA
ENDBRANCH  80  81
ENDBRANCH  48  73
BRANCH  60  85
ATOM     85  C   UNL A   1      48.137  27.046  30.607  1.00  0.00     0.058 A 
ATOM     86  C   UNL A   1      49.205  27.396  29.765  1.00  0.00     0.135 A 
ATOM     87  C   UNL A   1      48.431  26.346  31.788  1.00  0.00     0.135 A 
ATOM     88  F   UNL A   1      48.974  28.058  28.621  1.00  0.00    -0.206 F 
ATOM     89  C   UNL A   1      50.516  27.049  30.076  1.00  0.00     0.059 A 
ATOM     90  C   UNL A   1      49.736  26.009  32.129  1.00  0.00     0.059 A 
ATOM     91  F   UNL A   1      47.445  25.996  32.629  1.00  0.00    -0.206 F 
ATOM     92  C   UNL A   1      50.772  26.356  31.261  1.00  0.00     0.060 A 
BRANCH  92  93
ATOM     93  S   UNL A   1      52.480  25.944  31.673  1.00  0.00     0.124 S 
ATOM     94  O   UNL A   1      52.822  27.013  32.605  1.00  0.00    -0.237 OA
ATOM     95  O   UNL A   1      52.350  24.613  32.256  1.00  0.00    -0.237 OA
ATOM     96  O   UNL A   1      53.161  25.991  30.382  1.00  0.00    -0.744 OA
ENDBRANCH  92  93
ENDBRANCH  60  85
ENDBRANCH  34  35
ENDBRANCH  26  29
ENDBRANCH  24  25
ENDBRANCH  23  24
ENDBRANCH   1  23
TORSDOF 18
ENDMDL
