MODEL 1
REMARK VINA RESULT:     -14.0      0.000      0.000
REMARK SMILES CC(C)n1c2c(c3ccccc31)[C@@H](c1ccccc1)N(CC(=O)NCCCNC(=O)c1ccc(-c3c4nc(c(-c5c(F)cc(S(=O)(=O)[O-])cc5F)c5ccc([nH]5)c(-c5c(F)cc(S(=O)(=O)[O-])cc5F)c5nc(c(-c6c(F)cc(S(=O)(=O)[O-])cc6F)c6ccc3[nH]6)C=C5)C=C4)cc1)C2=O
REMARK SMILES IDX 26 1 25 2 24 3 22 4 23 5 21 7 20 8 4 9 5 10 12 11 6 12 97 13
REMARK SMILES IDX 7 14 11 15 13 16 98 17 8 18 10 19 9 20 2 21 1 22 3 23 14 24
REMARK SMILES IDX 15 25 19 26 16 27 18 28 17 29 27 30 28 31 29 32 30 34 31 35
REMARK SMILES IDX 32 36 96 37 33 38 95 39 34 40 35 41 36 42 89 43 37 44 94 45
REMARK SMILES IDX 88 46 90 47 38 48 93 49 87 50 86 51 39 53 73 54 52 55 72 56
REMARK SMILES IDX 53 57 56 58 71 59 91 60 54 61 55 62 70 64 92 65 57 66 40 67
REMARK SMILES IDX 41 68 50 69 42 70 43 71 49 72 51 73 44 74 45 75 46 76 47 77
REMARK SMILES IDX 48 78 74 79 75 80 84 81 76 82 77 83 83 84 85 85 78 86 79 87
REMARK SMILES IDX 80 88 81 89 82 90 58 91 59 92 68 93 60 94 61 95 67 96 69 97
REMARK SMILES IDX 62 98 63 99 64 100 65 101 66 102
REMARK H PARENT 24 6 28 33 90 52 56 63
REMARK Flexibility Score: inf
ROOT
ATOM      1  C   UNL A   1      36.985  22.141  24.273  1.00  0.00     0.042 C 
ENDROOT
BRANCH   1   2
ATOM      2  C   UNL A   1      36.256  22.977  23.215  1.00  0.00     0.117 C 
BRANCH   2   3
ATOM      3  N   UNL A   1      34.878  22.547  23.030  1.00  0.00    -0.354 N 
ATOM      4  C   UNL A   1      33.782  23.270  22.658  1.00  0.00     0.239 C 
ATOM      5  O   UNL A   1      32.690  22.695  22.623  1.00  0.00    -0.273 OA
ATOM      6  H   UNL A   1      34.711  21.592  23.198  1.00  0.00     0.163 HD
BRANCH   4   7
ATOM      7  C   UNL A   1      33.894  24.763  22.332  1.00  0.00     0.220 C 
BRANCH   7   8
ATOM      8  N   UNL A   1      33.156  25.575  23.280  1.00  0.00    -0.317 N 
ATOM      9  N   UNL A   1      31.252  28.492  24.128  1.00  0.00    -0.334 N 
ATOM     10  C   UNL A   1      31.921  27.329  23.891  1.00  0.00     0.114 A 
ATOM     11  C   UNL A   1      31.876  29.115  25.227  1.00  0.00     0.049 A 
ATOM     12  C   UNL A   1      32.898  27.162  24.843  1.00  0.00     0.018 A 
ATOM     13  C   UNL A   1      32.023  26.299  22.905  1.00  0.00     0.272 C 
ATOM     14  C   UNL A   1      32.916  28.285  25.678  1.00  0.00     0.006 A 
ATOM     15  C   UNL A   1      31.618  30.345  25.859  1.00  0.00     0.027 A 
ATOM     16  C   UNL A   1      33.675  25.917  24.622  1.00  0.00     0.150 C 
ATOM     17  O   UNL A   1      31.386  26.127  21.877  1.00  0.00    -0.267 OA
ATOM     18  C   UNL A   1      33.711  28.685  26.768  1.00  0.00     0.011 A 
ATOM     19  C   UNL A   1      32.411  30.716  26.951  1.00  0.00     0.002 A 
ATOM     20  C   UNL A   1      33.445  29.900  27.399  1.00  0.00     0.001 A 
BRANCH   9  21
ATOM     21  C   UNL A   1      30.130  29.094  23.395  1.00  0.00     0.082 C 
ATOM     22  C   UNL A   1      30.432  29.622  21.993  1.00  0.00     0.031 C 
ATOM     23  C   UNL A   1      28.937  28.136  23.324  1.00  0.00     0.031 C 
ENDBRANCH   9  21
BRANCH  16  24
ATOM     24  C   UNL A   1      33.286  24.871  25.660  1.00  0.00    -0.021 A 
ATOM     25  C   UNL A   1      34.302  24.050  26.190  1.00  0.00     0.006 A 
ATOM     26  C   UNL A   1      31.970  24.626  26.099  1.00  0.00     0.006 A 
ATOM     27  C   UNL A   1      34.007  23.006  27.073  1.00  0.00     0.000 A 
ATOM     28  C   UNL A   1      31.678  23.597  26.998  1.00  0.00     0.000 A 
ATOM     29  C   UNL A   1      32.696  22.778  27.474  1.00  0.00     0.000 A 
ENDBRANCH  16  24
ENDBRANCH   7   8
ENDBRANCH   4   7
ENDBRANCH   2   3
ENDBRANCH   1   2
BRANCH   1  30
ATOM     30  C   UNL A   1      37.673  22.973  25.354  1.00  0.00     0.118 C 
BRANCH  30  31
ATOM     31  N   UNL A   1      38.673  22.241  26.100  1.00  0.00    -0.352 N 
ATOM     32  C   UNL A   1      39.656  22.568  26.987  1.00  0.00     0.251 C 
ATOM     33  H   UNL A   1      38.634  21.273  25.925  1.00  0.00     0.163 HD
ATOM     34  O   UNL A   1      40.235  21.608  27.507  1.00  0.00    -0.269 OA
BRANCH  32  35
ATOM     35  C   UNL A   1      40.122  23.944  27.302  1.00  0.00     0.039 A 
ATOM     36  C   UNL A   1      41.353  24.289  27.861  1.00  0.00     0.014 A 
ATOM     37  C   UNL A   1      39.158  24.954  27.113  1.00  0.00     0.014 A 
ATOM     38  C   UNL A   1      41.549  25.568  28.374  1.00  0.00     0.010 A 
ATOM     39  C   UNL A   1      39.361  26.236  27.596  1.00  0.00     0.010 A 
ATOM     40  C   UNL A   1      40.516  26.508  28.314  1.00  0.00    -0.014 A 
BRANCH  40  41
ATOM     41  C   UNL A   1      40.677  27.778  29.014  1.00  0.00     0.031 A 
ATOM     42  C   UNL A   1      41.778  28.641  28.500  1.00  0.00     0.074 A 
ATOM     43  C   UNL A   1      39.832  28.166  29.995  1.00  0.00     0.049 A 
ATOM     44  N   UNL A   1      42.870  28.988  29.100  1.00  0.00    -0.248 NA
ATOM     45  C   UNL A   1      41.722  29.047  27.086  1.00  0.00     0.031 C 
ATOM     46  C   UNL A   1      38.583  27.537  30.439  1.00  0.00     0.029 A 
ATOM     47  N   UNL A   1      39.888  29.283  30.772  1.00  0.00    -0.354 N 
ATOM     48  C   UNL A   1      43.547  29.827  28.215  1.00  0.00     0.074 A 
ATOM     49  C   UNL A   1      42.873  29.707  26.947  1.00  0.00     0.031 C 
ATOM     50  C   UNL A   1      37.891  28.400  31.222  1.00  0.00     0.029 A 
ATOM     51  C   UNL A   1      38.714  29.568  31.467  1.00  0.00     0.049 A 
ATOM     52  H   UNL A   1      40.694  29.844  30.837  1.00  0.00     0.167 HD
ATOM     53  C   UNL A   1      44.494  30.712  28.636  1.00  0.00     0.037 A 
ATOM     54  C   UNL A   1      38.443  30.711  32.152  1.00  0.00     0.037 A 
ATOM     55  C   UNL A   1      44.959  30.401  29.960  1.00  0.00     0.049 A 
ATOM     56  C   UNL A   1      39.756  31.337  32.465  1.00  0.00     0.074 A 
ATOM     57  C   UNL A   1      45.667  29.359  30.524  1.00  0.00     0.029 A 
ATOM     58  N   UNL A   1      44.381  31.069  31.012  1.00  0.00    -0.354 N 
ATOM     59  N   UNL A   1      40.643  30.796  33.256  1.00  0.00    -0.248 NA
ATOM     60  C   UNL A   1      40.275  32.307  31.512  1.00  0.00     0.031 C 
ATOM     61  C   UNL A   1      45.076  29.165  31.808  1.00  0.00     0.029 A 
ATOM     62  C   UNL A   1      44.089  30.138  31.976  1.00  0.00     0.049 A 
ATOM     63  H   UNL A   1      44.208  32.037  31.063  1.00  0.00     0.167 HD
ATOM     64  C   UNL A   1      41.864  31.034  32.642  1.00  0.00     0.074 A 
ATOM     65  C   UNL A   1      41.576  32.013  31.593  1.00  0.00     0.031 C 
ATOM     66  C   UNL A   1      42.939  30.216  32.849  1.00  0.00     0.037 A 
BRANCH  53  67
ATOM     67  C   UNL A   1      44.759  32.046  27.984  1.00  0.00     0.058 A 
ATOM     68  C   UNL A   1      45.981  32.276  27.321  1.00  0.00     0.135 A 
ATOM     69  C   UNL A   1      43.972  33.192  28.233  1.00  0.00     0.135 A 
ATOM     70  F   UNL A   1      46.810  31.257  27.045  1.00  0.00    -0.206 F 
ATOM     71  C   UNL A   1      46.416  33.559  26.984  1.00  0.00     0.059 A 
ATOM     72  C   UNL A   1      44.364  34.473  27.862  1.00  0.00     0.059 A 
ATOM     73  F   UNL A   1      42.833  33.131  28.934  1.00  0.00    -0.206 F 
ATOM     74  C   UNL A   1      45.604  34.653  27.271  1.00  0.00     0.060 A 
BRANCH  74  75
ATOM     75  S   UNL A   1      46.212  36.316  26.934  1.00  0.00     0.124 S 
ATOM     76  O   UNL A   1      46.996  36.102  25.723  1.00  0.00    -0.237 OA
ATOM     77  O   UNL A   1      44.969  37.062  26.767  1.00  0.00    -0.237 OA
ATOM     78  O   UNL A   1      46.977  36.645  28.133  1.00  0.00    -0.744 OA
ENDBRANCH  74  75
ENDBRANCH  53  67
BRANCH  54  79
ATOM     79  C   UNL A   1      37.182  31.509  32.091  1.00  0.00     0.058 A 
ATOM     80  C   UNL A   1      36.602  32.053  33.253  1.00  0.00     0.135 A 
ATOM     81  C   UNL A   1      36.695  32.011  30.866  1.00  0.00     0.135 A 
ATOM     82  F   UNL A   1      37.021  31.651  34.463  1.00  0.00    -0.206 F 
ATOM     83  C   UNL A   1      35.635  33.066  33.205  1.00  0.00     0.059 A 
ATOM     84  C   UNL A   1      35.731  33.018  30.794  1.00  0.00     0.059 A 
ATOM     85  F   UNL A   1      37.214  31.603  29.699  1.00  0.00    -0.206 F 
ATOM     86  C   UNL A   1      35.223  33.559  31.968  1.00  0.00     0.060 A 
BRANCH  86  87
ATOM     87  S   UNL A   1      34.104  34.982  31.901  1.00  0.00     0.124 S 
ATOM     88  O   UNL A   1      33.946  35.177  30.464  1.00  0.00    -0.237 OA
ATOM     89  O   UNL A   1      32.930  34.484  32.609  1.00  0.00    -0.237 OA
ATOM     90  O   UNL A   1      34.849  36.033  32.593  1.00  0.00    -0.744 OA
ENDBRANCH  86  87
ENDBRANCH  54  79
BRANCH  66  91
ATOM     91  C   UNL A   1      42.839  29.178  33.940  1.00  0.00     0.058 A 
ATOM     92  C   UNL A   1      43.056  29.435  35.308  1.00  0.00     0.135 A 
ATOM     93  C   UNL A   1      42.355  27.907  33.601  1.00  0.00     0.135 A 
ATOM     94  F   UNL A   1      43.419  30.654  35.728  1.00  0.00    -0.206 F 
ATOM     95  C   UNL A   1      42.837  28.461  36.285  1.00  0.00     0.059 A 
ATOM     96  C   UNL A   1      42.103  26.930  34.560  1.00  0.00     0.059 A 
ATOM     97  F   UNL A   1      42.066  27.619  32.322  1.00  0.00    -0.206 F 
ATOM     98  C   UNL A   1      42.357  27.210  35.900  1.00  0.00     0.060 A 
BRANCH  98  99
ATOM     99  S   UNL A   1      42.005  25.972  37.168  1.00  0.00     0.124 S 
ATOM    100  O   UNL A   1      42.990  26.295  38.196  1.00  0.00    -0.237 OA
ATOM    101  O   UNL A   1      40.613  26.262  37.504  1.00  0.00    -0.237 OA
ATOM    102  O   UNL A   1      42.218  24.703  36.477  1.00  0.00    -0.744 OA
ENDBRANCH  98  99
ENDBRANCH  66  91
ENDBRANCH  40  41
ENDBRANCH  32  35
ENDBRANCH  30  31
ENDBRANCH   1  30
TORSDOF 16
ENDMDL
MODEL 2
REMARK VINA RESULT:     -13.9      2.701      4.240
REMARK SMILES CC(C)n1c2c(c3ccccc31)[C@@H](c1ccccc1)N(CC(=O)NCCCNC(=O)c1ccc(-c3c4nc(c(-c5c(F)cc(S(=O)(=O)[O-])cc5F)c5ccc([nH]5)c(-c5c(F)cc(S(=O)(=O)[O-])cc5F)c5nc(c(-c6c(F)cc(S(=O)(=O)[O-])cc6F)c6ccc3[nH]6)C=C5)C=C4)cc1)C2=O
REMARK SMILES IDX 26 1 25 2 24 3 22 4 23 5 21 7 20 8 4 9 5 10 12 11 6 12 97 13
REMARK SMILES IDX 7 14 11 15 13 16 98 17 8 18 10 19 9 20 2 21 1 22 3 23 14 24
REMARK SMILES IDX 15 25 19 26 16 27 18 28 17 29 27 30 28 31 29 32 30 34 31 35
REMARK SMILES IDX 32 36 96 37 33 38 95 39 34 40 35 41 36 42 89 43 37 44 94 45
REMARK SMILES IDX 88 46 90 47 38 48 93 49 87 50 86 51 39 53 73 54 52 55 72 56
REMARK SMILES IDX 53 57 56 58 71 59 91 60 54 61 55 62 70 64 92 65 57 66 40 67
REMARK SMILES IDX 41 68 50 69 42 70 43 71 49 72 51 73 44 74 45 75 46 76 47 77
REMARK SMILES IDX 48 78 74 79 75 80 84 81 76 82 77 83 83 84 85 85 78 86 79 87
REMARK SMILES IDX 80 88 81 89 82 90 58 91 59 92 68 93 60 94 61 95 67 96 69 97
REMARK SMILES IDX 62 98 63 99 64 100 65 101 66 102
REMARK H PARENT 24 6 28 33 90 52 56 63
REMARK Flexibility Score: inf
ROOT
ATOM      1  C   UNL A   1      41.146  20.709  27.193  1.00  0.00     0.042 C 
ENDROOT
BRANCH   1   2
ATOM      2  C   UNL A   1      40.048  20.802  26.127  1.00  0.00     0.117 C 
BRANCH   2   3
ATOM      3  N   UNL A   1      39.184  21.956  26.328  1.00  0.00    -0.354 N 
ATOM      4  C   UNL A   1      37.986  22.259  25.749  1.00  0.00     0.239 C 
ATOM      5  O   UNL A   1      37.457  23.337  26.037  1.00  0.00    -0.273 OA
ATOM      6  H   UNL A   1      39.512  22.616  26.980  1.00  0.00     0.163 HD
BRANCH   4   7
ATOM      7  C   UNL A   1      37.333  21.309  24.739  1.00  0.00     0.220 C 
BRANCH   7   8
ATOM      8  N   UNL A   1      35.975  21.709  24.429  1.00  0.00    -0.317 N 
ATOM      9  N   UNL A   1      33.515  24.206  23.671  1.00  0.00    -0.334 N 
ATOM     10  C   UNL A   1      34.384  23.182  23.902  1.00  0.00     0.114 A 
ATOM     11  C   UNL A   1      32.464  24.078  24.602  1.00  0.00     0.049 A 
ATOM     12  C   UNL A   1      33.884  22.374  24.895  1.00  0.00     0.018 A 
ATOM     13  C   UNL A   1      35.699  22.751  23.542  1.00  0.00     0.272 C 
ATOM     14  C   UNL A   1      32.694  22.929  25.378  1.00  0.00     0.006 A 
ATOM     15  C   UNL A   1      31.332  24.880  24.831  1.00  0.00     0.027 A 
ATOM     16  C   UNL A   1      34.802  21.248  25.204  1.00  0.00     0.150 C 
ATOM     17  O   UNL A   1      36.496  23.233  22.751  1.00  0.00    -0.267 OA
ATOM     18  C   UNL A   1      31.790  22.578  26.397  1.00  0.00     0.011 A 
ATOM     19  C   UNL A   1      30.438  24.504  25.840  1.00  0.00     0.002 A 
ATOM     20  C   UNL A   1      30.662  23.370  26.614  1.00  0.00     0.001 A 
BRANCH   9  21
ATOM     21  C   UNL A   1      33.604  25.312  22.710  1.00  0.00     0.082 C 
ATOM     22  C   UNL A   1      32.534  25.361  21.619  1.00  0.00     0.031 C 
ATOM     23  C   UNL A   1      33.652  26.666  23.426  1.00  0.00     0.031 C 
ENDBRANCH   9  21
BRANCH  16  24
ATOM     24  C   UNL A   1      34.236  19.948  24.648  1.00  0.00    -0.021 A 
ATOM     25  C   UNL A   1      35.063  18.807  24.651  1.00  0.00     0.006 A 
ATOM     26  C   UNL A   1      32.953  19.808  24.082  1.00  0.00     0.006 A 
ATOM     27  C   UNL A   1      34.647  17.605  24.070  1.00  0.00     0.000 A 
ATOM     28  C   UNL A   1      32.528  18.600  23.522  1.00  0.00     0.000 A 
ATOM     29  C   UNL A   1      33.381  17.503  23.504  1.00  0.00     0.000 A 
ENDBRANCH  16  24
ENDBRANCH   7   8
ENDBRANCH   4   7
ENDBRANCH   2   3
ENDBRANCH   1   2
BRANCH   1  30
ATOM     30  C   UNL A   1      42.092  19.524  27.005  1.00  0.00     0.118 C 
BRANCH  30  31
ATOM     31  N   UNL A   1      42.870  19.591  25.787  1.00  0.00    -0.352 N 
ATOM     32  C   UNL A   1      43.702  20.507  25.216  1.00  0.00     0.251 C 
ATOM     33  H   UNL A   1      42.775  18.779  25.239  1.00  0.00     0.163 HD
ATOM     34  O   UNL A   1      44.284  20.124  24.195  1.00  0.00    -0.269 OA
BRANCH  32  35
ATOM     35  C   UNL A   1      43.893  21.911  25.667  1.00  0.00     0.039 A 
ATOM     36  C   UNL A   1      44.706  22.335  26.719  1.00  0.00     0.014 A 
ATOM     37  C   UNL A   1      43.073  22.858  25.022  1.00  0.00     0.014 A 
ATOM     38  C   UNL A   1      44.572  23.625  27.224  1.00  0.00     0.010 A 
ATOM     39  C   UNL A   1      42.959  24.151  25.503  1.00  0.00     0.010 A 
ATOM     40  C   UNL A   1      43.634  24.498  26.663  1.00  0.00    -0.014 A 
BRANCH  40  41
ATOM     41  C   UNL A   1      43.384  25.778  27.318  1.00  0.00     0.031 A 
ATOM     42  C   UNL A   1      44.402  26.831  27.044  1.00  0.00     0.074 A 
ATOM     43  C   UNL A   1      42.266  26.003  28.044  1.00  0.00     0.049 A 
ATOM     44  N   UNL A   1      45.229  27.380  27.872  1.00  0.00    -0.248 NA
ATOM     45  C   UNL A   1      44.624  27.215  25.640  1.00  0.00     0.031 C 
ATOM     46  C   UNL A   1      41.081  25.151  28.203  1.00  0.00     0.029 A 
ATOM     47  N   UNL A   1      41.924  27.113  28.755  1.00  0.00    -0.354 N 
ATOM     48  C   UNL A   1      45.940  28.329  27.138  1.00  0.00     0.074 A 
ATOM     49  C   UNL A   1      45.634  28.079  25.752  1.00  0.00     0.031 C 
ATOM     50  C   UNL A   1      40.073  25.870  28.751  1.00  0.00     0.029 A 
ATOM     51  C   UNL A   1      40.583  27.174  29.130  1.00  0.00     0.049 A 
ATOM     52  H   UNL A   1      42.572  27.815  28.986  1.00  0.00     0.167 HD
ATOM     53  C   UNL A   1      46.576  29.377  27.731  1.00  0.00     0.037 A 
ATOM     54  C   UNL A   1      39.948  28.247  29.671  1.00  0.00     0.037 A 
ATOM     55  C   UNL A   1      46.748  29.164  29.142  1.00  0.00     0.049 A 
ATOM     56  C   UNL A   1      41.006  29.111  30.261  1.00  0.00     0.074 A 
ATOM     57  C   UNL A   1      47.472  28.276  29.912  1.00  0.00     0.029 A 
ATOM     58  N   UNL A   1      45.816  29.715  29.988  1.00  0.00    -0.354 N 
ATOM     59  N   UNL A   1      41.753  28.749  31.269  1.00  0.00    -0.248 NA
ATOM     60  C   UNL A   1      41.559  30.158  29.416  1.00  0.00     0.031 C 
ATOM     61  C   UNL A   1      46.627  27.978  31.022  1.00  0.00     0.029 A 
ATOM     62  C   UNL A   1      45.469  28.748  30.898  1.00  0.00     0.049 A 
ATOM     63  H   UNL A   1      45.462  30.633  29.948  1.00  0.00     0.167 HD
ATOM     64  C   UNL A   1      43.024  29.211  30.959  1.00  0.00     0.074 A 
ATOM     65  C   UNL A   1      42.831  30.114  29.824  1.00  0.00     0.031 C 
ATOM     66  C   UNL A   1      44.144  28.611  31.461  1.00  0.00     0.037 A 
BRANCH  53  67
ATOM     67  C   UNL A   1      46.747  30.735  27.097  1.00  0.00     0.058 A 
ATOM     68  C   UNL A   1      48.023  31.331  27.040  1.00  0.00     0.135 A 
ATOM     69  C   UNL A   1      45.660  31.587  26.801  1.00  0.00     0.135 A 
ATOM     70  F   UNL A   1      49.124  30.614  27.315  1.00  0.00    -0.206 F 
ATOM     71  C   UNL A   1      48.200  32.689  26.768  1.00  0.00     0.059 A 
ATOM     72  C   UNL A   1      45.817  32.930  26.479  1.00  0.00     0.059 A 
ATOM     73  F   UNL A   1      44.390  31.177  26.906  1.00  0.00    -0.206 F 
ATOM     74  C   UNL A   1      47.088  33.483  26.501  1.00  0.00     0.060 A 
BRANCH  74  75
ATOM     75  S   UNL A   1      47.307  35.254  26.256  1.00  0.00     0.124 S 
ATOM     76  O   UNL A   1      45.937  35.689  26.011  1.00  0.00    -0.237 OA
ATOM     77  O   UNL A   1      47.890  35.664  27.530  1.00  0.00    -0.237 OA
ATOM     78  O   UNL A   1      48.208  35.328  25.110  1.00  0.00    -0.744 OA
ENDBRANCH  74  75
ENDBRANCH  53  67
BRANCH  54  79
ATOM     79  C   UNL A   1      38.618  28.794  29.267  1.00  0.00     0.058 A 
ATOM     80  C   UNL A   1      37.619  29.071  30.219  1.00  0.00     0.135 A 
ATOM     81  C   UNL A   1      38.413  29.340  27.982  1.00  0.00     0.135 A 
ATOM     82  F   UNL A   1      37.742  28.611  31.474  1.00  0.00    -0.206 F 
ATOM     83  C   UNL A   1      36.512  29.881  29.931  1.00  0.00     0.059 A 
ATOM     84  C   UNL A   1      37.318  30.146  27.673  1.00  0.00     0.059 A 
ATOM     85  F   UNL A   1      39.327  29.183  27.013  1.00  0.00    -0.206 F 
ATOM     86  C   UNL A   1      36.383  30.435  28.658  1.00  0.00     0.060 A 
BRANCH  86  87
ATOM     87  S   UNL A   1      35.051  31.617  28.329  1.00  0.00     0.124 S 
ATOM     88  O   UNL A   1      35.757  32.682  27.626  1.00  0.00    -0.237 OA
ATOM     89  O   UNL A   1      34.128  30.824  27.524  1.00  0.00    -0.237 OA
ATOM     90  O   UNL A   1      34.569  31.965  29.664  1.00  0.00    -0.744 OA
ENDBRANCH  86  87
ENDBRANCH  54  79
BRANCH  66  91
ATOM     91  C   UNL A   1      43.968  27.576  32.545  1.00  0.00     0.058 A 
ATOM     92  C   UNL A   1      43.694  27.873  33.894  1.00  0.00     0.135 A 
ATOM     93  C   UNL A   1      43.924  26.226  32.169  1.00  0.00     0.135 A 
ATOM     94  F   UNL A   1      43.614  29.142  34.315  1.00  0.00    -0.206 F 
ATOM     95  C   UNL A   1      43.428  26.871  34.831  1.00  0.00     0.059 A 
ATOM     96  C   UNL A   1      43.632  25.213  33.079  1.00  0.00     0.059 A 
ATOM     97  F   UNL A   1      44.111  25.881  30.886  1.00  0.00    -0.206 F 
ATOM     98  C   UNL A   1      43.396  25.542  34.412  1.00  0.00     0.060 A 
BRANCH  98  99
ATOM     99  S   UNL A   1      42.981  24.251  35.605  1.00  0.00     0.124 S 
ATOM    100  O   UNL A   1      43.729  23.107  35.095  1.00  0.00    -0.237 OA
ATOM    101  O   UNL A   1      43.466  24.823  36.859  1.00  0.00    -0.237 OA
ATOM    102  O   UNL A   1      41.528  24.143  35.501  1.00  0.00    -0.744 OA
ENDBRANCH  98  99
ENDBRANCH  66  91
ENDBRANCH  40  41
ENDBRANCH  32  35
ENDBRANCH  30  31
ENDBRANCH   1  30
TORSDOF 16
ENDMDL
MODEL 3
REMARK VINA RESULT:     -13.7      2.875      9.470
REMARK SMILES CC(C)n1c2c(c3ccccc31)[C@@H](c1ccccc1)N(CC(=O)NCCCNC(=O)c1ccc(-c3c4nc(c(-c5c(F)cc(S(=O)(=O)[O-])cc5F)c5ccc([nH]5)c(-c5c(F)cc(S(=O)(=O)[O-])cc5F)c5nc(c(-c6c(F)cc(S(=O)(=O)[O-])cc6F)c6ccc3[nH]6)C=C5)C=C4)cc1)C2=O
REMARK SMILES IDX 26 1 25 2 24 3 22 4 23 5 21 7 20 8 4 9 5 10 12 11 6 12 97 13
REMARK SMILES IDX 7 14 11 15 13 16 98 17 8 18 10 19 9 20 2 21 1 22 3 23 14 24
REMARK SMILES IDX 15 25 19 26 16 27 18 28 17 29 27 30 28 31 29 32 30 34 31 35
REMARK SMILES IDX 32 36 96 37 33 38 95 39 34 40 35 41 36 42 89 43 37 44 94 45
REMARK SMILES IDX 88 46 90 47 38 48 93 49 87 50 86 51 39 53 73 54 52 55 72 56
REMARK SMILES IDX 53 57 56 58 71 59 91 60 54 61 55 62 70 64 92 65 57 66 40 67
REMARK SMILES IDX 41 68 50 69 42 70 43 71 49 72 51 73 44 74 45 75 46 76 47 77
REMARK SMILES IDX 48 78 74 79 75 80 84 81 76 82 77 83 83 84 85 85 78 86 79 87
REMARK SMILES IDX 80 88 81 89 82 90 58 91 59 92 68 93 60 94 61 95 67 96 69 97
REMARK SMILES IDX 62 98 63 99 64 100 65 101 66 102
REMARK H PARENT 24 6 28 33 90 52 56 63
REMARK Flexibility Score: inf
ROOT
ATOM      1  C   UNL A   1      32.239  29.349  27.117  1.00  0.00     0.042 C 
ENDROOT
BRANCH   1   2
ATOM      2  C   UNL A   1      31.788  27.893  27.282  1.00  0.00     0.117 C 
BRANCH   2   3
ATOM      3  N   UNL A   1      30.898  27.469  26.211  1.00  0.00    -0.354 N 
ATOM      4  C   UNL A   1      30.551  26.211  25.812  1.00  0.00     0.239 C 
ATOM      5  O   UNL A   1      29.814  26.095  24.828  1.00  0.00    -0.273 OA
ATOM      6  H   UNL A   1      30.483  28.199  25.698  1.00  0.00     0.163 HD
BRANCH   4   7
ATOM      7  C   UNL A   1      31.093  24.975  26.538  1.00  0.00     0.220 C 
BRANCH   7   8
ATOM      8  N   UNL A   1      32.114  24.302  25.760  1.00  0.00    -0.317 N 
ATOM      9  N   UNL A   1      33.979  21.375  24.857  1.00  0.00    -0.334 N 
ATOM     10  C   UNL A   1      33.292  22.528  25.095  1.00  0.00     0.114 A 
ATOM     11  C   UNL A   1      35.349  21.670  25.004  1.00  0.00     0.049 A 
ATOM     12  C   UNL A   1      34.181  23.552  25.316  1.00  0.00     0.018 A 
ATOM     13  C   UNL A   1      31.956  22.987  25.317  1.00  0.00     0.272 C 
ATOM     14  C   UNL A   1      35.481  23.038  25.298  1.00  0.00     0.006 A 
ATOM     15  C   UNL A   1      36.485  20.845  24.911  1.00  0.00     0.027 A 
ATOM     16  C   UNL A   1      33.486  24.833  25.601  1.00  0.00     0.150 C 
ATOM     17  O   UNL A   1      30.898  22.378  25.282  1.00  0.00    -0.267 OA
ATOM     18  C   UNL A   1      36.759  23.590  25.505  1.00  0.00     0.011 A 
ATOM     19  C   UNL A   1      37.747  21.419  25.105  1.00  0.00     0.002 A 
ATOM     20  C   UNL A   1      37.884  22.772  25.400  1.00  0.00     0.001 A 
BRANCH   9  21
ATOM     21  C   UNL A   1      33.475  20.027  24.564  1.00  0.00     0.082 C 
ATOM     22  C   UNL A   1      32.835  19.266  25.725  1.00  0.00     0.031 C 
ATOM     23  C   UNL A   1      32.503  20.045  23.379  1.00  0.00     0.031 C 
ENDBRANCH   9  21
BRANCH  16  24
ATOM     24  C   UNL A   1      33.594  25.762  24.398  1.00  0.00    -0.021 A 
ATOM     25  C   UNL A   1      33.998  27.093  24.621  1.00  0.00     0.006 A 
ATOM     26  C   UNL A   1      33.272  25.403  23.074  1.00  0.00     0.006 A 
ATOM     27  C   UNL A   1      34.027  28.028  23.581  1.00  0.00     0.000 A 
ATOM     28  C   UNL A   1      33.324  26.330  22.031  1.00  0.00     0.000 A 
ATOM     29  C   UNL A   1      33.687  27.647  22.288  1.00  0.00     0.000 A 
ENDBRANCH  16  24
ENDBRANCH   7   8
ENDBRANCH   4   7
ENDBRANCH   2   3
ENDBRANCH   1   2
BRANCH   1  30
ATOM     30  C   UNL A   1      33.748  29.547  27.243  1.00  0.00     0.118 C 
BRANCH  30  31
ATOM     31  N   UNL A   1      34.143  30.936  27.340  1.00  0.00    -0.352 N 
ATOM     32  C   UNL A   1      35.273  31.600  27.713  1.00  0.00     0.251 C 
ATOM     33  H   UNL A   1      33.421  31.548  27.070  1.00  0.00     0.163 HD
ATOM     34  O   UNL A   1      35.248  32.823  27.535  1.00  0.00    -0.269 OA
BRANCH  32  35
ATOM     35  C   UNL A   1      36.462  30.996  28.372  1.00  0.00     0.039 A 
ATOM     36  C   UNL A   1      37.473  31.687  29.041  1.00  0.00     0.014 A 
ATOM     37  C   UNL A   1      36.604  29.607  28.180  1.00  0.00     0.014 A 
ATOM     38  C   UNL A   1      38.666  31.040  29.354  1.00  0.00     0.010 A 
ATOM     39  C   UNL A   1      37.778  28.954  28.517  1.00  0.00     0.010 A 
ATOM     40  C   UNL A   1      38.841  29.697  29.010  1.00  0.00    -0.014 A 
BRANCH  40  41
ATOM     41  C   UNL A   1      40.156  29.091  29.182  1.00  0.00     0.031 A 
ATOM     42  C   UNL A   1      40.589  28.926  30.599  1.00  0.00     0.074 A 
ATOM     43  C   UNL A   1      40.880  28.640  28.133  1.00  0.00     0.049 A 
ATOM     44  N   UNL A   1      41.566  29.511  31.212  1.00  0.00    -0.248 NA
ATOM     45  C   UNL A   1      39.732  28.117  31.482  1.00  0.00     0.031 C 
ATOM     46  C   UNL A   1      40.487  28.522  26.724  1.00  0.00     0.029 A 
ATOM     47  N   UNL A   1      42.134  28.111  28.131  1.00  0.00    -0.354 N 
ATOM     48  C   UNL A   1      41.578  28.990  32.505  1.00  0.00     0.074 A 
ATOM     49  C   UNL A   1      40.347  28.258  32.658  1.00  0.00     0.031 C 
ATOM     50  C   UNL A   1      41.379  27.745  26.065  1.00  0.00     0.029 A 
ATOM     51  C   UNL A   1      42.485  27.447  26.956  1.00  0.00     0.049 A 
ATOM     52  H   UNL A   1      42.745  28.191  28.898  1.00  0.00     0.167 HD
ATOM     53  C   UNL A   1      42.688  29.034  33.294  1.00  0.00     0.037 A 
ATOM     54  C   UNL A   1      43.589  26.677  26.766  1.00  0.00     0.037 A 
ATOM     55  C   UNL A   1      43.651  29.982  32.802  1.00  0.00     0.049 A 
ATOM     56  C   UNL A   1      44.574  27.089  27.802  1.00  0.00     0.074 A 
ATOM     57  C   UNL A   1      43.683  31.355  32.663  1.00  0.00     0.029 A 
ATOM     58  N   UNL A   1      44.668  29.505  32.013  1.00  0.00    -0.354 N 
ATOM     59  N   UNL A   1      45.121  28.274  27.846  1.00  0.00    -0.248 NA
ATOM     60  C   UNL A   1      44.564  26.357  29.060  1.00  0.00     0.031 C 
ATOM     61  C   UNL A   1      44.373  31.584  31.436  1.00  0.00     0.029 A 
ATOM     62  C   UNL A   1      44.776  30.346  30.934  1.00  0.00     0.049 A 
ATOM     63  H   UNL A   1      45.218  28.707  32.188  1.00  0.00     0.167 HD
ATOM     64  C   UNL A   1      45.150  28.606  29.193  1.00  0.00     0.074 A 
ATOM     65  C   UNL A   1      44.835  27.363  29.896  1.00  0.00     0.031 C 
ATOM     66  C   UNL A   1      45.149  29.909  29.607  1.00  0.00     0.037 A 
BRANCH  53  67
ATOM     67  C   UNL A   1      43.044  27.987  34.319  1.00  0.00     0.058 A 
ATOM     68  C   UNL A   1      43.140  28.336  35.680  1.00  0.00     0.135 A 
ATOM     69  C   UNL A   1      43.567  26.721  33.973  1.00  0.00     0.135 A 
ATOM     70  F   UNL A   1      42.684  29.521  36.115  1.00  0.00    -0.206 F 
ATOM     71  C   UNL A   1      43.765  27.512  36.619  1.00  0.00     0.059 A 
ATOM     72  C   UNL A   1      44.149  25.864  34.900  1.00  0.00     0.059 A 
ATOM     73  F   UNL A   1      43.623  26.300  32.703  1.00  0.00    -0.206 F 
ATOM     74  C   UNL A   1      44.278  26.283  36.215  1.00  0.00     0.060 A 
BRANCH  74  75
ATOM     75  S   UNL A   1      45.179  25.270  37.402  1.00  0.00     0.124 S 
ATOM     76  O   UNL A   1      44.548  25.659  38.658  1.00  0.00    -0.237 OA
ATOM     77  O   UNL A   1      44.885  23.921  36.929  1.00  0.00    -0.237 OA
ATOM     78  O   UNL A   1      46.564  25.699  37.230  1.00  0.00    -0.744 OA
ENDBRANCH  74  75
ENDBRANCH  53  67
BRANCH  54  79
ATOM     79  C   UNL A   1      43.636  25.329  26.124  1.00  0.00     0.058 A 
ATOM     80  C   UNL A   1      44.624  25.004  25.176  1.00  0.00     0.135 A 
ATOM     81  C   UNL A   1      42.906  24.243  26.652  1.00  0.00     0.135 A 
ATOM     82  F   UNL A   1      45.382  25.971  24.638  1.00  0.00    -0.206 F 
ATOM     83  C   UNL A   1      44.906  23.680  24.810  1.00  0.00     0.059 A 
ATOM     84  C   UNL A   1      43.168  22.919  26.301  1.00  0.00     0.059 A 
ATOM     85  F   UNL A   1      41.978  24.433  27.600  1.00  0.00    -0.206 F 
ATOM     86  C   UNL A   1      44.187  22.641  25.399  1.00  0.00     0.060 A 
BRANCH  86  87
ATOM     87  S   UNL A   1      44.659  20.925  25.062  1.00  0.00     0.124 S 
ATOM     88  O   UNL A   1      44.585  20.870  23.606  1.00  0.00    -0.237 OA
ATOM     89  O   UNL A   1      45.998  20.857  25.635  1.00  0.00    -0.237 OA
ATOM     90  O   UNL A   1      43.641  20.148  25.766  1.00  0.00    -0.744 OA
ENDBRANCH  86  87
ENDBRANCH  54  79
BRANCH  66  91
ATOM     91  C   UNL A   1      45.347  30.983  28.566  1.00  0.00     0.058 A 
ATOM     92  C   UNL A   1      44.308  31.571  27.818  1.00  0.00     0.135 A 
ATOM     93  C   UNL A   1      46.623  31.546  28.431  1.00  0.00     0.135 A 
ATOM     94  F   UNL A   1      43.040  31.161  27.965  1.00  0.00    -0.206 F 
ATOM     95  C   UNL A   1      44.537  32.641  26.951  1.00  0.00     0.059 A 
ATOM     96  C   UNL A   1      46.870  32.632  27.595  1.00  0.00     0.059 A 
ATOM     97  F   UNL A   1      47.645  31.076  29.165  1.00  0.00    -0.206 F 
ATOM     98  C   UNL A   1      45.824  33.167  26.848  1.00  0.00     0.060 A 
BRANCH  98  99
ATOM     99  S   UNL A   1      46.109  34.598  25.782  1.00  0.00     0.124 S 
ATOM    100  O   UNL A   1      45.759  35.711  26.658  1.00  0.00    -0.237 OA
ATOM    101  O   UNL A   1      47.527  34.462  25.457  1.00  0.00    -0.237 OA
ATOM    102  O   UNL A   1      45.199  34.376  24.661  1.00  0.00    -0.744 OA
ENDBRANCH  98  99
ENDBRANCH  66  91
ENDBRANCH  40  41
ENDBRANCH  32  35
ENDBRANCH  30  31
ENDBRANCH   1  30
TORSDOF 16
ENDMDL
