MODEL 1
REMARK VINA RESULT:     -11.9      0.000      0.000
REMARK SMILES Cc1cc(C)c2c(c1)C=C(C(=O)NCCCNC(=O)c1ccc(-c3c4nc(c(-c5c(F)cc(S(=O)(=O)[O-])cc5F)c5ccc([nH]5)c(-c5c(F)cc(S(=O)(=O)[O-])cc5F)c5nc(c(-c6c(F)cc(S(=O)(=O)[O-])cc6F)c6ccc3[nH]6)C=C5)C=C4)cc1)[C@@H](C(F)(F)F)O2
REMARK SMILES IDX 16 1 15 2 14 3 13 4 11 5 12 6 10 8 1 9 2 10 3 11 8 12 4 13
REMARK SMILES IDX 7 14 5 15 6 16 9 17 91 18 86 19 87 20 88 21 89 22 90 23
REMARK SMILES IDX 17 24 18 25 19 27 20 28 21 29 85 30 22 31 84 32 23 33 24 34
REMARK SMILES IDX 25 35 78 36 26 37 83 38 77 39 79 40 27 41 82 42 76 43 75 44
REMARK SMILES IDX 28 46 62 47 41 48 61 49 42 50 45 51 60 52 80 53 43 54 44 55
REMARK SMILES IDX 59 57 81 58 46 59 29 60 30 61 39 62 31 63 32 64 38 65 40 66
REMARK SMILES IDX 33 67 34 68 35 69 36 70 37 71 63 72 64 73 73 74 65 75 66 76
REMARK SMILES IDX 72 77 74 78 67 79 68 80 69 81 70 82 71 83 47 84 48 85 57 86
REMARK SMILES IDX 49 87 50 88 56 89 58 90 51 91 52 92 53 93 54 94 55 95
REMARK H PARENT 13 7 17 26 79 45 45 56
REMARK Flexibility Score: inf
ROOT
ATOM      1  C   UNL A   1      33.689  28.253  27.053  1.00  0.00     0.118 C 
ENDROOT
BRANCH   1   2
ATOM      2  C   UNL A   1      34.067  28.089  25.586  1.00  0.00     0.042 C 
BRANCH   2   3
ATOM      3  C   UNL A   1      32.946  27.463  24.770  1.00  0.00     0.118 C 
BRANCH   3   4
ATOM      4  N   UNL A   1      31.955  26.812  25.614  1.00  0.00    -0.352 N 
ATOM      5  C   UNL A   1      31.701  25.562  26.066  1.00  0.00     0.251 C 
ATOM      6  O   UNL A   1      30.709  25.460  26.796  1.00  0.00    -0.270 OA
ATOM      7  H   UNL A   1      31.290  27.456  25.948  1.00  0.00     0.163 HD
BRANCH   5   8
ATOM      8  C   UNL A   1      32.517  24.353  25.757  1.00  0.00     0.067 C 
ATOM      9  C   UNL A   1      38.366  22.348  25.856  1.00  0.00     0.044 C 
ATOM     10  C   UNL A   1      36.879  22.264  25.671  1.00  0.00    -0.050 A 
ATOM     11  C   UNL A   1      36.289  21.059  25.266  1.00  0.00     0.010 A 
ATOM     12  C   UNL A   1      36.064  23.366  25.958  1.00  0.00     0.015 A 
ATOM     13  C   UNL A   1      34.900  20.950  25.126  1.00  0.00    -0.008 A 
ATOM     14  C   UNL A   1      34.676  23.277  25.815  1.00  0.00     0.018 A 
ATOM     15  C   UNL A   1      34.272  19.659  24.687  1.00  0.00     0.048 C 
ATOM     16  C   UNL A   1      34.106  22.072  25.396  1.00  0.00     0.130 A 
ATOM     17  C   UNL A   1      33.810  24.409  26.124  1.00  0.00     0.025 C 
ATOM     18  O   UNL A   1      32.752  21.922  25.278  1.00  0.00    -0.475 OA
ATOM     19  C   UNL A   1      31.992  23.137  25.047  1.00  0.00     0.314 C 
BRANCH  19  20
ATOM     20  C   UNL A   1      31.833  23.358  23.531  1.00  0.00     0.429 C 
ATOM     21  F   UNL A   1      32.724  24.279  23.088  1.00  0.00    -0.167 F 
ATOM     22  F   UNL A   1      32.061  22.231  22.813  1.00  0.00    -0.167 F 
ATOM     23  F   UNL A   1      30.599  23.792  23.188  1.00  0.00    -0.167 F 
ENDBRANCH  19  20
ENDBRANCH   5   8
ENDBRANCH   3   4
ENDBRANCH   2   3
ENDBRANCH   1   2
BRANCH   1  24
ATOM     24  N   UNL A   1      33.611  29.661  27.438  1.00  0.00    -0.352 N 
ATOM     25  C   UNL A   1      34.512  30.439  28.120  1.00  0.00     0.251 C 
ATOM     26  H   UNL A   1      32.785  30.121  27.166  1.00  0.00     0.163 HD
ATOM     27  O   UNL A   1      34.153  31.517  28.590  1.00  0.00    -0.269 OA
BRANCH  25  28
ATOM     28  C   UNL A   1      35.903  29.979  28.292  1.00  0.00     0.039 A 
ATOM     29  C   UNL A   1      36.803  30.092  27.229  1.00  0.00     0.014 A 
ATOM     30  C   UNL A   1      36.314  29.419  29.504  1.00  0.00     0.014 A 
ATOM     31  C   UNL A   1      38.133  29.711  27.410  1.00  0.00     0.010 A 
ATOM     32  C   UNL A   1      37.656  29.131  29.713  1.00  0.00     0.010 A 
ATOM     33  C   UNL A   1      38.577  29.263  28.666  1.00  0.00    -0.014 A 
BRANCH  33  34
ATOM     34  C   UNL A   1      39.997  28.906  28.902  1.00  0.00     0.031 A 
ATOM     35  C   UNL A   1      40.933  29.917  29.506  1.00  0.00     0.074 A 
ATOM     36  C   UNL A   1      40.451  27.695  28.523  1.00  0.00     0.049 A 
ATOM     37  N   UNL A   1      42.217  29.819  29.734  1.00  0.00    -0.248 NA
ATOM     38  C   UNL A   1      40.357  31.222  29.875  1.00  0.00     0.031 C 
ATOM     39  C   UNL A   1      39.646  26.651  27.882  1.00  0.00     0.029 A 
ATOM     40  N   UNL A   1      41.698  27.133  28.622  1.00  0.00    -0.354 N 
ATOM     41  C   UNL A   1      42.599  31.045  30.265  1.00  0.00     0.074 A 
ATOM     42  C   UNL A   1      41.431  31.896  30.260  1.00  0.00     0.031 C 
ATOM     43  C   UNL A   1      40.407  25.563  27.689  1.00  0.00     0.029 A 
ATOM     44  C   UNL A   1      41.761  25.841  28.155  1.00  0.00     0.049 A 
ATOM     45  H   UNL A   1      42.475  27.611  28.992  1.00  0.00     0.167 HD
ATOM     46  C   UNL A   1      43.807  31.416  30.750  1.00  0.00     0.037 A 
ATOM     47  C   UNL A   1      42.795  24.977  28.117  1.00  0.00     0.037 A 
ATOM     48  C   UNL A   1      44.956  30.551  30.786  1.00  0.00     0.049 A 
ATOM     49  C   UNL A   1      44.129  25.415  28.652  1.00  0.00     0.074 A 
ATOM     50  C   UNL A   1      46.215  30.814  31.291  1.00  0.00     0.029 A 
ATOM     51  N   UNL A   1      44.978  29.249  30.305  1.00  0.00    -0.354 N 
ATOM     52  N   UNL A   1      44.463  26.565  29.189  1.00  0.00    -0.248 NA
ATOM     53  C   UNL A   1      45.229  24.442  28.579  1.00  0.00     0.031 C 
ATOM     54  C   UNL A   1      47.010  29.681  31.089  1.00  0.00     0.029 A 
ATOM     55  C   UNL A   1      46.233  28.700  30.492  1.00  0.00     0.049 A 
ATOM     56  H   UNL A   1      44.213  28.786  29.892  1.00  0.00     0.167 HD
ATOM     57  C   UNL A   1      45.804  26.447  29.538  1.00  0.00     0.074 A 
ATOM     58  C   UNL A   1      46.217  25.111  29.161  1.00  0.00     0.031 C 
ATOM     59  C   UNL A   1      46.618  27.361  30.119  1.00  0.00     0.037 A 
BRANCH  46  60
ATOM     60  C   UNL A   1      43.936  32.804  31.314  1.00  0.00     0.058 A 
ATOM     61  C   UNL A   1      43.746  33.053  32.682  1.00  0.00     0.135 A 
ATOM     62  C   UNL A   1      44.285  33.886  30.491  1.00  0.00     0.135 A 
ATOM     63  F   UNL A   1      43.392  32.056  33.510  1.00  0.00    -0.206 F 
ATOM     64  C   UNL A   1      43.875  34.332  33.213  1.00  0.00     0.059 A 
ATOM     65  C   UNL A   1      44.446  35.170  31.006  1.00  0.00     0.059 A 
ATOM     66  F   UNL A   1      44.475  33.703  29.175  1.00  0.00    -0.206 F 
ATOM     67  C   UNL A   1      44.227  35.384  32.366  1.00  0.00     0.060 A 
BRANCH  67  68
ATOM     68  S   UNL A   1      44.400  37.035  33.078  1.00  0.00     0.124 S 
ATOM     69  O   UNL A   1      43.912  37.874  31.987  1.00  0.00    -0.237 OA
ATOM     70  O   UNL A   1      43.539  36.958  34.253  1.00  0.00    -0.237 OA
ATOM     71  O   UNL A   1      45.830  37.137  33.356  1.00  0.00    -0.744 OA
ENDBRANCH  67  68
ENDBRANCH  46  60
BRANCH  47  72
ATOM     72  C   UNL A   1      42.590  23.598  27.601  1.00  0.00     0.058 A 
ATOM     73  C   UNL A   1      42.679  23.330  26.226  1.00  0.00     0.135 A 
ATOM     74  C   UNL A   1      42.335  22.519  28.462  1.00  0.00     0.135 A 
ATOM     75  F   UNL A   1      42.918  24.330  25.364  1.00  0.00    -0.206 F 
ATOM     76  C   UNL A   1      42.511  22.046  25.720  1.00  0.00     0.059 A 
ATOM     77  C   UNL A   1      42.184  21.221  27.982  1.00  0.00     0.059 A 
ATOM     78  F   UNL A   1      42.258  22.719  29.786  1.00  0.00    -0.206 F 
ATOM     79  C   UNL A   1      42.268  20.996  26.607  1.00  0.00     0.060 A 
BRANCH  79  80
ATOM     80  S   UNL A   1      42.105  19.325  25.941  1.00  0.00     0.124 S 
ATOM     81  O   UNL A   1      40.669  19.241  25.705  1.00  0.00    -0.237 OA
ATOM     82  O   UNL A   1      42.947  19.388  24.751  1.00  0.00    -0.237 OA
ATOM     83  O   UNL A   1      42.617  18.483  27.019  1.00  0.00    -0.744 OA
ENDBRANCH  79  80
ENDBRANCH  47  72
BRANCH  59  84
ATOM     84  C   UNL A   1      48.034  26.954  30.406  1.00  0.00     0.058 A 
ATOM     85  C   UNL A   1      49.078  27.281  29.529  1.00  0.00     0.135 A 
ATOM     86  C   UNL A   1      48.361  26.326  31.618  1.00  0.00     0.135 A 
ATOM     87  F   UNL A   1      48.813  27.874  28.355  1.00  0.00    -0.206 F 
ATOM     88  C   UNL A   1      50.402  27.002  29.846  1.00  0.00     0.059 A 
ATOM     89  C   UNL A   1      49.681  26.058  31.966  1.00  0.00     0.059 A 
ATOM     90  F   UNL A   1      47.396  26.001  32.494  1.00  0.00    -0.206 F 
ATOM     91  C   UNL A   1      50.695  26.400  31.071  1.00  0.00     0.060 A 
BRANCH  91  92
ATOM     92  S   UNL A   1      52.425  26.117  31.500  1.00  0.00     0.124 S 
ATOM     93  O   UNL A   1      53.072  26.219  30.197  1.00  0.00    -0.237 OA
ATOM     94  O   UNL A   1      52.696  27.208  32.431  1.00  0.00    -0.237 OA
ATOM     95  O   UNL A   1      52.415  24.783  32.093  1.00  0.00    -0.744 OA
ENDBRANCH  91  92
ENDBRANCH  59  84
ENDBRANCH  33  34
ENDBRANCH  25  28
ENDBRANCH   1  24
TORSDOF 14
ENDMDL
MODEL 2
REMARK VINA RESULT:     -11.9      4.955     10.500
REMARK SMILES Cc1cc(C)c2c(c1)C=C(C(=O)NCCCNC(=O)c1ccc(-c3c4nc(c(-c5c(F)cc(S(=O)(=O)[O-])cc5F)c5ccc([nH]5)c(-c5c(F)cc(S(=O)(=O)[O-])cc5F)c5nc(c(-c6c(F)cc(S(=O)(=O)[O-])cc6F)c6ccc3[nH]6)C=C5)C=C4)cc1)[C@@H](C(F)(F)F)O2
REMARK SMILES IDX 16 1 15 2 14 3 13 4 11 5 12 6 10 8 1 9 2 10 3 11 8 12 4 13
REMARK SMILES IDX 7 14 5 15 6 16 9 17 91 18 86 19 87 20 88 21 89 22 90 23
REMARK SMILES IDX 17 24 18 25 19 27 20 28 21 29 85 30 22 31 84 32 23 33 24 34
REMARK SMILES IDX 25 35 78 36 26 37 83 38 77 39 79 40 27 41 82 42 76 43 75 44
REMARK SMILES IDX 28 46 62 47 41 48 61 49 42 50 45 51 60 52 80 53 43 54 44 55
REMARK SMILES IDX 59 57 81 58 46 59 29 60 30 61 39 62 31 63 32 64 38 65 40 66
REMARK SMILES IDX 33 67 34 68 35 69 36 70 37 71 63 72 64 73 73 74 65 75 66 76
REMARK SMILES IDX 72 77 74 78 67 79 68 80 69 81 70 82 71 83 47 84 48 85 57 86
REMARK SMILES IDX 49 87 50 88 56 89 58 90 51 91 52 92 53 93 54 94 55 95
REMARK H PARENT 13 7 17 26 79 45 45 56
REMARK Flexibility Score: inf
ROOT
ATOM      1  C   UNL A   1      40.323  23.360  27.159  1.00  0.00     0.118 C 
ENDROOT
BRANCH   1   2
ATOM      2  C   UNL A   1      39.133  22.685  26.487  1.00  0.00     0.042 C 
BRANCH   2   3
ATOM      3  C   UNL A   1      38.084  23.689  26.035  1.00  0.00     0.118 C 
BRANCH   3   4
ATOM      4  N   UNL A   1      37.588  23.395  24.699  1.00  0.00    -0.352 N 
ATOM      5  C   UNL A   1      36.392  23.370  24.065  1.00  0.00     0.251 C 
ATOM      6  O   UNL A   1      36.438  23.052  22.872  1.00  0.00    -0.270 OA
ATOM      7  H   UNL A   1      38.321  23.146  24.091  1.00  0.00     0.163 HD
BRANCH   5   8
ATOM      8  C   UNL A   1      35.080  23.700  24.691  1.00  0.00     0.067 C 
ATOM      9  C   UNL A   1      31.824  28.530  26.768  1.00  0.00     0.044 C 
ATOM     10  C   UNL A   1      32.098  27.099  26.412  1.00  0.00    -0.050 A 
ATOM     11  C   UNL A   1      31.115  26.122  26.624  1.00  0.00     0.010 A 
ATOM     12  C   UNL A   1      33.310  26.735  25.810  1.00  0.00     0.015 A 
ATOM     13  C   UNL A   1      31.337  24.788  26.261  1.00  0.00    -0.008 A 
ATOM     14  C   UNL A   1      33.550  25.406  25.451  1.00  0.00     0.018 A 
ATOM     15  C   UNL A   1      30.284  23.744  26.495  1.00  0.00     0.048 C 
ATOM     16  C   UNL A   1      32.565  24.442  25.683  1.00  0.00     0.130 A 
ATOM     17  C   UNL A   1      34.799  25.011  24.810  1.00  0.00     0.025 C 
ATOM     18  O   UNL A   1      32.737  23.137  25.314  1.00  0.00    -0.475 OA
ATOM     19  C   UNL A   1      34.110  22.677  25.212  1.00  0.00     0.314 C 
BRANCH  19  20
ATOM     20  C   UNL A   1      34.548  22.077  26.561  1.00  0.00     0.429 C 
ATOM     21  F   UNL A   1      33.516  21.419  27.146  1.00  0.00    -0.167 F 
ATOM     22  F   UNL A   1      35.550  21.174  26.429  1.00  0.00    -0.167 F 
ATOM     23  F   UNL A   1      34.982  23.010  27.438  1.00  0.00    -0.167 F 
ENDBRANCH  19  20
ENDBRANCH   5   8
ENDBRANCH   3   4
ENDBRANCH   2   3
ENDBRANCH   1   2
BRANCH   1  24
ATOM     24  N   UNL A   1      41.177  24.043  26.190  1.00  0.00    -0.352 N 
ATOM     25  C   UNL A   1      41.469  25.378  26.058  1.00  0.00     0.251 C 
ATOM     26  H   UNL A   1      41.609  23.455  25.530  1.00  0.00     0.163 HD
ATOM     27  O   UNL A   1      41.981  25.789  25.019  1.00  0.00    -0.269 OA
BRANCH  25  28
ATOM     28  C   UNL A   1      41.164  26.311  27.158  1.00  0.00     0.039 A 
ATOM     29  C   UNL A   1      40.186  25.973  28.097  1.00  0.00     0.014 A 
ATOM     30  C   UNL A   1      41.836  27.532  27.252  1.00  0.00     0.014 A 
ATOM     31  C   UNL A   1      39.939  26.830  29.171  1.00  0.00     0.010 A 
ATOM     32  C   UNL A   1      41.659  28.336  28.370  1.00  0.00     0.010 A 
ATOM     33  C   UNL A   1      40.701  27.999  29.335  1.00  0.00    -0.014 A 
BRANCH  33  34
ATOM     34  C   UNL A   1      40.498  28.898  30.498  1.00  0.00     0.031 A 
ATOM     35  C   UNL A   1      41.357  28.741  31.723  1.00  0.00     0.074 A 
ATOM     36  C   UNL A   1      39.510  29.813  30.467  1.00  0.00     0.049 A 
ATOM     37  N   UNL A   1      41.296  29.384  32.860  1.00  0.00    -0.248 NA
ATOM     38  C   UNL A   1      42.402  27.704  31.678  1.00  0.00     0.031 C 
ATOM     39  C   UNL A   1      38.583  30.022  29.351  1.00  0.00     0.029 A 
ATOM     40  N   UNL A   1      39.118  30.742  31.398  1.00  0.00    -0.354 N 
ATOM     41  C   UNL A   1      42.286  28.828  33.661  1.00  0.00     0.074 A 
ATOM     42  C   UNL A   1      42.886  27.748  32.911  1.00  0.00     0.031 C 
ATOM     43  C   UNL A   1      37.764  31.044  29.644  1.00  0.00     0.029 A 
ATOM     44  C   UNL A   1      38.079  31.539  30.980  1.00  0.00     0.049 A 
ATOM     45  H   UNL A   1      39.542  30.828  32.282  1.00  0.00     0.167 HD
ATOM     46  C   UNL A   1      42.686  29.208  34.897  1.00  0.00     0.037 A 
ATOM     47  C   UNL A   1      37.457  32.559  31.603  1.00  0.00     0.037 A 
ATOM     48  C   UNL A   1      42.108  30.308  35.623  1.00  0.00     0.049 A 
ATOM     49  C   UNL A   1      37.913  32.957  32.979  1.00  0.00     0.074 A 
ATOM     50  C   UNL A   1      42.464  30.801  36.863  1.00  0.00     0.029 A 
ATOM     51  N   UNL A   1      41.059  31.091  35.163  1.00  0.00    -0.354 N 
ATOM     52  N   UNL A   1      38.879  32.446  33.706  1.00  0.00    -0.248 NA
ATOM     53  C   UNL A   1      37.198  34.068  33.623  1.00  0.00     0.031 C 
ATOM     54  C   UNL A   1      41.611  31.865  37.170  1.00  0.00     0.029 A 
ATOM     55  C   UNL A   1      40.747  32.058  36.103  1.00  0.00     0.049 A 
ATOM     56  H   UNL A   1      40.603  30.975  34.298  1.00  0.00     0.167 HD
ATOM     57  C   UNL A   1      38.902  33.187  34.882  1.00  0.00     0.074 A 
ATOM     58  C   UNL A   1      37.861  34.188  34.766  1.00  0.00     0.031 C 
ATOM     59  C   UNL A   1      39.713  33.052  35.959  1.00  0.00     0.037 A 
BRANCH  46  60
ATOM     60  C   UNL A   1      43.824  28.452  35.525  1.00  0.00     0.058 A 
ATOM     61  C   UNL A   1      45.159  28.816  35.285  1.00  0.00     0.135 A 
ATOM     62  C   UNL A   1      43.583  27.381  36.399  1.00  0.00     0.135 A 
ATOM     63  F   UNL A   1      45.445  29.822  34.441  1.00  0.00    -0.206 F 
ATOM     64  C   UNL A   1      46.217  28.130  35.870  1.00  0.00     0.059 A 
ATOM     65  C   UNL A   1      44.626  26.697  37.017  1.00  0.00     0.059 A 
ATOM     66  F   UNL A   1      42.326  26.990  36.660  1.00  0.00    -0.206 F 
ATOM     67  C   UNL A   1      45.939  27.072  36.738  1.00  0.00     0.060 A 
BRANCH  67  68
ATOM     68  S   UNL A   1      47.326  26.201  37.497  1.00  0.00     0.124 S 
ATOM     69  O   UNL A   1      48.356  26.344  36.471  1.00  0.00    -0.237 OA
ATOM     70  O   UNL A   1      47.540  26.965  38.721  1.00  0.00    -0.237 OA
ATOM     71  O   UNL A   1      46.815  24.846  37.687  1.00  0.00    -0.744 OA
ENDBRANCH  67  68
ENDBRANCH  46  60
BRANCH  47  72
ATOM     72  C   UNL A   1      36.377  33.306  30.907  1.00  0.00     0.058 A 
ATOM     73  C   UNL A   1      35.041  33.177  31.319  1.00  0.00     0.135 A 
ATOM     74  C   UNL A   1      36.651  34.181  29.844  1.00  0.00     0.135 A 
ATOM     75  F   UNL A   1      34.729  32.351  32.328  1.00  0.00    -0.206 F 
ATOM     76  C   UNL A   1      34.015  33.880  30.697  1.00  0.00     0.059 A 
ATOM     77  C   UNL A   1      35.644  34.910  29.219  1.00  0.00     0.059 A 
ATOM     78  F   UNL A   1      37.914  34.353  29.424  1.00  0.00    -0.206 F 
ATOM     79  C   UNL A   1      34.327  34.748  29.649  1.00  0.00     0.060 A 
BRANCH  79  80
ATOM     80  S   UNL A   1      32.991  35.694  28.886  1.00  0.00     0.124 S 
ATOM     81  O   UNL A   1      33.732  36.724  28.169  1.00  0.00    -0.237 OA
ATOM     82  O   UNL A   1      32.336  34.685  28.060  1.00  0.00    -0.237 OA
ATOM     83  O   UNL A   1      32.212  36.158  30.031  1.00  0.00    -0.744 OA
ENDBRANCH  79  80
ENDBRANCH  47  72
BRANCH  59  84
ATOM     84  C   UNL A   1      39.530  34.015  37.096  1.00  0.00     0.058 A 
ATOM     85  C   UNL A   1      38.798  33.661  38.239  1.00  0.00     0.135 A 
ATOM     86  C   UNL A   1      40.182  35.258  37.087  1.00  0.00     0.135 A 
ATOM     87  F   UNL A   1      38.151  32.487  38.291  1.00  0.00    -0.206 F 
ATOM     88  C   UNL A   1      38.721  34.509  39.338  1.00  0.00     0.059 A 
ATOM     89  C   UNL A   1      40.137  36.112  38.184  1.00  0.00     0.059 A 
ATOM     90  F   UNL A   1      40.902  35.636  36.018  1.00  0.00    -0.206 F 
ATOM     91  C   UNL A   1      39.402  35.727  39.306  1.00  0.00     0.060 A 
BRANCH  91  92
ATOM     92  S   UNL A   1      39.356  36.780  40.771  1.00  0.00     0.124 S 
ATOM     93  O   UNL A   1      38.594  35.954  41.702  1.00  0.00    -0.237 OA
ATOM     94  O   UNL A   1      40.773  36.942  41.081  1.00  0.00    -0.237 OA
ATOM     95  O   UNL A   1      38.680  37.986  40.304  1.00  0.00    -0.744 OA
ENDBRANCH  91  92
ENDBRANCH  59  84
ENDBRANCH  33  34
ENDBRANCH  25  28
ENDBRANCH   1  24
TORSDOF 14
ENDMDL
MODEL 3
REMARK VINA RESULT:     -11.8      3.591      6.357
REMARK SMILES Cc1cc(C)c2c(c1)C=C(C(=O)NCCCNC(=O)c1ccc(-c3c4nc(c(-c5c(F)cc(S(=O)(=O)[O-])cc5F)c5ccc([nH]5)c(-c5c(F)cc(S(=O)(=O)[O-])cc5F)c5nc(c(-c6c(F)cc(S(=O)(=O)[O-])cc6F)c6ccc3[nH]6)C=C5)C=C4)cc1)[C@@H](C(F)(F)F)O2
REMARK SMILES IDX 16 1 15 2 14 3 13 4 11 5 12 6 10 8 1 9 2 10 3 11 8 12 4 13
REMARK SMILES IDX 7 14 5 15 6 16 9 17 91 18 86 19 87 20 88 21 89 22 90 23
REMARK SMILES IDX 17 24 18 25 19 27 20 28 21 29 85 30 22 31 84 32 23 33 24 34
REMARK SMILES IDX 25 35 78 36 26 37 83 38 77 39 79 40 27 41 82 42 76 43 75 44
REMARK SMILES IDX 28 46 62 47 41 48 61 49 42 50 45 51 60 52 80 53 43 54 44 55
REMARK SMILES IDX 59 57 81 58 46 59 29 60 30 61 39 62 31 63 32 64 38 65 40 66
REMARK SMILES IDX 33 67 34 68 35 69 36 70 37 71 63 72 64 73 73 74 65 75 66 76
REMARK SMILES IDX 72 77 74 78 67 79 68 80 69 81 70 82 71 83 47 84 48 85 57 86
REMARK SMILES IDX 49 87 50 88 56 89 58 90 51 91 52 92 53 93 54 94 55 95
REMARK H PARENT 13 7 17 26 79 45 45 56
REMARK Flexibility Score: inf
ROOT
ATOM      1  C   UNL A   1      34.738  32.501  28.044  1.00  0.00     0.118 C 
ENDROOT
BRANCH   1   2
ATOM      2  C   UNL A   1      33.906  33.540  28.786  1.00  0.00     0.042 C 
BRANCH   2   3
ATOM      3  C   UNL A   1      34.645  34.118  29.984  1.00  0.00     0.118 C 
BRANCH   3   4
ATOM      4  N   UNL A   1      34.050  33.701  31.245  1.00  0.00    -0.352 N 
ATOM      5  C   UNL A   1      34.475  33.188  32.422  1.00  0.00     0.251 C 
ATOM      6  O   UNL A   1      33.585  32.979  33.255  1.00  0.00    -0.270 OA
ATOM      7  H   UNL A   1      33.074  33.828  31.240  1.00  0.00     0.163 HD
BRANCH   5   8
ATOM      8  C   UNL A   1      35.893  32.882  32.767  1.00  0.00     0.067 C 
ATOM      9  C   UNL A   1      39.921  28.191  32.825  1.00  0.00     0.044 C 
ATOM     10  C   UNL A   1      39.444  29.605  32.979  1.00  0.00    -0.050 A 
ATOM     11  C   UNL A   1      40.336  30.605  33.389  1.00  0.00     0.010 A 
ATOM     12  C   UNL A   1      38.125  29.950  32.657  1.00  0.00     0.015 A 
ATOM     13  C   UNL A   1      39.921  31.938  33.501  1.00  0.00    -0.008 A 
ATOM     14  C   UNL A   1      37.692  31.274  32.772  1.00  0.00     0.018 A 
ATOM     15  C   UNL A   1      40.878  33.005  33.946  1.00  0.00     0.048 C 
ATOM     16  C   UNL A   1      38.592  32.256  33.197  1.00  0.00     0.130 A 
ATOM     17  C   UNL A   1      36.328  31.655  32.427  1.00  0.00     0.025 C 
ATOM     18  O   UNL A   1      38.227  33.571  33.288  1.00  0.00    -0.475 OA
ATOM     19  C   UNL A   1      36.812  33.830  33.483  1.00  0.00     0.314 C 
BRANCH  19  20
ATOM     20  C   UNL A   1      36.515  33.918  34.992  1.00  0.00     0.429 C 
ATOM     21  F   UNL A   1      37.503  34.590  35.634  1.00  0.00    -0.167 F 
ATOM     22  F   UNL A   1      35.366  34.586  35.259  1.00  0.00    -0.167 F 
ATOM     23  F   UNL A   1      36.403  32.706  35.580  1.00  0.00    -0.167 F 
ENDBRANCH  19  20
ENDBRANCH   5   8
ENDBRANCH   3   4
ENDBRANCH   2   3
ENDBRANCH   1   2
BRANCH   1  24
ATOM     24  N   UNL A   1      34.072  31.201  28.006  1.00  0.00    -0.352 N 
ATOM     25  C   UNL A   1      34.605  29.938  27.926  1.00  0.00     0.251 C 
ATOM     26  H   UNL A   1      33.089  31.236  28.044  1.00  0.00     0.163 HD
ATOM     27  O   UNL A   1      33.883  28.990  27.626  1.00  0.00    -0.269 OA
BRANCH  25  28
ATOM     28  C   UNL A   1      36.040  29.726  28.193  1.00  0.00     0.039 A 
ATOM     29  C   UNL A   1      36.445  29.250  29.443  1.00  0.00     0.014 A 
ATOM     30  C   UNL A   1      36.989  30.013  27.209  1.00  0.00     0.014 A 
ATOM     31  C   UNL A   1      37.798  28.993  29.675  1.00  0.00     0.010 A 
ATOM     32  C   UNL A   1      38.319  29.668  27.408  1.00  0.00     0.010 A 
ATOM     33  C   UNL A   1      38.738  29.165  28.646  1.00  0.00    -0.014 A 
BRANCH  33  34
ATOM     34  C   UNL A   1      40.173  28.846  28.848  1.00  0.00     0.031 A 
ATOM     35  C   UNL A   1      41.095  29.883  29.429  1.00  0.00     0.074 A 
ATOM     36  C   UNL A   1      40.650  27.647  28.460  1.00  0.00     0.049 A 
ATOM     37  N   UNL A   1      42.386  29.820  29.626  1.00  0.00    -0.248 NA
ATOM     38  C   UNL A   1      40.494  31.172  29.810  1.00  0.00     0.031 C 
ATOM     39  C   UNL A   1      39.858  26.581  27.839  1.00  0.00     0.029 A 
ATOM     40  N   UNL A   1      41.914  27.119  28.529  1.00  0.00    -0.354 N 
ATOM     41  C   UNL A   1      42.748  31.057  30.146  1.00  0.00     0.074 A 
ATOM     42  C   UNL A   1      41.558  31.876  30.168  1.00  0.00     0.031 C 
ATOM     43  C   UNL A   1      40.644  25.513  27.629  1.00  0.00     0.029 A 
ATOM     44  C   UNL A   1      42.001  25.828  28.063  1.00  0.00     0.049 A 
ATOM     45  H   UNL A   1      42.687  27.618  28.880  1.00  0.00     0.167 HD
ATOM     46  C   UNL A   1      43.957  31.461  30.602  1.00  0.00     0.037 A 
ATOM     47  C   UNL A   1      43.056  24.992  28.001  1.00  0.00     0.037 A 
ATOM     48  C   UNL A   1      45.129  30.627  30.611  1.00  0.00     0.049 A 
ATOM     49  C   UNL A   1      44.391  25.467  28.504  1.00  0.00     0.074 A 
ATOM     50  C   UNL A   1      46.393  30.925  31.085  1.00  0.00     0.029 A 
ATOM     51  N   UNL A   1      45.175  29.326  30.131  1.00  0.00    -0.354 N 
ATOM     52  N   UNL A   1      44.706  26.627  29.031  1.00  0.00    -0.248 NA
ATOM     53  C   UNL A   1      45.514  24.525  28.405  1.00  0.00     0.031 C 
ATOM     54  C   UNL A   1      47.212  29.814  30.866  1.00  0.00     0.029 A 
ATOM     55  C   UNL A   1      46.449  28.811  30.288  1.00  0.00     0.049 A 
ATOM     56  H   UNL A   1      44.413  28.842  29.737  1.00  0.00     0.167 HD
ATOM     57  C   UNL A   1      46.057  26.545  29.348  1.00  0.00     0.074 A 
ATOM     58  C   UNL A   1      46.498  25.220  28.962  1.00  0.00     0.031 C 
ATOM     59  C   UNL A   1      46.860  27.482  29.908  1.00  0.00     0.037 A 
BRANCH  46  60
ATOM     60  C   UNL A   1      44.062  32.853  31.161  1.00  0.00     0.058 A 
ATOM     61  C   UNL A   1      44.105  33.079  32.546  1.00  0.00     0.135 A 
ATOM     62  C   UNL A   1      44.156  33.966  30.311  1.00  0.00     0.135 A 
ATOM     63  F   UNL A   1      43.999  32.051  33.403  1.00  0.00    -0.206 F 
ATOM     64  C   UNL A   1      44.213  34.362  33.070  1.00  0.00     0.059 A 
ATOM     65  C   UNL A   1      44.293  35.257  30.814  1.00  0.00     0.059 A 
ATOM     66  F   UNL A   1      44.117  33.806  28.979  1.00  0.00    -0.206 F 
ATOM     67  C   UNL A   1      44.309  35.446  32.195  1.00  0.00     0.060 A 
BRANCH  67  68
ATOM     68  S   UNL A   1      44.460  37.102  32.896  1.00  0.00     0.124 S 
ATOM     69  O   UNL A   1      44.701  37.903  31.700  1.00  0.00    -0.237 OA
ATOM     70  O   UNL A   1      43.161  37.289  33.533  1.00  0.00    -0.237 OA
ATOM     71  O   UNL A   1      45.593  36.983  33.809  1.00  0.00    -0.744 OA
ENDBRANCH  67  68
ENDBRANCH  46  60
BRANCH  47  72
ATOM     72  C   UNL A   1      42.877  23.608  27.491  1.00  0.00     0.058 A 
ATOM     73  C   UNL A   1      42.483  22.575  28.356  1.00  0.00     0.135 A 
ATOM     74  C   UNL A   1      43.062  23.291  26.136  1.00  0.00     0.135 A 
ATOM     75  F   UNL A   1      42.297  22.828  29.660  1.00  0.00    -0.206 F 
ATOM     76  C   UNL A   1      42.290  21.275  27.899  1.00  0.00     0.059 A 
ATOM     77  C   UNL A   1      42.855  22.003  25.652  1.00  0.00     0.059 A 
ATOM     78  F   UNL A   1      43.421  24.247  25.265  1.00  0.00    -0.206 F 
ATOM     79  C   UNL A   1      42.474  21.000  26.544  1.00  0.00     0.060 A 
BRANCH  79  80
ATOM     80  S   UNL A   1      42.168  19.319  25.956  1.00  0.00     0.124 S 
ATOM     81  O   UNL A   1      42.984  19.277  24.749  1.00  0.00    -0.237 OA
ATOM     82  O   UNL A   1      42.641  18.514  27.077  1.00  0.00    -0.237 OA
ATOM     83  O   UNL A   1      40.723  19.297  25.743  1.00  0.00    -0.744 OA
ENDBRANCH  79  80
ENDBRANCH  47  72
BRANCH  59  84
ATOM     84  C   UNL A   1      48.293  27.114  30.161  1.00  0.00     0.058 A 
ATOM     85  C   UNL A   1      49.315  27.524  29.293  1.00  0.00     0.135 A 
ATOM     86  C   UNL A   1      48.656  26.437  31.336  1.00  0.00     0.135 A 
ATOM     87  F   UNL A   1      49.016  28.167  28.154  1.00  0.00    -0.206 F 
ATOM     88  C   UNL A   1      50.652  27.279  29.584  1.00  0.00     0.059 A 
ATOM     89  C   UNL A   1      49.988  26.200  31.658  1.00  0.00     0.059 A 
ATOM     90  F   UNL A   1      47.713  26.032  32.202  1.00  0.00    -0.206 F 
ATOM     91  C   UNL A   1      50.979  26.626  30.774  1.00  0.00     0.060 A 
BRANCH  91  92
ATOM     92  S   UNL A   1      52.723  26.385  31.173  1.00  0.00     0.124 S 
ATOM     93  O   UNL A   1      53.030  27.613  31.899  1.00  0.00    -0.237 OA
ATOM     94  O   UNL A   1      52.693  25.166  31.975  1.00  0.00    -0.237 OA
ATOM     95  O   UNL A   1      53.358  26.254  29.866  1.00  0.00    -0.744 OA
ENDBRANCH  91  92
ENDBRANCH  59  84
ENDBRANCH  33  34
ENDBRANCH  25  28
ENDBRANCH   1  24
TORSDOF 14
ENDMDL
