MODEL 1
REMARK VINA RESULT:     -11.6      0.000      0.000
REMARK SMILES CC(=O)Oc1c(Cl)cc(-c2ccccc2)cc1C(=O)NCCCNC(=O)c1ccc(-c2c3nc(c(-c4c(F)cc(S(=O)(=O)[O-])cc4F)c4ccc([nH]4)c(-c4c(F)cc(S(=O)(=O)[O-])cc4F)c4nc(c(-c5c(F)cc(S(=O)(=O)[O-])cc5F)c5ccc2[nH]5)C=C4)C=C3)cc1
REMARK SMILES IDX 22 1 21 2 20 3 18 4 19 5 17 7 5 8 6 9 7 10 8 11 16 12 9 13
REMARK SMILES IDX 4 14 2 15 1 16 3 17 10 18 11 19 15 20 12 21 14 22 13 23
REMARK SMILES IDX 23 24 24 25 25 26 26 28 27 29 28 30 92 31 29 32 91 33 30 34
REMARK SMILES IDX 31 35 32 36 85 37 33 38 90 39 84 40 86 41 34 42 89 43 83 44
REMARK SMILES IDX 82 45 35 47 69 48 48 49 68 50 49 51 52 52 67 53 87 54 50 55
REMARK SMILES IDX 51 56 66 58 88 59 53 60 36 61 37 62 46 63 38 64 39 65 45 66
REMARK SMILES IDX 47 67 40 68 41 69 42 70 43 71 44 72 70 73 71 74 80 75 72 76
REMARK SMILES IDX 73 77 79 78 81 79 74 80 75 81 76 82 77 83 78 84 54 85 55 86
REMARK SMILES IDX 64 87 56 88 57 89 63 90 65 91 58 92 59 93 60 94 61 95 62 96
REMARK H PARENT 20 6 24 27 86 46 52 57
REMARK Flexibility Score: inf
ROOT
ATOM      1  C   UNL A   1      34.249  28.249  25.573  1.00  0.00     0.042 C 
ENDROOT
BRANCH   1   2
ATOM      2  C   UNL A   1      33.285  28.625  24.452  1.00  0.00     0.118 C 
BRANCH   2   3
ATOM      3  N   UNL A   1      33.446  27.781  23.297  1.00  0.00    -0.352 N 
ATOM      4  C   UNL A   1      33.463  26.452  23.010  1.00  0.00     0.255 C 
ATOM      5  O   UNL A   1      33.584  26.240  21.795  1.00  0.00    -0.269 OA
ATOM      6  H   UNL A   1      33.583  28.318  22.484  1.00  0.00     0.163 HD
BRANCH   4   7
ATOM      7  C   UNL A   1      33.346  25.259  23.919  1.00  0.00     0.084 A 
ATOM      8  C   UNL A   1      32.233  24.555  24.401  1.00  0.00     0.162 A 
ATOM      9  C   UNL A   1      32.410  23.360  25.143  1.00  0.00     0.085 A 
ATOM     10  Cl  UNL A   1      31.068  22.371  25.623  1.00  0.00    -0.080 Cl
ATOM     11  C   UNL A   1      33.679  22.885  25.463  1.00  0.00     0.033 A 
ATOM     12  C   UNL A   1      34.622  24.740  24.281  1.00  0.00     0.026 A 
ATOM     13  C   UNL A   1      34.812  23.569  25.032  1.00  0.00    -0.016 A 
BRANCH   8  14
ATOM     14  O   UNL A   1      30.913  24.890  24.095  1.00  0.00    -0.424 OA
BRANCH  14  15
ATOM     15  C   UNL A   1      30.426  25.977  24.821  1.00  0.00     0.308 C 
ATOM     16  C   UNL A   1      29.828  26.978  23.873  1.00  0.00     0.139 C 
ATOM     17  O   UNL A   1      30.518  26.123  26.035  1.00  0.00    -0.252 OA
ENDBRANCH  14  15
ENDBRANCH   8  14
BRANCH  13  18
ATOM     18  C   UNL A   1      36.158  23.049  25.304  1.00  0.00    -0.018 A 
ATOM     19  C   UNL A   1      36.518  21.754  24.895  1.00  0.00     0.009 A 
ATOM     20  C   UNL A   1      37.117  23.823  25.975  1.00  0.00     0.009 A 
ATOM     21  C   UNL A   1      37.788  21.241  25.162  1.00  0.00     0.001 A 
ATOM     22  C   UNL A   1      38.388  23.309  26.245  1.00  0.00     0.001 A 
ATOM     23  C   UNL A   1      38.721  22.017  25.843  1.00  0.00     0.000 A 
ENDBRANCH  13  18
ENDBRANCH   4   7
ENDBRANCH   2   3
ENDBRANCH   1   2
BRANCH   1  24
ATOM     24  C   UNL A   1      33.628  28.409  26.960  1.00  0.00     0.118 C 
BRANCH  24  25
ATOM     25  N   UNL A   1      33.640  29.798  27.423  1.00  0.00    -0.352 N 
ATOM     26  C   UNL A   1      34.555  30.522  28.146  1.00  0.00     0.251 C 
ATOM     27  H   UNL A   1      32.840  30.310  27.167  1.00  0.00     0.163 HD
ATOM     28  O   UNL A   1      34.214  31.598  28.624  1.00  0.00    -0.269 OA
BRANCH  26  29
ATOM     29  C   UNL A   1      35.927  30.017  28.357  1.00  0.00     0.039 A 
ATOM     30  C   UNL A   1      36.858  30.118  27.319  1.00  0.00     0.014 A 
ATOM     31  C   UNL A   1      36.289  29.412  29.559  1.00  0.00     0.014 A 
ATOM     32  C   UNL A   1      38.174  29.696  27.525  1.00  0.00     0.010 A 
ATOM     33  C   UNL A   1      37.619  29.100  29.802  1.00  0.00     0.010 A 
ATOM     34  C   UNL A   1      38.577  29.235  28.788  1.00  0.00    -0.014 A 
BRANCH  34  35
ATOM     35  C   UNL A   1      39.988  28.890  29.089  1.00  0.00     0.031 A 
ATOM     36  C   UNL A   1      40.912  29.937  29.648  1.00  0.00     0.074 A 
ATOM     37  C   UNL A   1      40.458  27.672  28.751  1.00  0.00     0.049 A 
ATOM     38  N   UNL A   1      42.207  29.888  29.825  1.00  0.00    -0.248 NA
ATOM     39  C   UNL A   1      40.306  31.228  30.019  1.00  0.00     0.031 C 
ATOM     40  C   UNL A   1      39.668  26.596  28.147  1.00  0.00     0.029 A 
ATOM     41  N   UNL A   1      41.719  27.142  28.845  1.00  0.00    -0.354 N 
ATOM     42  C   UNL A   1      42.572  31.144  30.295  1.00  0.00     0.074 A 
ATOM     43  C   UNL A   1      41.373  31.952  30.323  1.00  0.00     0.031 C 
ATOM     44  C   UNL A   1      40.457  25.528  27.947  1.00  0.00     0.029 A 
ATOM     45  C   UNL A   1      41.816  25.859  28.359  1.00  0.00     0.049 A 
ATOM     46  H   UNL A   1      42.483  27.632  29.226  1.00  0.00     0.167 HD
ATOM     47  C   UNL A   1      43.793  31.575  30.691  1.00  0.00     0.037 A 
ATOM     48  C   UNL A   1      42.885  25.048  28.241  1.00  0.00     0.037 A 
ATOM     49  C   UNL A   1      44.969  30.747  30.697  1.00  0.00     0.049 A 
ATOM     50  C   UNL A   1      44.228  25.545  28.698  1.00  0.00     0.074 A 
ATOM     51  C   UNL A   1      46.239  31.059  31.148  1.00  0.00     0.029 A 
ATOM     52  N   UNL A   1      45.017  29.440  30.234  1.00  0.00    -0.354 N 
ATOM     53  N   UNL A   1      44.544  26.715  29.200  1.00  0.00    -0.248 NA
ATOM     54  C   UNL A   1      45.359  24.615  28.575  1.00  0.00     0.031 C 
ATOM     55  C   UNL A   1      47.066  29.955  30.919  1.00  0.00     0.029 A 
ATOM     56  C   UNL A   1      46.301  28.937  30.370  1.00  0.00     0.049 A 
ATOM     57  H   UNL A   1      44.253  28.943  29.864  1.00  0.00     0.167 HD
ATOM     58  C   UNL A   1      45.906  26.654  29.476  1.00  0.00     0.074 A 
ATOM     59  C   UNL A   1      46.348  25.327  29.097  1.00  0.00     0.031 C 
ATOM     60  C   UNL A   1      46.716  27.609  29.995  1.00  0.00     0.037 A 
BRANCH  47  61
ATOM     61  C   UNL A   1      43.913  33.001  31.158  1.00  0.00     0.058 A 
ATOM     62  C   UNL A   1      44.207  34.047  30.267  1.00  0.00     0.135 A 
ATOM     63  C   UNL A   1      43.705  33.331  32.507  1.00  0.00     0.135 A 
ATOM     64  F   UNL A   1      44.431  33.787  28.969  1.00  0.00    -0.206 F 
ATOM     65  C   UNL A   1      44.322  35.363  30.702  1.00  0.00     0.059 A 
ATOM     66  C   UNL A   1      43.785  34.646  32.959  1.00  0.00     0.059 A 
ATOM     67  F   UNL A   1      43.423  32.372  33.403  1.00  0.00    -0.206 F 
ATOM     68  C   UNL A   1      44.109  35.652  32.051  1.00  0.00     0.060 A 
BRANCH  68  69
ATOM     69  S   UNL A   1      44.257  37.367  32.596  1.00  0.00     0.124 S 
ATOM     70  O   UNL A   1      43.988  38.089  31.356  1.00  0.00    -0.237 OA
ATOM     71  O   UNL A   1      43.221  37.460  33.619  1.00  0.00    -0.237 OA
ATOM     72  O   UNL A   1      45.629  37.451  33.086  1.00  0.00    -0.744 OA
ENDBRANCH  68  69
ENDBRANCH  47  61
BRANCH  48  73
ATOM     73  C   UNL A   1      42.720  23.678  27.685  1.00  0.00     0.058 A 
ATOM     74  C   UNL A   1      42.486  22.584  28.530  1.00  0.00     0.135 A 
ATOM     75  C   UNL A   1      42.769  23.436  26.303  1.00  0.00     0.135 A 
ATOM     76  F   UNL A   1      42.433  22.763  29.859  1.00  0.00    -0.206 F 
ATOM     77  C   UNL A   1      42.323  21.296  28.030  1.00  0.00     0.059 A 
ATOM     78  C   UNL A   1      42.583  22.162  25.776  1.00  0.00     0.059 A 
ATOM     79  F   UNL A   1      42.971  24.452  25.449  1.00  0.00    -0.206 F 
ATOM     80  C   UNL A   1      42.370  21.096  26.649  1.00  0.00     0.060 A 
BRANCH  80  81
ATOM     81  S   UNL A   1      42.111  19.427  26.009  1.00  0.00     0.124 S 
ATOM     82  O   UNL A   1      42.877  19.466  24.770  1.00  0.00    -0.237 OA
ATOM     83  O   UNL A   1      42.666  18.601  27.078  1.00  0.00    -0.237 OA
ATOM     84  O   UNL A   1      40.662  19.348  25.856  1.00  0.00    -0.744 OA
ENDBRANCH  80  81
ENDBRANCH  48  73
BRANCH  60  85
ATOM     85  C   UNL A   1      48.158  27.247  30.216  1.00  0.00     0.058 A 
ATOM     86  C   UNL A   1      49.133  27.478  29.234  1.00  0.00     0.135 A 
ATOM     87  C   UNL A   1      48.577  26.732  31.453  1.00  0.00     0.135 A 
ATOM     88  F   UNL A   1      48.781  27.962  28.032  1.00  0.00    -0.206 F 
ATOM     89  C   UNL A   1      50.474  27.196  29.466  1.00  0.00     0.059 A 
ATOM     90  C   UNL A   1      49.917  26.468  31.716  1.00  0.00     0.059 A 
ATOM     91  F   UNL A   1      47.684  26.502  32.428  1.00  0.00    -0.206 F 
ATOM     92  C   UNL A   1      50.858  26.697  30.712  1.00  0.00     0.060 A 
BRANCH  92  93
ATOM     93  S   UNL A   1      52.609  26.386  31.017  1.00  0.00     0.124 S 
ATOM     94  O   UNL A   1      52.562  25.124  31.746  1.00  0.00    -0.237 OA
ATOM     95  O   UNL A   1      53.153  26.318  29.665  1.00  0.00    -0.237 OA
ATOM     96  O   UNL A   1      53.030  27.547  31.797  1.00  0.00    -0.744 OA
ENDBRANCH  92  93
ENDBRANCH  60  85
ENDBRANCH  34  35
ENDBRANCH  26  29
ENDBRANCH  24  25
ENDBRANCH   1  24
TORSDOF 16
ENDMDL
MODEL 2
REMARK VINA RESULT:     -11.2      5.177      9.746
REMARK SMILES CC(=O)Oc1c(Cl)cc(-c2ccccc2)cc1C(=O)NCCCNC(=O)c1ccc(-c2c3nc(c(-c4c(F)cc(S(=O)(=O)[O-])cc4F)c4ccc([nH]4)c(-c4c(F)cc(S(=O)(=O)[O-])cc4F)c4nc(c(-c5c(F)cc(S(=O)(=O)[O-])cc5F)c5ccc2[nH]5)C=C4)C=C3)cc1
REMARK SMILES IDX 22 1 21 2 20 3 18 4 19 5 17 7 5 8 6 9 7 10 8 11 16 12 9 13
REMARK SMILES IDX 4 14 2 15 1 16 3 17 10 18 11 19 15 20 12 21 14 22 13 23
REMARK SMILES IDX 23 24 24 25 25 26 26 28 27 29 28 30 92 31 29 32 91 33 30 34
REMARK SMILES IDX 31 35 32 36 85 37 33 38 90 39 84 40 86 41 34 42 89 43 83 44
REMARK SMILES IDX 82 45 35 47 69 48 48 49 68 50 49 51 52 52 67 53 87 54 50 55
REMARK SMILES IDX 51 56 66 58 88 59 53 60 36 61 37 62 46 63 38 64 39 65 45 66
REMARK SMILES IDX 47 67 40 68 41 69 42 70 43 71 44 72 70 73 71 74 80 75 72 76
REMARK SMILES IDX 73 77 79 78 81 79 74 80 75 81 76 82 77 83 78 84 54 85 55 86
REMARK SMILES IDX 64 87 56 88 57 89 63 90 65 91 58 92 59 93 60 94 61 95 62 96
REMARK H PARENT 20 6 24 27 86 46 52 57
REMARK Flexibility Score: inf
ROOT
ATOM      1  C   UNL A   1      38.561  22.672  26.486  1.00  0.00     0.042 C 
ENDROOT
BRANCH   1   2
ATOM      2  C   UNL A   1      37.622  23.695  25.855  1.00  0.00     0.118 C 
BRANCH   2   3
ATOM      3  N   UNL A   1      37.367  23.409  24.468  1.00  0.00    -0.352 N 
ATOM      4  C   UNL A   1      36.336  22.966  23.700  1.00  0.00     0.255 C 
ATOM      5  O   UNL A   1      36.628  22.947  22.495  1.00  0.00    -0.269 OA
ATOM      6  H   UNL A   1      38.165  23.585  23.918  1.00  0.00     0.163 HD
BRANCH   4   7
ATOM      7  C   UNL A   1      34.951  22.528  24.090  1.00  0.00     0.084 A 
ATOM      8  C   UNL A   1      33.735  23.223  24.162  1.00  0.00     0.162 A 
ATOM      9  C   UNL A   1      32.529  22.528  24.427  1.00  0.00     0.085 A 
ATOM     10  Cl  UNL A   1      30.984  23.316  24.371  1.00  0.00    -0.080 Cl
ATOM     11  C   UNL A   1      32.520  21.159  24.678  1.00  0.00     0.033 A 
ATOM     12  C   UNL A   1      34.893  21.132  24.364  1.00  0.00     0.026 A 
ATOM     13  C   UNL A   1      33.707  20.434  24.647  1.00  0.00    -0.016 A 
BRANCH   8  14
ATOM     14  O   UNL A   1      33.601  24.581  23.868  1.00  0.00    -0.424 OA
BRANCH  14  15
ATOM     15  C   UNL A   1      33.786  25.417  24.970  1.00  0.00     0.308 C 
ATOM     16  C   UNL A   1      33.628  26.847  24.539  1.00  0.00     0.139 C 
ATOM     17  O   UNL A   1      34.085  25.050  26.101  1.00  0.00    -0.252 OA
ENDBRANCH  14  15
ENDBRANCH   8  14
BRANCH  13  18
ATOM     18  C   UNL A   1      33.710  18.978  24.845  1.00  0.00    -0.018 A 
ATOM     19  C   UNL A   1      32.641  18.347  25.503  1.00  0.00     0.009 A 
ATOM     20  C   UNL A   1      34.770  18.181  24.386  1.00  0.00     0.009 A 
ATOM     21  C   UNL A   1      32.639  16.967  25.713  1.00  0.00     0.001 A 
ATOM     22  C   UNL A   1      34.770  16.800  24.598  1.00  0.00     0.001 A 
ATOM     23  C   UNL A   1      33.707  16.194  25.265  1.00  0.00     0.000 A 
ENDBRANCH  13  18
ENDBRANCH   4   7
ENDBRANCH   2   3
ENDBRANCH   1   2
BRANCH   1  24
ATOM     24  C   UNL A   1      39.813  23.312  27.081  1.00  0.00     0.118 C 
BRANCH  24  25
ATOM     25  N   UNL A   1      40.499  24.191  26.133  1.00  0.00    -0.352 N 
ATOM     26  C   UNL A   1      40.850  25.517  26.190  1.00  0.00     0.251 C 
ATOM     27  H   UNL A   1      40.760  23.747  25.294  1.00  0.00     0.163 HD
ATOM     28  O   UNL A   1      41.192  26.084  25.159  1.00  0.00    -0.269 OA
BRANCH  26  29
ATOM     29  C   UNL A   1      40.810  26.258  27.467  1.00  0.00     0.039 A 
ATOM     30  C   UNL A   1      41.810  27.195  27.743  1.00  0.00     0.014 A 
ATOM     31  C   UNL A   1      39.813  26.008  28.408  1.00  0.00     0.014 A 
ATOM     32  C   UNL A   1      41.753  27.944  28.921  1.00  0.00     0.010 A 
ATOM     33  C   UNL A   1      39.692  26.829  29.521  1.00  0.00     0.010 A 
ATOM     34  C   UNL A   1      40.662  27.804  29.792  1.00  0.00    -0.014 A 
BRANCH  34  35
ATOM     35  C   UNL A   1      40.495  28.660  30.992  1.00  0.00     0.031 A 
ATOM     36  C   UNL A   1      39.467  29.759  30.992  1.00  0.00     0.074 A 
ATOM     37  C   UNL A   1      41.345  28.519  32.029  1.00  0.00     0.049 A 
ATOM     38  N   UNL A   1      39.276  30.713  31.865  1.00  0.00    -0.248 NA
ATOM     39  C   UNL A   1      38.560  29.818  29.832  1.00  0.00     0.031 C 
ATOM     40  C   UNL A   1      42.421  27.528  32.115  1.00  0.00     0.029 A 
ATOM     41  N   UNL A   1      41.456  29.226  33.199  1.00  0.00    -0.354 N 
ATOM     42  C   UNL A   1      38.253  31.499  31.349  1.00  0.00     0.074 A 
ATOM     43  C   UNL A   1      37.902  30.946  30.059  1.00  0.00     0.031 C 
ATOM     44  C   UNL A   1      43.065  27.675  33.284  1.00  0.00     0.029 A 
ATOM     45  C   UNL A   1      42.484  28.801  34.007  1.00  0.00     0.049 A 
ATOM     46  H   UNL A   1      40.854  29.968  33.439  1.00  0.00     0.167 HD
ATOM     47  C   UNL A   1      37.646  32.571  31.910  1.00  0.00     0.037 A 
ATOM     48  C   UNL A   1      42.922  29.277  35.188  1.00  0.00     0.037 A 
ATOM     49  C   UNL A   1      37.977  33.085  33.212  1.00  0.00     0.049 A 
ATOM     50  C   UNL A   1      42.224  30.461  35.798  1.00  0.00     0.074 A 
ATOM     51  C   UNL A   1      37.375  34.118  33.908  1.00  0.00     0.029 A 
ATOM     52  N   UNL A   1      38.999  32.601  34.016  1.00  0.00    -0.354 N 
ATOM     53  N   UNL A   1      41.216  31.154  35.324  1.00  0.00    -0.248 NA
ATOM     54  C   UNL A   1      42.719  30.927  37.100  1.00  0.00     0.031 C 
ATOM     55  C   UNL A   1      38.060  34.286  35.116  1.00  0.00     0.029 A 
ATOM     56  C   UNL A   1      39.058  33.327  35.194  1.00  0.00     0.049 A 
ATOM     57  H   UNL A   1      39.594  31.852  33.784  1.00  0.00     0.167 HD
ATOM     58  C   UNL A   1      40.940  32.124  36.281  1.00  0.00     0.074 A 
ATOM     59  C   UNL A   1      41.879  31.918  37.365  1.00  0.00     0.031 C 
ATOM     60  C   UNL A   1      39.996  33.097  36.265  1.00  0.00     0.037 A 
BRANCH  47  61
ATOM     61  C   UNL A   1      36.556  33.250  31.124  1.00  0.00     0.058 A 
ATOM     62  C   UNL A   1      35.203  33.128  31.482  1.00  0.00     0.135 A 
ATOM     63  C   UNL A   1      36.869  34.055  30.017  1.00  0.00     0.135 A 
ATOM     64  F   UNL A   1      34.846  32.358  32.522  1.00  0.00    -0.206 F 
ATOM     65  C   UNL A   1      34.198  33.753  30.752  1.00  0.00     0.059 A 
ATOM     66  C   UNL A   1      35.881  34.715  29.289  1.00  0.00     0.059 A 
ATOM     67  F   UNL A   1      38.145  34.206  29.628  1.00  0.00    -0.206 F 
ATOM     68  C   UNL A   1      34.548  34.544  29.656  1.00  0.00     0.060 A 
BRANCH  68  69
ATOM     69  S   UNL A   1      33.229  35.353  28.724  1.00  0.00     0.124 S 
ATOM     70  O   UNL A   1      33.990  36.277  27.889  1.00  0.00    -0.237 OA
ATOM     71  O   UNL A   1      32.610  34.232  28.025  1.00  0.00    -0.237 OA
ATOM     72  O   UNL A   1      32.411  35.972  29.761  1.00  0.00    -0.744 OA
ENDBRANCH  68  69
ENDBRANCH  47  61
BRANCH  48  73
ATOM     73  C   UNL A   1      44.065  28.620  35.876  1.00  0.00     0.058 A 
ATOM     74  C   UNL A   1      43.853  27.546  36.753  1.00  0.00     0.135 A 
ATOM     75  C   UNL A   1      45.389  29.032  35.658  1.00  0.00     0.135 A 
ATOM     76  F   UNL A   1      42.605  27.116  36.997  1.00  0.00    -0.206 F 
ATOM     77  C   UNL A   1      44.909  26.913  37.401  1.00  0.00     0.059 A 
ATOM     78  C   UNL A   1      46.464  28.399  36.274  1.00  0.00     0.059 A 
ATOM     79  F   UNL A   1      45.648  30.042  34.813  1.00  0.00    -0.206 F 
ATOM     80  C   UNL A   1      46.212  27.346  37.153  1.00  0.00     0.060 A 
BRANCH  80  81
ATOM     81  S   UNL A   1      47.577  26.487  37.965  1.00  0.00     0.124 S 
ATOM     82  O   UNL A   1      47.880  27.392  39.067  1.00  0.00    -0.237 OA
ATOM     83  O   UNL A   1      46.961  25.215  38.334  1.00  0.00    -0.237 OA
ATOM     84  O   UNL A   1      48.591  26.402  36.918  1.00  0.00    -0.744 OA
ENDBRANCH  80  81
ENDBRANCH  48  73
BRANCH  60  85
ATOM     85  C   UNL A   1      39.906  33.994  37.467  1.00  0.00     0.058 A 
ATOM     86  C   UNL A   1      40.610  35.206  37.534  1.00  0.00     0.135 A 
ATOM     87  C   UNL A   1      39.049  33.670  38.530  1.00  0.00     0.135 A 
ATOM     88  F   UNL A   1      41.449  35.557  36.546  1.00  0.00    -0.206 F 
ATOM     89  C   UNL A   1      40.478  36.061  38.623  1.00  0.00     0.059 A 
ATOM     90  C   UNL A   1      38.880  34.523  39.616  1.00  0.00     0.059 A 
ATOM     91  F   UNL A   1      38.347  32.526  38.509  1.00  0.00    -0.206 F 
ATOM     92  C   UNL A   1      39.605  35.713  39.656  1.00  0.00     0.060 A 
BRANCH  92  93
ATOM     93  S   UNL A   1      39.403  36.857  41.037  1.00  0.00     0.124 S 
ATOM     94  O   UNL A   1      38.659  37.945  40.413  1.00  0.00    -0.237 OA
ATOM     95  O   UNL A   1      38.659  36.052  42.001  1.00  0.00    -0.237 OA
ATOM     96  O   UNL A   1      40.775  37.173  41.421  1.00  0.00    -0.744 OA
ENDBRANCH  92  93
ENDBRANCH  60  85
ENDBRANCH  34  35
ENDBRANCH  26  29
ENDBRANCH  24  25
ENDBRANCH   1  24
TORSDOF 16
ENDMDL
MODEL 3
REMARK VINA RESULT:     -11.2      2.450      3.153
REMARK SMILES CC(=O)Oc1c(Cl)cc(-c2ccccc2)cc1C(=O)NCCCNC(=O)c1ccc(-c2c3nc(c(-c4c(F)cc(S(=O)(=O)[O-])cc4F)c4ccc([nH]4)c(-c4c(F)cc(S(=O)(=O)[O-])cc4F)c4nc(c(-c5c(F)cc(S(=O)(=O)[O-])cc5F)c5ccc2[nH]5)C=C4)C=C3)cc1
REMARK SMILES IDX 22 1 21 2 20 3 18 4 19 5 17 7 5 8 6 9 7 10 8 11 16 12 9 13
REMARK SMILES IDX 4 14 2 15 1 16 3 17 10 18 11 19 15 20 12 21 14 22 13 23
REMARK SMILES IDX 23 24 24 25 25 26 26 28 27 29 28 30 92 31 29 32 91 33 30 34
REMARK SMILES IDX 31 35 32 36 85 37 33 38 90 39 84 40 86 41 34 42 89 43 83 44
REMARK SMILES IDX 82 45 35 47 69 48 48 49 68 50 49 51 52 52 67 53 87 54 50 55
REMARK SMILES IDX 51 56 66 58 88 59 53 60 36 61 37 62 46 63 38 64 39 65 45 66
REMARK SMILES IDX 47 67 40 68 41 69 42 70 43 71 44 72 70 73 71 74 80 75 72 76
REMARK SMILES IDX 73 77 79 78 81 79 74 80 75 81 76 82 77 83 78 84 54 85 55 86
REMARK SMILES IDX 64 87 56 88 57 89 63 90 65 91 58 92 59 93 60 94 61 95 62 96
REMARK H PARENT 20 6 24 27 86 46 52 57
REMARK Flexibility Score: inf
ROOT
ATOM      1  C   UNL A   1      34.415  29.259  26.615  1.00  0.00     0.042 C 
ENDROOT
BRANCH   1   2
ATOM      2  C   UNL A   1      33.322  28.269  26.228  1.00  0.00     0.118 C 
BRANCH   2   3
ATOM      3  N   UNL A   1      33.481  27.790  24.880  1.00  0.00    -0.352 N 
ATOM      4  C   UNL A   1      33.574  26.597  24.235  1.00  0.00     0.255 C 
ATOM      5  O   UNL A   1      33.647  26.737  23.005  1.00  0.00    -0.269 OA
ATOM      6  H   UNL A   1      33.539  28.539  24.244  1.00  0.00     0.163 HD
BRANCH   4   7
ATOM      7  C   UNL A   1      33.586  25.195  24.779  1.00  0.00     0.084 A 
ATOM      8  C   UNL A   1      32.562  24.255  24.969  1.00  0.00     0.162 A 
ATOM      9  C   UNL A   1      32.871  22.934  25.375  1.00  0.00     0.085 A 
ATOM     10  Cl  UNL A   1      31.659  21.695  25.470  1.00  0.00    -0.080 Cl
ATOM     11  C   UNL A   1      34.179  22.546  25.651  1.00  0.00     0.033 A 
ATOM     12  C   UNL A   1      34.905  24.755  25.085  1.00  0.00     0.026 A 
ATOM     13  C   UNL A   1      35.224  23.454  25.507  1.00  0.00    -0.016 A 
BRANCH   8  14
ATOM     14  O   UNL A   1      31.222  24.500  24.664  1.00  0.00    -0.424 OA
BRANCH  14  15
ATOM     15  C   UNL A   1      30.605  25.406  25.527  1.00  0.00     0.308 C 
ATOM     16  C   UNL A   1      29.803  26.389  24.722  1.00  0.00     0.139 C 
ATOM     17  O   UNL A   1      30.737  25.435  26.746  1.00  0.00    -0.252 OA
ENDBRANCH  14  15
ENDBRANCH   8  14
BRANCH  13  18
ATOM     18  C   UNL A   1      36.617  23.045  25.731  1.00  0.00    -0.018 A 
ATOM     19  C   UNL A   1      37.039  21.746  25.407  1.00  0.00     0.009 A 
ATOM     20  C   UNL A   1      37.559  23.935  26.270  1.00  0.00     0.009 A 
ATOM     21  C   UNL A   1      38.356  21.339  25.631  1.00  0.00     0.001 A 
ATOM     22  C   UNL A   1      38.877  23.528  26.497  1.00  0.00     0.001 A 
ATOM     23  C   UNL A   1      39.273  22.229  26.182  1.00  0.00     0.000 A 
ENDBRANCH  13  18
ENDBRANCH   4   7
ENDBRANCH   2   3
ENDBRANCH   1   2
BRANCH   1  24
ATOM     24  C   UNL A   1      34.955  29.019  28.023  1.00  0.00     0.118 C 
BRANCH  24  25
ATOM     25  N   UNL A   1      35.195  30.266  28.752  1.00  0.00    -0.352 N 
ATOM     26  C   UNL A   1      36.311  30.774  29.369  1.00  0.00     0.251 C 
ATOM     27  H   UNL A   1      34.407  30.852  28.810  1.00  0.00     0.163 HD
ATOM     28  O   UNL A   1      36.185  31.726  30.131  1.00  0.00    -0.269 OA
BRANCH  26  29
ATOM     29  C   UNL A   1      37.645  30.184  29.133  1.00  0.00     0.039 A 
ATOM     30  C   UNL A   1      38.036  29.885  27.824  1.00  0.00     0.014 A 
ATOM     31  C   UNL A   1      38.496  29.891  30.196  1.00  0.00     0.014 A 
ATOM     32  C   UNL A   1      39.315  29.380  27.581  1.00  0.00     0.010 A 
ATOM     33  C   UNL A   1      39.803  29.498  29.947  1.00  0.00     0.010 A 
ATOM     34  C   UNL A   1      40.227  29.235  28.637  1.00  0.00    -0.014 A 
BRANCH  34  35
ATOM     35  C   UNL A   1      41.633  28.818  28.414  1.00  0.00     0.031 A 
ATOM     36  C   UNL A   1      42.729  29.849  28.402  1.00  0.00     0.074 A 
ATOM     37  C   UNL A   1      41.902  27.532  28.110  1.00  0.00     0.049 A 
ATOM     38  N   UNL A   1      43.985  29.718  28.066  1.00  0.00    -0.248 NA
ATOM     39  C   UNL A   1      42.351  31.223  28.778  1.00  0.00     0.031 C 
ATOM     40  C   UNL A   1      40.911  26.454  28.032  1.00  0.00     0.029 A 
ATOM     41  N   UNL A   1      43.083  26.916  27.785  1.00  0.00    -0.354 N 
ATOM     42  C   UNL A   1      44.537  30.989  28.160  1.00  0.00     0.074 A 
ATOM     43  C   UNL A   1      43.467  31.890  28.529  1.00  0.00     0.031 C 
ATOM     44  C   UNL A   1      41.530  25.308  27.706  1.00  0.00     0.029 A 
ATOM     45  C   UNL A   1      42.948  25.577  27.501  1.00  0.00     0.049 A 
ATOM     46  H   UNL A   1      43.947  27.387  27.758  1.00  0.00     0.167 HD
ATOM     47  C   UNL A   1      45.824  31.367  27.978  1.00  0.00     0.037 A 
ATOM     48  C   UNL A   1      43.863  24.672  27.101  1.00  0.00     0.037 A 
ATOM     49  C   UNL A   1      46.886  30.452  27.652  1.00  0.00     0.049 A 
ATOM     50  C   UNL A   1      45.288  25.113  26.917  1.00  0.00     0.074 A 
ATOM     51  C   UNL A   1      48.238  30.716  27.520  1.00  0.00     0.029 A 
ATOM     52  N   UNL A   1      46.716  29.097  27.412  1.00  0.00    -0.354 N 
ATOM     53  N   UNL A   1      45.806  26.309  27.072  1.00  0.00    -0.248 NA
ATOM     54  C   UNL A   1      46.255  24.085  26.507  1.00  0.00     0.031 C 
ATOM     55  C   UNL A   1      48.879  29.527  27.157  1.00  0.00     0.029 A 
ATOM     56  C   UNL A   1      47.935  28.513  27.112  1.00  0.00     0.049 A 
ATOM     57  H   UNL A   1      45.855  28.620  27.449  1.00  0.00     0.167 HD
ATOM     58  C   UNL A   1      47.163  26.173  26.802  1.00  0.00     0.074 A 
ATOM     59  C   UNL A   1      47.387  24.776  26.487  1.00  0.00     0.031 C 
ATOM     60  C   UNL A   1      48.136  27.117  26.812  1.00  0.00     0.037 A 
BRANCH  47  61
ATOM     61  C   UNL A   1      46.155  32.827  28.138  1.00  0.00     0.058 A 
ATOM     62  C   UNL A   1      46.084  33.722  27.058  1.00  0.00     0.135 A 
ATOM     63  C   UNL A   1      46.519  33.344  29.393  1.00  0.00     0.135 A 
ATOM     64  F   UNL A   1      45.757  33.279  25.833  1.00  0.00    -0.206 F 
ATOM     65  C   UNL A   1      46.394  35.069  27.208  1.00  0.00     0.059 A 
ATOM     66  C   UNL A   1      46.803  34.695  29.572  1.00  0.00     0.059 A 
ATOM     67  F   UNL A   1      46.604  32.534  30.460  1.00  0.00    -0.206 F 
ATOM     68  C   UNL A   1      46.753  35.547  28.469  1.00  0.00     0.060 A 
BRANCH  68  69
ATOM     69  S   UNL A   1      47.145  37.300  28.646  1.00  0.00     0.124 S 
ATOM     70  O   UNL A   1      46.205  37.903  27.706  1.00  0.00    -0.237 OA
ATOM     71  O   UNL A   1      46.870  37.541  30.058  1.00  0.00    -0.237 OA
ATOM     72  O   UNL A   1      48.551  37.374  28.261  1.00  0.00    -0.744 OA
ENDBRANCH  68  69
ENDBRANCH  47  61
BRANCH  48  73
ATOM     73  C   UNL A   1      43.458  23.260  26.869  1.00  0.00     0.058 A 
ATOM     74  C   UNL A   1      43.376  22.742  25.568  1.00  0.00     0.135 A 
ATOM     75  C   UNL A   1      43.168  22.395  27.935  1.00  0.00     0.135 A 
ATOM     76  F   UNL A   1      43.641  23.530  24.515  1.00  0.00    -0.206 F 
ATOM     77  C   UNL A   1      43.006  21.422  25.330  1.00  0.00     0.059 A 
ATOM     78  C   UNL A   1      42.821  21.064  27.725  1.00  0.00     0.059 A 
ATOM     79  F   UNL A   1      43.251  22.836  29.200  1.00  0.00    -0.206 F 
ATOM     80  C   UNL A   1      42.733  20.590  26.417  1.00  0.00     0.060 A 
BRANCH  80  81
ATOM     81  S   UNL A   1      42.298  18.866  26.096  1.00  0.00     0.124 S 
ATOM     82  O   UNL A   1      43.213  18.529  25.013  1.00  0.00    -0.237 OA
ATOM     83  O   UNL A   1      42.574  18.237  27.385  1.00  0.00    -0.237 OA
ATOM     84  O   UNL A   1      40.886  18.938  25.733  1.00  0.00    -0.744 OA
ENDBRANCH  80  81
ENDBRANCH  48  73
BRANCH  60  85
ATOM     85  C   UNL A   1      49.537  26.670  26.507  1.00  0.00     0.058 A 
ATOM     86  C   UNL A   1      50.348  26.070  27.483  1.00  0.00     0.135 A 
ATOM     87  C   UNL A   1      50.046  26.777  25.203  1.00  0.00     0.135 A 
ATOM     88  F   UNL A   1      49.909  25.952  28.746  1.00  0.00    -0.206 F 
ATOM     89  C   UNL A   1      51.622  25.605  27.179  1.00  0.00     0.059 A 
ATOM     90  C   UNL A   1      51.307  26.294  24.870  1.00  0.00     0.059 A 
ATOM     91  F   UNL A   1      49.306  27.335  24.231  1.00  0.00    -0.206 F 
ATOM     92  C   UNL A   1      52.090  25.715  25.868  1.00  0.00     0.060 A 
BRANCH  92  93
ATOM     93  S   UNL A   1      53.725  25.058  25.476  1.00  0.00     0.124 S 
ATOM     94  O   UNL A   1      53.464  23.624  25.431  1.00  0.00    -0.237 OA
ATOM     95  O   UNL A   1      54.015  25.691  24.193  1.00  0.00    -0.237 OA
ATOM     96  O   UNL A   1      54.550  25.512  26.592  1.00  0.00    -0.744 OA
ENDBRANCH  92  93
ENDBRANCH  60  85
ENDBRANCH  34  35
ENDBRANCH  26  29
ENDBRANCH  24  25
ENDBRANCH   1  24
TORSDOF 16
ENDMDL
