MODEL 1
REMARK VINA RESULT:     -12.4      0.000      0.000
REMARK SMILES CC(C)(C)c1ccc(C(=O)N/C(=C/c2ccc(O)cc2)C(=O)NCCCNC(=O)c2ccc(-c3c4nc(c(-c5c(F)cc(S(=O)(=O)[O-])cc5F)c5ccc([nH]5)c(-c5c(F)cc(S(=O)(=O)[O-])cc5F)c5nc(c(-c6c(F)cc(S(=O)(=O)[O-])cc6F)c6ccc3[nH]6)C=C5)C=C4)cc2)cc1
REMARK SMILES IDX 25 1 24 2 23 3 21 4 22 5 12 7 13 8 11 9 9 10 10 11 8 13 5 14
REMARK SMILES IDX 6 15 97 16 7 17 96 18 2 19 1 20 3 21 4 22 14 23 15 24 20 25
REMARK SMILES IDX 16 26 19 27 17 28 18 29 26 31 27 32 28 33 29 35 30 36 31 37
REMARK SMILES IDX 95 38 32 39 94 40 33 41 34 42 35 43 88 44 36 45 93 46 87 47
REMARK SMILES IDX 89 48 37 49 92 50 86 51 85 52 38 54 72 55 51 56 71 57 52 58
REMARK SMILES IDX 55 59 70 60 90 61 53 62 54 63 69 65 91 66 56 67 39 68 40 69
REMARK SMILES IDX 49 70 41 71 42 72 48 73 50 74 43 75 44 76 45 77 46 78 47 79
REMARK SMILES IDX 73 80 74 81 83 82 75 83 76 84 82 85 84 86 77 87 78 88 79 89
REMARK SMILES IDX 80 90 81 91 57 92 58 93 67 94 59 95 60 96 66 97 68 98 61 99
REMARK SMILES IDX 62 100 63 101 64 102 65 103
REMARK H PARENT 23 6 11 12 18 30 27 34 89 53 55 64
REMARK Flexibility Score: inf
ROOT
ATOM      1  C   UNL A   1      33.403  29.159  25.584  1.00  0.00     0.042 C 
ENDROOT
BRANCH   1   2
ATOM      2  C   UNL A   1      33.721  27.849  24.889  1.00  0.00     0.118 C 
BRANCH   2   3
ATOM      3  N   UNL A   1      33.993  26.757  25.781  1.00  0.00    -0.351 N 
ATOM      4  C   UNL A   1      33.441  25.514  25.706  1.00  0.00     0.267 C 
ATOM      5  O   UNL A   1      33.023  25.035  26.766  1.00  0.00    -0.268 OA
ATOM      6  H   UNL A   1      34.635  26.921  26.510  1.00  0.00     0.163 HD
BRANCH   4   7
ATOM      7  C   UNL A   1      33.510  24.616  24.464  1.00  0.00     0.107 C 
ATOM      8  C   UNL A   1      34.532  23.905  23.926  1.00  0.00     0.040 C 
BRANCH   7   9
ATOM      9  N   UNL A   1      32.333  24.571  23.711  1.00  0.00    -0.317 N 
ATOM     10  C   UNL A   1      31.449  23.544  23.424  1.00  0.00     0.255 C 
ATOM     11  O   UNL A   1      30.363  23.827  22.912  1.00  0.00    -0.269 OA
ATOM     12  H   UNL A   1      32.084  25.434  23.307  1.00  0.00     0.170 HD
BRANCH  10  13
ATOM     13  C   UNL A   1      31.794  22.107  23.601  1.00  0.00     0.040 A 
ATOM     14  C   UNL A   1      32.695  19.450  24.036  1.00  0.00    -0.043 A 
ATOM     15  C   UNL A   1      32.404  20.307  25.111  1.00  0.00     0.005 A 
ATOM     16  C   UNL A   1      32.380  19.914  22.746  1.00  0.00     0.005 A 
ATOM     17  C   UNL A   1      31.967  21.621  24.897  1.00  0.00     0.014 A 
ATOM     18  C   UNL A   1      31.915  21.220  22.531  1.00  0.00     0.014 A 
BRANCH  14  19
ATOM     19  C   UNL A   1      33.336  18.064  24.247  1.00  0.00    -0.013 C 
ATOM     20  C   UNL A   1      34.850  18.186  24.546  1.00  0.00     0.016 C 
ATOM     21  C   UNL A   1      33.144  17.219  22.975  1.00  0.00     0.016 C 
ATOM     22  C   UNL A   1      32.724  17.293  25.441  1.00  0.00     0.016 C 
ENDBRANCH  14  19
ENDBRANCH  10  13
ENDBRANCH   7   9
BRANCH   8  23
ATOM     23  C   UNL A   1      35.840  23.511  24.461  1.00  0.00    -0.023 A 
ATOM     24  C   UNL A   1      36.522  24.242  25.442  1.00  0.00     0.012 A 
ATOM     25  C   UNL A   1      36.366  22.282  24.024  1.00  0.00     0.012 A 
ATOM     26  C   UNL A   1      37.623  23.663  26.092  1.00  0.00     0.047 A 
ATOM     27  C   UNL A   1      37.459  21.708  24.675  1.00  0.00     0.047 A 
ATOM     28  C   UNL A   1      38.041  22.380  25.742  1.00  0.00     0.115 A 
BRANCH  28  29
ATOM     29  O   UNL A   1      38.993  21.776  26.509  1.00  0.00    -0.508 OA
ATOM     30  H   UNL A   1      39.834  22.175  26.610  1.00  0.00     0.293 HD
ENDBRANCH  28  29
ENDBRANCH   8  23
ENDBRANCH   4   7
ENDBRANCH   2   3
ENDBRANCH   1   2
BRANCH   1  31
ATOM     31  C   UNL A   1      33.568  29.068  27.087  1.00  0.00     0.118 C 
BRANCH  31  32
ATOM     32  N   UNL A   1      33.767  30.386  27.696  1.00  0.00    -0.352 N 
ATOM     33  C   UNL A   1      34.769  30.862  28.514  1.00  0.00     0.251 C 
ATOM     34  H   UNL A   1      33.066  31.043  27.484  1.00  0.00     0.163 HD
ATOM     35  O   UNL A   1      34.538  31.845  29.215  1.00  0.00    -0.269 OA
BRANCH  33  36
ATOM     36  C   UNL A   1      36.080  30.169  28.595  1.00  0.00     0.039 A 
ATOM     37  C   UNL A   1      36.948  30.192  27.500  1.00  0.00     0.014 A 
ATOM     38  C   UNL A   1      36.472  29.512  29.758  1.00  0.00     0.014 A 
ATOM     39  C   UNL A   1      38.248  29.688  27.631  1.00  0.00     0.010 A 
ATOM     40  C   UNL A   1      37.803  29.160  29.939  1.00  0.00     0.010 A 
ATOM     41  C   UNL A   1      38.713  29.249  28.880  1.00  0.00    -0.014 A 
BRANCH  41  42
ATOM     42  C   UNL A   1      40.141  28.912  29.131  1.00  0.00     0.031 A 
ATOM     43  C   UNL A   1      41.079  29.950  29.693  1.00  0.00     0.074 A 
ATOM     44  C   UNL A   1      40.622  27.716  28.732  1.00  0.00     0.049 A 
ATOM     45  N   UNL A   1      42.378  29.899  29.844  1.00  0.00    -0.248 NA
ATOM     46  C   UNL A   1      40.483  31.235  30.094  1.00  0.00     0.031 C 
ATOM     47  C   UNL A   1      39.831  26.646  28.117  1.00  0.00     0.029 A 
ATOM     48  N   UNL A   1      41.894  27.202  28.769  1.00  0.00    -0.354 N 
ATOM     49  C   UNL A   1      42.753  31.149  30.322  1.00  0.00     0.074 A 
ATOM     50  C   UNL A   1      41.556  31.959  30.368  1.00  0.00     0.031 C 
ATOM     51  C   UNL A   1      40.623  25.590  27.883  1.00  0.00     0.029 A 
ATOM     52  C   UNL A   1      41.988  25.924  28.271  1.00  0.00     0.049 A 
ATOM     53  H   UNL A   1      42.666  27.701  29.121  1.00  0.00     0.167 HD
ATOM     54  C   UNL A   1      43.977  31.577  30.715  1.00  0.00     0.037 A 
ATOM     55  C   UNL A   1      43.055  25.112  28.131  1.00  0.00     0.037 A 
ATOM     56  C   UNL A   1      45.157  30.751  30.692  1.00  0.00     0.049 A 
ATOM     57  C   UNL A   1      44.409  25.611  28.554  1.00  0.00     0.074 A 
ATOM     58  C   UNL A   1      46.428  31.053  31.144  1.00  0.00     0.029 A 
ATOM     59  N   UNL A   1      45.209  29.462  30.179  1.00  0.00    -0.354 N 
ATOM     60  N   UNL A   1      44.733  26.768  29.080  1.00  0.00    -0.248 NA
ATOM     61  C   UNL A   1      45.542  24.699  28.356  1.00  0.00     0.031 C 
ATOM     62  C   UNL A   1      47.263  29.969  30.851  1.00  0.00     0.029 A 
ATOM     63  C   UNL A   1      46.501  28.969  30.267  1.00  0.00     0.049 A 
ATOM     64  H   UNL A   1      44.441  28.971  29.807  1.00  0.00     0.167 HD
ATOM     65  C   UNL A   1      46.105  26.716  29.297  1.00  0.00     0.074 A 
ATOM     66  C   UNL A   1      46.546  25.407  28.856  1.00  0.00     0.031 C 
ATOM     67  C   UNL A   1      46.923  27.664  29.816  1.00  0.00     0.037 A 
BRANCH  54  68
ATOM     68  C   UNL A   1      44.093  33.002  31.191  1.00  0.00     0.058 A 
ATOM     69  C   UNL A   1      43.869  33.357  32.533  1.00  0.00     0.135 A 
ATOM     70  C   UNL A   1      44.409  34.033  30.292  1.00  0.00     0.135 A 
ATOM     71  F   UNL A   1      43.553  32.417  33.438  1.00  0.00    -0.206 F 
ATOM     72  C   UNL A   1      43.888  34.685  32.950  1.00  0.00     0.059 A 
ATOM     73  C   UNL A   1      44.471  35.364  30.694  1.00  0.00     0.059 A 
ATOM     74  F   UNL A   1      44.642  33.756  28.999  1.00  0.00    -0.206 F 
ATOM     75  C   UNL A   1      44.180  35.683  32.020  1.00  0.00     0.060 A 
BRANCH  75  76
ATOM     76  S   UNL A   1      44.149  37.403  32.565  1.00  0.00     0.124 S 
ATOM     77  O   UNL A   1      43.845  38.095  31.316  1.00  0.00    -0.237 OA
ATOM     78  O   UNL A   1      43.082  37.396  33.561  1.00  0.00    -0.237 OA
ATOM     79  O   UNL A   1      45.493  37.619  33.091  1.00  0.00    -0.744 OA
ENDBRANCH  75  76
ENDBRANCH  54  68
BRANCH  55  80
ATOM     80  C   UNL A   1      42.868  23.732  27.611  1.00  0.00     0.058 A 
ATOM     81  C   UNL A   1      42.705  22.657  28.497  1.00  0.00     0.135 A 
ATOM     82  C   UNL A   1      42.791  23.462  26.235  1.00  0.00     0.135 A 
ATOM     83  F   UNL A   1      42.779  22.863  29.820  1.00  0.00    -0.206 F 
ATOM     84  C   UNL A   1      42.466  21.365  28.041  1.00  0.00     0.059 A 
ATOM     85  C   UNL A   1      42.530  22.181  25.755  1.00  0.00     0.059 A 
ATOM     86  F   UNL A   1      42.928  24.457  25.345  1.00  0.00    -0.206 F 
ATOM     87  C   UNL A   1      42.369  21.139  26.667  1.00  0.00     0.060 A 
BRANCH  87  88
ATOM     88  S   UNL A   1      41.973  19.471  26.095  1.00  0.00     0.124 S 
ATOM     89  O   UNL A   1      42.319  18.669  27.263  1.00  0.00    -0.237 OA
ATOM     90  O   UNL A   1      40.549  19.583  25.796  1.00  0.00    -0.237 OA
ATOM     91  O   UNL A   1      42.839  19.301  24.932  1.00  0.00    -0.744 OA
ENDBRANCH  87  88
ENDBRANCH  55  80
BRANCH  67  92
ATOM     92  C   UNL A   1      48.382  27.324  29.949  1.00  0.00     0.058 A 
ATOM     93  C   UNL A   1      49.311  27.672  28.956  1.00  0.00     0.135 A 
ATOM     94  C   UNL A   1      48.866  26.707  31.114  1.00  0.00     0.135 A 
ATOM     95  F   UNL A   1      48.899  28.252  27.818  1.00  0.00    -0.206 F 
ATOM     96  C   UNL A   1      50.668  27.411  29.110  1.00  0.00     0.059 A 
ATOM     97  C   UNL A   1      50.223  26.464  31.301  1.00  0.00     0.059 A 
ATOM     98  F   UNL A   1      48.020  26.360  32.097  1.00  0.00    -0.206 F 
ATOM     99  C   UNL A   1      51.116  26.814  30.290  1.00  0.00     0.060 A 
BRANCH  99 100
ATOM    100  S   UNL A   1      52.887  26.538  30.500  1.00  0.00     0.124 S 
ATOM    101  O   UNL A   1      53.297  26.203  29.140  1.00  0.00    -0.237 OA
ATOM    102  O   UNL A   1      53.346  27.831  30.999  1.00  0.00    -0.237 OA
ATOM    103  O   UNL A   1      52.949  25.443  31.462  1.00  0.00    -0.744 OA
ENDBRANCH  99 100
ENDBRANCH  67  92
ENDBRANCH  41  42
ENDBRANCH  33  36
ENDBRANCH  31  32
ENDBRANCH   1  31
TORSDOF 18
ENDMDL
MODEL 2
REMARK VINA RESULT:     -11.8      2.030      3.966
REMARK SMILES CC(C)(C)c1ccc(C(=O)N/C(=C/c2ccc(O)cc2)C(=O)NCCCNC(=O)c2ccc(-c3c4nc(c(-c5c(F)cc(S(=O)(=O)[O-])cc5F)c5ccc([nH]5)c(-c5c(F)cc(S(=O)(=O)[O-])cc5F)c5nc(c(-c6c(F)cc(S(=O)(=O)[O-])cc6F)c6ccc3[nH]6)C=C5)C=C4)cc2)cc1
REMARK SMILES IDX 25 1 24 2 23 3 21 4 22 5 12 7 13 8 11 9 9 10 10 11 8 13 5 14
REMARK SMILES IDX 6 15 97 16 7 17 96 18 2 19 1 20 3 21 4 22 14 23 15 24 20 25
REMARK SMILES IDX 16 26 19 27 17 28 18 29 26 31 27 32 28 33 29 35 30 36 31 37
REMARK SMILES IDX 95 38 32 39 94 40 33 41 34 42 35 43 88 44 36 45 93 46 87 47
REMARK SMILES IDX 89 48 37 49 92 50 86 51 85 52 38 54 72 55 51 56 71 57 52 58
REMARK SMILES IDX 55 59 70 60 90 61 53 62 54 63 69 65 91 66 56 67 39 68 40 69
REMARK SMILES IDX 49 70 41 71 42 72 48 73 50 74 43 75 44 76 45 77 46 78 47 79
REMARK SMILES IDX 73 80 74 81 83 82 75 83 76 84 82 85 84 86 77 87 78 88 79 89
REMARK SMILES IDX 80 90 81 91 57 92 58 93 67 94 59 95 60 96 66 97 68 98 61 99
REMARK SMILES IDX 62 100 63 101 64 102 65 103
REMARK H PARENT 23 6 11 12 18 30 27 34 89 53 55 64
REMARK Flexibility Score: inf
ROOT
ATOM      1  C   UNL A   1      31.874  28.490  27.198  1.00  0.00     0.042 C 
ENDROOT
BRANCH   1   2
ATOM      2  C   UNL A   1      31.652  28.086  25.754  1.00  0.00     0.118 C 
BRANCH   2   3
ATOM      3  N   UNL A   1      32.495  28.768  24.813  1.00  0.00    -0.351 N 
ATOM      4  C   UNL A   1      32.898  28.278  23.607  1.00  0.00     0.267 C 
ATOM      5  O   UNL A   1      34.096  28.408  23.335  1.00  0.00    -0.268 OA
ATOM      6  H   UNL A   1      32.809  29.668  25.060  1.00  0.00     0.163 HD
BRANCH   4   7
ATOM      7  C   UNL A   1      31.938  27.792  22.512  1.00  0.00     0.107 C 
ATOM      8  C   UNL A   1      30.607  27.986  22.335  1.00  0.00     0.040 C 
BRANCH   7   9
ATOM      9  N   UNL A   1      32.517  26.946  21.562  1.00  0.00    -0.317 N 
ATOM     10  C   UNL A   1      32.833  25.598  21.584  1.00  0.00     0.255 C 
ATOM     11  O   UNL A   1      33.139  25.047  20.524  1.00  0.00    -0.269 OA
ATOM     12  H   UNL A   1      32.745  27.394  20.715  1.00  0.00     0.170 HD
BRANCH  10  13
ATOM     13  C   UNL A   1      32.929  24.811  22.844  1.00  0.00     0.040 A 
ATOM     14  C   UNL A   1      33.295  23.148  25.116  1.00  0.00    -0.043 A 
ATOM     15  C   UNL A   1      34.314  24.005  24.667  1.00  0.00     0.005 A 
ATOM     16  C   UNL A   1      32.043  23.260  24.484  1.00  0.00     0.005 A 
ATOM     17  C   UNL A   1      34.138  24.820  23.541  1.00  0.00     0.014 A 
ATOM     18  C   UNL A   1      31.854  24.096  23.374  1.00  0.00     0.014 A 
BRANCH  14  19
ATOM     19  C   UNL A   1      33.527  22.125  26.244  1.00  0.00    -0.013 C 
ATOM     20  C   UNL A   1      32.788  22.541  27.540  1.00  0.00     0.016 C 
ATOM     21  C   UNL A   1      35.034  22.028  26.538  1.00  0.00     0.016 C 
ATOM     22  C   UNL A   1      33.007  20.711  25.890  1.00  0.00     0.016 C 
ENDBRANCH  14  19
ENDBRANCH  10  13
ENDBRANCH   7   9
BRANCH   8  23
ATOM     23  C   UNL A   1      29.664  28.929  22.945  1.00  0.00    -0.023 A 
ATOM     24  C   UNL A   1      30.027  30.212  23.372  1.00  0.00     0.012 A 
ATOM     25  C   UNL A   1      28.313  28.539  22.998  1.00  0.00     0.012 A 
ATOM     26  C   UNL A   1      29.025  31.143  23.687  1.00  0.00     0.047 A 
ATOM     27  C   UNL A   1      27.319  29.469  23.309  1.00  0.00     0.047 A 
ATOM     28  C   UNL A   1      27.683  30.778  23.595  1.00  0.00     0.115 A 
BRANCH  28  29
ATOM     29  O   UNL A   1      26.736  31.749  23.731  1.00  0.00    -0.508 OA
ATOM     30  H   UNL A   1      26.688  32.446  23.108  1.00  0.00     0.293 HD
ENDBRANCH  28  29
ENDBRANCH   8  23
ENDBRANCH   4   7
ENDBRANCH   2   3
ENDBRANCH   1   2
BRANCH   1  31
ATOM     31  C   UNL A   1      33.330  28.779  27.498  1.00  0.00     0.118 C 
BRANCH  31  32
ATOM     32  N   UNL A   1      33.550  30.184  27.849  1.00  0.00    -0.352 N 
ATOM     33  C   UNL A   1      34.605  30.804  28.483  1.00  0.00     0.251 C 
ATOM     34  H   UNL A   1      32.819  30.789  27.586  1.00  0.00     0.163 HD
ATOM     35  O   UNL A   1      34.412  31.893  29.018  1.00  0.00    -0.269 OA
BRANCH  33  36
ATOM     36  C   UNL A   1      35.933  30.145  28.571  1.00  0.00     0.039 A 
ATOM     37  C   UNL A   1      36.749  30.067  27.438  1.00  0.00     0.014 A 
ATOM     38  C   UNL A   1      36.394  29.621  29.776  1.00  0.00     0.014 A 
ATOM     39  C   UNL A   1      38.064  29.602  27.558  1.00  0.00     0.010 A 
ATOM     40  C   UNL A   1      37.739  29.312  29.927  1.00  0.00     0.010 A 
ATOM     41  C   UNL A   1      38.597  29.305  28.822  1.00  0.00    -0.014 A 
BRANCH  41  42
ATOM     42  C   UNL A   1      40.042  29.020  29.036  1.00  0.00     0.031 A 
ATOM     43  C   UNL A   1      40.960  30.098  29.554  1.00  0.00     0.074 A 
ATOM     44  C   UNL A   1      40.551  27.835  28.642  1.00  0.00     0.049 A 
ATOM     45  N   UNL A   1      42.263  30.093  29.668  1.00  0.00    -0.248 NA
ATOM     46  C   UNL A   1      40.331  31.369  29.952  1.00  0.00     0.031 C 
ATOM     47  C   UNL A   1      39.780  26.729  28.067  1.00  0.00     0.029 A 
ATOM     48  N   UNL A   1      41.840  27.364  28.651  1.00  0.00    -0.354 N 
ATOM     49  C   UNL A   1      42.609  31.363  30.116  1.00  0.00     0.074 A 
ATOM     50  C   UNL A   1      41.387  32.133  30.184  1.00  0.00     0.031 C 
ATOM     51  C   UNL A   1      40.600  25.695  27.827  1.00  0.00     0.029 A 
ATOM     52  C   UNL A   1      41.964  26.081  28.169  1.00  0.00     0.049 A 
ATOM     53  H   UNL A   1      42.605  27.894  28.972  1.00  0.00     0.167 HD
ATOM     54  C   UNL A   1      43.829  31.838  30.466  1.00  0.00     0.037 A 
ATOM     55  C   UNL A   1      43.054  25.304  28.011  1.00  0.00     0.037 A 
ATOM     56  C   UNL A   1      45.034  31.052  30.421  1.00  0.00     0.049 A 
ATOM     57  C   UNL A   1      44.401  25.854  28.387  1.00  0.00     0.074 A 
ATOM     58  C   UNL A   1      46.307  31.404  30.832  1.00  0.00     0.029 A 
ATOM     59  N   UNL A   1      45.116  29.757  29.928  1.00  0.00    -0.354 N 
ATOM     60  N   UNL A   1      44.701  27.031  28.886  1.00  0.00    -0.248 NA
ATOM     61  C   UNL A   1      45.559  24.978  28.171  1.00  0.00     0.031 C 
ATOM     62  C   UNL A   1      47.169  30.344  30.531  1.00  0.00     0.029 A 
ATOM     63  C   UNL A   1      46.425  29.309  29.986  1.00  0.00     0.049 A 
ATOM     64  H   UNL A   1      44.355  29.235  29.586  1.00  0.00     0.167 HD
ATOM     65  C   UNL A   1      46.079  27.028  29.063  1.00  0.00     0.074 A 
ATOM     66  C   UNL A   1      46.551  25.728  28.630  1.00  0.00     0.031 C 
ATOM     67  C   UNL A   1      46.879  28.011  29.543  1.00  0.00     0.037 A 
BRANCH  54  68
ATOM     68  C   UNL A   1      43.909  33.274  30.916  1.00  0.00     0.058 A 
ATOM     69  C   UNL A   1      44.219  34.315  30.024  1.00  0.00     0.135 A 
ATOM     70  C   UNL A   1      43.698  33.615  32.262  1.00  0.00     0.135 A 
ATOM     71  F   UNL A   1      44.442  34.051  28.726  1.00  0.00    -0.206 F 
ATOM     72  C   UNL A   1      44.381  35.627  30.460  1.00  0.00     0.059 A 
ATOM     73  C   UNL A   1      43.818  34.926  32.714  1.00  0.00     0.059 A 
ATOM     74  F   UNL A   1      43.391  32.665  33.160  1.00  0.00    -0.206 F 
ATOM     75  C   UNL A   1      44.189  35.920  31.810  1.00  0.00     0.060 A 
BRANCH  75  76
ATOM     76  S   UNL A   1      44.455  37.615  32.370  1.00  0.00     0.124 S 
ATOM     77  O   UNL A   1      43.811  37.592  33.679  1.00  0.00    -0.237 OA
ATOM     78  O   UNL A   1      45.911  37.715  32.382  1.00  0.00    -0.237 OA
ATOM     79  O   UNL A   1      43.783  38.419  31.354  1.00  0.00    -0.744 OA
ENDBRANCH  75  76
ENDBRANCH  54  68
BRANCH  55  80
ATOM     80  C   UNL A   1      42.899  23.909  27.519  1.00  0.00     0.058 A 
ATOM     81  C   UNL A   1      42.727  22.853  28.425  1.00  0.00     0.135 A 
ATOM     82  C   UNL A   1      42.862  23.607  26.149  1.00  0.00     0.135 A 
ATOM     83  F   UNL A   1      42.763  23.090  29.745  1.00  0.00    -0.206 F 
ATOM     84  C   UNL A   1      42.517  21.547  27.993  1.00  0.00     0.059 A 
ATOM     85  C   UNL A   1      42.630  22.312  25.691  1.00  0.00     0.059 A 
ATOM     86  F   UNL A   1      43.008  24.583  25.239  1.00  0.00    -0.206 F 
ATOM     87  C   UNL A   1      42.459  21.289  26.623  1.00  0.00     0.060 A 
BRANCH  87  88
ATOM     88  S   UNL A   1      42.101  19.604  26.080  1.00  0.00     0.124 S 
ATOM     89  O   UNL A   1      40.671  19.680  25.804  1.00  0.00    -0.237 OA
ATOM     90  O   UNL A   1      42.969  19.469  24.915  1.00  0.00    -0.237 OA
ATOM     91  O   UNL A   1      42.480  18.791  27.232  1.00  0.00    -0.744 OA
ENDBRANCH  87  88
ENDBRANCH  55  80
BRANCH  67  92
ATOM     92  C   UNL A   1      48.351  27.723  29.640  1.00  0.00     0.058 A 
ATOM     93  C   UNL A   1      48.895  27.031  30.734  1.00  0.00     0.135 A 
ATOM     94  C   UNL A   1      49.217  28.078  28.593  1.00  0.00     0.135 A 
ATOM     95  F   UNL A   1      48.113  26.680  31.768  1.00  0.00    -0.206 F 
ATOM     96  C   UNL A   1      50.246  26.712  30.791  1.00  0.00     0.059 A 
ATOM     97  C   UNL A   1      50.567  27.742  28.615  1.00  0.00     0.059 A 
ATOM     98  F   UNL A   1      48.747  28.734  27.519  1.00  0.00    -0.206 F 
ATOM     99  C   UNL A   1      51.073  27.064  29.722  1.00  0.00     0.060 A 
BRANCH  99 100
ATOM    100  S   UNL A   1      52.814  26.588  29.784  1.00  0.00     0.124 S 
ATOM    101  O   UNL A   1      53.471  27.886  29.893  1.00  0.00    -0.237 OA
ATOM    102  O   UNL A   1      52.864  25.749  30.979  1.00  0.00    -0.237 OA
ATOM    103  O   UNL A   1      53.019  25.884  28.523  1.00  0.00    -0.744 OA
ENDBRANCH  99 100
ENDBRANCH  67  92
ENDBRANCH  41  42
ENDBRANCH  33  36
ENDBRANCH  31  32
ENDBRANCH   1  31
TORSDOF 18
ENDMDL
MODEL 3
REMARK VINA RESULT:     -11.7      1.679      3.401
REMARK SMILES CC(C)(C)c1ccc(C(=O)N/C(=C/c2ccc(O)cc2)C(=O)NCCCNC(=O)c2ccc(-c3c4nc(c(-c5c(F)cc(S(=O)(=O)[O-])cc5F)c5ccc([nH]5)c(-c5c(F)cc(S(=O)(=O)[O-])cc5F)c5nc(c(-c6c(F)cc(S(=O)(=O)[O-])cc6F)c6ccc3[nH]6)C=C5)C=C4)cc2)cc1
REMARK SMILES IDX 25 1 24 2 23 3 21 4 22 5 12 7 13 8 11 9 9 10 10 11 8 13 5 14
REMARK SMILES IDX 6 15 97 16 7 17 96 18 2 19 1 20 3 21 4 22 14 23 15 24 20 25
REMARK SMILES IDX 16 26 19 27 17 28 18 29 26 31 27 32 28 33 29 35 30 36 31 37
REMARK SMILES IDX 95 38 32 39 94 40 33 41 34 42 35 43 88 44 36 45 93 46 87 47
REMARK SMILES IDX 89 48 37 49 92 50 86 51 85 52 38 54 72 55 51 56 71 57 52 58
REMARK SMILES IDX 55 59 70 60 90 61 53 62 54 63 69 65 91 66 56 67 39 68 40 69
REMARK SMILES IDX 49 70 41 71 42 72 48 73 50 74 43 75 44 76 45 77 46 78 47 79
REMARK SMILES IDX 73 80 74 81 83 82 75 83 76 84 82 85 84 86 77 87 78 88 79 89
REMARK SMILES IDX 80 90 81 91 57 92 58 93 67 94 59 95 60 96 66 97 68 98 61 99
REMARK SMILES IDX 62 100 63 101 64 102 65 103
REMARK H PARENT 23 6 11 12 18 30 27 34 89 53 55 64
REMARK Flexibility Score: inf
ROOT
ATOM      1  C   UNL A   1      33.653  28.560  25.779  1.00  0.00     0.042 C 
ENDROOT
BRANCH   1   2
ATOM      2  C   UNL A   1      33.114  27.203  25.369  1.00  0.00     0.118 C 
BRANCH   2   3
ATOM      3  N   UNL A   1      32.428  26.499  26.416  1.00  0.00    -0.351 N 
ATOM      4  C   UNL A   1      31.082  26.306  26.493  1.00  0.00     0.267 C 
ATOM      5  O   UNL A   1      30.559  26.524  27.591  1.00  0.00    -0.268 OA
ATOM      6  H   UNL A   1      32.979  26.122  27.141  1.00  0.00     0.163 HD
BRANCH   4   7
ATOM      7  C   UNL A   1      30.243  25.643  25.393  1.00  0.00     0.107 C 
ATOM      8  C   UNL A   1      29.653  26.155  24.283  1.00  0.00     0.040 C 
BRANCH   7   9
ATOM      9  N   UNL A   1      29.982  24.285  25.597  1.00  0.00    -0.317 N 
ATOM     10  C   UNL A   1      30.810  23.204  25.843  1.00  0.00     0.255 C 
ATOM     11  O   UNL A   1      30.299  22.140  26.205  1.00  0.00    -0.269 OA
ATOM     12  H   UNL A   1      29.025  24.053  25.558  1.00  0.00     0.170 HD
BRANCH  10  13
ATOM     13  C   UNL A   1      32.276  23.231  25.582  1.00  0.00     0.040 A 
ATOM     14  C   UNL A   1      35.037  23.048  24.948  1.00  0.00    -0.043 A 
ATOM     15  C   UNL A   1      34.076  23.310  23.957  1.00  0.00     0.005 A 
ATOM     16  C   UNL A   1      34.589  23.029  26.281  1.00  0.00     0.005 A 
ATOM     17  C   UNL A   1      32.713  23.393  24.267  1.00  0.00     0.014 A 
ATOM     18  C   UNL A   1      33.228  23.140  26.598  1.00  0.00     0.014 A 
BRANCH  14  19
ATOM     19  C   UNL A   1      36.516  22.786  24.603  1.00  0.00    -0.013 C 
ATOM     20  C   UNL A   1      36.931  21.342  24.974  1.00  0.00     0.016 C 
ATOM     21  C   UNL A   1      37.400  23.776  25.381  1.00  0.00     0.016 C 
ATOM     22  C   UNL A   1      36.819  22.945  23.093  1.00  0.00     0.016 C 
ENDBRANCH  14  19
ENDBRANCH  10  13
ENDBRANCH   7   9
BRANCH   8  23
ATOM     23  C   UNL A   1      29.817  27.435  23.587  1.00  0.00    -0.023 A 
ATOM     24  C   UNL A   1      31.033  27.863  23.041  1.00  0.00     0.012 A 
ATOM     25  C   UNL A   1      28.658  28.205  23.382  1.00  0.00     0.012 A 
ATOM     26  C   UNL A   1      31.047  28.958  22.163  1.00  0.00     0.047 A 
ATOM     27  C   UNL A   1      28.675  29.291  22.505  1.00  0.00     0.047 A 
ATOM     28  C   UNL A   1      29.859  29.621  21.859  1.00  0.00     0.115 A 
BRANCH  28  29
ATOM     29  O   UNL A   1      29.874  30.559  20.870  1.00  0.00    -0.508 OA
ATOM     30  H   UNL A   1      30.078  31.450  21.074  1.00  0.00     0.293 HD
ENDBRANCH  28  29
ENDBRANCH   8  23
ENDBRANCH   4   7
ENDBRANCH   2   3
ENDBRANCH   1   2
BRANCH   1  31
ATOM     31  C   UNL A   1      33.613  28.767  27.279  1.00  0.00     0.118 C 
BRANCH  31  32
ATOM     32  N   UNL A   1      33.861  30.163  27.646  1.00  0.00    -0.352 N 
ATOM     33  C   UNL A   1      34.917  30.749  28.311  1.00  0.00     0.251 C 
ATOM     34  H   UNL A   1      33.155  30.790  27.370  1.00  0.00     0.163 HD
ATOM     35  O   UNL A   1      34.740  31.839  28.850  1.00  0.00    -0.269 OA
BRANCH  33  36
ATOM     36  C   UNL A   1      36.224  30.053  28.428  1.00  0.00     0.039 A 
ATOM     37  C   UNL A   1      37.111  30.052  27.347  1.00  0.00     0.014 A 
ATOM     38  C   UNL A   1      36.595  29.419  29.610  1.00  0.00     0.014 A 
ATOM     39  C   UNL A   1      38.406  29.546  27.510  1.00  0.00     0.010 A 
ATOM     40  C   UNL A   1      37.921  29.066  29.821  1.00  0.00     0.010 A 
ATOM     41  C   UNL A   1      38.849  29.131  28.775  1.00  0.00    -0.014 A 
BRANCH  41  42
ATOM     42  C   UNL A   1      40.271  28.794  29.057  1.00  0.00     0.031 A 
ATOM     43  C   UNL A   1      41.196  29.832  29.640  1.00  0.00     0.074 A 
ATOM     44  C   UNL A   1      40.761  27.600  28.667  1.00  0.00     0.049 A 
ATOM     45  N   UNL A   1      42.491  29.781  29.819  1.00  0.00    -0.248 NA
ATOM     46  C   UNL A   1      40.590  31.116  30.030  1.00  0.00     0.031 C 
ATOM     47  C   UNL A   1      39.985  26.530  28.033  1.00  0.00     0.029 A 
ATOM     48  N   UNL A   1      42.032  27.085  28.731  1.00  0.00    -0.354 N 
ATOM     49  C   UNL A   1      42.856  31.031  30.308  1.00  0.00     0.074 A 
ATOM     50  C   UNL A   1      41.658  31.840  30.329  1.00  0.00     0.031 C 
ATOM     51  C   UNL A   1      40.782  25.474  27.815  1.00  0.00     0.029 A 
ATOM     52  C   UNL A   1      42.139  25.808  28.233  1.00  0.00     0.049 A 
ATOM     53  H   UNL A   1      42.796  27.585  29.100  1.00  0.00     0.167 HD
ATOM     54  C   UNL A   1      44.070  31.459  30.728  1.00  0.00     0.037 A 
ATOM     55  C   UNL A   1      43.209  24.998  28.115  1.00  0.00     0.037 A 
ATOM     56  C   UNL A   1      45.251  30.634  30.729  1.00  0.00     0.049 A 
ATOM     57  C   UNL A   1      44.553  25.496  28.568  1.00  0.00     0.074 A 
ATOM     58  C   UNL A   1      46.512  30.936  31.209  1.00  0.00     0.029 A 
ATOM     59  N   UNL A   1      45.315  29.346  30.216  1.00  0.00    -0.354 N 
ATOM     60  N   UNL A   1      44.865  26.653  29.103  1.00  0.00    -0.248 NA
ATOM     61  C   UNL A   1      45.691  24.585  28.394  1.00  0.00     0.031 C 
ATOM     62  C   UNL A   1      47.353  29.853  30.932  1.00  0.00     0.029 A 
ATOM     63  C   UNL A   1      46.605  28.853  30.331  1.00  0.00     0.049 A 
ATOM     64  H   UNL A   1      44.556  28.855  29.826  1.00  0.00     0.167 HD
ATOM     65  C   UNL A   1      46.231  26.601  29.349  1.00  0.00     0.074 A 
ATOM     66  C   UNL A   1      46.683  25.293  28.917  1.00  0.00     0.031 C 
ATOM     67  C   UNL A   1      47.038  27.549  29.888  1.00  0.00     0.037 A 
BRANCH  54  68
ATOM     68  C   UNL A   1      44.175  32.884  31.208  1.00  0.00     0.058 A 
ATOM     69  C   UNL A   1      43.890  33.242  32.537  1.00  0.00     0.135 A 
ATOM     70  C   UNL A   1      44.543  33.911  30.324  1.00  0.00     0.135 A 
ATOM     71  F   UNL A   1      43.523  32.305  33.426  1.00  0.00    -0.206 F 
ATOM     72  C   UNL A   1      43.900  34.570  32.954  1.00  0.00     0.059 A 
ATOM     73  C   UNL A   1      44.597  35.242  30.729  1.00  0.00     0.059 A 
ATOM     74  F   UNL A   1      44.836  33.631  29.044  1.00  0.00    -0.206 F 
ATOM     75  C   UNL A   1      44.245  35.564  32.039  1.00  0.00     0.060 A 
BRANCH  75  76
ATOM     76  S   UNL A   1      44.201  37.285  32.581  1.00  0.00     0.124 S 
ATOM     77  O   UNL A   1      43.860  37.970  31.338  1.00  0.00    -0.237 OA
ATOM     78  O   UNL A   1      43.158  37.266  33.601  1.00  0.00    -0.237 OA
ATOM     79  O   UNL A   1      45.554  37.521  33.075  1.00  0.00    -0.744 OA
ENDBRANCH  75  76
ENDBRANCH  54  68
BRANCH  55  80
ATOM     80  C   UNL A   1      43.034  23.617  27.589  1.00  0.00     0.058 A 
ATOM     81  C   UNL A   1      42.658  22.574  28.448  1.00  0.00     0.135 A 
ATOM     82  C   UNL A   1      43.179  23.320  26.225  1.00  0.00     0.135 A 
ATOM     83  F   UNL A   1      42.515  22.806  29.761  1.00  0.00    -0.206 F 
ATOM     84  C   UNL A   1      42.426  21.287  27.975  1.00  0.00     0.059 A 
ATOM     85  C   UNL A   1      42.930  22.045  25.724  1.00  0.00     0.059 A 
ATOM     86  F   UNL A   1      43.524  24.285  25.358  1.00  0.00    -0.206 F 
ATOM     87  C   UNL A   1      42.554  21.035  26.608  1.00  0.00     0.060 A 
BRANCH  87  88
ATOM     88  S   UNL A   1      42.166  19.379  25.999  1.00  0.00     0.124 S 
ATOM     89  O   UNL A   1      42.955  19.323  24.774  1.00  0.00    -0.237 OA
ATOM     90  O   UNL A   1      42.630  18.536  27.096  1.00  0.00    -0.237 OA
ATOM     91  O   UNL A   1      40.718  19.418  25.817  1.00  0.00    -0.744 OA
ENDBRANCH  87  88
ENDBRANCH  55  80
BRANCH  67  92
ATOM     92  C   UNL A   1      48.493  27.209  30.052  1.00  0.00     0.058 A 
ATOM     93  C   UNL A   1      49.446  27.574  29.088  1.00  0.00     0.135 A 
ATOM     94  C   UNL A   1      48.949  26.576  31.219  1.00  0.00     0.135 A 
ATOM     95  F   UNL A   1      49.061  28.171  27.948  1.00  0.00    -0.206 F 
ATOM     96  C   UNL A   1      50.799  27.314  29.271  1.00  0.00     0.059 A 
ATOM     97  C   UNL A   1      50.301  26.332  31.437  1.00  0.00     0.059 A 
ATOM     98  F   UNL A   1      48.080  26.213  32.176  1.00  0.00    -0.206 F 
ATOM     99  C   UNL A   1      51.219  26.700  30.454  1.00  0.00     0.060 A 
BRANCH  99 100
ATOM    100  S   UNL A   1      52.985  26.423  30.703  1.00  0.00     0.124 S 
ATOM    101  O   UNL A   1      53.440  26.169  29.340  1.00  0.00    -0.237 OA
ATOM    102  O   UNL A   1      53.417  27.689  31.290  1.00  0.00    -0.237 OA
ATOM    103  O   UNL A   1      53.026  25.276  31.604  1.00  0.00    -0.744 OA
ENDBRANCH  99 100
ENDBRANCH  67  92
ENDBRANCH  41  42
ENDBRANCH  33  36
ENDBRANCH  31  32
ENDBRANCH   1  31
TORSDOF 18
ENDMDL
