MODEL 1
REMARK VINA RESULT:     -12.0      0.000      0.000
REMARK SMILES CC(C)CN(C)c1cc2c(cc1Cl)C=C(C(=O)NCCCNC(=O)c1ccc(-c3c4nc(c(-c5c(F)cc(S(=O)(=O)[O-])cc5F)c5ccc([nH]5)c(-c5c(F)cc(S(=O)(=O)[O-])cc5F)c5nc(c(-c6c(F)cc(S(=O)(=O)[O-])cc6F)c6ccc3[nH]6)C=C5)C=C4)cc1)[C@H](C(F)(F)F)O2
REMARK SMILES IDX 20 1 19 2 18 3 16 4 17 5 15 7 7 8 8 9 12 10 9 11 11 12 13 13
REMARK SMILES IDX 10 14 96 15 14 16 91 17 5 18 6 19 4 20 2 21 1 22 3 23 92 24
REMARK SMILES IDX 93 25 94 26 95 27 21 28 22 29 23 30 24 32 25 33 26 34 90 35
REMARK SMILES IDX 27 36 89 37 28 38 29 39 30 40 83 41 31 42 88 43 82 44 84 45
REMARK SMILES IDX 32 46 87 47 81 48 80 49 33 51 67 52 46 53 66 54 47 55 50 56
REMARK SMILES IDX 65 57 85 58 48 59 49 60 64 62 86 63 51 64 34 65 35 66 44 67
REMARK SMILES IDX 36 68 37 69 43 70 45 71 38 72 39 73 40 74 41 75 42 76 68 77
REMARK SMILES IDX 69 78 78 79 70 80 71 81 77 82 79 83 72 84 73 85 74 86 75 87
REMARK SMILES IDX 76 88 52 89 53 90 62 91 54 92 55 93 61 94 63 95 56 96 57 97
REMARK SMILES IDX 58 98 59 99 60 100
REMARK H PARENT 18 6 22 31 84 50 50 61
REMARK Flexibility Score: inf
ROOT
ATOM      1  C   UNL A   1      37.763  22.635  26.253  1.00  0.00     0.042 C 
ENDROOT
BRANCH   1   2
ATOM      2  C   UNL A   1      37.679  22.112  24.826  1.00  0.00     0.118 C 
BRANCH   2   3
ATOM      3  N   UNL A   1      36.456  21.354  24.631  1.00  0.00    -0.352 N 
ATOM      4  C   UNL A   1      35.132  21.603  24.732  1.00  0.00     0.251 C 
ATOM      5  O   UNL A   1      34.389  20.648  24.484  1.00  0.00    -0.270 OA
ATOM      6  H   UNL A   1      36.637  20.427  24.356  1.00  0.00     0.163 HD
BRANCH   4   7
ATOM      7  C   UNL A   1      34.548  22.936  25.048  1.00  0.00     0.067 C 
ATOM      8  C   UNL A   1      32.970  27.722  24.497  1.00  0.00     0.059 A 
ATOM      9  C   UNL A   1      32.958  26.784  25.543  1.00  0.00     0.074 A 
ATOM     10  C   UNL A   1      33.587  27.323  23.290  1.00  0.00     0.065 A 
ATOM     11  C   UNL A   1      33.494  25.504  25.383  1.00  0.00     0.130 A 
ATOM     12  C   UNL A   1      34.027  26.009  23.101  1.00  0.00     0.034 A 
ATOM     13  Cl  UNL A   1      33.933  28.431  22.006  1.00  0.00    -0.082 Cl
ATOM     14  C   UNL A   1      33.980  25.096  24.150  1.00  0.00     0.019 A 
ATOM     15  O   UNL A   1      33.523  24.727  26.497  1.00  0.00    -0.475 OA
ATOM     16  C   UNL A   1      34.481  23.747  23.980  1.00  0.00     0.025 C 
ATOM     17  C   UNL A   1      34.047  23.372  26.403  1.00  0.00     0.314 C 
BRANCH   8  18
ATOM     18  N   UNL A   1      32.382  28.989  24.672  1.00  0.00    -0.373 N 
ATOM     19  C   UNL A   1      32.889  29.759  25.811  1.00  0.00     0.143 C 
BRANCH  18  20
ATOM     20  C   UNL A   1      30.917  29.069  24.452  1.00  0.00     0.119 C 
BRANCH  20  21
ATOM     21  C   UNL A   1      30.453  28.321  23.185  1.00  0.00     0.002 C 
ATOM     22  C   UNL A   1      29.428  27.230  23.504  1.00  0.00     0.009 C 
ATOM     23  C   UNL A   1      29.851  29.276  22.149  1.00  0.00     0.009 C 
ENDBRANCH  20  21
ENDBRANCH  18  20
ENDBRANCH   8  18
BRANCH  17  24
ATOM     24  C   UNL A   1      32.998  22.443  27.041  1.00  0.00     0.429 C 
ATOM     25  F   UNL A   1      32.265  23.050  27.998  1.00  0.00    -0.167 F 
ATOM     26  F   UNL A   1      32.135  22.003  26.090  1.00  0.00    -0.167 F 
ATOM     27  F   UNL A   1      33.552  21.346  27.607  1.00  0.00    -0.167 F 
ENDBRANCH  17  24
ENDBRANCH   4   7
ENDBRANCH   2   3
ENDBRANCH   1   2
BRANCH   1  28
ATOM     28  C   UNL A   1      38.415  24.007  26.340  1.00  0.00     0.118 C 
BRANCH  28  29
ATOM     29  N   UNL A   1      39.845  23.949  26.064  1.00  0.00    -0.352 N 
ATOM     30  C   UNL A   1      40.849  24.799  26.461  1.00  0.00     0.251 C 
ATOM     31  H   UNL A   1      40.133  23.188  25.511  1.00  0.00     0.163 HD
ATOM     32  O   UNL A   1      41.952  24.727  25.919  1.00  0.00    -0.269 OA
BRANCH  30  33
ATOM     33  C   UNL A   1      40.600  25.807  27.515  1.00  0.00     0.039 A 
ATOM     34  C   UNL A   1      41.304  27.010  27.520  1.00  0.00     0.014 A 
ATOM     35  C   UNL A   1      39.656  25.551  28.514  1.00  0.00     0.014 A 
ATOM     36  C   UNL A   1      41.224  27.851  28.620  1.00  0.00     0.010 A 
ATOM     37  C   UNL A   1      39.482  26.467  29.557  1.00  0.00     0.010 A 
ATOM     38  C   UNL A   1      40.300  27.603  29.648  1.00  0.00    -0.014 A 
BRANCH  38  39
ATOM     39  C   UNL A   1      40.206  28.561  30.783  1.00  0.00     0.031 A 
ATOM     40  C   UNL A   1      41.171  28.487  31.939  1.00  0.00     0.074 A 
ATOM     41  C   UNL A   1      39.288  29.548  30.730  1.00  0.00     0.049 A 
ATOM     42  N   UNL A   1      41.235  29.244  33.006  1.00  0.00    -0.248 NA
ATOM     43  C   UNL A   1      42.197  27.431  31.899  1.00  0.00     0.031 C 
ATOM     44  C   UNL A   1      38.312  29.733  29.650  1.00  0.00     0.029 A 
ATOM     45  N   UNL A   1      39.041  30.600  31.574  1.00  0.00    -0.354 N 
ATOM     46  C   UNL A   1      42.293  28.755  33.762  1.00  0.00     0.074 A 
ATOM     47  C   UNL A   1      42.822  27.610  33.056  1.00  0.00     0.031 C 
ATOM     48  C   UNL A   1      37.629  30.868  29.860  1.00  0.00     0.029 A 
ATOM     49  C   UNL A   1      38.050  31.445  31.130  1.00  0.00     0.049 A 
ATOM     50  H   UNL A   1      39.528  30.738  32.419  1.00  0.00     0.167 HD
ATOM     51  C   UNL A   1      42.791  29.232  34.929  1.00  0.00     0.037 A 
ATOM     52  C   UNL A   1      37.520  32.549  31.689  1.00  0.00     0.037 A 
ATOM     53  C   UNL A   1      42.272  30.390  35.613  1.00  0.00     0.049 A 
ATOM     54  C   UNL A   1      38.044  33.008  33.021  1.00  0.00     0.074 A 
ATOM     55  C   UNL A   1      42.704  30.947  36.805  1.00  0.00     0.029 A 
ATOM     56  N   UNL A   1      41.222  31.175  35.163  1.00  0.00    -0.354 N 
ATOM     57  N   UNL A   1      39.034  32.518  33.729  1.00  0.00    -0.248 NA
ATOM     58  C   UNL A   1      37.372  34.158  33.639  1.00  0.00     0.031 C 
ATOM     59  C   UNL A   1      41.887  32.041  37.097  1.00  0.00     0.029 A 
ATOM     60  C   UNL A   1      40.981  32.202  36.061  1.00  0.00     0.049 A 
ATOM     61  H   UNL A   1      40.721  31.026  34.328  1.00  0.00     0.167 HD
ATOM     62  C   UNL A   1      39.120  33.317  34.861  1.00  0.00     0.074 A 
ATOM     63  C   UNL A   1      38.093  34.332  34.738  1.00  0.00     0.031 C 
ATOM     64  C   UNL A   1      39.969  33.217  35.913  1.00  0.00     0.037 A 
BRANCH  51  65
ATOM     65  C   UNL A   1      43.962  28.522  35.551  1.00  0.00     0.058 A 
ATOM     66  C   UNL A   1      43.781  27.456  36.446  1.00  0.00     0.135 A 
ATOM     67  C   UNL A   1      45.277  28.837  35.167  1.00  0.00     0.135 A 
ATOM     68  F   UNL A   1      42.549  27.123  36.861  1.00  0.00    -0.206 F 
ATOM     69  C   UNL A   1      44.860  26.726  36.937  1.00  0.00     0.059 A 
ATOM     70  C   UNL A   1      46.369  28.104  35.625  1.00  0.00     0.059 A 
ATOM     71  F   UNL A   1      45.507  29.848  34.316  1.00  0.00    -0.206 F 
ATOM     72  C   UNL A   1      46.149  27.050  36.510  1.00  0.00     0.060 A 
BRANCH  72  73
ATOM     73  S   UNL A   1      47.528  26.056  37.119  1.00  0.00     0.124 S 
ATOM     74  O   UNL A   1      47.321  24.799  36.406  1.00  0.00    -0.237 OA
ATOM     75  O   UNL A   1      48.685  26.839  36.698  1.00  0.00    -0.237 OA
ATOM     76  O   UNL A   1      47.302  26.001  38.560  1.00  0.00    -0.744 OA
ENDBRANCH  72  73
ENDBRANCH  51  65
BRANCH  52  77
ATOM     77  C   UNL A   1      36.426  33.287  31.003  1.00  0.00     0.058 A 
ATOM     78  C   UNL A   1      36.692  34.112  29.900  1.00  0.00     0.135 A 
ATOM     79  C   UNL A   1      35.094  33.193  31.439  1.00  0.00     0.135 A 
ATOM     80  F   UNL A   1      37.947  34.241  29.445  1.00  0.00    -0.206 F 
ATOM     81  C   UNL A   1      35.684  34.836  29.271  1.00  0.00     0.059 A 
ATOM     82  C   UNL A   1      34.064  33.879  30.806  1.00  0.00     0.059 A 
ATOM     83  F   UNL A   1      34.781  32.406  32.480  1.00  0.00    -0.206 F 
ATOM     84  C   UNL A   1      34.372  34.713  29.733  1.00  0.00     0.060 A 
BRANCH  84  85
ATOM     85  S   UNL A   1      33.072  35.649  28.902  1.00  0.00     0.124 S 
ATOM     86  O   UNL A   1      32.511  34.641  28.009  1.00  0.00    -0.237 OA
ATOM     87  O   UNL A   1      32.226  36.055  30.020  1.00  0.00    -0.237 OA
ATOM     88  O   UNL A   1      33.802  36.733  28.250  1.00  0.00    -0.744 OA
ENDBRANCH  84  85
ENDBRANCH  52  77
BRANCH  64  89
ATOM     89  C   UNL A   1      39.858  34.250  36.999  1.00  0.00     0.058 A 
ATOM     90  C   UNL A   1      40.495  35.496  36.897  1.00  0.00     0.135 A 
ATOM     91  C   UNL A   1      39.040  34.018  38.116  1.00  0.00     0.135 A 
ATOM     92  F   UNL A   1      41.294  35.764  35.853  1.00  0.00    -0.206 F 
ATOM     93  C   UNL A   1      40.334  36.473  37.873  1.00  0.00     0.059 A 
ATOM     94  C   UNL A   1      38.841  34.991  39.089  1.00  0.00     0.059 A 
ATOM     95  F   UNL A   1      38.402  32.845  38.256  1.00  0.00    -0.206 F 
ATOM     96  C   UNL A   1      39.498  36.215  38.962  1.00  0.00     0.060 A 
BRANCH  96  97
ATOM     97  S   UNL A   1      39.258  37.515  40.190  1.00  0.00     0.124 S 
ATOM     98  O   UNL A   1      38.911  36.741  41.376  1.00  0.00    -0.237 OA
ATOM     99  O   UNL A   1      40.568  38.161  40.215  1.00  0.00    -0.237 OA
ATOM    100  O   UNL A   1      38.178  38.322  39.628  1.00  0.00    -0.744 OA
ENDBRANCH  96  97
ENDBRANCH  64  89
ENDBRANCH  38  39
ENDBRANCH  30  33
ENDBRANCH  28  29
ENDBRANCH   1  28
TORSDOF 17
ENDMDL
MODEL 2
REMARK VINA RESULT:     -12.0      0.853      8.122
REMARK SMILES CC(C)CN(C)c1cc2c(cc1Cl)C=C(C(=O)NCCCNC(=O)c1ccc(-c3c4nc(c(-c5c(F)cc(S(=O)(=O)[O-])cc5F)c5ccc([nH]5)c(-c5c(F)cc(S(=O)(=O)[O-])cc5F)c5nc(c(-c6c(F)cc(S(=O)(=O)[O-])cc6F)c6ccc3[nH]6)C=C5)C=C4)cc1)[C@H](C(F)(F)F)O2
REMARK SMILES IDX 20 1 19 2 18 3 16 4 17 5 15 7 7 8 8 9 12 10 9 11 11 12 13 13
REMARK SMILES IDX 10 14 96 15 14 16 91 17 5 18 6 19 4 20 2 21 1 22 3 23 92 24
REMARK SMILES IDX 93 25 94 26 95 27 21 28 22 29 23 30 24 32 25 33 26 34 90 35
REMARK SMILES IDX 27 36 89 37 28 38 29 39 30 40 83 41 31 42 88 43 82 44 84 45
REMARK SMILES IDX 32 46 87 47 81 48 80 49 33 51 67 52 46 53 66 54 47 55 50 56
REMARK SMILES IDX 65 57 85 58 48 59 49 60 64 62 86 63 51 64 34 65 35 66 44 67
REMARK SMILES IDX 36 68 37 69 43 70 45 71 38 72 39 73 40 74 41 75 42 76 68 77
REMARK SMILES IDX 69 78 78 79 70 80 71 81 77 82 79 83 72 84 73 85 74 86 75 87
REMARK SMILES IDX 76 88 52 89 53 90 62 91 54 92 55 93 61 94 63 95 56 96 57 97
REMARK SMILES IDX 58 98 59 99 60 100
REMARK H PARENT 18 6 22 31 84 50 50 61
REMARK Flexibility Score: inf
ROOT
ATOM      1  C   UNL A   1      39.652  22.172  26.592  1.00  0.00     0.042 C 
ENDROOT
BRANCH   1   2
ATOM      2  C   UNL A   1      38.364  22.818  26.101  1.00  0.00     0.118 C 
BRANCH   2   3
ATOM      3  N   UNL A   1      37.462  21.816  25.563  1.00  0.00    -0.352 N 
ATOM      4  C   UNL A   1      36.138  21.738  25.305  1.00  0.00     0.251 C 
ATOM      5  O   UNL A   1      35.747  20.663  24.843  1.00  0.00    -0.270 OA
ATOM      6  H   UNL A   1      37.933  20.985  25.327  1.00  0.00     0.163 HD
BRANCH   4   7
ATOM      7  C   UNL A   1      35.179  22.864  25.482  1.00  0.00     0.067 C 
ATOM      8  C   UNL A   1      32.462  27.033  24.509  1.00  0.00     0.059 A 
ATOM      9  C   UNL A   1      32.560  26.136  25.587  1.00  0.00     0.074 A 
ATOM     10  C   UNL A   1      33.324  26.806  23.412  1.00  0.00     0.065 A 
ATOM     11  C   UNL A   1      33.438  25.050  25.558  1.00  0.00     0.130 A 
ATOM     12  C   UNL A   1      34.123  25.660  23.342  1.00  0.00     0.034 A 
ATOM     13  Cl  UNL A   1      33.532  27.955  22.134  1.00  0.00    -0.082 Cl
ATOM     14  C   UNL A   1      34.180  24.779  24.418  1.00  0.00     0.019 A 
ATOM     15  O   UNL A   1      33.521  24.321  26.700  1.00  0.00    -0.475 OA
ATOM     16  C   UNL A   1      35.044  23.616  24.377  1.00  0.00     0.025 C 
ATOM     17  C   UNL A   1      34.398  23.159  26.738  1.00  0.00     0.314 C 
BRANCH   8  18
ATOM     18  N   UNL A   1      31.537  28.092  24.548  1.00  0.00    -0.373 N 
ATOM     19  C   UNL A   1      30.495  28.047  23.519  1.00  0.00     0.143 C 
BRANCH  18  20
ATOM     20  C   UNL A   1      32.093  29.439  24.831  1.00  0.00     0.119 C 
BRANCH  20  21
ATOM     21  C   UNL A   1      32.021  29.821  26.323  1.00  0.00     0.002 C 
ATOM     22  C   UNL A   1      33.370  29.646  27.027  1.00  0.00     0.009 C 
ATOM     23  C   UNL A   1      31.547  31.264  26.519  1.00  0.00     0.009 C 
ENDBRANCH  20  21
ENDBRANCH  18  20
ENDBRANCH   8  18
BRANCH  17  24
ATOM     24  C   UNL A   1      33.561  21.986  27.278  1.00  0.00     0.429 C 
ATOM     25  F   UNL A   1      34.303  21.050  27.907  1.00  0.00    -0.167 F 
ATOM     26  F   UNL A   1      32.648  22.446  28.172  1.00  0.00    -0.167 F 
ATOM     27  F   UNL A   1      32.871  21.350  26.303  1.00  0.00    -0.167 F 
ENDBRANCH  17  24
ENDBRANCH   4   7
ENDBRANCH   2   3
ENDBRANCH   1   2
BRANCH   1  28
ATOM     28  C   UNL A   1      40.643  23.182  27.149  1.00  0.00     0.118 C 
BRANCH  28  29
ATOM     29  N   UNL A   1      41.279  23.961  26.094  1.00  0.00    -0.352 N 
ATOM     30  C   UNL A   1      41.576  25.302  26.052  1.00  0.00     0.251 C 
ATOM     31  H   UNL A   1      41.534  23.449  25.293  1.00  0.00     0.163 HD
ATOM     32  O   UNL A   1      41.880  25.821  24.978  1.00  0.00    -0.269 OA
BRANCH  30  33
ATOM     33  C   UNL A   1      41.507  26.120  27.283  1.00  0.00     0.039 A 
ATOM     34  C   UNL A   1      40.422  25.999  28.149  1.00  0.00     0.014 A 
ATOM     35  C   UNL A   1      42.534  27.021  27.578  1.00  0.00     0.014 A 
ATOM     36  C   UNL A   1      40.257  26.914  29.180  1.00  0.00     0.010 A 
ATOM     37  C   UNL A   1      42.427  27.855  28.697  1.00  0.00     0.010 A 
ATOM     38  C   UNL A   1      41.264  27.844  29.482  1.00  0.00    -0.014 A 
BRANCH  38  39
ATOM     39  C   UNL A   1      41.072  28.770  30.631  1.00  0.00     0.031 A 
ATOM     40  C   UNL A   1      39.977  29.806  30.615  1.00  0.00     0.074 A 
ATOM     41  C   UNL A   1      41.849  28.622  31.725  1.00  0.00     0.049 A 
ATOM     42  N   UNL A   1      39.667  30.688  31.533  1.00  0.00    -0.248 NA
ATOM     43  C   UNL A   1      39.117  29.865  29.422  1.00  0.00     0.031 C 
ATOM     44  C   UNL A   1      42.930  27.639  31.864  1.00  0.00     0.029 A 
ATOM     45  N   UNL A   1      41.834  29.262  32.937  1.00  0.00    -0.354 N 
ATOM     46  C   UNL A   1      38.591  31.407  31.028  1.00  0.00     0.074 A 
ATOM     47  C   UNL A   1      38.321  30.889  29.705  1.00  0.00     0.031 C 
ATOM     48  C   UNL A   1      43.419  27.692  33.110  1.00  0.00     0.029 A 
ATOM     49  C   UNL A   1      42.755  28.769  33.833  1.00  0.00     0.049 A 
ATOM     50  H   UNL A   1      41.222  30.004  33.147  1.00  0.00     0.167 HD
ATOM     51  C   UNL A   1      37.879  32.395  31.623  1.00  0.00     0.037 A 
ATOM     52  C   UNL A   1      43.051  29.152  35.089  1.00  0.00     0.037 A 
ATOM     53  C   UNL A   1      38.140  32.887  32.952  1.00  0.00     0.049 A 
ATOM     54  C   UNL A   1      42.293  30.302  35.693  1.00  0.00     0.074 A 
ATOM     55  C   UNL A   1      37.478  33.891  33.640  1.00  0.00     0.029 A 
ATOM     56  N   UNL A   1      39.127  32.407  33.799  1.00  0.00    -0.354 N 
ATOM     57  N   UNL A   1      41.290  30.981  35.189  1.00  0.00    -0.248 NA
ATOM     58  C   UNL A   1      42.714  30.748  37.027  1.00  0.00     0.031 C 
ATOM     59  C   UNL A   1      38.094  34.047  34.884  1.00  0.00     0.029 A 
ATOM     60  C   UNL A   1      39.103  33.104  34.995  1.00  0.00     0.049 A 
ATOM     61  H   UNL A   1      39.752  31.678  33.582  1.00  0.00     0.167 HD
ATOM     62  C   UNL A   1      40.944  31.916  36.156  1.00  0.00     0.074 A 
ATOM     63  C   UNL A   1      41.833  31.705  37.280  1.00  0.00     0.031 C 
ATOM     64  C   UNL A   1      39.980  32.868  36.114  1.00  0.00     0.037 A 
BRANCH  51  65
ATOM     65  C   UNL A   1      36.739  33.015  30.861  1.00  0.00     0.058 A 
ATOM     66  C   UNL A   1      35.404  32.719  31.174  1.00  0.00     0.135 A 
ATOM     67  C   UNL A   1      36.980  33.995  29.884  1.00  0.00     0.135 A 
ATOM     68  F   UNL A   1      35.114  31.778  32.086  1.00  0.00    -0.206 F 
ATOM     69  C   UNL A   1      34.347  33.373  30.548  1.00  0.00     0.059 A 
ATOM     70  C   UNL A   1      35.939  34.680  29.262  1.00  0.00     0.059 A 
ATOM     71  F   UNL A   1      38.238  34.315  29.544  1.00  0.00    -0.206 F 
ATOM     72  C   UNL A   1      34.626  34.362  29.601  1.00  0.00     0.060 A 
BRANCH  72  73
ATOM     73  S   UNL A   1      33.240  35.235  28.840  1.00  0.00     0.124 S 
ATOM     74  O   UNL A   1      32.672  34.196  27.985  1.00  0.00    -0.237 OA
ATOM     75  O   UNL A   1      32.437  35.611  29.998  1.00  0.00    -0.237 OA
ATOM     76  O   UNL A   1      33.879  36.342  28.136  1.00  0.00    -0.744 OA
ENDBRANCH  72  73
ENDBRANCH  51  65
BRANCH  52  77
ATOM     77  C   UNL A   1      44.120  28.456  35.855  1.00  0.00     0.058 A 
ATOM     78  C   UNL A   1      45.465  28.830  35.722  1.00  0.00     0.135 A 
ATOM     79  C   UNL A   1      43.822  27.398  36.729  1.00  0.00     0.135 A 
ATOM     80  F   UNL A   1      45.803  29.833  34.896  1.00  0.00    -0.206 F 
ATOM     81  C   UNL A   1      46.478  28.166  36.405  1.00  0.00     0.059 A 
ATOM     82  C   UNL A   1      44.814  26.740  37.449  1.00  0.00     0.059 A 
ATOM     83  F   UNL A   1      42.550  27.008  36.908  1.00  0.00    -0.206 F 
ATOM     84  C   UNL A   1      46.142  27.120  37.267  1.00  0.00     0.060 A 
BRANCH  84  85
ATOM     85  S   UNL A   1      47.464  26.273  38.155  1.00  0.00     0.124 S 
ATOM     86  O   UNL A   1      48.594  27.163  37.916  1.00  0.00    -0.237 OA
ATOM     87  O   UNL A   1      46.947  26.248  39.520  1.00  0.00    -0.237 OA
ATOM     88  O   UNL A   1      47.535  24.973  37.495  1.00  0.00    -0.744 OA
ENDBRANCH  84  85
ENDBRANCH  52  77
BRANCH  64  89
ATOM     89  C   UNL A   1      39.802  33.733  37.330  1.00  0.00     0.058 A 
ATOM     90  C   UNL A   1      40.448  34.972  37.452  1.00  0.00     0.135 A 
ATOM     91  C   UNL A   1      38.914  33.350  38.348  1.00  0.00     0.135 A 
ATOM     92  F   UNL A   1      41.313  35.380  36.511  1.00  0.00    -0.206 F 
ATOM     93  C   UNL A   1      40.228  35.798  38.549  1.00  0.00     0.059 A 
ATOM     94  C   UNL A   1      38.655  34.173  39.439  1.00  0.00     0.059 A 
ATOM     95  F   UNL A   1      38.265  32.177  38.274  1.00  0.00    -0.206 F 
ATOM     96  C   UNL A   1      39.323  35.394  39.533  1.00  0.00     0.060 A 
BRANCH  96  97
ATOM     97  S   UNL A   1      39.009  36.504  40.921  1.00  0.00     0.124 S 
ATOM     98  O   UNL A   1      40.332  36.602  41.527  1.00  0.00    -0.237 OA
ATOM     99  O   UNL A   1      38.529  37.709  40.250  1.00  0.00    -0.237 OA
ATOM    100  O   UNL A   1      38.008  35.792  41.710  1.00  0.00    -0.744 OA
ENDBRANCH  96  97
ENDBRANCH  64  89
ENDBRANCH  38  39
ENDBRANCH  30  33
ENDBRANCH  28  29
ENDBRANCH   1  28
TORSDOF 17
ENDMDL
MODEL 3
REMARK VINA RESULT:     -11.9      6.543     11.465
REMARK SMILES CC(C)CN(C)c1cc2c(cc1Cl)C=C(C(=O)NCCCNC(=O)c1ccc(-c3c4nc(c(-c5c(F)cc(S(=O)(=O)[O-])cc5F)c5ccc([nH]5)c(-c5c(F)cc(S(=O)(=O)[O-])cc5F)c5nc(c(-c6c(F)cc(S(=O)(=O)[O-])cc6F)c6ccc3[nH]6)C=C5)C=C4)cc1)[C@H](C(F)(F)F)O2
REMARK SMILES IDX 20 1 19 2 18 3 16 4 17 5 15 7 7 8 8 9 12 10 9 11 11 12 13 13
REMARK SMILES IDX 10 14 96 15 14 16 91 17 5 18 6 19 4 20 2 21 1 22 3 23 92 24
REMARK SMILES IDX 93 25 94 26 95 27 21 28 22 29 23 30 24 32 25 33 26 34 90 35
REMARK SMILES IDX 27 36 89 37 28 38 29 39 30 40 83 41 31 42 88 43 82 44 84 45
REMARK SMILES IDX 32 46 87 47 81 48 80 49 33 51 67 52 46 53 66 54 47 55 50 56
REMARK SMILES IDX 65 57 85 58 48 59 49 60 64 62 86 63 51 64 34 65 35 66 44 67
REMARK SMILES IDX 36 68 37 69 43 70 45 71 38 72 39 73 40 74 41 75 42 76 68 77
REMARK SMILES IDX 69 78 78 79 70 80 71 81 77 82 79 83 72 84 73 85 74 86 75 87
REMARK SMILES IDX 76 88 52 89 53 90 62 91 54 92 55 93 61 94 63 95 56 96 57 97
REMARK SMILES IDX 58 98 59 99 60 100
REMARK H PARENT 18 6 22 31 84 50 50 61
REMARK Flexibility Score: inf
ROOT
ATOM      1  C   UNL A   1      33.845  28.934  27.309  1.00  0.00     0.042 C 
ENDROOT
BRANCH   1   2
ATOM      2  C   UNL A   1      32.785  29.628  26.465  1.00  0.00     0.118 C 
BRANCH   2   3
ATOM      3  N   UNL A   1      33.194  29.680  25.072  1.00  0.00    -0.352 N 
ATOM      4  C   UNL A   1      33.362  28.784  24.075  1.00  0.00     0.251 C 
ATOM      5  O   UNL A   1      33.749  29.250  22.999  1.00  0.00    -0.270 OA
ATOM      6  H   UNL A   1      33.400  30.598  24.783  1.00  0.00     0.163 HD
BRANCH   4   7
ATOM      7  C   UNL A   1      33.050  27.332  24.186  1.00  0.00     0.067 C 
ATOM      8  C   UNL A   1      33.595  22.378  25.120  1.00  0.00     0.059 A 
ATOM      9  C   UNL A   1      32.547  23.197  24.666  1.00  0.00     0.074 A 
ATOM     10  C   UNL A   1      34.838  23.008  25.357  1.00  0.00     0.065 A 
ATOM     11  C   UNL A   1      32.715  24.574  24.498  1.00  0.00     0.130 A 
ATOM     12  C   UNL A   1      34.971  24.399  25.288  1.00  0.00     0.034 A 
ATOM     13  Cl  UNL A   1      36.295  22.120  25.650  1.00  0.00    -0.082 Cl
ATOM     14  C   UNL A   1      33.907  25.184  24.858  1.00  0.00     0.019 A 
ATOM     15  O   UNL A   1      31.664  25.239  23.951  1.00  0.00    -0.475 OA
ATOM     16  C   UNL A   1      34.050  26.621  24.734  1.00  0.00     0.025 C 
ATOM     17  C   UNL A   1      31.756  26.680  23.765  1.00  0.00     0.314 C 
BRANCH   8  18
ATOM     18  N   UNL A   1      33.385  21.002  25.323  1.00  0.00    -0.373 N 
ATOM     19  C   UNL A   1      33.405  20.569  26.723  1.00  0.00     0.143 C 
BRANCH  18  20
ATOM     20  C   UNL A   1      34.052  20.087  24.364  1.00  0.00     0.119 C 
BRANCH  20  21
ATOM     21  C   UNL A   1      33.516  18.643  24.432  1.00  0.00     0.002 C 
ATOM     22  C   UNL A   1      32.534  18.340  23.297  1.00  0.00     0.009 C 
ATOM     23  C   UNL A   1      34.649  17.613  24.392  1.00  0.00     0.009 C 
ENDBRANCH  20  21
ENDBRANCH  18  20
ENDBRANCH   8  18
BRANCH  17  24
ATOM     24  C   UNL A   1      30.486  27.292  24.384  1.00  0.00     0.429 C 
ATOM     25  F   UNL A   1      30.570  27.446  25.723  1.00  0.00    -0.167 F 
ATOM     26  F   UNL A   1      30.261  28.520  23.851  1.00  0.00    -0.167 F 
ATOM     27  F   UNL A   1      29.382  26.549  24.142  1.00  0.00    -0.167 F 
ENDBRANCH  17  24
ENDBRANCH   4   7
ENDBRANCH   2   3
ENDBRANCH   1   2
BRANCH   1  28
ATOM     28  C   UNL A   1      35.117  29.755  27.448  1.00  0.00     0.118 C 
BRANCH  28  29
ATOM     29  N   UNL A   1      35.177  30.453  28.726  1.00  0.00    -0.352 N 
ATOM     30  C   UNL A   1      36.176  30.467  29.671  1.00  0.00     0.251 C 
ATOM     31  H   UNL A   1      34.385  30.994  28.945  1.00  0.00     0.163 HD
ATOM     32  O   UNL A   1      35.939  30.908  30.795  1.00  0.00    -0.269 OA
BRANCH  30  33
ATOM     33  C   UNL A   1      37.518  29.935  29.346  1.00  0.00     0.039 A 
ATOM     34  C   UNL A   1      38.334  29.420  30.351  1.00  0.00     0.014 A 
ATOM     35  C   UNL A   1      37.972  29.953  28.024  1.00  0.00     0.014 A 
ATOM     36  C   UNL A   1      39.662  29.124  30.078  1.00  0.00     0.010 A 
ATOM     37  C   UNL A   1      39.273  29.529  27.729  1.00  0.00     0.010 A 
ATOM     38  C   UNL A   1      40.148  29.157  28.761  1.00  0.00    -0.014 A 
BRANCH  38  39
ATOM     39  C   UNL A   1      41.564  28.779  28.503  1.00  0.00     0.031 A 
ATOM     40  C   UNL A   1      41.930  27.369  28.115  1.00  0.00     0.074 A 
ATOM     41  C   UNL A   1      42.514  29.737  28.550  1.00  0.00     0.049 A 
ATOM     42  N   UNL A   1      43.112  26.871  27.850  1.00  0.00    -0.248 NA
ATOM     43  C   UNL A   1      40.836  26.390  28.009  1.00  0.00     0.031 C 
ATOM     44  C   UNL A   1      42.276  31.143  28.895  1.00  0.00     0.029 A 
ATOM     45  N   UNL A   1      43.857  29.693  28.276  1.00  0.00    -0.354 N 
ATOM     46  C   UNL A   1      42.906  25.528  27.557  1.00  0.00     0.074 A 
ATOM     47  C   UNL A   1      41.491  25.274  27.714  1.00  0.00     0.031 C 
ATOM     48  C   UNL A   1      43.413  31.836  28.738  1.00  0.00     0.029 A 
ATOM     49  C   UNL A   1      44.481  30.915  28.371  1.00  0.00     0.049 A 
ATOM     50  H   UNL A   1      44.330  28.864  28.032  1.00  0.00     0.167 HD
ATOM     51  C   UNL A   1      43.813  24.597  27.171  1.00  0.00     0.037 A 
ATOM     52  C   UNL A   1      45.772  31.259  28.205  1.00  0.00     0.037 A 
ATOM     53  C   UNL A   1      45.217  24.866  26.993  1.00  0.00     0.049 A 
ATOM     54  C   UNL A   1      46.766  30.187  27.851  1.00  0.00     0.074 A 
ATOM     55  C   UNL A   1      46.217  23.987  26.611  1.00  0.00     0.029 A 
ATOM     56  N   UNL A   1      45.819  26.103  27.168  1.00  0.00    -0.354 N 
ATOM     57  N   UNL A   1      46.551  28.918  27.597  1.00  0.00    -0.248 NA
ATOM     58  C   UNL A   1      48.176  30.588  27.775  1.00  0.00     0.031 C 
ATOM     59  C   UNL A   1      47.429  24.681  26.600  1.00  0.00     0.029 A 
ATOM     60  C   UNL A   1      47.178  26.006  26.919  1.00  0.00     0.049 A 
ATOM     61  H   UNL A   1      45.350  26.928  27.431  1.00  0.00     0.167 HD
ATOM     62  C   UNL A   1      47.796  28.376  27.305  1.00  0.00     0.074 A 
ATOM     63  C   UNL A   1      48.757  29.457  27.398  1.00  0.00     0.031 C 
ATOM     64  C   UNL A   1      48.117  27.097  26.993  1.00  0.00     0.037 A 
BRANCH  51  65
ATOM     65  C   UNL A   1      43.331  23.197  26.901  1.00  0.00     0.058 A 
ATOM     66  C   UNL A   1      43.283  22.679  25.598  1.00  0.00     0.135 A 
ATOM     67  C   UNL A   1      43.020  22.330  27.961  1.00  0.00     0.135 A 
ATOM     68  F   UNL A   1      43.553  23.468  24.545  1.00  0.00    -0.206 F 
ATOM     69  C   UNL A   1      42.945  21.352  25.353  1.00  0.00     0.059 A 
ATOM     70  C   UNL A   1      42.703  20.991  27.743  1.00  0.00     0.059 A 
ATOM     71  F   UNL A   1      43.047  22.773  29.227  1.00  0.00    -0.206 F 
ATOM     72  C   UNL A   1      42.669  20.512  26.434  1.00  0.00     0.060 A 
BRANCH  72  73
ATOM     73  S   UNL A   1      42.284  18.780  26.098  1.00  0.00     0.124 S 
ATOM     74  O   UNL A   1      42.557  18.161  27.392  1.00  0.00    -0.237 OA
ATOM     75  O   UNL A   1      40.879  18.844  25.710  1.00  0.00    -0.237 OA
ATOM     76  O   UNL A   1      43.212  18.425  25.028  1.00  0.00    -0.744 OA
ENDBRANCH  72  73
ENDBRANCH  51  65
BRANCH  52  77
ATOM     77  C   UNL A   1      46.204  32.671  28.385  1.00  0.00     0.058 A 
ATOM     78  C   UNL A   1      46.633  33.141  29.635  1.00  0.00     0.135 A 
ATOM     79  C   UNL A   1      46.189  33.582  27.316  1.00  0.00     0.135 A 
ATOM     80  F   UNL A   1      46.662  32.313  30.690  1.00  0.00    -0.206 F 
ATOM     81  C   UNL A   1      47.006  34.467  29.826  1.00  0.00     0.059 A 
ATOM     82  C   UNL A   1      46.589  34.904  27.474  1.00  0.00     0.059 A 
ATOM     83  F   UNL A   1      45.802  33.182  26.095  1.00  0.00    -0.206 F 
ATOM     84  C   UNL A   1      46.980  35.342  28.738  1.00  0.00     0.060 A 
BRANCH  84  85
ATOM     85  S   UNL A   1      47.477  37.058  28.996  1.00  0.00     0.124 S 
ATOM     86  O   UNL A   1      46.629  37.755  28.036  1.00  0.00    -0.237 OA
ATOM     87  O   UNL A   1      47.150  37.262  30.404  1.00  0.00    -0.237 OA
ATOM     88  O   UNL A   1      48.903  37.046  28.687  1.00  0.00    -0.744 OA
ENDBRANCH  84  85
ENDBRANCH  52  77
BRANCH  64  89
ATOM     89  C   UNL A   1      49.558  26.794  26.689  1.00  0.00     0.058 A 
ATOM     90  C   UNL A   1      50.439  26.341  27.682  1.00  0.00     0.135 A 
ATOM     91  C   UNL A   1      50.038  26.885  25.373  1.00  0.00     0.135 A 
ATOM     92  F   UNL A   1      50.032  26.245  28.957  1.00  0.00    -0.206 F 
ATOM     93  C   UNL A   1      51.753  25.999  27.381  1.00  0.00     0.059 A 
ATOM     94  C   UNL A   1      51.339  26.520  25.044  1.00  0.00     0.059 A 
ATOM     95  F   UNL A   1      49.232  27.306  24.386  1.00  0.00    -0.206 F 
ATOM     96  C   UNL A   1      52.192  26.083  26.058  1.00  0.00     0.060 A 
BRANCH  96  97
ATOM     97  S   UNL A   1      53.884  25.582  25.679  1.00  0.00     0.124 S 
ATOM     98  O   UNL A   1      54.380  25.197  26.995  1.00  0.00    -0.237 OA
ATOM     99  O   UNL A   1      53.677  24.488  24.734  1.00  0.00    -0.237 OA
ATOM    100  O   UNL A   1      54.479  26.789  25.112  1.00  0.00    -0.744 OA
ENDBRANCH  96  97
ENDBRANCH  64  89
ENDBRANCH  38  39
ENDBRANCH  30  33
ENDBRANCH  28  29
ENDBRANCH   1  28
TORSDOF 17
ENDMDL
