MODEL 1
REMARK VINA RESULT:     -11.8      0.000      0.000
REMARK SMILES CC(C)[NH2+][C@@]1(C(=O)NCCCNC(=O)c2ccc(-c3c4nc(c(-c5c(F)cc(S(=O)(=O)[O-])cc5F)c5ccc([nH]5)c(-c5c(F)cc(S(=O)(=O)[O-])cc5F)c5nc(c(-c6c(F)cc(S(=O)(=O)[O-])cc6F)c6ccc3[nH]6)C=C5)C=C4)cc2)CC[C@H](Oc2ccccc2F)C1
REMARK SMILES IDX 10 1 9 2 8 3 6 4 7 5 5 7 81 8 92 9 82 10 83 11 4 12 2 15
REMARK SMILES IDX 1 16 3 17 84 18 85 19 86 20 90 21 87 22 89 23 91 24 88 25
REMARK SMILES IDX 11 26 12 27 13 28 14 30 15 31 16 32 80 33 17 34 79 35 18 36
REMARK SMILES IDX 19 37 20 38 73 39 21 40 78 41 72 42 74 43 22 44 77 45 71 46
REMARK SMILES IDX 70 47 23 49 57 50 36 51 56 52 37 53 40 54 55 55 75 56 38 57
REMARK SMILES IDX 39 58 54 60 76 61 41 62 24 63 25 64 34 65 26 66 27 67 33 68
REMARK SMILES IDX 35 69 28 70 29 71 30 72 31 73 32 74 58 75 59 76 68 77 60 78
REMARK SMILES IDX 61 79 67 80 69 81 62 82 63 83 64 84 65 85 66 86 42 87 43 88
REMARK SMILES IDX 52 89 44 90 45 91 51 92 53 93 46 94 47 95 48 96 49 97 50 98
REMARK H PARENT 8 6 4 13 4 14 12 29 74 48 40 59
REMARK Flexibility Score: inf
ROOT
ATOM      1  C   UNL A   1      33.977  28.098  26.135  1.00  0.00     0.042 C 
ENDROOT
BRANCH   1   2
ATOM      2  C   UNL A   1      33.601  26.696  25.699  1.00  0.00     0.118 C 
BRANCH   2   3
ATOM      3  N   UNL A   1      32.322  26.298  26.231  1.00  0.00    -0.351 N 
ATOM      4  C   UNL A   1      31.106  26.131  25.654  1.00  0.00     0.281 C 
ATOM      5  O   UNL A   1      30.181  25.978  26.468  1.00  0.00    -0.268 OA
ATOM      6  H   UNL A   1      32.332  26.114  27.198  1.00  0.00     0.163 HD
BRANCH   4   7
ATOM      7  C   UNL A   1      30.818  26.156  24.080  1.00  0.00     0.179 C 
ATOM      8  C   UNL A   1      31.889  26.922  23.296  1.00  0.00     0.083 C 
ATOM      9  C   UNL A   1      29.479  26.864  23.802  1.00  0.00     0.124 C 
ATOM     10  C   UNL A   1      31.239  28.166  22.698  1.00  0.00     0.052 C 
ATOM     11  C   UNL A   1      29.723  28.039  22.833  1.00  0.00     0.180 C 
BRANCH   7  12
ATOM     12  N   UNL A   1      30.764  24.720  23.740  1.00  0.00    -0.332 N 
ATOM     13  H   UNL A   1      29.929  24.366  24.208  1.00  0.00     0.347 HD
ATOM     14  H   UNL A   1      30.845  24.779  22.725  1.00  0.00     0.347 HD
BRANCH  12  15
ATOM     15  C   UNL A   1      31.793  23.739  24.011  1.00  0.00     0.176 C 
ATOM     16  C   UNL A   1      31.181  22.708  24.969  1.00  0.00     0.075 C 
ATOM     17  C   UNL A   1      32.323  23.037  22.768  1.00  0.00     0.075 C 
ENDBRANCH  12  15
ENDBRANCH   7  12
BRANCH  11  18
ATOM     18  O   UNL A   1      28.982  29.145  23.359  1.00  0.00    -0.487 OA
BRANCH  18  19
ATOM     19  C   UNL A   1      28.593  30.239  22.650  1.00  0.00     0.155 A 
ATOM     20  C   UNL A   1      28.049  30.250  21.371  1.00  0.00     0.049 A 
ATOM     21  C   UNL A   1      28.832  31.472  23.278  1.00  0.00     0.165 A 
ATOM     22  C   UNL A   1      27.897  31.463  20.683  1.00  0.00     0.004 A 
ATOM     23  C   UNL A   1      28.679  32.681  22.607  1.00  0.00     0.043 A 
ATOM     24  F   UNL A   1      29.303  31.501  24.537  1.00  0.00    -0.203 F 
ATOM     25  C   UNL A   1      28.236  32.674  21.289  1.00  0.00     0.003 A 
ENDBRANCH  18  19
ENDBRANCH  11  18
ENDBRANCH   4   7
ENDBRANCH   2   3
ENDBRANCH   1   2
BRANCH   1  26
ATOM     26  C   UNL A   1      33.363  28.519  27.458  1.00  0.00     0.118 C 
BRANCH  26  27
ATOM     27  N   UNL A   1      33.485  29.956  27.679  1.00  0.00    -0.352 N 
ATOM     28  C   UNL A   1      34.498  30.730  28.187  1.00  0.00     0.251 C 
ATOM     29  H   UNL A   1      32.687  30.468  27.414  1.00  0.00     0.163 HD
ATOM     30  O   UNL A   1      34.234  31.893  28.491  1.00  0.00    -0.269 OA
BRANCH  28  31
ATOM     31  C   UNL A   1      35.881  30.223  28.371  1.00  0.00     0.039 A 
ATOM     32  C   UNL A   1      36.242  29.698  29.620  1.00  0.00     0.014 A 
ATOM     33  C   UNL A   1      36.858  30.337  27.383  1.00  0.00     0.014 A 
ATOM     34  C   UNL A   1      37.556  29.278  29.858  1.00  0.00     0.010 A 
ATOM     35  C   UNL A   1      38.126  29.799  27.574  1.00  0.00     0.010 A 
ATOM     36  C   UNL A   1      38.507  29.312  28.830  1.00  0.00    -0.014 A 
BRANCH  36  37
ATOM     37  C   UNL A   1      39.931  28.951  29.058  1.00  0.00     0.031 A 
ATOM     38  C   UNL A   1      40.875  29.985  29.624  1.00  0.00     0.074 A 
ATOM     39  C   UNL A   1      40.389  27.735  28.702  1.00  0.00     0.049 A 
ATOM     40  N   UNL A   1      42.171  29.923  29.792  1.00  0.00    -0.248 NA
ATOM     41  C   UNL A   1      40.289  31.279  30.015  1.00  0.00     0.031 C 
ATOM     42  C   UNL A   1      39.586  26.668  28.102  1.00  0.00     0.029 A 
ATOM     43  N   UNL A   1      41.647  27.196  28.789  1.00  0.00    -0.354 N 
ATOM     44  C   UNL A   1      42.553  31.173  30.270  1.00  0.00     0.074 A 
ATOM     45  C   UNL A   1      41.364  31.993  30.305  1.00  0.00     0.031 C 
ATOM     46  C   UNL A   1      40.366  25.593  27.897  1.00  0.00     0.029 A 
ATOM     47  C   UNL A   1      41.729  25.907  28.317  1.00  0.00     0.049 A 
ATOM     48  H   UNL A   1      42.419  27.685  29.153  1.00  0.00     0.167 HD
ATOM     49  C   UNL A   1      43.774  31.591  30.678  1.00  0.00     0.037 A 
ATOM     50  C   UNL A   1      42.786  25.076  28.230  1.00  0.00     0.037 A 
ATOM     51  C   UNL A   1      44.941  30.749  30.695  1.00  0.00     0.049 A 
ATOM     52  C   UNL A   1      44.127  25.548  28.725  1.00  0.00     0.074 A 
ATOM     53  C   UNL A   1      46.216  31.050  31.138  1.00  0.00     0.029 A 
ATOM     54  N   UNL A   1      44.968  29.431  30.260  1.00  0.00    -0.354 N 
ATOM     55  N   UNL A   1      44.461  26.719  29.215  1.00  0.00    -0.248 NA
ATOM     56  C   UNL A   1      45.232  24.582  28.670  1.00  0.00     0.031 C 
ATOM     57  C   UNL A   1      47.021  29.923  30.944  1.00  0.00     0.029 A 
ATOM     58  C   UNL A   1      46.237  28.906  30.424  1.00  0.00     0.049 A 
ATOM     59  H   UNL A   1      44.197  28.943  29.890  1.00  0.00     0.167 HD
ATOM     60  C   UNL A   1      45.804  26.618  29.561  1.00  0.00     0.074 A 
ATOM     61  C   UNL A   1      46.218  25.270  29.230  1.00  0.00     0.031 C 
ATOM     62  C   UNL A   1      46.620  27.553  30.108  1.00  0.00     0.037 A 
BRANCH  49  63
ATOM     63  C   UNL A   1      43.902  33.013  31.156  1.00  0.00     0.058 A 
ATOM     64  C   UNL A   1      43.616  33.375  32.483  1.00  0.00     0.135 A 
ATOM     65  C   UNL A   1      44.330  34.026  30.283  1.00  0.00     0.135 A 
ATOM     66  F   UNL A   1      43.186  32.452  33.358  1.00  0.00    -0.206 F 
ATOM     67  C   UNL A   1      43.713  34.693  32.917  1.00  0.00     0.059 A 
ATOM     68  C   UNL A   1      44.465  35.347  30.704  1.00  0.00     0.059 A 
ATOM     69  F   UNL A   1      44.619  33.740  29.003  1.00  0.00    -0.206 F 
ATOM     70  C   UNL A   1      44.137  35.674  32.018  1.00  0.00     0.060 A 
BRANCH  70  71
ATOM     71  S   UNL A   1      44.256  37.379  32.598  1.00  0.00     0.124 S 
ATOM     72  O   UNL A   1      45.658  37.452  32.999  1.00  0.00    -0.237 OA
ATOM     73  O   UNL A   1      43.897  38.141  31.407  1.00  0.00    -0.237 OA
ATOM     74  O   UNL A   1      43.288  37.434  33.690  1.00  0.00    -0.744 OA
ENDBRANCH  70  71
ENDBRANCH  49  63
BRANCH  50  75
ATOM     75  C   UNL A   1      42.609  23.698  27.698  1.00  0.00     0.058 A 
ATOM     76  C   UNL A   1      42.654  23.450  26.317  1.00  0.00     0.135 A 
ATOM     77  C   UNL A   1      42.405  22.603  28.551  1.00  0.00     0.135 A 
ATOM     78  F   UNL A   1      42.844  24.465  25.460  1.00  0.00    -0.206 F 
ATOM     79  C   UNL A   1      42.480  22.171  25.800  1.00  0.00     0.059 A 
ATOM     80  C   UNL A   1      42.256  21.310  28.059  1.00  0.00     0.059 A 
ATOM     81  F   UNL A   1      42.375  22.784  29.881  1.00  0.00    -0.206 F 
ATOM     82  C   UNL A   1      42.282  21.106  26.679  1.00  0.00     0.060 A 
BRANCH  82  83
ATOM     83  S   UNL A   1      42.098  19.443  25.998  1.00  0.00     0.124 S 
ATOM     84  O   UNL A   1      42.958  19.512  24.821  1.00  0.00    -0.237 OA
ATOM     85  O   UNL A   1      42.580  18.608  27.093  1.00  0.00    -0.237 OA
ATOM     86  O   UNL A   1      40.667  19.348  25.730  1.00  0.00    -0.744 OA
ENDBRANCH  82  83
ENDBRANCH  50  75
BRANCH  62  87
ATOM     87  C   UNL A   1      48.024  27.133  30.441  1.00  0.00     0.058 A 
ATOM     88  C   UNL A   1      49.072  27.243  29.515  1.00  0.00     0.135 A 
ATOM     89  C   UNL A   1      48.331  26.659  31.727  1.00  0.00     0.135 A 
ATOM     90  F   UNL A   1      48.830  27.689  28.271  1.00  0.00    -0.206 F 
ATOM     91  C   UNL A   1      50.370  26.868  29.841  1.00  0.00     0.059 A 
ATOM     92  C   UNL A   1      49.627  26.305  32.085  1.00  0.00     0.059 A 
ATOM     93  F   UNL A   1      47.367  26.548  32.655  1.00  0.00    -0.206 F 
ATOM     94  C   UNL A   1      50.638  26.400  31.129  1.00  0.00     0.060 A 
BRANCH  94  95
ATOM     95  S   UNL A   1      52.332  25.938  31.549  1.00  0.00     0.124 S 
ATOM     96  O   UNL A   1      52.662  26.927  32.569  1.00  0.00    -0.237 OA
ATOM     97  O   UNL A   1      52.175  24.566  32.023  1.00  0.00    -0.237 OA
ATOM     98  O   UNL A   1      53.046  26.079  30.283  1.00  0.00    -0.744 OA
ENDBRANCH  94  95
ENDBRANCH  62  87
ENDBRANCH  36  37
ENDBRANCH  28  31
ENDBRANCH  26  27
ENDBRANCH   1  26
TORSDOF 17
ENDMDL
MODEL 2
REMARK VINA RESULT:     -11.5      1.275      2.459
REMARK SMILES CC(C)[NH2+][C@@]1(C(=O)NCCCNC(=O)c2ccc(-c3c4nc(c(-c5c(F)cc(S(=O)(=O)[O-])cc5F)c5ccc([nH]5)c(-c5c(F)cc(S(=O)(=O)[O-])cc5F)c5nc(c(-c6c(F)cc(S(=O)(=O)[O-])cc6F)c6ccc3[nH]6)C=C5)C=C4)cc2)CC[C@H](Oc2ccccc2F)C1
REMARK SMILES IDX 10 1 9 2 8 3 6 4 7 5 5 7 81 8 92 9 82 10 83 11 4 12 2 15
REMARK SMILES IDX 1 16 3 17 84 18 85 19 86 20 90 21 87 22 89 23 91 24 88 25
REMARK SMILES IDX 11 26 12 27 13 28 14 30 15 31 16 32 80 33 17 34 79 35 18 36
REMARK SMILES IDX 19 37 20 38 73 39 21 40 78 41 72 42 74 43 22 44 77 45 71 46
REMARK SMILES IDX 70 47 23 49 57 50 36 51 56 52 37 53 40 54 55 55 75 56 38 57
REMARK SMILES IDX 39 58 54 60 76 61 41 62 24 63 25 64 34 65 26 66 27 67 33 68
REMARK SMILES IDX 35 69 28 70 29 71 30 72 31 73 32 74 58 75 59 76 68 77 60 78
REMARK SMILES IDX 61 79 67 80 69 81 62 82 63 83 64 84 65 85 66 86 42 87 43 88
REMARK SMILES IDX 52 89 44 90 45 91 51 92 53 93 46 94 47 95 48 96 49 97 50 98
REMARK H PARENT 8 6 4 13 4 14 12 29 74 48 40 59
REMARK Flexibility Score: inf
ROOT
ATOM      1  C   UNL A   1      31.888  27.900  27.430  1.00  0.00     0.042 C 
ENDROOT
BRANCH   1   2
ATOM      2  C   UNL A   1      31.370  27.083  26.263  1.00  0.00     0.118 C 
BRANCH   2   3
ATOM      3  N   UNL A   1      30.943  25.772  26.680  1.00  0.00    -0.351 N 
ATOM      4  C   UNL A   1      31.313  24.526  26.291  1.00  0.00     0.281 C 
ATOM      5  O   UNL A   1      30.578  23.625  26.728  1.00  0.00    -0.268 OA
ATOM      6  H   UNL A   1      30.251  25.781  27.379  1.00  0.00     0.163 HD
BRANCH   4   7
ATOM      7  C   UNL A   1      32.547  24.184  25.331  1.00  0.00     0.179 C 
ATOM      8  C   UNL A   1      33.705  25.176  25.482  1.00  0.00     0.083 C 
ATOM      9  C   UNL A   1      32.101  24.251  23.859  1.00  0.00     0.124 C 
ATOM     10  C   UNL A   1      33.841  25.949  24.174  1.00  0.00     0.052 C 
ATOM     11  C   UNL A   1      32.996  25.255  23.106  1.00  0.00     0.180 C 
BRANCH   7  12
ATOM     12  N   UNL A   1      32.900  22.809  25.739  1.00  0.00    -0.332 N 
ATOM     13  H   UNL A   1      33.661  22.917  26.410  1.00  0.00     0.347 HD
ATOM     14  H   UNL A   1      31.977  22.464  26.002  1.00  0.00     0.347 HD
BRANCH  12  15
ATOM     15  C   UNL A   1      33.319  21.739  24.860  1.00  0.00     0.176 C 
ATOM     16  C   UNL A   1      34.825  21.922  24.626  1.00  0.00     0.075 C 
ATOM     17  C   UNL A   1      33.049  20.344  25.408  1.00  0.00     0.075 C 
ENDBRANCH  12  15
ENDBRANCH   7  12
BRANCH  11  18
ATOM     18  O   UNL A   1      32.114  26.047  22.303  1.00  0.00    -0.487 OA
BRANCH  18  19
ATOM     19  C   UNL A   1      31.187  26.921  22.779  1.00  0.00     0.155 A 
ATOM     20  C   UNL A   1      29.908  26.613  23.227  1.00  0.00     0.049 A 
ATOM     21  C   UNL A   1      31.570  28.271  22.748  1.00  0.00     0.165 A 
ATOM     22  C   UNL A   1      28.988  27.641  23.485  1.00  0.00     0.004 A 
ATOM     23  C   UNL A   1      30.669  29.297  23.008  1.00  0.00     0.043 A 
ATOM     24  F   UNL A   1      32.819  28.603  22.375  1.00  0.00    -0.203 F 
ATOM     25  C   UNL A   1      29.359  28.979  23.351  1.00  0.00     0.003 A 
ENDBRANCH  18  19
ENDBRANCH  11  18
ENDBRANCH   4   7
ENDBRANCH   2   3
ENDBRANCH   1   2
BRANCH   1  26
ATOM     26  C   UNL A   1      33.301  28.421  27.241  1.00  0.00     0.118 C 
BRANCH  26  27
ATOM     27  N   UNL A   1      33.390  29.854  27.498  1.00  0.00    -0.352 N 
ATOM     28  C   UNL A   1      34.377  30.636  28.045  1.00  0.00     0.251 C 
ATOM     29  H   UNL A   1      32.589  30.358  27.226  1.00  0.00     0.163 HD
ATOM     30  O   UNL A   1      34.083  31.786  28.370  1.00  0.00    -0.269 OA
BRANCH  28  31
ATOM     31  C   UNL A   1      35.765  30.150  28.250  1.00  0.00     0.039 A 
ATOM     32  C   UNL A   1      36.133  29.686  29.521  1.00  0.00     0.014 A 
ATOM     33  C   UNL A   1      36.739  30.227  27.256  1.00  0.00     0.014 A 
ATOM     34  C   UNL A   1      37.450  29.289  29.775  1.00  0.00     0.010 A 
ATOM     35  C   UNL A   1      38.012  29.711  27.469  1.00  0.00     0.010 A 
ATOM     36  C   UNL A   1      38.400  29.285  28.745  1.00  0.00    -0.014 A 
BRANCH  36  37
ATOM     37  C   UNL A   1      39.827  28.949  28.986  1.00  0.00     0.031 A 
ATOM     38  C   UNL A   1      40.749  29.998  29.562  1.00  0.00     0.074 A 
ATOM     39  C   UNL A   1      40.309  27.741  28.634  1.00  0.00     0.049 A 
ATOM     40  N   UNL A   1      42.044  29.957  29.742  1.00  0.00    -0.248 NA
ATOM     41  C   UNL A   1      40.136  31.281  29.949  1.00  0.00     0.031 C 
ATOM     42  C   UNL A   1      39.531  26.661  28.025  1.00  0.00     0.029 A 
ATOM     43  N   UNL A   1      41.575  27.223  28.732  1.00  0.00    -0.354 N 
ATOM     44  C   UNL A   1      42.399  31.213  30.225  1.00  0.00     0.074 A 
ATOM     45  C   UNL A   1      41.197  32.013  30.249  1.00  0.00     0.031 C 
ATOM     46  C   UNL A   1      40.330  25.599  27.827  1.00  0.00     0.029 A 
ATOM     47  C   UNL A   1      41.684  25.935  28.260  1.00  0.00     0.049 A 
ATOM     48  H   UNL A   1      42.336  27.724  29.105  1.00  0.00     0.167 HD
ATOM     49  C   UNL A   1      43.610  31.651  30.645  1.00  0.00     0.037 A 
ATOM     50  C   UNL A   1      42.755  25.123  28.183  1.00  0.00     0.037 A 
ATOM     51  C   UNL A   1      44.790  30.829  30.672  1.00  0.00     0.049 A 
ATOM     52  C   UNL A   1      44.084  25.617  28.692  1.00  0.00     0.074 A 
ATOM     53  C   UNL A   1      46.056  31.152  31.128  1.00  0.00     0.029 A 
ATOM     54  N   UNL A   1      44.843  29.512  30.237  1.00  0.00    -0.354 N 
ATOM     55  N   UNL A   1      44.393  26.793  29.185  1.00  0.00    -0.248 NA
ATOM     56  C   UNL A   1      45.205  24.670  28.646  1.00  0.00     0.031 C 
ATOM     57  C   UNL A   1      46.882  30.038  30.941  1.00  0.00     0.029 A 
ATOM     58  C   UNL A   1      46.120  29.009  30.413  1.00  0.00     0.049 A 
ATOM     59  H   UNL A   1      44.085  29.012  29.859  1.00  0.00     0.167 HD
ATOM     60  C   UNL A   1      45.734  26.714  29.544  1.00  0.00     0.074 A 
ATOM     61  C   UNL A   1      46.174  25.374  29.216  1.00  0.00     0.031 C 
ATOM     62  C   UNL A   1      46.528  27.663  30.100  1.00  0.00     0.037 A 
BRANCH  49  63
ATOM     63  C   UNL A   1      43.709  33.075  31.125  1.00  0.00     0.058 A 
ATOM     64  C   UNL A   1      43.957  34.137  30.239  1.00  0.00     0.135 A 
ATOM     65  C   UNL A   1      43.538  33.387  32.483  1.00  0.00     0.135 A 
ATOM     66  F   UNL A   1      44.146  33.897  28.932  1.00  0.00    -0.206 F 
ATOM     67  C   UNL A   1      44.071  35.449  30.686  1.00  0.00     0.059 A 
ATOM     68  C   UNL A   1      43.617  34.697  32.949  1.00  0.00     0.059 A 
ATOM     69  F   UNL A   1      43.298  32.414  33.377  1.00  0.00    -0.206 F 
ATOM     70  C   UNL A   1      43.901  35.719  32.046  1.00  0.00     0.060 A 
BRANCH  70  71
ATOM     71  S   UNL A   1      44.053  37.427  32.609  1.00  0.00     0.124 S 
ATOM     72  O   UNL A   1      43.782  38.164  31.378  1.00  0.00    -0.237 OA
ATOM     73  O   UNL A   1      43.021  37.512  33.637  1.00  0.00    -0.237 OA
ATOM     74  O   UNL A   1      45.427  37.504  33.096  1.00  0.00    -0.744 OA
ENDBRANCH  70  71
ENDBRANCH  49  63
BRANCH  50  75
ATOM     75  C   UNL A   1      42.606  23.743  27.648  1.00  0.00     0.058 A 
ATOM     76  C   UNL A   1      42.402  22.655  28.511  1.00  0.00     0.135 A 
ATOM     77  C   UNL A   1      42.651  23.483  26.270  1.00  0.00     0.135 A 
ATOM     78  F   UNL A   1      42.354  22.853  29.838  1.00  0.00    -0.206 F 
ATOM     79  C   UNL A   1      42.271  21.357  28.031  1.00  0.00     0.059 A 
ATOM     80  C   UNL A   1      42.496  22.195  25.763  1.00  0.00     0.059 A 
ATOM     81  F   UNL A   1      42.823  24.491  25.400  1.00  0.00    -0.206 F 
ATOM     82  C   UNL A   1      42.319  21.136  26.653  1.00  0.00     0.060 A 
BRANCH  82  83
ATOM     83  S   UNL A   1      42.108  19.451  26.039  1.00  0.00     0.124 S 
ATOM     84  O   UNL A   1      42.550  18.664  27.184  1.00  0.00    -0.237 OA
ATOM     85  O   UNL A   1      40.678  19.408  25.748  1.00  0.00    -0.237 OA
ATOM     86  O   UNL A   1      42.979  19.409  24.869  1.00  0.00    -0.744 OA
ENDBRANCH  82  83
ENDBRANCH  50  75
BRANCH  62  87
ATOM     87  C   UNL A   1      47.937  27.266  30.445  1.00  0.00     0.058 A 
ATOM     88  C   UNL A   1      48.242  26.550  31.611  1.00  0.00     0.135 A 
ATOM     89  C   UNL A   1      48.989  27.570  29.565  1.00  0.00     0.135 A 
ATOM     90  F   UNL A   1      47.273  26.238  32.487  1.00  0.00    -0.206 F 
ATOM     91  C   UNL A   1      49.548  26.174  31.910  1.00  0.00     0.059 A 
ATOM     92  C   UNL A   1      50.297  27.180  29.829  1.00  0.00     0.059 A 
ATOM     93  F   UNL A   1      48.747  28.242  28.428  1.00  0.00    -0.206 F 
ATOM     94  C   UNL A   1      50.568  26.494  31.012  1.00  0.00     0.060 A 
BRANCH  94  95
ATOM     95  S   UNL A   1      52.255  25.981  31.399  1.00  0.00     0.124 S 
ATOM     96  O   UNL A   1      52.031  24.684  32.029  1.00  0.00    -0.237 OA
ATOM     97  O   UNL A   1      52.882  25.946  30.081  1.00  0.00    -0.237 OA
ATOM     98  O   UNL A   1      52.735  27.036  32.287  1.00  0.00    -0.744 OA
ENDBRANCH  94  95
ENDBRANCH  62  87
ENDBRANCH  36  37
ENDBRANCH  28  31
ENDBRANCH  26  27
ENDBRANCH   1  26
TORSDOF 17
ENDMDL
MODEL 3
REMARK VINA RESULT:     -11.5      1.993      4.504
REMARK SMILES CC(C)[NH2+][C@@]1(C(=O)NCCCNC(=O)c2ccc(-c3c4nc(c(-c5c(F)cc(S(=O)(=O)[O-])cc5F)c5ccc([nH]5)c(-c5c(F)cc(S(=O)(=O)[O-])cc5F)c5nc(c(-c6c(F)cc(S(=O)(=O)[O-])cc6F)c6ccc3[nH]6)C=C5)C=C4)cc2)CC[C@H](Oc2ccccc2F)C1
REMARK SMILES IDX 10 1 9 2 8 3 6 4 7 5 5 7 81 8 92 9 82 10 83 11 4 12 2 15
REMARK SMILES IDX 1 16 3 17 84 18 85 19 86 20 90 21 87 22 89 23 91 24 88 25
REMARK SMILES IDX 11 26 12 27 13 28 14 30 15 31 16 32 80 33 17 34 79 35 18 36
REMARK SMILES IDX 19 37 20 38 73 39 21 40 78 41 72 42 74 43 22 44 77 45 71 46
REMARK SMILES IDX 70 47 23 49 57 50 36 51 56 52 37 53 40 54 55 55 75 56 38 57
REMARK SMILES IDX 39 58 54 60 76 61 41 62 24 63 25 64 34 65 26 66 27 67 33 68
REMARK SMILES IDX 35 69 28 70 29 71 30 72 31 73 32 74 58 75 59 76 68 77 60 78
REMARK SMILES IDX 61 79 67 80 69 81 62 82 63 83 64 84 65 85 66 86 42 87 43 88
REMARK SMILES IDX 52 89 44 90 45 91 51 92 53 93 46 94 47 95 48 96 49 97 50 98
REMARK H PARENT 8 6 4 13 4 14 12 29 74 48 40 59
REMARK Flexibility Score: inf
ROOT
ATOM      1  C   UNL A   1      33.562  28.137  25.860  1.00  0.00     0.042 C 
ENDROOT
BRANCH   1   2
ATOM      2  C   UNL A   1      33.833  26.674  25.568  1.00  0.00     0.118 C 
BRANCH   2   3
ATOM      3  N   UNL A   1      33.919  26.422  24.152  1.00  0.00    -0.351 N 
ATOM      4  C   UNL A   1      33.234  25.588  23.330  1.00  0.00     0.281 C 
ATOM      5  O   UNL A   1      33.724  25.489  22.193  1.00  0.00    -0.268 OA
ATOM      6  H   UNL A   1      34.607  26.956  23.693  1.00  0.00     0.163 HD
BRANCH   4   7
ATOM      7  C   UNL A   1      31.932  24.752  23.738  1.00  0.00     0.179 C 
ATOM      8  C   UNL A   1      31.791  24.581  25.254  1.00  0.00     0.083 C 
ATOM      9  C   UNL A   1      32.009  23.335  23.140  1.00  0.00     0.124 C 
ATOM     10  C   UNL A   1      31.954  23.099  25.580  1.00  0.00     0.052 C 
ATOM     11  C   UNL A   1      31.889  22.302  24.278  1.00  0.00     0.180 C 
BRANCH   7  12
ATOM     12  N   UNL A   1      30.840  25.546  23.138  1.00  0.00    -0.332 N 
ATOM     13  H   UNL A   1      31.184  25.821  22.218  1.00  0.00     0.347 HD
ATOM     14  H   UNL A   1      30.064  24.897  23.266  1.00  0.00     0.347 HD
BRANCH  12  15
ATOM     15  C   UNL A   1      30.250  26.744  23.695  1.00  0.00     0.176 C 
ATOM     16  C   UNL A   1      30.569  27.888  22.723  1.00  0.00     0.075 C 
ATOM     17  C   UNL A   1      28.745  26.653  23.908  1.00  0.00     0.075 C 
ENDBRANCH  12  15
ENDBRANCH   7  12
BRANCH  11  18
ATOM     18  O   UNL A   1      32.894  21.314  24.024  1.00  0.00    -0.487 OA
BRANCH  18  19
ATOM     19  C   UNL A   1      32.750  19.976  24.223  1.00  0.00     0.155 A 
ATOM     20  C   UNL A   1      32.958  19.286  25.411  1.00  0.00     0.049 A 
ATOM     21  C   UNL A   1      32.412  19.236  23.078  1.00  0.00     0.165 A 
ATOM     22  C   UNL A   1      32.981  17.883  25.413  1.00  0.00     0.004 A 
ATOM     23  C   UNL A   1      32.426  17.846  23.071  1.00  0.00     0.043 A 
ATOM     24  F   UNL A   1      32.147  19.874  21.924  1.00  0.00    -0.203 F 
ATOM     25  C   UNL A   1      32.742  17.165  24.241  1.00  0.00     0.003 A 
ENDBRANCH  18  19
ENDBRANCH  11  18
ENDBRANCH   4   7
ENDBRANCH   2   3
ENDBRANCH   1   2
BRANCH   1  26
ATOM     26  C   UNL A   1      33.308  28.437  27.325  1.00  0.00     0.118 C 
BRANCH  26  27
ATOM     27  N   UNL A   1      33.398  29.865  27.610  1.00  0.00    -0.352 N 
ATOM     28  C   UNL A   1      34.384  30.634  28.178  1.00  0.00     0.251 C 
ATOM     29  H   UNL A   1      32.599  30.376  27.344  1.00  0.00     0.163 HD
ATOM     30  O   UNL A   1      34.091  31.778  28.524  1.00  0.00    -0.269 OA
BRANCH  28  31
ATOM     31  C   UNL A   1      35.770  30.141  28.381  1.00  0.00     0.039 A 
ATOM     32  C   UNL A   1      36.128  29.648  29.644  1.00  0.00     0.014 A 
ATOM     33  C   UNL A   1      36.751  30.239  27.395  1.00  0.00     0.014 A 
ATOM     34  C   UNL A   1      37.444  29.244  29.897  1.00  0.00     0.010 A 
ATOM     35  C   UNL A   1      38.021  29.716  27.605  1.00  0.00     0.010 A 
ATOM     36  C   UNL A   1      38.400  29.260  28.873  1.00  0.00    -0.014 A 
BRANCH  36  37
ATOM     37  C   UNL A   1      39.825  28.916  29.116  1.00  0.00     0.031 A 
ATOM     38  C   UNL A   1      40.746  29.953  29.716  1.00  0.00     0.074 A 
ATOM     39  C   UNL A   1      40.306  27.714  28.745  1.00  0.00     0.049 A 
ATOM     40  N   UNL A   1      42.040  29.906  29.902  1.00  0.00    -0.248 NA
ATOM     41  C   UNL A   1      40.135  31.231  30.122  1.00  0.00     0.031 C 
ATOM     42  C   UNL A   1      39.528  26.647  28.112  1.00  0.00     0.029 A 
ATOM     43  N   UNL A   1      41.571  27.191  28.841  1.00  0.00    -0.354 N 
ATOM     44  C   UNL A   1      42.396  31.152  30.409  1.00  0.00     0.074 A 
ATOM     45  C   UNL A   1      41.195  31.955  30.441  1.00  0.00     0.031 C 
ATOM     46  C   UNL A   1      40.327  25.587  27.900  1.00  0.00     0.029 A 
ATOM     47  C   UNL A   1      41.678  25.912  28.346  1.00  0.00     0.049 A 
ATOM     48  H   UNL A   1      42.330  27.684  29.226  1.00  0.00     0.167 HD
ATOM     49  C   UNL A   1      43.605  31.579  30.844  1.00  0.00     0.037 A 
ATOM     50  C   UNL A   1      42.748  25.098  28.260  1.00  0.00     0.037 A 
ATOM     51  C   UNL A   1      44.783  30.754  30.862  1.00  0.00     0.049 A 
ATOM     52  C   UNL A   1      44.075  25.580  28.785  1.00  0.00     0.074 A 
ATOM     53  C   UNL A   1      46.048  31.065  31.331  1.00  0.00     0.029 A 
ATOM     54  N   UNL A   1      44.836  29.445  30.404  1.00  0.00    -0.354 N 
ATOM     55  N   UNL A   1      44.384  26.746  29.301  1.00  0.00    -0.248 NA
ATOM     56  C   UNL A   1      45.194  24.631  28.728  1.00  0.00     0.031 C 
ATOM     57  C   UNL A   1      46.872  29.953  31.128  1.00  0.00     0.029 A 
ATOM     58  C   UNL A   1      46.110  28.935  30.577  1.00  0.00     0.049 A 
ATOM     59  H   UNL A   1      44.078  28.953  30.013  1.00  0.00     0.167 HD
ATOM     60  C   UNL A   1      45.723  26.658  29.666  1.00  0.00     0.074 A 
ATOM     61  C   UNL A   1      46.162  25.322  29.316  1.00  0.00     0.031 C 
ATOM     62  C   UNL A   1      46.517  27.594  30.243  1.00  0.00     0.037 A 
BRANCH  49  63
ATOM     63  C   UNL A   1      43.705  32.994  31.350  1.00  0.00     0.058 A 
ATOM     64  C   UNL A   1      43.951  34.073  30.483  1.00  0.00     0.135 A 
ATOM     65  C   UNL A   1      43.538  33.281  32.714  1.00  0.00     0.135 A 
ATOM     66  F   UNL A   1      44.136  33.856  29.171  1.00  0.00    -0.206 F 
ATOM     67  C   UNL A   1      44.066  35.376  30.954  1.00  0.00     0.059 A 
ATOM     68  C   UNL A   1      43.617  34.582  33.204  1.00  0.00     0.059 A 
ATOM     69  F   UNL A   1      43.300  32.291  33.590  1.00  0.00    -0.206 F 
ATOM     70  C   UNL A   1      43.899  35.621  32.319  1.00  0.00     0.060 A 
BRANCH  70  71
ATOM     71  S   UNL A   1      44.051  37.318  32.913  1.00  0.00     0.124 S 
ATOM     72  O   UNL A   1      42.888  37.425  33.788  1.00  0.00    -0.237 OA
ATOM     73  O   UNL A   1      45.348  37.302  33.581  1.00  0.00    -0.237 OA
ATOM     74  O   UNL A   1      43.991  38.113  31.689  1.00  0.00    -0.744 OA
ENDBRANCH  70  71
ENDBRANCH  49  63
BRANCH  50  75
ATOM     75  C   UNL A   1      42.599  23.729  27.700  1.00  0.00     0.058 A 
ATOM     76  C   UNL A   1      42.462  22.617  28.545  1.00  0.00     0.135 A 
ATOM     77  C   UNL A   1      42.576  23.502  26.315  1.00  0.00     0.135 A 
ATOM     78  F   UNL A   1      42.480  22.782  29.877  1.00  0.00    -0.206 F 
ATOM     79  C   UNL A   1      42.332  21.328  28.040  1.00  0.00     0.059 A 
ATOM     80  C   UNL A   1      42.420  22.224  25.785  1.00  0.00     0.059 A 
ATOM     81  F   UNL A   1      42.683  24.534  25.463  1.00  0.00    -0.206 F 
ATOM     82  C   UNL A   1      42.312  21.141  26.657  1.00  0.00     0.060 A 
BRANCH  82  83
ATOM     83  S   UNL A   1      42.102  19.467  26.013  1.00  0.00     0.124 S 
ATOM     84  O   UNL A   1      42.934  19.507  24.816  1.00  0.00    -0.237 OA
ATOM     85  O   UNL A   1      42.606  18.649  27.113  1.00  0.00    -0.237 OA
ATOM     86  O   UNL A   1      40.665  19.374  25.781  1.00  0.00    -0.744 OA
ENDBRANCH  82  83
ENDBRANCH  50  75
BRANCH  62  87
ATOM     87  C   UNL A   1      47.923  27.188  30.588  1.00  0.00     0.058 A 
ATOM     88  C   UNL A   1      48.217  26.426  31.728  1.00  0.00     0.135 A 
ATOM     89  C   UNL A   1      48.984  27.530  29.734  1.00  0.00     0.135 A 
ATOM     90  F   UNL A   1      47.238  26.076  32.578  1.00  0.00    -0.206 F 
ATOM     91  C   UNL A   1      49.520  26.042  32.027  1.00  0.00     0.059 A 
ATOM     92  C   UNL A   1      50.290  27.133  29.997  1.00  0.00     0.059 A 
ATOM     93  F   UNL A   1      48.754  28.247  28.622  1.00  0.00    -0.206 F 
ATOM     94  C   UNL A   1      50.550  26.401  31.155  1.00  0.00     0.060 A 
BRANCH  94  95
ATOM     95  S   UNL A   1      52.234  25.878  31.540  1.00  0.00     0.124 S 
ATOM     96  O   UNL A   1      52.619  26.852  32.556  1.00  0.00    -0.237 OA
ATOM     97  O   UNL A   1      52.038  24.511  32.015  1.00  0.00    -0.237 OA
ATOM     98  O   UNL A   1      52.927  25.997  30.261  1.00  0.00    -0.744 OA
ENDBRANCH  94  95
ENDBRANCH  62  87
ENDBRANCH  36  37
ENDBRANCH  28  31
ENDBRANCH  26  27
ENDBRANCH   1  26
TORSDOF 17
ENDMDL
