MODEL 1
REMARK VINA RESULT:     -12.0      0.000      0.000
REMARK SMILES Cc1ccsc1C(=O)N1CCN(C(=O)OC(C)(C)C)C[C@@H]1C(=O)NCCCNC(=O)c1ccc(-c2c3nc(c(-c4c(F)cc(S(=O)(=O)[O-])cc4F)c4ccc([nH]4)c(-c4c(F)cc(S(=O)(=O)[O-])cc4F)c4nc(c(-c5c(F)cc(S(=O)(=O)[O-])cc5F)c5ccc2[nH]5)C=C4)C=C3)cc1
REMARK SMILES IDX 26 1 25 2 24 3 22 4 23 5 21 7 9 8 10 9 11 10 20 11 12 12
REMARK SMILES IDX 7 13 8 14 6 15 1 16 2 17 3 18 4 19 5 20 13 21 14 22 15 23
REMARK SMILES IDX 16 24 17 25 18 26 19 27 27 28 28 29 29 30 30 32 31 33 32 34
REMARK SMILES IDX 96 35 33 36 95 37 34 38 35 39 36 40 89 41 37 42 94 43 88 44
REMARK SMILES IDX 90 45 38 46 93 47 87 48 86 49 39 51 73 52 52 53 72 54 53 55
REMARK SMILES IDX 56 56 71 57 91 58 54 59 55 60 70 62 92 63 57 64 40 65 41 66
REMARK SMILES IDX 50 67 42 68 43 69 49 70 51 71 44 72 45 73 46 74 47 75 48 76
REMARK SMILES IDX 74 77 75 78 84 79 76 80 77 81 83 82 85 83 78 84 79 85 80 86
REMARK SMILES IDX 81 87 82 88 58 89 59 90 68 91 60 92 61 93 67 94 69 95 62 96
REMARK SMILES IDX 63 97 64 98 65 99 66 100
REMARK H PARENT 24 6 28 31 90 50 56 61
REMARK Flexibility Score: inf
ROOT
ATOM      1  C   UNL A   1      34.755  29.619  27.775  1.00  0.00     0.042 C 
ENDROOT
BRANCH   1   2
ATOM      2  C   UNL A   1      33.612  29.742  26.774  1.00  0.00     0.117 C 
BRANCH   2   3
ATOM      3  N   UNL A   1      34.008  29.426  25.419  1.00  0.00    -0.354 N 
ATOM      4  C   UNL A   1      33.422  28.694  24.443  1.00  0.00     0.244 C 
ATOM      5  O   UNL A   1      33.972  28.780  23.331  1.00  0.00    -0.273 OA
ATOM      6  H   UNL A   1      34.871  29.822  25.156  1.00  0.00     0.163 HD
BRANCH   4   7
ATOM      7  C   UNL A   1      32.314  27.616  24.623  1.00  0.00     0.194 C 
ATOM      8  N   UNL A   1      32.286  26.286  24.002  1.00  0.00    -0.322 N 
ATOM      9  C   UNL A   1      31.692  26.101  22.682  1.00  0.00     0.142 C 
ATOM     10  C   UNL A   1      30.431  26.935  22.437  1.00  0.00     0.144 C 
ATOM     11  C   UNL A   1      30.958  28.329  24.443  1.00  0.00     0.158 C 
ATOM     12  N   UNL A   1      30.465  28.254  23.067  1.00  0.00    -0.304 N 
BRANCH   8  13
ATOM     13  C   UNL A   1      33.113  25.297  24.508  1.00  0.00     0.265 C 
ATOM     14  O   UNL A   1      34.331  25.481  24.507  1.00  0.00    -0.268 OA
BRANCH  13  15
ATOM     15  C   UNL A   1      32.450  24.085  25.009  1.00  0.00     0.095 A 
ATOM     16  C   UNL A   1      33.808  22.078  24.071  1.00  0.00     0.046 C 
ATOM     17  C   UNL A   1      32.712  22.722  24.851  1.00  0.00    -0.027 A 
ATOM     18  C   UNL A   1      31.740  21.917  25.538  1.00  0.00     0.016 A 
ATOM     19  C   UNL A   1      30.793  22.659  26.196  1.00  0.00     0.066 A 
ATOM     20  S   UNL A   1      31.047  24.327  25.989  1.00  0.00    -0.138 S 
ENDBRANCH  13  15
ENDBRANCH   8  13
BRANCH  12  21
ATOM     21  C   UNL A   1      29.886  29.327  22.418  1.00  0.00     0.410 C 
ATOM     22  O   UNL A   1      30.300  29.773  21.362  1.00  0.00    -0.224 OA
BRANCH  21  23
ATOM     23  O   UNL A   1      28.813  29.802  23.098  1.00  0.00    -0.444 OA
BRANCH  23  24
ATOM     24  C   UNL A   1      28.616  31.223  23.292  1.00  0.00     0.106 C 
ATOM     25  C   UNL A   1      29.592  31.740  24.351  1.00  0.00     0.056 C 
ATOM     26  C   UNL A   1      28.704  32.012  21.982  1.00  0.00     0.056 C 
ATOM     27  C   UNL A   1      27.181  31.343  23.830  1.00  0.00     0.056 C 
ENDBRANCH  23  24
ENDBRANCH  21  23
ENDBRANCH  12  21
ENDBRANCH   4   7
ENDBRANCH   2   3
ENDBRANCH   1   2
BRANCH   1  28
ATOM     28  C   UNL A   1      35.394  30.939  28.185  1.00  0.00     0.118 C 
BRANCH  28  29
ATOM     29  N   UNL A   1      35.436  31.088  29.631  1.00  0.00    -0.352 N 
ATOM     30  C   UNL A   1      36.375  30.661  30.537  1.00  0.00     0.251 C 
ATOM     31  H   UNL A   1      34.671  31.571  30.021  1.00  0.00     0.163 HD
ATOM     32  O   UNL A   1      36.080  30.636  31.729  1.00  0.00    -0.269 OA
BRANCH  30  33
ATOM     33  C   UNL A   1      37.726  30.236  30.101  1.00  0.00     0.039 A 
ATOM     34  C   UNL A   1      38.613  29.726  31.054  1.00  0.00     0.014 A 
ATOM     35  C   UNL A   1      38.152  30.402  28.780  1.00  0.00     0.014 A 
ATOM     36  C   UNL A   1      39.907  29.352  30.676  1.00  0.00     0.010 A 
ATOM     37  C   UNL A   1      39.409  29.949  28.387  1.00  0.00     0.010 A 
ATOM     38  C   UNL A   1      40.308  29.439  29.334  1.00  0.00    -0.014 A 
BRANCH  38  39
ATOM     39  C   UNL A   1      41.670  29.022  28.908  1.00  0.00     0.031 A 
ATOM     40  C   UNL A   1      42.797  30.020  28.886  1.00  0.00     0.074 A 
ATOM     41  C   UNL A   1      41.877  27.758  28.492  1.00  0.00     0.049 A 
ATOM     42  N   UNL A   1      44.041  29.856  28.514  1.00  0.00    -0.248 NA
ATOM     43  C   UNL A   1      42.477  31.390  29.314  1.00  0.00     0.031 C 
ATOM     44  C   UNL A   1      40.855  26.712  28.432  1.00  0.00     0.029 A 
ATOM     45  N   UNL A   1      43.015  27.137  28.039  1.00  0.00    -0.354 N 
ATOM     46  C   UNL A   1      44.645  31.102  28.647  1.00  0.00     0.074 A 
ATOM     47  C   UNL A   1      43.615  32.023  29.075  1.00  0.00     0.031 C 
ATOM     48  C   UNL A   1      41.419  25.571  28.005  1.00  0.00     0.029 A 
ATOM     49  C   UNL A   1      42.830  25.814  27.718  1.00  0.00     0.049 A 
ATOM     50  H   UNL A   1      43.881  27.597  27.953  1.00  0.00     0.167 HD
ATOM     51  C   UNL A   1      45.942  31.442  28.452  1.00  0.00     0.037 A 
ATOM     52  C   UNL A   1      43.696  24.900  27.242  1.00  0.00     0.037 A 
ATOM     53  C   UNL A   1      46.958  30.512  28.029  1.00  0.00     0.049 A 
ATOM     54  C   UNL A   1      45.126  25.303  27.005  1.00  0.00     0.074 A 
ATOM     55  C   UNL A   1      48.313  30.736  27.854  1.00  0.00     0.029 A 
ATOM     56  N   UNL A   1      46.729  29.181  27.702  1.00  0.00    -0.354 N 
ATOM     57  N   UNL A   1      45.698  26.468  27.201  1.00  0.00    -0.248 NA
ATOM     58  C   UNL A   1      46.029  24.267  26.487  1.00  0.00     0.031 C 
ATOM     59  C   UNL A   1      48.890  29.561  27.360  1.00  0.00     0.029 A 
ATOM     60  C   UNL A   1      47.910  28.582  27.292  1.00  0.00     0.049 A 
ATOM     61  H   UNL A   1      45.856  28.731  27.753  1.00  0.00     0.167 HD
ATOM     62  C   UNL A   1      47.035  26.298  26.858  1.00  0.00     0.074 A 
ATOM     63  C   UNL A   1      47.186  24.915  26.451  1.00  0.00     0.031 C 
ATOM     64  C   UNL A   1      48.046  27.203  26.884  1.00  0.00     0.037 A 
BRANCH  51  65
ATOM     65  C   UNL A   1      46.322  32.885  28.671  1.00  0.00     0.058 A 
ATOM     66  C   UNL A   1      46.716  33.368  29.930  1.00  0.00     0.135 A 
ATOM     67  C   UNL A   1      46.281  33.803  27.608  1.00  0.00     0.135 A 
ATOM     68  F   UNL A   1      46.767  32.542  30.987  1.00  0.00    -0.206 F 
ATOM     69  C   UNL A   1      46.993  34.716  30.142  1.00  0.00     0.059 A 
ATOM     70  C   UNL A   1      46.592  35.149  27.788  1.00  0.00     0.059 A 
ATOM     71  F   UNL A   1      45.920  33.401  26.380  1.00  0.00    -0.206 F 
ATOM     72  C   UNL A   1      46.920  35.600  29.065  1.00  0.00     0.060 A 
BRANCH  72  73
ATOM     73  S   UNL A   1      47.239  37.351  29.364  1.00  0.00     0.124 S 
ATOM     74  O   UNL A   1      45.970  37.783  29.943  1.00  0.00    -0.237 OA
ATOM     75  O   UNL A   1      48.372  37.311  30.282  1.00  0.00    -0.237 OA
ATOM     76  O   UNL A   1      47.531  37.877  28.034  1.00  0.00    -0.744 OA
ENDBRANCH  72  73
ENDBRANCH  51  65
BRANCH  52  77
ATOM     77  C   UNL A   1      43.237  23.505  27.006  1.00  0.00     0.058 A 
ATOM     78  C   UNL A   1      43.011  23.035  25.705  1.00  0.00     0.135 A 
ATOM     79  C   UNL A   1      43.072  22.599  28.066  1.00  0.00     0.135 A 
ATOM     80  F   UNL A   1      43.147  23.866  24.659  1.00  0.00    -0.206 F 
ATOM     81  C   UNL A   1      42.639  21.718  25.459  1.00  0.00     0.059 A 
ATOM     82  C   UNL A   1      42.727  21.269  27.843  1.00  0.00     0.059 A 
ATOM     83  F   UNL A   1      43.290  22.995  29.330  1.00  0.00    -0.206 F 
ATOM     84  C   UNL A   1      42.511  20.838  26.535  1.00  0.00     0.060 A 
BRANCH  84  85
ATOM     85  S   UNL A   1      42.112  19.110  26.194  1.00  0.00     0.124 S 
ATOM     86  O   UNL A   1      42.398  18.482  27.479  1.00  0.00    -0.237 OA
ATOM     87  O   UNL A   1      40.704  19.191  25.822  1.00  0.00    -0.237 OA
ATOM     88  O   UNL A   1      43.021  18.763  25.107  1.00  0.00    -0.744 OA
ENDBRANCH  84  85
ENDBRANCH  52  77
BRANCH  64  89
ATOM     89  C   UNL A   1      49.417  26.723  26.490  1.00  0.00     0.058 A 
ATOM     90  C   UNL A   1      50.280  26.105  27.408  1.00  0.00     0.135 A 
ATOM     91  C   UNL A   1      49.852  26.838  25.158  1.00  0.00     0.135 A 
ATOM     92  F   UNL A   1      49.919  25.977  28.695  1.00  0.00    -0.206 F 
ATOM     93  C   UNL A   1      51.535  25.640  27.027  1.00  0.00     0.059 A 
ATOM     94  C   UNL A   1      51.089  26.350  24.748  1.00  0.00     0.059 A 
ATOM     95  F   UNL A   1      49.063  27.411  24.236  1.00  0.00    -0.206 F 
ATOM     96  C   UNL A   1      51.929  25.764  25.694  1.00  0.00     0.060 A 
BRANCH  96  97
ATOM     97  S   UNL A   1      53.544  25.122  25.206  1.00  0.00     0.124 S 
ATOM     98  O   UNL A   1      53.337  23.683  25.329  1.00  0.00    -0.237 OA
ATOM     99  O   UNL A   1      53.681  25.628  23.844  1.00  0.00    -0.237 OA
ATOM    100  O   UNL A   1      54.454  25.711  26.183  1.00  0.00    -0.744 OA
ENDBRANCH  96  97
ENDBRANCH  64  89
ENDBRANCH  38  39
ENDBRANCH  30  33
ENDBRANCH  28  29
ENDBRANCH   1  28
TORSDOF 18
ENDMDL
MODEL 2
REMARK VINA RESULT:     -11.9      3.348      9.888
REMARK SMILES Cc1ccsc1C(=O)N1CCN(C(=O)OC(C)(C)C)C[C@@H]1C(=O)NCCCNC(=O)c1ccc(-c2c3nc(c(-c4c(F)cc(S(=O)(=O)[O-])cc4F)c4ccc([nH]4)c(-c4c(F)cc(S(=O)(=O)[O-])cc4F)c4nc(c(-c5c(F)cc(S(=O)(=O)[O-])cc5F)c5ccc2[nH]5)C=C4)C=C3)cc1
REMARK SMILES IDX 26 1 25 2 24 3 22 4 23 5 21 7 9 8 10 9 11 10 20 11 12 12
REMARK SMILES IDX 7 13 8 14 6 15 1 16 2 17 3 18 4 19 5 20 13 21 14 22 15 23
REMARK SMILES IDX 16 24 17 25 18 26 19 27 27 28 28 29 29 30 30 32 31 33 32 34
REMARK SMILES IDX 96 35 33 36 95 37 34 38 35 39 36 40 89 41 37 42 94 43 88 44
REMARK SMILES IDX 90 45 38 46 93 47 87 48 86 49 39 51 73 52 52 53 72 54 53 55
REMARK SMILES IDX 56 56 71 57 91 58 54 59 55 60 70 62 92 63 57 64 40 65 41 66
REMARK SMILES IDX 50 67 42 68 43 69 49 70 51 71 44 72 45 73 46 74 47 75 48 76
REMARK SMILES IDX 74 77 75 78 84 79 76 80 77 81 83 82 85 83 78 84 79 85 80 86
REMARK SMILES IDX 81 87 82 88 58 89 59 90 68 91 60 92 61 93 67 94 69 95 62 96
REMARK SMILES IDX 63 97 64 98 65 99 66 100
REMARK H PARENT 24 6 28 31 90 50 56 61
REMARK Flexibility Score: inf
ROOT
ATOM      1  C   UNL A   1      35.716  23.848  24.756  1.00  0.00     0.042 C 
ENDROOT
BRANCH   1   2
ATOM      2  C   UNL A   1      34.575  24.847  24.603  1.00  0.00     0.117 C 
BRANCH   2   3
ATOM      3  N   UNL A   1      33.732  24.574  23.460  1.00  0.00    -0.354 N 
ATOM      4  C   UNL A   1      32.431  24.213  23.348  1.00  0.00     0.244 C 
ATOM      5  O   UNL A   1      31.988  24.230  22.188  1.00  0.00    -0.273 OA
ATOM      6  H   UNL A   1      34.193  24.669  22.595  1.00  0.00     0.163 HD
BRANCH   4   7
ATOM      7  C   UNL A   1      31.542  23.580  24.457  1.00  0.00     0.194 C 
ATOM      8  N   UNL A   1      31.375  24.080  25.828  1.00  0.00    -0.322 N 
ATOM      9  C   UNL A   1      32.291  23.661  26.883  1.00  0.00     0.142 C 
ATOM     10  C   UNL A   1      32.720  22.193  26.798  1.00  0.00     0.144 C 
ATOM     11  C   UNL A   1      31.838  22.066  24.463  1.00  0.00     0.158 C 
ATOM     12  N   UNL A   1      32.875  21.703  25.430  1.00  0.00    -0.304 N 
BRANCH   8  13
ATOM     13  C   UNL A   1      30.576  25.192  26.038  1.00  0.00     0.265 C 
ATOM     14  O   UNL A   1      29.494  25.049  26.608  1.00  0.00    -0.268 OA
BRANCH  13  15
ATOM     15  C   UNL A   1      31.100  26.474  25.546  1.00  0.00     0.095 A 
ATOM     16  C   UNL A   1      29.741  27.037  23.404  1.00  0.00     0.046 C 
ATOM     17  C   UNL A   1      30.776  27.278  24.451  1.00  0.00    -0.027 A 
ATOM     18  C   UNL A   1      31.609  28.448  24.391  1.00  0.00     0.016 A 
ATOM     19  C   UNL A   1      32.515  28.516  25.418  1.00  0.00     0.066 A 
ATOM     20  S   UNL A   1      32.391  27.176  26.457  1.00  0.00    -0.138 S 
ENDBRANCH  13  15
ENDBRANCH   8  13
BRANCH  12  21
ATOM     21  C   UNL A   1      33.879  20.797  25.147  1.00  0.00     0.410 C 
ATOM     22  O   UNL A   1      34.922  20.736  25.775  1.00  0.00    -0.224 OA
BRANCH  21  23
ATOM     23  O   UNL A   1      33.549  19.996  24.103  1.00  0.00    -0.444 OA
BRANCH  23  24
ATOM     24  C   UNL A   1      33.359  18.571  24.280  1.00  0.00     0.106 C 
ATOM     25  C   UNL A   1      34.715  17.863  24.260  1.00  0.00     0.056 C 
ATOM     26  C   UNL A   1      32.545  18.239  25.534  1.00  0.00     0.056 C 
ATOM     27  C   UNL A   1      32.547  18.136  23.049  1.00  0.00     0.056 C 
ENDBRANCH  23  24
ENDBRANCH  21  23
ENDBRANCH  12  21
ENDBRANCH   4   7
ENDBRANCH   2   3
ENDBRANCH   1   2
BRANCH   1  28
ATOM     28  C   UNL A   1      36.299  23.749  26.160  1.00  0.00     0.118 C 
BRANCH  28  29
ATOM     29  N   UNL A   1      37.345  22.742  26.236  1.00  0.00    -0.352 N 
ATOM     30  C   UNL A   1      38.701  22.886  26.392  1.00  0.00     0.251 C 
ATOM     31  H   UNL A   1      37.031  21.811  26.166  1.00  0.00     0.163 HD
ATOM     32  O   UNL A   1      39.432  21.931  26.144  1.00  0.00    -0.269 OA
BRANCH  30  33
ATOM     33  C   UNL A   1      39.290  24.166  26.852  1.00  0.00     0.039 A 
ATOM     34  C   UNL A   1      39.931  24.988  25.919  1.00  0.00     0.014 A 
ATOM     35  C   UNL A   1      39.281  24.530  28.201  1.00  0.00     0.014 A 
ATOM     36  C   UNL A   1      40.527  26.183  26.333  1.00  0.00     0.010 A 
ATOM     37  C   UNL A   1      39.798  25.761  28.599  1.00  0.00     0.010 A 
ATOM     38  C   UNL A   1      40.446  26.591  27.674  1.00  0.00    -0.014 A 
BRANCH  38  39
ATOM     39  C   UNL A   1      41.050  27.871  28.129  1.00  0.00     0.031 A 
ATOM     40  C   UNL A   1      42.538  28.083  28.035  1.00  0.00     0.074 A 
ATOM     41  C   UNL A   1      40.265  28.820  28.673  1.00  0.00     0.049 A 
ATOM     42  N   UNL A   1      43.253  29.112  28.411  1.00  0.00    -0.248 NA
ATOM     43  C   UNL A   1      43.330  26.980  27.469  1.00  0.00     0.031 C 
ATOM     44  C   UNL A   1      38.816  28.714  28.852  1.00  0.00     0.029 A 
ATOM     45  N   UNL A   1      40.572  30.058  29.178  1.00  0.00    -0.354 N 
ATOM     46  C   UNL A   1      44.575  28.775  28.143  1.00  0.00     0.074 A 
ATOM     47  C   UNL A   1      44.568  27.422  27.630  1.00  0.00     0.031 C 
ATOM     48  C   UNL A   1      38.355  29.854  29.390  1.00  0.00     0.029 A 
ATOM     49  C   UNL A   1      39.479  30.753  29.637  1.00  0.00     0.049 A 
ATOM     50  H   UNL A   1      41.490  30.416  29.207  1.00  0.00     0.167 HD
ATOM     51  C   UNL A   1      45.691  29.531  28.289  1.00  0.00     0.037 A 
ATOM     52  C   UNL A   1      39.391  31.974  30.199  1.00  0.00     0.037 A 
ATOM     53  C   UNL A   1      45.683  30.880  28.798  1.00  0.00     0.049 A 
ATOM     54  C   UNL A   1      40.643  32.787  30.379  1.00  0.00     0.074 A 
ATOM     55  C   UNL A   1      46.746  31.754  28.936  1.00  0.00     0.029 A 
ATOM     56  N   UNL A   1      44.556  31.545  29.264  1.00  0.00    -0.354 N 
ATOM     57  N   UNL A   1      41.878  32.482  30.057  1.00  0.00    -0.248 NA
ATOM     58  C   UNL A   1      40.490  34.112  30.994  1.00  0.00     0.031 C 
ATOM     59  C   UNL A   1      46.274  32.923  29.545  1.00  0.00     0.029 A 
ATOM     60  C   UNL A   1      44.904  32.805  29.724  1.00  0.00     0.049 A 
ATOM     61  H   UNL A   1      43.644  31.174  29.268  1.00  0.00     0.167 HD
ATOM     62  C   UNL A   1      42.646  33.588  30.403  1.00  0.00     0.074 A 
ATOM     63  C   UNL A   1      41.733  34.572  30.951  1.00  0.00     0.031 C 
ATOM     64  C   UNL A   1      43.985  33.774  30.273  1.00  0.00     0.037 A 
BRANCH  51  65
ATOM     65  C   UNL A   1      47.010  28.901  27.917  1.00  0.00     0.058 A 
ATOM     66  C   UNL A   1      47.488  28.902  26.596  1.00  0.00     0.135 A 
ATOM     67  C   UNL A   1      47.803  28.277  28.894  1.00  0.00     0.135 A 
ATOM     68  F   UNL A   1      46.771  29.475  25.616  1.00  0.00    -0.206 F 
ATOM     69  C   UNL A   1      48.670  28.255  26.246  1.00  0.00     0.059 A 
ATOM     70  C   UNL A   1      49.008  27.656  28.573  1.00  0.00     0.059 A 
ATOM     71  F   UNL A   1      47.404  28.250  30.175  1.00  0.00    -0.206 F 
ATOM     72  C   UNL A   1      49.419  27.627  27.242  1.00  0.00     0.060 A 
BRANCH  72  73
ATOM     73  S   UNL A   1      50.925  26.753  26.767  1.00  0.00     0.124 S 
ATOM     74  O   UNL A   1      50.746  25.474  27.448  1.00  0.00    -0.237 OA
ATOM     75  O   UNL A   1      50.820  26.715  25.312  1.00  0.00    -0.237 OA
ATOM     76  O   UNL A   1      51.991  27.599  27.294  1.00  0.00    -0.744 OA
ENDBRANCH  72  73
ENDBRANCH  51  65
BRANCH  52  77
ATOM     77  C   UNL A   1      38.058  32.511  30.583  1.00  0.00     0.058 A 
ATOM     78  C   UNL A   1      37.565  32.340  31.884  1.00  0.00     0.135 A 
ATOM     79  C   UNL A   1      37.279  33.253  29.681  1.00  0.00     0.135 A 
ATOM     80  F   UNL A   1      38.269  31.631  32.780  1.00  0.00    -0.206 F 
ATOM     81  C   UNL A   1      36.349  32.885  32.281  1.00  0.00     0.059 A 
ATOM     82  C   UNL A   1      36.071  33.831  30.062  1.00  0.00     0.059 A 
ATOM     83  F   UNL A   1      37.712  33.457  28.428  1.00  0.00    -0.206 F 
ATOM     84  C   UNL A   1      35.614  33.641  31.365  1.00  0.00     0.060 A 
BRANCH  84  85
ATOM     85  S   UNL A   1      34.079  34.414  31.919  1.00  0.00     0.124 S 
ATOM     86  O   UNL A   1      33.559  33.412  32.842  1.00  0.00    -0.237 OA
ATOM     87  O   UNL A   1      34.563  35.650  32.524  1.00  0.00    -0.237 OA
ATOM     88  O   UNL A   1      33.323  34.585  30.683  1.00  0.00    -0.744 OA
ENDBRANCH  84  85
ENDBRANCH  52  77
BRANCH  64  89
ATOM     89  C   UNL A   1      44.544  35.104  30.702  1.00  0.00     0.058 A 
ATOM     90  C   UNL A   1      44.600  36.203  29.831  1.00  0.00     0.135 A 
ATOM     91  C   UNL A   1      44.985  35.293  32.023  1.00  0.00     0.135 A 
ATOM     92  F   UNL A   1      44.200  36.076  28.556  1.00  0.00    -0.206 F 
ATOM     93  C   UNL A   1      45.095  37.436  30.246  1.00  0.00     0.059 A 
ATOM     94  C   UNL A   1      45.452  36.526  32.469  1.00  0.00     0.059 A 
ATOM     95  F   UNL A   1      44.945  34.279  32.902  1.00  0.00    -0.206 F 
ATOM     96  C   UNL A   1      45.515  37.588  31.569  1.00  0.00     0.060 A 
BRANCH  96  97
ATOM     97  S   UNL A   1      46.119  39.203  32.103  1.00  0.00     0.124 S 
ATOM     98  O   UNL A   1      45.757  39.198  33.517  1.00  0.00    -0.237 OA
ATOM     99  O   UNL A   1      47.546  39.112  31.814  1.00  0.00    -0.237 OA
ATOM    100  O   UNL A   1      45.373  40.140  31.269  1.00  0.00    -0.744 OA
ENDBRANCH  96  97
ENDBRANCH  64  89
ENDBRANCH  38  39
ENDBRANCH  30  33
ENDBRANCH  28  29
ENDBRANCH   1  28
TORSDOF 18
ENDMDL
MODEL 3
REMARK VINA RESULT:     -11.9      4.537     10.455
REMARK SMILES Cc1ccsc1C(=O)N1CCN(C(=O)OC(C)(C)C)C[C@@H]1C(=O)NCCCNC(=O)c1ccc(-c2c3nc(c(-c4c(F)cc(S(=O)(=O)[O-])cc4F)c4ccc([nH]4)c(-c4c(F)cc(S(=O)(=O)[O-])cc4F)c4nc(c(-c5c(F)cc(S(=O)(=O)[O-])cc5F)c5ccc2[nH]5)C=C4)C=C3)cc1
REMARK SMILES IDX 26 1 25 2 24 3 22 4 23 5 21 7 9 8 10 9 11 10 20 11 12 12
REMARK SMILES IDX 7 13 8 14 6 15 1 16 2 17 3 18 4 19 5 20 13 21 14 22 15 23
REMARK SMILES IDX 16 24 17 25 18 26 19 27 27 28 28 29 29 30 30 32 31 33 32 34
REMARK SMILES IDX 96 35 33 36 95 37 34 38 35 39 36 40 89 41 37 42 94 43 88 44
REMARK SMILES IDX 90 45 38 46 93 47 87 48 86 49 39 51 73 52 52 53 72 54 53 55
REMARK SMILES IDX 56 56 71 57 91 58 54 59 55 60 70 62 92 63 57 64 40 65 41 66
REMARK SMILES IDX 50 67 42 68 43 69 49 70 51 71 44 72 45 73 46 74 47 75 48 76
REMARK SMILES IDX 74 77 75 78 84 79 76 80 77 81 83 82 85 83 78 84 79 85 80 86
REMARK SMILES IDX 81 87 82 88 58 89 59 90 68 91 60 92 61 93 67 94 69 95 62 96
REMARK SMILES IDX 63 97 64 98 65 99 66 100
REMARK H PARENT 24 6 28 31 90 50 56 61
REMARK Flexibility Score: inf
ROOT
ATOM      1  C   UNL A   1      35.770  24.003  24.639  1.00  0.00     0.042 C 
ENDROOT
BRANCH   1   2
ATOM      2  C   UNL A   1      34.515  24.869  24.598  1.00  0.00     0.117 C 
BRANCH   2   3
ATOM      3  N   UNL A   1      33.664  24.579  23.465  1.00  0.00    -0.354 N 
ATOM      4  C   UNL A   1      32.373  24.180  23.370  1.00  0.00     0.244 C 
ATOM      5  O   UNL A   1      31.912  24.194  22.217  1.00  0.00    -0.273 OA
ATOM      6  H   UNL A   1      34.109  24.696  22.594  1.00  0.00     0.163 HD
BRANCH   4   7
ATOM      7  C   UNL A   1      31.520  23.512  24.486  1.00  0.00     0.194 C 
ATOM      8  N   UNL A   1      31.311  24.026  25.846  1.00  0.00    -0.322 N 
ATOM      9  C   UNL A   1      32.246  23.689  26.914  1.00  0.00     0.142 C 
ATOM     10  C   UNL A   1      32.771  22.250  26.860  1.00  0.00     0.144 C 
ATOM     11  C   UNL A   1      31.914  22.021  24.524  1.00  0.00     0.158 C 
ATOM     12  N   UNL A   1      32.967  21.745  25.502  1.00  0.00    -0.304 N 
BRANCH   8  13
ATOM     13  C   UNL A   1      30.440  25.086  26.030  1.00  0.00     0.265 C 
ATOM     14  O   UNL A   1      29.470  24.938  26.774  1.00  0.00    -0.268 OA
BRANCH  13  15
ATOM     15  C   UNL A   1      30.754  26.323  25.300  1.00  0.00     0.095 A 
ATOM     16  C   UNL A   1      32.796  27.378  26.512  1.00  0.00     0.046 C 
ATOM     17  C   UNL A   1      31.732  27.306  25.470  1.00  0.00    -0.027 A 
ATOM     18  C   UNL A   1      31.606  28.349  24.489  1.00  0.00     0.016 A 
ATOM     19  C   UNL A   1      30.573  28.140  23.611  1.00  0.00     0.066 A 
ATOM     20  S   UNL A   1      29.734  26.703  23.957  1.00  0.00    -0.138 S 
ENDBRANCH  13  15
ENDBRANCH   8  13
BRANCH  12  21
ATOM     21  C   UNL A   1      34.029  20.901  25.243  1.00  0.00     0.410 C 
ATOM     22  O   UNL A   1      35.063  20.909  25.890  1.00  0.00    -0.224 OA
BRANCH  21  23
ATOM     23  O   UNL A   1      33.769  20.077  24.198  1.00  0.00    -0.444 OA
BRANCH  23  24
ATOM     24  C   UNL A   1      33.449  18.680  24.405  1.00  0.00     0.106 C 
ATOM     25  C   UNL A   1      34.722  17.837  24.300  1.00  0.00     0.056 C 
ATOM     26  C   UNL A   1      32.695  18.438  25.717  1.00  0.00     0.056 C 
ATOM     27  C   UNL A   1      32.513  18.323  23.239  1.00  0.00     0.056 C 
ENDBRANCH  23  24
ENDBRANCH  21  23
ENDBRANCH  12  21
ENDBRANCH   4   7
ENDBRANCH   2   3
ENDBRANCH   1   2
BRANCH   1  28
ATOM     28  C   UNL A   1      36.444  23.916  26.001  1.00  0.00     0.118 C 
BRANCH  28  29
ATOM     29  N   UNL A   1      37.560  22.983  25.987  1.00  0.00    -0.352 N 
ATOM     30  C   UNL A   1      38.885  23.186  26.285  1.00  0.00     0.251 C 
ATOM     31  H   UNL A   1      37.329  22.062  25.725  1.00  0.00     0.163 HD
ATOM     32  O   UNL A   1      39.708  22.343  25.934  1.00  0.00    -0.269 OA
BRANCH  30  33
ATOM     33  C   UNL A   1      39.333  24.395  27.016  1.00  0.00     0.039 A 
ATOM     34  C   UNL A   1      38.960  24.549  28.356  1.00  0.00     0.014 A 
ATOM     35  C   UNL A   1      40.051  25.409  26.378  1.00  0.00     0.014 A 
ATOM     36  C   UNL A   1      39.338  25.698  29.058  1.00  0.00     0.010 A 
ATOM     37  C   UNL A   1      40.501  26.511  27.101  1.00  0.00     0.010 A 
ATOM     38  C   UNL A   1      40.131  26.679  28.443  1.00  0.00    -0.014 A 
BRANCH  38  39
ATOM     39  C   UNL A   1      40.565  27.894  29.181  1.00  0.00     0.031 A 
ATOM     40  C   UNL A   1      41.940  27.961  29.791  1.00  0.00     0.074 A 
ATOM     41  C   UNL A   1      39.703  28.916  29.343  1.00  0.00     0.049 A 
ATOM     42  N   UNL A   1      42.486  28.916  30.499  1.00  0.00    -0.248 NA
ATOM     43  C   UNL A   1      42.805  26.785  29.605  1.00  0.00     0.031 C 
ATOM     44  C   UNL A   1      38.332  28.952  28.831  1.00  0.00     0.029 A 
ATOM     45  N   UNL A   1      39.848  30.120  29.987  1.00  0.00    -0.354 N 
ATOM     46  C   UNL A   1      43.749  28.452  30.854  1.00  0.00     0.074 A 
ATOM     47  C   UNL A   1      43.861  27.106  30.337  1.00  0.00     0.031 C 
ATOM     48  C   UNL A   1      37.776  30.131  29.146  1.00  0.00     0.029 A 
ATOM     49  C   UNL A   1      38.732  30.917  29.922  1.00  0.00     0.049 A 
ATOM     50  H   UNL A   1      40.675  30.386  30.451  1.00  0.00     0.167 HD
ATOM     51  C   UNL A   1      44.731  29.097  31.530  1.00  0.00     0.037 A 
ATOM     52  C   UNL A   1      38.500  32.142  30.432  1.00  0.00     0.037 A 
ATOM     53  C   UNL A   1      44.606  30.440  32.036  1.00  0.00     0.049 A 
ATOM     54  C   UNL A   1      39.593  32.829  31.204  1.00  0.00     0.074 A 
ATOM     55  C   UNL A   1      45.556  31.207  32.687  1.00  0.00     0.029 A 
ATOM     56  N   UNL A   1      43.453  31.212  31.961  1.00  0.00    -0.354 N 
ATOM     57  N   UNL A   1      40.805  32.406  31.473  1.00  0.00    -0.248 NA
ATOM     58  C   UNL A   1      39.288  34.164  31.737  1.00  0.00     0.031 C 
ATOM     59  C   UNL A   1      44.959  32.417  33.060  1.00  0.00     0.029 A 
ATOM     60  C   UNL A   1      43.657  32.433  32.583  1.00  0.00     0.049 A 
ATOM     61  H   UNL A   1      42.615  30.932  31.529  1.00  0.00     0.167 HD
ATOM     62  C   UNL A   1      41.419  33.433  32.182  1.00  0.00     0.074 A 
ATOM     63  C   UNL A   1      40.445  34.501  32.290  1.00  0.00     0.031 C 
ATOM     64  C   UNL A   1      42.676  33.488  32.690  1.00  0.00     0.037 A 
BRANCH  51  65
ATOM     65  C   UNL A   1      46.012  28.341  31.779  1.00  0.00     0.058 A 
ATOM     66  C   UNL A   1      46.185  27.518  32.904  1.00  0.00     0.135 A 
ATOM     67  C   UNL A   1      47.090  28.449  30.884  1.00  0.00     0.135 A 
ATOM     68  F   UNL A   1      45.194  27.380  33.801  1.00  0.00    -0.206 F 
ATOM     69  C   UNL A   1      47.395  26.882  33.167  1.00  0.00     0.059 A 
ATOM     70  C   UNL A   1      48.297  27.791  31.106  1.00  0.00     0.059 A 
ATOM     71  F   UNL A   1      46.984  29.214  29.786  1.00  0.00    -0.206 F 
ATOM     72  C   UNL A   1      48.448  27.032  32.264  1.00  0.00     0.060 A 
BRANCH  72  73
ATOM     73  S   UNL A   1      50.025  26.238  32.640  1.00  0.00     0.124 S 
ATOM     74  O   UNL A   1      49.676  24.825  32.511  1.00  0.00    -0.237 OA
ATOM     75  O   UNL A   1      50.900  26.770  31.601  1.00  0.00    -0.237 OA
ATOM     76  O   UNL A   1      50.320  26.688  33.996  1.00  0.00    -0.744 OA
ENDBRANCH  72  73
ENDBRANCH  51  65
BRANCH  52  77
ATOM     77  C   UNL A   1      37.193  32.806  30.184  1.00  0.00     0.058 A 
ATOM     78  C   UNL A   1      36.161  32.735  31.130  1.00  0.00     0.135 A 
ATOM     79  C   UNL A   1      36.967  33.572  29.028  1.00  0.00     0.135 A 
ATOM     80  F   UNL A   1      36.325  32.008  32.246  1.00  0.00    -0.206 F 
ATOM     81  C   UNL A   1      34.953  33.398  30.945  1.00  0.00     0.059 A 
ATOM     82  C   UNL A   1      35.777  34.266  28.832  1.00  0.00     0.059 A 
ATOM     83  F   UNL A   1      37.928  33.684  28.098  1.00  0.00    -0.206 F 
ATOM     84  C   UNL A   1      34.774  34.172  29.796  1.00  0.00     0.060 A 
BRANCH  84  85
ATOM     85  S   UNL A   1      33.235  35.097  29.609  1.00  0.00     0.124 S 
ATOM     86  O   UNL A   1      33.729  36.432  29.293  1.00  0.00    -0.237 OA
ATOM     87  O   UNL A   1      32.581  34.382  28.519  1.00  0.00    -0.237 OA
ATOM     88  O   UNL A   1      32.596  34.954  30.914  1.00  0.00    -0.744 OA
ENDBRANCH  84  85
ENDBRANCH  52  77
BRANCH  64  89
ATOM     89  C   UNL A   1      43.087  34.757  33.386  1.00  0.00     0.058 A 
ATOM     90  C   UNL A   1      43.083  34.872  34.785  1.00  0.00     0.135 A 
ATOM     91  C   UNL A   1      43.541  35.859  32.641  1.00  0.00     0.135 A 
ATOM     92  F   UNL A   1      42.651  33.854  35.546  1.00  0.00    -0.206 F 
ATOM     93  C   UNL A   1      43.490  36.041  35.421  1.00  0.00     0.059 A 
ATOM     94  C   UNL A   1      43.984  37.025  33.256  1.00  0.00     0.059 A 
ATOM     95  F   UNL A   1      43.576  35.800  31.301  1.00  0.00    -0.206 F 
ATOM     96  C   UNL A   1      43.943  37.111  34.647  1.00  0.00     0.060 A 
BRANCH  96  97
ATOM     97  S   UNL A   1      44.504  38.608  35.486  1.00  0.00     0.124 S 
ATOM     98  O   UNL A   1      43.864  38.471  36.790  1.00  0.00    -0.237 OA
ATOM     99  O   UNL A   1      45.954  38.447  35.472  1.00  0.00    -0.237 OA
ATOM    100  O   UNL A   1      43.988  39.684  34.645  1.00  0.00    -0.744 OA
ENDBRANCH  96  97
ENDBRANCH  64  89
ENDBRANCH  38  39
ENDBRANCH  30  33
ENDBRANCH  28  29
ENDBRANCH   1  28
TORSDOF 18
ENDMDL
