MODEL 1
REMARK VINA RESULT:     -11.8      0.000      0.000
REMARK SMILES Cc1cc(C[NH+]2C[C@@H](C)[C@H](C)C2)oc1C(=O)NCCCNC(=O)c1ccc(-c2c3nc(c(-c4c(F)cc(S(=O)(=O)[O-])cc4F)c4ccc([nH]4)c(-c4c(F)cc(S(=O)(=O)[O-])cc4F)c4nc(c(-c5c(F)cc(S(=O)(=O)[O-])cc5F)c5ccc2[nH]5)C=C4)C=C3)cc1
REMARK SMILES IDX 19 1 18 2 17 3 15 4 16 5 14 7 1 8 2 9 3 10 4 11 13 12 5 13
REMARK SMILES IDX 6 14 7 15 12 16 8 18 10 19 9 20 11 21 20 22 21 23 22 24
REMARK SMILES IDX 23 26 24 27 25 28 89 29 26 30 88 31 27 32 28 33 29 34 82 35
REMARK SMILES IDX 30 36 87 37 81 38 83 39 31 40 86 41 80 42 79 43 32 45 66 46
REMARK SMILES IDX 45 47 65 48 46 49 49 50 64 51 84 52 47 53 48 54 63 56 85 57
REMARK SMILES IDX 50 58 33 59 34 60 43 61 35 62 36 63 42 64 44 65 37 66 38 67
REMARK SMILES IDX 39 68 40 69 41 70 67 71 68 72 77 73 69 74 70 75 76 76 78 77
REMARK SMILES IDX 71 78 72 79 73 80 74 81 75 82 51 83 52 84 61 85 53 86 54 87
REMARK SMILES IDX 60 88 62 89 55 90 56 91 57 92 58 93 59 94
REMARK H PARENT 17 6 6 17 21 25 83 44 49 55
REMARK Flexibility Score: inf
ROOT
ATOM      1  C   UNL A   1      40.403  21.398  27.132  1.00  0.00     0.042 C 
ENDROOT
BRANCH   1   2
ATOM      2  C   UNL A   1      41.608  20.626  27.639  1.00  0.00     0.118 C 
BRANCH   2   3
ATOM      3  N   UNL A   1      41.767  19.316  27.053  1.00  0.00    -0.349 N 
ATOM      4  C   UNL A   1      42.674  18.866  26.120  1.00  0.00     0.287 C 
ATOM      5  O   UNL A   1      42.503  17.701  25.752  1.00  0.00    -0.266 OA
ATOM      6  H   UNL A   1      41.127  18.639  27.370  1.00  0.00     0.163 HD
BRANCH   4   7
ATOM      7  C   UNL A   1      43.738  19.706  25.582  1.00  0.00     0.194 A 
ATOM      8  C   UNL A   1      46.081  18.506  25.554  1.00  0.00     0.049 C 
ATOM      9  C   UNL A   1      45.107  19.604  25.322  1.00  0.00     0.001 A 
ATOM     10  C   UNL A   1      45.490  20.835  24.713  1.00  0.00     0.056 A 
ATOM     11  C   UNL A   1      44.380  21.638  24.682  1.00  0.00     0.159 A 
ATOM     12  O   UNL A   1      43.314  20.952  25.167  1.00  0.00    -0.450 OA
BRANCH  11  13
ATOM     13  C   UNL A   1      44.145  23.046  24.252  1.00  0.00     0.338 C 
BRANCH  13  14
ATOM     14  N   UNL A   1      44.062  24.020  25.346  1.00  0.00    -0.328 N 
ATOM     15  C   UNL A   1      44.423  23.483  26.660  1.00  0.00     0.266 C 
ATOM     16  C   UNL A   1      44.776  25.283  25.137  1.00  0.00     0.266 C 
ATOM     17  H   UNL A   1      43.066  24.234  25.334  1.00  0.00     0.348 HD
ATOM     18  C   UNL A   1      44.728  24.739  27.471  1.00  0.00     0.049 C 
ATOM     19  C   UNL A   1      45.503  25.576  26.454  1.00  0.00     0.049 C 
ATOM     20  C   UNL A   1      45.506  24.436  28.743  1.00  0.00     0.014 C 
ATOM     21  C   UNL A   1      45.566  27.061  26.773  1.00  0.00     0.014 C 
ENDBRANCH  13  14
ENDBRANCH  11  13
ENDBRANCH   4   7
ENDBRANCH   2   3
ENDBRANCH   1   2
BRANCH   1  22
ATOM     22  C   UNL A   1      40.416  22.885  27.450  1.00  0.00     0.118 C 
BRANCH  22  23
ATOM     23  N   UNL A   1      40.785  23.722  26.314  1.00  0.00    -0.352 N 
ATOM     24  C   UNL A   1      40.979  25.080  26.196  1.00  0.00     0.251 C 
ATOM     25  H   UNL A   1      40.921  23.223  25.476  1.00  0.00     0.163 HD
ATOM     26  O   UNL A   1      41.137  25.559  25.075  1.00  0.00    -0.269 OA
BRANCH  24  27
ATOM     27  C   UNL A   1      40.960  25.972  27.380  1.00  0.00     0.039 A 
ATOM     28  C   UNL A   1      41.978  26.920  27.536  1.00  0.00     0.014 A 
ATOM     29  C   UNL A   1      39.969  25.873  28.354  1.00  0.00     0.014 A 
ATOM     30  C   UNL A   1      41.939  27.821  28.605  1.00  0.00     0.010 A 
ATOM     31  C   UNL A   1      39.861  26.845  29.342  1.00  0.00     0.010 A 
ATOM     32  C   UNL A   1      40.848  27.829  29.489  1.00  0.00    -0.014 A 
BRANCH  32  33
ATOM     33  C   UNL A   1      40.717  28.833  30.579  1.00  0.00     0.031 A 
ATOM     34  C   UNL A   1      41.583  28.726  31.810  1.00  0.00     0.074 A 
ATOM     35  C   UNL A   1      39.762  29.782  30.509  1.00  0.00     0.049 A 
ATOM     36  N   UNL A   1      41.529  29.413  32.922  1.00  0.00    -0.248 NA
ATOM     37  C   UNL A   1      42.620  27.680  31.806  1.00  0.00     0.031 C 
ATOM     38  C   UNL A   1      38.820  29.960  29.401  1.00  0.00     0.029 A 
ATOM     39  N   UNL A   1      39.413  30.770  31.396  1.00  0.00    -0.354 N 
ATOM     40  C   UNL A   1      42.494  28.861  33.757  1.00  0.00     0.074 A 
ATOM     41  C   UNL A   1      43.082  27.747  33.046  1.00  0.00     0.031 C 
ATOM     42  C   UNL A   1      38.028  31.013  29.658  1.00  0.00     0.029 A 
ATOM     43  C   UNL A   1      38.369  31.558  30.967  1.00  0.00     0.049 A 
ATOM     44  H   UNL A   1      39.867  30.903  32.259  1.00  0.00     0.167 HD
ATOM     45  C   UNL A   1      42.878  29.261  34.992  1.00  0.00     0.037 A 
ATOM     46  C   UNL A   1      37.752  32.597  31.563  1.00  0.00     0.037 A 
ATOM     47  C   UNL A   1      42.333  30.406  35.672  1.00  0.00     0.049 A 
ATOM     48  C   UNL A   1      38.216  33.042  32.923  1.00  0.00     0.074 A 
ATOM     49  C   UNL A   1      42.708  30.942  36.891  1.00  0.00     0.029 A 
ATOM     50  N   UNL A   1      41.305  31.199  35.184  1.00  0.00    -0.354 N 
ATOM     51  N   UNL A   1      39.167  32.540  33.674  1.00  0.00    -0.248 NA
ATOM     52  C   UNL A   1      37.527  34.196  33.516  1.00  0.00     0.031 C 
ATOM     53  C   UNL A   1      41.881  32.039  37.158  1.00  0.00     0.029 A 
ATOM     54  C   UNL A   1      41.022  32.212  36.085  1.00  0.00     0.049 A 
ATOM     55  H   UNL A   1      40.843  31.062  34.326  1.00  0.00     0.167 HD
ATOM     56  C   UNL A   1      39.210  33.333  34.814  1.00  0.00     0.074 A 
ATOM     57  C   UNL A   1      38.196  34.354  34.651  1.00  0.00     0.031 C 
ATOM     58  C   UNL A   1      40.017  33.228  35.899  1.00  0.00     0.037 A 
BRANCH  45  59
ATOM     59  C   UNL A   1      43.953  28.466  35.684  1.00  0.00     0.058 A 
ATOM     60  C   UNL A   1      43.643  27.403  36.547  1.00  0.00     0.135 A 
ATOM     61  C   UNL A   1      45.310  28.745  35.453  1.00  0.00     0.135 A 
ATOM     62  F   UNL A   1      42.363  27.103  36.819  1.00  0.00    -0.206 F 
ATOM     63  C   UNL A   1      44.637  26.664  37.179  1.00  0.00     0.059 A 
ATOM     64  C   UNL A   1      46.322  28.000  36.051  1.00  0.00     0.059 A 
ATOM     65  F   UNL A   1      45.663  29.751  34.636  1.00  0.00    -0.206 F 
ATOM     66  C   UNL A   1      45.975  26.970  36.924  1.00  0.00     0.060 A 
BRANCH  66  67
ATOM     67  S   UNL A   1      47.254  25.993  37.741  1.00  0.00     0.124 S 
ATOM     68  O   UNL A   1      46.448  25.058  38.522  1.00  0.00    -0.237 OA
ATOM     69  O   UNL A   1      47.975  25.416  36.612  1.00  0.00    -0.237 OA
ATOM     70  O   UNL A   1      47.996  26.982  38.517  1.00  0.00    -0.744 OA
ENDBRANCH  66  67
ENDBRANCH  45  59
BRANCH  46  71
ATOM     71  C   UNL A   1      36.653  33.314  30.862  1.00  0.00     0.058 A 
ATOM     72  C   UNL A   1      35.320  33.154  31.270  1.00  0.00     0.135 A 
ATOM     73  C   UNL A   1      36.907  34.179  29.787  1.00  0.00     0.135 A 
ATOM     74  F   UNL A   1      35.026  32.333  32.290  1.00  0.00    -0.206 F 
ATOM     75  C   UNL A   1      34.276  33.812  30.630  1.00  0.00     0.059 A 
ATOM     76  C   UNL A   1      35.882  34.868  29.145  1.00  0.00     0.059 A 
ATOM     77  F   UNL A   1      38.167  34.381  29.369  1.00  0.00    -0.206 F 
ATOM     78  C   UNL A   1      34.567  34.670  29.568  1.00  0.00     0.060 A 
BRANCH  78  79
ATOM     79  S   UNL A   1      33.210  35.560  28.776  1.00  0.00     0.124 S 
ATOM     80  O   UNL A   1      33.930  36.565  28.001  1.00  0.00    -0.237 OA
ATOM     81  O   UNL A   1      32.559  34.505  28.006  1.00  0.00    -0.237 OA
ATOM     82  O   UNL A   1      32.438  36.067  29.906  1.00  0.00    -0.744 OA
ENDBRANCH  78  79
ENDBRANCH  46  71
BRANCH  58  83
ATOM     83  C   UNL A   1      39.868  34.263  36.977  1.00  0.00     0.058 A 
ATOM     84  C   UNL A   1      40.562  35.482  36.929  1.00  0.00     0.135 A 
ATOM     85  C   UNL A   1      38.974  34.057  38.040  1.00  0.00     0.135 A 
ATOM     86  F   UNL A   1      41.432  35.725  35.936  1.00  0.00    -0.206 F 
ATOM     87  C   UNL A   1      40.390  36.453  37.909  1.00  0.00     0.059 A 
ATOM     88  C   UNL A   1      38.767  35.024  39.017  1.00  0.00     0.059 A 
ATOM     89  F   UNL A   1      38.279  32.911  38.125  1.00  0.00    -0.206 F 
ATOM     90  C   UNL A   1      39.488  36.215  38.949  1.00  0.00     0.060 A 
BRANCH  90  91
ATOM     91  S   UNL A   1      39.244  37.498  40.195  1.00  0.00     0.124 S 
ATOM     92  O   UNL A   1      40.552  38.146  40.209  1.00  0.00    -0.237 OA
ATOM     93  O   UNL A   1      38.154  38.284  39.625  1.00  0.00    -0.237 OA
ATOM     94  O   UNL A   1      38.902  36.744  41.397  1.00  0.00    -0.744 OA
ENDBRANCH  90  91
ENDBRANCH  58  83
ENDBRANCH  32  33
ENDBRANCH  24  27
ENDBRANCH  22  23
ENDBRANCH   1  22
TORSDOF 15
ENDMDL
MODEL 2
REMARK VINA RESULT:     -11.7      6.119     12.004
REMARK SMILES Cc1cc(C[NH+]2C[C@@H](C)[C@H](C)C2)oc1C(=O)NCCCNC(=O)c1ccc(-c2c3nc(c(-c4c(F)cc(S(=O)(=O)[O-])cc4F)c4ccc([nH]4)c(-c4c(F)cc(S(=O)(=O)[O-])cc4F)c4nc(c(-c5c(F)cc(S(=O)(=O)[O-])cc5F)c5ccc2[nH]5)C=C4)C=C3)cc1
REMARK SMILES IDX 19 1 18 2 17 3 15 4 16 5 14 7 1 8 2 9 3 10 4 11 13 12 5 13
REMARK SMILES IDX 6 14 7 15 12 16 8 18 10 19 9 20 11 21 20 22 21 23 22 24
REMARK SMILES IDX 23 26 24 27 25 28 89 29 26 30 88 31 27 32 28 33 29 34 82 35
REMARK SMILES IDX 30 36 87 37 81 38 83 39 31 40 86 41 80 42 79 43 32 45 66 46
REMARK SMILES IDX 45 47 65 48 46 49 49 50 64 51 84 52 47 53 48 54 63 56 85 57
REMARK SMILES IDX 50 58 33 59 34 60 43 61 35 62 36 63 42 64 44 65 37 66 38 67
REMARK SMILES IDX 39 68 40 69 41 70 67 71 68 72 77 73 69 74 70 75 76 76 78 77
REMARK SMILES IDX 71 78 72 79 73 80 74 81 75 82 51 83 52 84 61 85 53 86 54 87
REMARK SMILES IDX 60 88 62 89 55 90 56 91 57 92 58 93 59 94
REMARK H PARENT 17 6 6 17 21 25 83 44 49 55
REMARK Flexibility Score: inf
ROOT
ATOM      1  C   UNL A   1      32.271  27.842  26.362  1.00  0.00     0.042 C 
ENDROOT
BRANCH   1   2
ATOM      2  C   UNL A   1      32.181  26.358  26.051  1.00  0.00     0.118 C 
BRANCH   2   3
ATOM      3  N   UNL A   1      31.093  25.675  26.709  1.00  0.00    -0.349 N 
ATOM      4  C   UNL A   1      30.603  24.402  26.525  1.00  0.00     0.287 C 
ATOM      5  O   UNL A   1      29.600  24.131  27.188  1.00  0.00    -0.266 OA
ATOM      6  H   UNL A   1      30.627  26.203  27.398  1.00  0.00     0.163 HD
BRANCH   4   7
ATOM      7  C   UNL A   1      31.204  23.452  25.595  1.00  0.00     0.194 A 
ATOM      8  C   UNL A   1      30.736  24.046  23.073  1.00  0.00     0.049 C 
ATOM      9  C   UNL A   1      31.298  23.275  24.212  1.00  0.00     0.001 A 
ATOM     10  C   UNL A   1      32.121  22.128  24.012  1.00  0.00     0.056 A 
ATOM     11  C   UNL A   1      32.437  21.631  25.249  1.00  0.00     0.159 A 
ATOM     12  O   UNL A   1      31.922  22.444  26.206  1.00  0.00    -0.450 OA
BRANCH  11  13
ATOM     13  C   UNL A   1      33.187  20.427  25.710  1.00  0.00     0.338 C 
BRANCH  13  14
ATOM     14  N   UNL A   1      32.769  19.165  25.090  1.00  0.00    -0.328 N 
ATOM     15  C   UNL A   1      33.563  18.776  23.922  1.00  0.00     0.266 C 
ATOM     16  C   UNL A   1      32.654  18.015  25.991  1.00  0.00     0.266 C 
ATOM     17  H   UNL A   1      31.826  19.405  24.788  1.00  0.00     0.348 HD
ATOM     18  C   UNL A   1      33.271  17.284  23.793  1.00  0.00     0.049 C 
ATOM     19  C   UNL A   1      33.307  16.840  25.255  1.00  0.00     0.049 C 
ATOM     20  C   UNL A   1      34.280  16.569  22.906  1.00  0.00     0.014 C 
ATOM     21  C   UNL A   1      32.616  15.515  25.532  1.00  0.00     0.014 C 
ENDBRANCH  13  14
ENDBRANCH  11  13
ENDBRANCH   4   7
ENDBRANCH   2   3
ENDBRANCH   1   2
BRANCH   1  22
ATOM     22  C   UNL A   1      33.445  28.241  27.242  1.00  0.00     0.118 C 
BRANCH  22  23
ATOM     23  N   UNL A   1      33.480  29.664  27.560  1.00  0.00    -0.352 N 
ATOM     24  C   UNL A   1      34.471  30.467  28.078  1.00  0.00     0.251 C 
ATOM     25  H   UNL A   1      32.639  30.138  27.368  1.00  0.00     0.163 HD
ATOM     26  O   UNL A   1      34.190  31.620  28.398  1.00  0.00    -0.269 OA
BRANCH  24  27
ATOM     27  C   UNL A   1      35.847  29.959  28.293  1.00  0.00     0.039 A 
ATOM     28  C   UNL A   1      36.775  30.045  27.248  1.00  0.00     0.014 A 
ATOM     29  C   UNL A   1      36.232  29.376  29.497  1.00  0.00     0.014 A 
ATOM     30  C   UNL A   1      38.100  29.642  27.452  1.00  0.00     0.010 A 
ATOM     31  C   UNL A   1      37.572  29.094  29.740  1.00  0.00     0.010 A 
ATOM     32  C   UNL A   1      38.525  29.214  28.719  1.00  0.00    -0.014 A 
BRANCH  32  33
ATOM     33  C   UNL A   1      39.944  28.871  29.007  1.00  0.00     0.031 A 
ATOM     34  C   UNL A   1      40.865  29.907  29.602  1.00  0.00     0.074 A 
ATOM     35  C   UNL A   1      40.430  27.665  28.649  1.00  0.00     0.049 A 
ATOM     36  N   UNL A   1      42.157  29.852  29.799  1.00  0.00    -0.248 NA
ATOM     37  C   UNL A   1      40.259  31.193  29.990  1.00  0.00     0.031 C 
ATOM     38  C   UNL A   1      39.661  26.593  28.012  1.00  0.00     0.029 A 
ATOM     39  N   UNL A   1      41.695  27.140  28.756  1.00  0.00    -0.354 N 
ATOM     40  C   UNL A   1      42.520  31.098  30.296  1.00  0.00     0.074 A 
ATOM     41  C   UNL A   1      41.323  31.909  30.319  1.00  0.00     0.031 C 
ATOM     42  C   UNL A   1      40.459  25.530  27.818  1.00  0.00     0.029 A 
ATOM     43  C   UNL A   1      41.806  25.857  28.272  1.00  0.00     0.049 A 
ATOM     44  H   UNL A   1      42.452  27.636  29.143  1.00  0.00     0.167 HD
ATOM     45  C   UNL A   1      43.733  31.523  30.722  1.00  0.00     0.037 A 
ATOM     46  C   UNL A   1      42.873  25.038  28.197  1.00  0.00     0.037 A 
ATOM     47  C   UNL A   1      44.909  30.694  30.753  1.00  0.00     0.049 A 
ATOM     48  C   UNL A   1      44.204  25.521  28.704  1.00  0.00     0.074 A 
ATOM     49  C   UNL A   1      46.167  31.002  31.240  1.00  0.00     0.029 A 
ATOM     50  N   UNL A   1      44.968  29.387  30.291  1.00  0.00    -0.354 N 
ATOM     51  N   UNL A   1      44.516  26.686  29.219  1.00  0.00    -0.248 NA
ATOM     52  C   UNL A   1      45.329  24.579  28.622  1.00  0.00     0.031 C 
ATOM     53  C   UNL A   1      46.997  29.895  31.037  1.00  0.00     0.029 A 
ATOM     54  C   UNL A   1      46.245  28.881  30.467  1.00  0.00     0.049 A 
ATOM     55  H   UNL A   1      44.214  28.893  29.895  1.00  0.00     0.167 HD
ATOM     56  C   UNL A   1      45.863  26.607  29.550  1.00  0.00     0.074 A 
ATOM     57  C   UNL A   1      46.306  25.277  29.185  1.00  0.00     0.031 C 
ATOM     58  C   UNL A   1      46.663  27.549  30.108  1.00  0.00     0.037 A 
BRANCH  45  59
ATOM     59  C   UNL A   1      43.849  32.942  31.207  1.00  0.00     0.058 A 
ATOM     60  C   UNL A   1      44.068  34.008  30.320  1.00  0.00     0.135 A 
ATOM     61  C   UNL A   1      43.701  33.247  32.570  1.00  0.00     0.135 A 
ATOM     62  F   UNL A   1      44.235  33.774  29.008  1.00  0.00    -0.206 F 
ATOM     63  C   UNL A   1      44.166  35.321  30.768  1.00  0.00     0.059 A 
ATOM     64  C   UNL A   1      43.766  34.556  33.038  1.00  0.00     0.059 A 
ATOM     65  F   UNL A   1      43.490  32.266  33.463  1.00  0.00    -0.206 F 
ATOM     66  C   UNL A   1      44.013  35.585  32.131  1.00  0.00     0.060 A 
BRANCH  66  67
ATOM     67  S   UNL A   1      44.130  37.296  32.695  1.00  0.00     0.124 S 
ATOM     68  O   UNL A   1      44.006  38.025  31.436  1.00  0.00    -0.237 OA
ATOM     69  O   UNL A   1      42.993  37.404  33.603  1.00  0.00    -0.237 OA
ATOM     70  O   UNL A   1      45.443  37.357  33.329  1.00  0.00    -0.744 OA
ENDBRANCH  66  67
ENDBRANCH  45  59
BRANCH  46  71
ATOM     71  C   UNL A   1      42.720  23.662  27.653  1.00  0.00     0.058 A 
ATOM     72  C   UNL A   1      42.864  23.415  26.279  1.00  0.00     0.135 A 
ATOM     73  C   UNL A   1      42.444  22.568  28.487  1.00  0.00     0.135 A 
ATOM     74  F   UNL A   1      43.122  24.429  25.440  1.00  0.00    -0.206 F 
ATOM     75  C   UNL A   1      42.723  22.138  25.748  1.00  0.00     0.059 A 
ATOM     76  C   UNL A   1      42.323  21.276  27.982  1.00  0.00     0.059 A 
ATOM     77  F   UNL A   1      42.315  22.747  29.811  1.00  0.00    -0.206 F 
ATOM     78  C   UNL A   1      42.455  21.072  26.609  1.00  0.00     0.060 A 
BRANCH  78  79
ATOM     79  S   UNL A   1      42.326  19.409  25.916  1.00  0.00     0.124 S 
ATOM     80  O   UNL A   1      43.172  19.518  24.733  1.00  0.00    -0.237 OA
ATOM     81  O   UNL A   1      42.846  18.584  27.000  1.00  0.00    -0.237 OA
ATOM     82  O   UNL A   1      40.896  19.264  25.660  1.00  0.00    -0.744 OA
ENDBRANCH  78  79
ENDBRANCH  46  71
BRANCH  58  83
ATOM     83  C   UNL A   1      48.087  27.168  30.396  1.00  0.00     0.058 A 
ATOM     84  C   UNL A   1      49.116  27.415  29.474  1.00  0.00     0.135 A 
ATOM     85  C   UNL A   1      48.434  26.603  31.634  1.00  0.00     0.135 A 
ATOM     86  F   UNL A   1      48.835  27.947  28.274  1.00  0.00    -0.206 F 
ATOM     87  C   UNL A   1      50.439  27.096  29.762  1.00  0.00     0.059 A 
ATOM     88  C   UNL A   1      49.753  26.300  31.953  1.00  0.00     0.059 A 
ATOM     89  F   UNL A   1      47.487  26.357  32.553  1.00  0.00    -0.206 F 
ATOM     90  C   UNL A   1      50.747  26.540  31.005  1.00  0.00     0.060 A 
BRANCH  90  91
ATOM     91  S   UNL A   1      52.472  26.166  31.384  1.00  0.00     0.124 S 
ATOM     92  O   UNL A   1      52.818  27.258  32.289  1.00  0.00    -0.237 OA
ATOM     93  O   UNL A   1      52.379  24.843  31.993  1.00  0.00    -0.237 OA
ATOM     94  O   UNL A   1      53.123  26.203  30.077  1.00  0.00    -0.744 OA
ENDBRANCH  90  91
ENDBRANCH  58  83
ENDBRANCH  32  33
ENDBRANCH  24  27
ENDBRANCH  22  23
ENDBRANCH   1  22
TORSDOF 15
ENDMDL
MODEL 3
REMARK VINA RESULT:     -11.7      5.650     11.585
REMARK SMILES Cc1cc(C[NH+]2C[C@@H](C)[C@H](C)C2)oc1C(=O)NCCCNC(=O)c1ccc(-c2c3nc(c(-c4c(F)cc(S(=O)(=O)[O-])cc4F)c4ccc([nH]4)c(-c4c(F)cc(S(=O)(=O)[O-])cc4F)c4nc(c(-c5c(F)cc(S(=O)(=O)[O-])cc5F)c5ccc2[nH]5)C=C4)C=C3)cc1
REMARK SMILES IDX 19 1 18 2 17 3 15 4 16 5 14 7 1 8 2 9 3 10 4 11 13 12 5 13
REMARK SMILES IDX 6 14 7 15 12 16 8 18 10 19 9 20 11 21 20 22 21 23 22 24
REMARK SMILES IDX 23 26 24 27 25 28 89 29 26 30 88 31 27 32 28 33 29 34 82 35
REMARK SMILES IDX 30 36 87 37 81 38 83 39 31 40 86 41 80 42 79 43 32 45 66 46
REMARK SMILES IDX 45 47 65 48 46 49 49 50 64 51 84 52 47 53 48 54 63 56 85 57
REMARK SMILES IDX 50 58 33 59 34 60 43 61 35 62 36 63 42 64 44 65 37 66 38 67
REMARK SMILES IDX 39 68 40 69 41 70 67 71 68 72 77 73 69 74 70 75 76 76 78 77
REMARK SMILES IDX 71 78 72 79 73 80 74 81 75 82 51 83 52 84 61 85 53 86 54 87
REMARK SMILES IDX 60 88 62 89 55 90 56 91 57 92 58 93 59 94
REMARK H PARENT 17 6 6 17 21 25 83 44 49 55
REMARK Flexibility Score: inf
ROOT
ATOM      1  C   UNL A   1      33.939  27.911  25.998  1.00  0.00     0.042 C 
ENDROOT
BRANCH   1   2
ATOM      2  C   UNL A   1      33.335  28.564  24.767  1.00  0.00     0.118 C 
BRANCH   2   3
ATOM      3  N   UNL A   1      31.921  28.328  24.599  1.00  0.00    -0.349 N 
ATOM      4  C   UNL A   1      31.254  27.203  24.169  1.00  0.00     0.287 C 
ATOM      5  O   UNL A   1      30.034  27.338  24.051  1.00  0.00    -0.266 OA
ATOM      6  H   UNL A   1      31.343  29.091  24.828  1.00  0.00     0.163 HD
BRANCH   4   7
ATOM      7  C   UNL A   1      31.937  25.955  23.846  1.00  0.00     0.194 A 
ATOM      8  C   UNL A   1      32.821  25.877  21.368  1.00  0.00     0.049 C 
ATOM      9  C   UNL A   1      32.591  25.386  22.751  1.00  0.00     0.001 A 
ATOM     10  C   UNL A   1      33.085  24.124  23.193  1.00  0.00     0.056 A 
ATOM     11  C   UNL A   1      32.671  23.955  24.488  1.00  0.00     0.159 A 
ATOM     12  O   UNL A   1      32.014  25.068  24.901  1.00  0.00    -0.450 OA
BRANCH  11  13
ATOM     13  C   UNL A   1      32.792  22.834  25.466  1.00  0.00     0.338 C 
BRANCH  13  14
ATOM     14  N   UNL A   1      34.153  22.582  25.951  1.00  0.00    -0.328 N 
ATOM     15  C   UNL A   1      34.838  21.476  25.278  1.00  0.00     0.266 C 
ATOM     16  C   UNL A   1      35.047  23.743  25.987  1.00  0.00     0.266 C 
ATOM     17  H   UNL A   1      33.964  22.319  26.918  1.00  0.00     0.348 HD
ATOM     18  C   UNL A   1      36.307  21.742  25.592  1.00  0.00     0.049 C 
ATOM     19  C   UNL A   1      36.384  23.259  25.417  1.00  0.00     0.049 C 
ATOM     20  C   UNL A   1      37.246  20.967  24.680  1.00  0.00     0.014 C 
ATOM     21  C   UNL A   1      37.581  23.913  26.088  1.00  0.00     0.014 C 
ENDBRANCH  13  14
ENDBRANCH  11  13
ENDBRANCH   4   7
ENDBRANCH   2   3
ENDBRANCH   1   2
BRANCH   1  22
ATOM     22  C   UNL A   1      33.318  28.338  27.319  1.00  0.00     0.118 C 
BRANCH  22  23
ATOM     23  N   UNL A   1      33.384  29.775  27.558  1.00  0.00    -0.352 N 
ATOM     24  C   UNL A   1      34.397  30.585  28.022  1.00  0.00     0.251 C 
ATOM     25  H   UNL A   1      32.551  30.255  27.350  1.00  0.00     0.163 HD
ATOM     26  O   UNL A   1      34.142  31.759  28.282  1.00  0.00    -0.269 OA
BRANCH  24  27
ATOM     27  C   UNL A   1      35.766  30.062  28.249  1.00  0.00     0.039 A 
ATOM     28  C   UNL A   1      36.696  30.112  27.203  1.00  0.00     0.014 A 
ATOM     29  C   UNL A   1      36.142  29.500  29.466  1.00  0.00     0.014 A 
ATOM     30  C   UNL A   1      38.014  29.694  27.418  1.00  0.00     0.010 A 
ATOM     31  C   UNL A   1      37.477  29.204  29.717  1.00  0.00     0.010 A 
ATOM     32  C   UNL A   1      38.432  29.288  28.695  1.00  0.00    -0.014 A 
BRANCH  32  33
ATOM     33  C   UNL A   1      39.846  28.930  28.991  1.00  0.00     0.031 A 
ATOM     34  C   UNL A   1      40.776  29.960  29.583  1.00  0.00     0.074 A 
ATOM     35  C   UNL A   1      40.320  27.716  28.644  1.00  0.00     0.049 A 
ATOM     36  N   UNL A   1      42.066  29.891  29.787  1.00  0.00    -0.248 NA
ATOM     37  C   UNL A   1      40.183  31.255  29.959  1.00  0.00     0.031 C 
ATOM     38  C   UNL A   1      39.542  26.649  28.011  1.00  0.00     0.029 A 
ATOM     39  N   UNL A   1      41.577  27.178  28.761  1.00  0.00    -0.354 N 
ATOM     40  C   UNL A   1      42.441  31.137  30.276  1.00  0.00     0.074 A 
ATOM     41  C   UNL A   1      41.254  31.962  30.288  1.00  0.00     0.031 C 
ATOM     42  C   UNL A   1      40.327  25.576  27.829  1.00  0.00     0.029 A 
ATOM     43  C   UNL A   1      41.676  25.890  28.287  1.00  0.00     0.049 A 
ATOM     44  H   UNL A   1      42.338  27.668  29.148  1.00  0.00     0.167 HD
ATOM     45  C   UNL A   1      43.657  31.551  30.705  1.00  0.00     0.037 A 
ATOM     46  C   UNL A   1      42.734  25.058  28.222  1.00  0.00     0.037 A 
ATOM     47  C   UNL A   1      44.823  30.708  30.747  1.00  0.00     0.049 A 
ATOM     48  C   UNL A   1      44.069  25.529  28.732  1.00  0.00     0.074 A 
ATOM     49  C   UNL A   1      46.082  31.006  31.238  1.00  0.00     0.029 A 
ATOM     50  N   UNL A   1      44.869  29.398  30.295  1.00  0.00    -0.354 N 
ATOM     51  N   UNL A   1      44.391  26.694  29.241  1.00  0.00    -0.248 NA
ATOM     52  C   UNL A   1      45.183  24.574  28.662  1.00  0.00     0.031 C 
ATOM     53  C   UNL A   1      46.901  29.888  31.047  1.00  0.00     0.029 A 
ATOM     54  C   UNL A   1      46.139  28.878  30.480  1.00  0.00     0.049 A 
ATOM     55  H   UNL A   1      44.112  28.910  29.899  1.00  0.00     0.167 HD
ATOM     56  C   UNL A   1      45.736  26.602  29.578  1.00  0.00     0.074 A 
ATOM     57  C   UNL A   1      46.165  25.265  29.225  1.00  0.00     0.031 C 
ATOM     58  C   UNL A   1      46.544  27.539  30.133  1.00  0.00     0.037 A 
BRANCH  45  59
ATOM     59  C   UNL A   1      43.787  32.972  31.180  1.00  0.00     0.058 A 
ATOM     60  C   UNL A   1      43.627  33.314  32.533  1.00  0.00     0.135 A 
ATOM     61  C   UNL A   1      44.112  34.001  30.281  1.00  0.00     0.135 A 
ATOM     62  F   UNL A   1      43.299  32.375  33.434  1.00  0.00    -0.206 F 
ATOM     63  C   UNL A   1      43.756  34.627  32.973  1.00  0.00     0.059 A 
ATOM     64  C   UNL A   1      44.275  35.317  30.703  1.00  0.00     0.059 A 
ATOM     65  F   UNL A   1      44.276  33.730  28.976  1.00  0.00    -0.206 F 
ATOM     66  C   UNL A   1      44.081  35.623  32.049  1.00  0.00     0.060 A 
BRANCH  66  67
ATOM     67  S   UNL A   1      44.257  37.320  32.638  1.00  0.00     0.124 S 
ATOM     68  O   UNL A   1      43.141  37.419  33.574  1.00  0.00    -0.237 OA
ATOM     69  O   UNL A   1      45.587  37.305  33.239  1.00  0.00    -0.237 OA
ATOM     70  O   UNL A   1      44.130  38.117  31.422  1.00  0.00    -0.744 OA
ENDBRANCH  66  67
ENDBRANCH  45  59
BRANCH  46  71
ATOM     71  C   UNL A   1      42.567  23.680  27.688  1.00  0.00     0.058 A 
ATOM     72  C   UNL A   1      42.611  23.438  26.306  1.00  0.00     0.135 A 
ATOM     73  C   UNL A   1      42.378  22.579  28.537  1.00  0.00     0.135 A 
ATOM     74  F   UNL A   1      42.785  24.458  25.453  1.00  0.00    -0.206 F 
ATOM     75  C   UNL A   1      42.456  22.159  25.783  1.00  0.00     0.059 A 
ATOM     76  C   UNL A   1      42.245  21.286  28.039  1.00  0.00     0.059 A 
ATOM     77  F   UNL A   1      42.347  22.754  29.868  1.00  0.00    -0.206 F 
ATOM     78  C   UNL A   1      42.276  21.087  26.659  1.00  0.00     0.060 A 
BRANCH  78  79
ATOM     79  S   UNL A   1      42.128  19.423  25.973  1.00  0.00     0.124 S 
ATOM     80  O   UNL A   1      42.970  19.519  24.786  1.00  0.00    -0.237 OA
ATOM     81  O   UNL A   1      42.645  18.596  27.059  1.00  0.00    -0.237 OA
ATOM     82  O   UNL A   1      40.695  19.291  25.724  1.00  0.00    -0.744 OA
ENDBRANCH  78  79
ENDBRANCH  46  71
BRANCH  58  83
ATOM     83  C   UNL A   1      47.962  27.144  30.430  1.00  0.00     0.058 A 
ATOM     84  C   UNL A   1      48.996  27.356  29.504  1.00  0.00     0.135 A 
ATOM     85  C   UNL A   1      48.300  26.600  31.680  1.00  0.00     0.135 A 
ATOM     86  F   UNL A   1      48.723  27.868  28.294  1.00  0.00    -0.206 F 
ATOM     87  C   UNL A   1      50.313  27.025  29.800  1.00  0.00     0.059 A 
ATOM     88  C   UNL A   1      49.614  26.285  32.007  1.00  0.00     0.059 A 
ATOM     89  F   UNL A   1      47.349  26.387  32.604  1.00  0.00    -0.206 F 
ATOM     90  C   UNL A   1      50.613  26.491  31.056  1.00  0.00     0.060 A 
BRANCH  90  91
ATOM     91  S   UNL A   1      52.332  26.100  31.443  1.00  0.00     0.124 S 
ATOM     92  O   UNL A   1      52.962  26.218  30.132  1.00  0.00    -0.237 OA
ATOM     93  O   UNL A   1      52.679  27.140  32.408  1.00  0.00    -0.237 OA
ATOM     94  O   UNL A   1      52.259  24.748  31.987  1.00  0.00    -0.744 OA
ENDBRANCH  90  91
ENDBRANCH  58  83
ENDBRANCH  32  33
ENDBRANCH  24  27
ENDBRANCH  22  23
ENDBRANCH   1  22
TORSDOF 15
ENDMDL
