MODEL 1
REMARK VINA RESULT:     -12.2      0.000      0.000
REMARK SMILES O=C(CSc1nnc(-c2ccncc2)s1)Nc1cccc(C(=O)NCCCNC(=O)c2ccc(-c3c4nc(c(-c5c(F)cc(S(=O)(=O)[O-])cc5F)c5ccc([nH]5)c(-c5c(F)cc(S(=O)(=O)[O-])cc5F)c5nc(c(-c6c(F)cc(S(=O)(=O)[O-])cc6F)c6ccc3[nH]6)C=C5)C=C4)cc2)c1
REMARK SMILES IDX 25 1 24 2 22 3 23 4 21 6 17 7 18 8 97 9 19 10 20 11 16 12
REMARK SMILES IDX 1 13 2 14 3 16 4 17 5 18 6 19 15 20 7 21 8 22 9 23 10 24
REMARK SMILES IDX 14 25 11 26 13 27 12 28 26 29 27 30 28 31 29 32 30 34 31 35
REMARK SMILES IDX 32 36 96 37 33 38 95 39 34 40 35 41 36 42 89 43 37 44 94 45
REMARK SMILES IDX 88 46 90 47 38 48 93 49 87 50 86 51 39 53 73 54 52 55 72 56
REMARK SMILES IDX 53 57 56 58 71 59 91 60 54 61 55 62 70 64 92 65 57 66 40 67
REMARK SMILES IDX 41 68 50 69 42 70 43 71 49 72 51 73 44 74 45 75 46 76 47 77
REMARK SMILES IDX 48 78 74 79 75 80 84 81 76 82 77 83 83 84 85 85 78 86 79 87
REMARK SMILES IDX 80 88 81 89 82 90 58 91 59 92 68 93 60 94 61 95 67 96 69 97
REMARK SMILES IDX 62 98 63 99 64 100 65 101 66 102
REMARK H PARENT 24 5 16 15 28 33 90 52 56 63
REMARK Flexibility Score: inf
ROOT
ATOM      1  C   UNL A   1      35.510  33.484  28.109  1.00  0.00     0.118 C 
ENDROOT
BRANCH   1   2
ATOM      2  N   UNL A   1      34.065  33.583  27.917  1.00  0.00    -0.352 N 
ATOM      3  C   UNL A   1      33.098  32.649  27.614  1.00  0.00     0.251 C 
ATOM      4  O   UNL A   1      31.934  33.030  27.491  1.00  0.00    -0.269 OA
ATOM      5  H   UNL A   1      33.713  34.496  28.025  1.00  0.00     0.163 HD
BRANCH   3   6
ATOM      6  C   UNL A   1      33.418  31.218  27.360  1.00  0.00     0.041 A 
ATOM      7  C   UNL A   1      32.681  28.948  26.948  1.00  0.00     0.041 A 
ATOM      8  C   UNL A   1      33.953  28.479  27.287  1.00  0.00     0.026 A 
ATOM      9  C   UNL A   1      32.477  30.323  26.858  1.00  0.00     0.040 A 
ATOM     10  C   UNL A   1      34.975  29.381  27.600  1.00  0.00     0.003 A 
ATOM     11  C   UNL A   1      34.696  30.747  27.677  1.00  0.00     0.014 A 
BRANCH   7  12
ATOM     12  N   UNL A   1      31.625  28.017  26.842  1.00  0.00    -0.325 N 
ATOM     13  O   UNL A   1      32.739  26.091  26.139  1.00  0.00    -0.274 OA
ATOM     14  C   UNL A   1      31.705  26.724  26.347  1.00  0.00     0.234 C 
ATOM     15  H   UNL A   1      30.740  28.315  27.154  1.00  0.00     0.169 HD
BRANCH  14  16
ATOM     16  C   UNL A   1      30.372  26.118  25.935  1.00  0.00     0.177 C 
BRANCH  16  17
ATOM     17  S   UNL A   1      30.276  25.685  24.184  1.00  0.00    -0.084 SA
BRANCH  17  18
ATOM     18  C   UNL A   1      29.430  27.075  23.557  1.00  0.00     0.175 A 
ATOM     19  N   UNL A   1      28.124  27.156  23.657  1.00  0.00    -0.131 NA
ATOM     20  S   UNL A   1      30.180  28.431  22.834  1.00  0.00    -0.086 S 
ATOM     21  N   UNL A   1      27.647  28.361  23.188  1.00  0.00    -0.137 NA
ATOM     22  C   UNL A   1      28.612  29.136  22.732  1.00  0.00     0.148 A 
BRANCH  22  23
ATOM     23  C   UNL A   1      28.421  30.517  22.292  1.00  0.00     0.015 A 
ATOM     24  C   UNL A   1      28.076  30.846  20.980  1.00  0.00     0.031 A 
ATOM     25  C   UNL A   1      28.569  31.546  23.227  1.00  0.00     0.031 A 
ATOM     26  C   UNL A   1      27.906  32.184  20.663  1.00  0.00     0.111 A 
ATOM     27  C   UNL A   1      28.387  32.852  22.810  1.00  0.00     0.111 A 
ATOM     28  N   UNL A   1      28.062  33.194  21.547  1.00  0.00    -0.265 NA
ENDBRANCH  22  23
ENDBRANCH  17  18
ENDBRANCH  16  17
ENDBRANCH  14  16
ENDBRANCH   7  12
ENDBRANCH   3   6
ENDBRANCH   1   2
BRANCH   1  29
ATOM     29  C   UNL A   1      35.995  33.959  29.468  1.00  0.00     0.042 C 
BRANCH  29  30
ATOM     30  C   UNL A   1      37.001  33.044  30.140  1.00  0.00     0.118 C 
BRANCH  30  31
ATOM     31  N   UNL A   1      36.380  31.905  30.808  1.00  0.00    -0.352 N 
ATOM     32  C   UNL A   1      36.728  30.575  30.838  1.00  0.00     0.251 C 
ATOM     33  H   UNL A   1      35.573  32.128  31.326  1.00  0.00     0.163 HD
ATOM     34  O   UNL A   1      35.944  29.760  31.314  1.00  0.00    -0.269 OA
BRANCH  32  35
ATOM     35  C   UNL A   1      38.022  30.115  30.283  1.00  0.00     0.039 A 
ATOM     36  C   UNL A   1      38.197  30.094  28.895  1.00  0.00     0.014 A 
ATOM     37  C   UNL A   1      39.054  29.685  31.115  1.00  0.00     0.014 A 
ATOM     38  C   UNL A   1      39.434  29.723  28.355  1.00  0.00     0.010 A 
ATOM     39  C   UNL A   1      40.314  29.425  30.585  1.00  0.00     0.010 A 
ATOM     40  C   UNL A   1      40.517  29.432  29.198  1.00  0.00    -0.014 A 
BRANCH  40  41
ATOM     41  C   UNL A   1      41.868  29.123  28.661  1.00  0.00     0.031 A 
ATOM     42  C   UNL A   1      42.190  27.727  28.190  1.00  0.00     0.074 A 
ATOM     43  C   UNL A   1      42.827  30.071  28.674  1.00  0.00     0.049 A 
ATOM     44  N   UNL A   1      43.333  27.233  27.792  1.00  0.00    -0.248 NA
ATOM     45  C   UNL A   1      41.088  26.750  28.202  1.00  0.00     0.031 C 
ATOM     46  C   UNL A   1      42.654  31.445  29.155  1.00  0.00     0.029 A 
ATOM     47  N   UNL A   1      44.144  30.023  28.288  1.00  0.00    -0.354 N 
ATOM     48  C   UNL A   1      43.093  25.889  27.526  1.00  0.00     0.074 A 
ATOM     49  C   UNL A   1      41.713  25.631  27.865  1.00  0.00     0.031 C 
ATOM     50  C   UNL A   1      43.810  32.110  29.014  1.00  0.00     0.029 A 
ATOM     51  C   UNL A   1      44.821  31.205  28.480  1.00  0.00     0.049 A 
ATOM     52  H   UNL A   1      44.564  29.217  27.909  1.00  0.00     0.167 HD
ATOM     53  C   UNL A   1      43.941  24.961  27.022  1.00  0.00     0.037 A 
ATOM     54  C   UNL A   1      46.113  31.520  28.264  1.00  0.00     0.037 A 
ATOM     55  C   UNL A   1      45.307  25.235  26.658  1.00  0.00     0.049 A 
ATOM     56  C   UNL A   1      47.036  30.470  27.705  1.00  0.00     0.074 A 
ATOM     57  C   UNL A   1      46.229  24.383  26.079  1.00  0.00     0.029 A 
ATOM     58  N   UNL A   1      45.946  26.453  26.840  1.00  0.00    -0.354 N 
ATOM     59  N   UNL A   1      46.774  29.222  27.395  1.00  0.00    -0.248 NA
ATOM     60  C   UNL A   1      48.429  30.871  27.459  1.00  0.00     0.031 C 
ATOM     61  C   UNL A   1      47.442  25.067  25.960  1.00  0.00     0.029 A 
ATOM     62  C   UNL A   1      47.259  26.366  26.408  1.00  0.00     0.049 A 
ATOM     63  H   UNL A   1      45.529  27.259  27.221  1.00  0.00     0.167 HD
ATOM     64  C   UNL A   1      47.959  28.699  26.890  1.00  0.00     0.074 A 
ATOM     65  C   UNL A   1      48.935  29.768  26.924  1.00  0.00     0.031 C 
ATOM     66  C   UNL A   1      48.215  27.446  26.438  1.00  0.00     0.037 A 
BRANCH  53  67
ATOM     67  C   UNL A   1      43.417  23.563  26.825  1.00  0.00     0.058 A 
ATOM     68  C   UNL A   1      43.116  23.059  25.549  1.00  0.00     0.135 A 
ATOM     69  C   UNL A   1      43.256  22.700  27.922  1.00  0.00     0.135 A 
ATOM     70  F   UNL A   1      43.236  23.843  24.466  1.00  0.00    -0.206 F 
ATOM     71  C   UNL A   1      42.651  21.761  25.369  1.00  0.00     0.059 A 
ATOM     72  C   UNL A   1      42.822  21.387  27.763  1.00  0.00     0.059 A 
ATOM     73  F   UNL A   1      43.527  23.129  29.165  1.00  0.00    -0.206 F 
ATOM     74  C   UNL A   1      42.510  20.931  26.483  1.00  0.00     0.060 A 
BRANCH  74  75
ATOM     75  S   UNL A   1      41.922  19.243  26.229  1.00  0.00     0.124 S 
ATOM     76  O   UNL A   1      40.499  19.463  25.989  1.00  0.00    -0.237 OA
ATOM     77  O   UNL A   1      42.700  18.815  25.071  1.00  0.00    -0.237 OA
ATOM     78  O   UNL A   1      42.251  18.575  27.484  1.00  0.00    -0.744 OA
ENDBRANCH  74  75
ENDBRANCH  53  67
BRANCH  54  79
ATOM     79  C   UNL A   1      46.608  32.891  28.564  1.00  0.00     0.058 A 
ATOM     80  C   UNL A   1      47.105  33.220  29.834  1.00  0.00     0.135 A 
ATOM     81  C   UNL A   1      46.600  33.899  27.586  1.00  0.00     0.135 A 
ATOM     82  F   UNL A   1      47.129  32.294  30.805  1.00  0.00    -0.206 F 
ATOM     83  C   UNL A   1      47.557  34.502  30.132  1.00  0.00     0.059 A 
ATOM     84  C   UNL A   1      47.074  35.181  27.852  1.00  0.00     0.059 A 
ATOM     85  F   UNL A   1      46.153  33.634  26.349  1.00  0.00    -0.206 F 
ATOM     86  C   UNL A   1      47.540  35.476  29.132  1.00  0.00     0.060 A 
BRANCH  86  87
ATOM     87  S   UNL A   1      48.170  37.124  29.517  1.00  0.00     0.124 S 
ATOM     88  O   UNL A   1      49.608  36.888  29.551  1.00  0.00    -0.237 OA
ATOM     89  O   UNL A   1      47.677  37.910  28.391  1.00  0.00    -0.237 OA
ATOM     90  O   UNL A   1      47.550  37.428  30.803  1.00  0.00    -0.744 OA
ENDBRANCH  86  87
ENDBRANCH  54  79
BRANCH  66  91
ATOM     91  C   UNL A   1      49.593  27.168  25.901  1.00  0.00     0.058 A 
ATOM     92  C   UNL A   1      50.624  26.683  26.721  1.00  0.00     0.135 A 
ATOM     93  C   UNL A   1      49.866  27.331  24.533  1.00  0.00     0.135 A 
ATOM     94  F   UNL A   1      50.419  26.515  28.038  1.00  0.00    -0.206 F 
ATOM     95  C   UNL A   1      51.883  26.390  26.207  1.00  0.00     0.059 A 
ATOM     96  C   UNL A   1      51.106  27.014  23.992  1.00  0.00     0.059 A 
ATOM     97  F   UNL A   1      48.911  27.782  23.703  1.00  0.00    -0.206 F 
ATOM     98  C   UNL A   1      52.112  26.553  24.840  1.00  0.00     0.060 A 
BRANCH  98  99
ATOM     99  S   UNL A   1      53.739  26.129  24.180  1.00  0.00     0.124 S 
ATOM    100  O   UNL A   1      53.489  26.157  22.743  1.00  0.00    -0.237 OA
ATOM    101  O   UNL A   1      54.575  27.207  24.700  1.00  0.00    -0.237 OA
ATOM    102  O   UNL A   1      54.002  24.809  24.747  1.00  0.00    -0.744 OA
ENDBRANCH  98  99
ENDBRANCH  66  91
ENDBRANCH  40  41
ENDBRANCH  32  35
ENDBRANCH  30  31
ENDBRANCH  29  30
ENDBRANCH   1  29
TORSDOF 18
ENDMDL
MODEL 2
REMARK VINA RESULT:     -12.1      2.365      4.750
REMARK SMILES O=C(CSc1nnc(-c2ccncc2)s1)Nc1cccc(C(=O)NCCCNC(=O)c2ccc(-c3c4nc(c(-c5c(F)cc(S(=O)(=O)[O-])cc5F)c5ccc([nH]5)c(-c5c(F)cc(S(=O)(=O)[O-])cc5F)c5nc(c(-c6c(F)cc(S(=O)(=O)[O-])cc6F)c6ccc3[nH]6)C=C5)C=C4)cc2)c1
REMARK SMILES IDX 25 1 24 2 22 3 23 4 21 6 17 7 18 8 97 9 19 10 20 11 16 12
REMARK SMILES IDX 1 13 2 14 3 16 4 17 5 18 6 19 15 20 7 21 8 22 9 23 10 24
REMARK SMILES IDX 14 25 11 26 13 27 12 28 26 29 27 30 28 31 29 32 30 34 31 35
REMARK SMILES IDX 32 36 96 37 33 38 95 39 34 40 35 41 36 42 89 43 37 44 94 45
REMARK SMILES IDX 88 46 90 47 38 48 93 49 87 50 86 51 39 53 73 54 52 55 72 56
REMARK SMILES IDX 53 57 56 58 71 59 91 60 54 61 55 62 70 64 92 65 57 66 40 67
REMARK SMILES IDX 41 68 50 69 42 70 43 71 49 72 51 73 44 74 45 75 46 76 47 77
REMARK SMILES IDX 48 78 74 79 75 80 84 81 76 82 77 83 83 84 85 85 78 86 79 87
REMARK SMILES IDX 80 88 81 89 82 90 58 91 59 92 68 93 60 94 61 95 67 96 69 97
REMARK SMILES IDX 62 98 63 99 64 100 65 101 66 102
REMARK H PARENT 24 5 16 15 28 33 90 52 56 63
REMARK Flexibility Score: inf
ROOT
ATOM      1  C   UNL A   1      34.072  28.566  26.277  1.00  0.00     0.118 C 
ENDROOT
BRANCH   1   2
ATOM      2  N   UNL A   1      34.222  28.988  24.887  1.00  0.00    -0.352 N 
ATOM      3  C   UNL A   1      33.450  28.787  23.762  1.00  0.00     0.251 C 
ATOM      4  O   UNL A   1      33.841  29.255  22.693  1.00  0.00    -0.269 OA
ATOM      5  H   UNL A   1      35.033  29.521  24.720  1.00  0.00     0.163 HD
BRANCH   3   6
ATOM      6  C   UNL A   1      32.208  27.969  23.779  1.00  0.00     0.041 A 
ATOM      7  C   UNL A   1      31.076  25.871  23.353  1.00  0.00     0.041 A 
ATOM      8  C   UNL A   1      29.845  26.529  23.412  1.00  0.00     0.026 A 
ATOM      9  C   UNL A   1      32.231  26.580  23.675  1.00  0.00     0.040 A 
ATOM     10  C   UNL A   1      29.790  27.893  23.717  1.00  0.00     0.003 A 
ATOM     11  C   UNL A   1      30.973  28.620  23.860  1.00  0.00     0.014 A 
BRANCH   7  12
ATOM     12  N   UNL A   1      31.113  24.555  22.842  1.00  0.00    -0.325 N 
ATOM     13  O   UNL A   1      30.876  23.270  24.774  1.00  0.00    -0.274 OA
ATOM     14  C   UNL A   1      31.129  23.378  23.575  1.00  0.00     0.234 C 
ATOM     15  H   UNL A   1      31.127  24.463  21.861  1.00  0.00     0.169 HD
BRANCH  14  16
ATOM     16  C   UNL A   1      31.617  22.159  22.810  1.00  0.00     0.177 C 
BRANCH  16  17
ATOM     17  S   UNL A   1      32.347  20.882  23.858  1.00  0.00    -0.084 SA
BRANCH  17  18
ATOM     18  C   UNL A   1      33.939  21.548  24.110  1.00  0.00     0.175 A 
ATOM     19  N   UNL A   1      34.361  22.551  23.375  1.00  0.00    -0.131 NA
ATOM     20  S   UNL A   1      35.038  21.026  25.311  1.00  0.00    -0.086 S 
ATOM     21  N   UNL A   1      35.602  22.995  23.779  1.00  0.00    -0.137 NA
ATOM     22  C   UNL A   1      36.078  22.296  24.791  1.00  0.00     0.148 A 
BRANCH  22  23
ATOM     23  C   UNL A   1      37.310  22.619  25.507  1.00  0.00     0.015 A 
ATOM     24  C   UNL A   1      37.519  23.853  26.124  1.00  0.00     0.031 A 
ATOM     25  C   UNL A   1      38.309  21.645  25.597  1.00  0.00     0.031 A 
ATOM     26  C   UNL A   1      38.717  24.059  26.790  1.00  0.00     0.111 A 
ATOM     27  C   UNL A   1      39.474  21.949  26.276  1.00  0.00     0.111 A 
ATOM     28  N   UNL A   1      39.701  23.137  26.872  1.00  0.00    -0.265 NA
ENDBRANCH  22  23
ENDBRANCH  17  18
ENDBRANCH  16  17
ENDBRANCH  14  16
ENDBRANCH   7  12
ENDBRANCH   3   6
ENDBRANCH   1   2
BRANCH   1  29
ATOM     29  C   UNL A   1      34.133  29.700  27.286  1.00  0.00     0.042 C 
BRANCH  29  30
ATOM     30  C   UNL A   1      35.508  29.954  27.876  1.00  0.00     0.118 C 
BRANCH  30  31
ATOM     31  N   UNL A   1      35.512  29.954  29.335  1.00  0.00    -0.352 N 
ATOM     32  C   UNL A   1      36.522  29.710  30.236  1.00  0.00     0.251 C 
ATOM     33  H   UNL A   1      34.642  30.165  29.745  1.00  0.00     0.163 HD
ATOM     34  O   UNL A   1      36.248  29.579  31.424  1.00  0.00    -0.269 OA
BRANCH  32  35
ATOM     35  C   UNL A   1      37.928  29.581  29.785  1.00  0.00     0.039 A 
ATOM     36  C   UNL A   1      38.925  29.323  30.731  1.00  0.00     0.014 A 
ATOM     37  C   UNL A   1      38.273  29.732  28.443  1.00  0.00     0.014 A 
ATOM     38  C   UNL A   1      40.247  29.135  30.315  1.00  0.00     0.010 A 
ATOM     39  C   UNL A   1      39.564  29.436  28.018  1.00  0.00     0.010 A 
ATOM     40  C   UNL A   1      40.570  29.142  28.949  1.00  0.00    -0.014 A 
BRANCH  40  41
ATOM     41  C   UNL A   1      41.946  28.857  28.467  1.00  0.00     0.031 A 
ATOM     42  C   UNL A   1      42.316  27.462  28.030  1.00  0.00     0.074 A 
ATOM     43  C   UNL A   1      42.882  29.827  28.500  1.00  0.00     0.049 A 
ATOM     44  N   UNL A   1      43.484  26.988  27.681  1.00  0.00    -0.248 NA
ATOM     45  C   UNL A   1      41.237  26.460  28.017  1.00  0.00     0.031 C 
ATOM     46  C   UNL A   1      42.661  31.203  28.953  1.00  0.00     0.029 A 
ATOM     47  N   UNL A   1      44.213  29.803  28.163  1.00  0.00    -0.354 N 
ATOM     48  C   UNL A   1      43.284  25.636  27.428  1.00  0.00     0.074 A 
ATOM     49  C   UNL A   1      41.899  25.350  27.720  1.00  0.00     0.031 C 
ATOM     50  C   UNL A   1      43.806  31.893  28.844  1.00  0.00     0.029 A 
ATOM     51  C   UNL A   1      44.856  31.003  28.361  1.00  0.00     0.049 A 
ATOM     52  H   UNL A   1      44.665  29.001  27.813  1.00  0.00     0.167 HD
ATOM     53  C   UNL A   1      44.171  24.720  26.970  1.00  0.00     0.037 A 
ATOM     54  C   UNL A   1      46.148  31.345  28.187  1.00  0.00     0.037 A 
ATOM     55  C   UNL A   1      45.542  25.020  26.651  1.00  0.00     0.049 A 
ATOM     56  C   UNL A   1      47.114  30.308  27.678  1.00  0.00     0.074 A 
ATOM     57  C   UNL A   1      46.504  24.181  26.120  1.00  0.00     0.029 A 
ATOM     58  N   UNL A   1      46.147  26.255  26.838  1.00  0.00    -0.354 N 
ATOM     59  N   UNL A   1      46.892  29.050  27.379  1.00  0.00    -0.248 NA
ATOM     60  C   UNL A   1      48.505  30.737  27.477  1.00  0.00     0.031 C 
ATOM     61  C   UNL A   1      47.705  24.891  26.034  1.00  0.00     0.029 A 
ATOM     62  C   UNL A   1      47.476  26.192  26.455  1.00  0.00     0.049 A 
ATOM     63  H   UNL A   1      45.698  27.057  27.191  1.00  0.00     0.167 HD
ATOM     64  C   UNL A   1      48.106  28.547  26.926  1.00  0.00     0.074 A 
ATOM     65  C   UNL A   1      49.056  29.638  26.979  1.00  0.00     0.031 C 
ATOM     66  C   UNL A   1      48.406  27.293  26.503  1.00  0.00     0.037 A 
BRANCH  53  67
ATOM     67  C   UNL A   1      43.686  23.308  26.776  1.00  0.00     0.058 A 
ATOM     68  C   UNL A   1      43.506  22.756  25.497  1.00  0.00     0.135 A 
ATOM     69  C   UNL A   1      43.441  22.479  27.883  1.00  0.00     0.135 A 
ATOM     70  F   UNL A   1      43.710  23.506  24.402  1.00  0.00    -0.206 F 
ATOM     71  C   UNL A   1      43.077  21.445  25.321  1.00  0.00     0.059 A 
ATOM     72  C   UNL A   1      43.041  21.154  27.732  1.00  0.00     0.059 A 
ATOM     73  F   UNL A   1      43.595  22.952  29.130  1.00  0.00    -0.206 F 
ATOM     74  C   UNL A   1      42.850  20.650  26.446  1.00  0.00     0.060 A 
BRANCH  74  75
ATOM     75  S   UNL A   1      42.310  18.945  26.200  1.00  0.00     0.124 S 
ATOM     76  O   UNL A   1      42.475  18.391  27.541  1.00  0.00    -0.237 OA
ATOM     77  O   UNL A   1      40.932  19.118  25.752  1.00  0.00    -0.237 OA
ATOM     78  O   UNL A   1      43.235  18.436  25.193  1.00  0.00    -0.744 OA
ENDBRANCH  74  75
ENDBRANCH  53  67
BRANCH  54  79
ATOM     79  C   UNL A   1      46.600  32.731  28.483  1.00  0.00     0.058 A 
ATOM     80  C   UNL A   1      47.029  33.094  29.769  1.00  0.00     0.135 A 
ATOM     81  C   UNL A   1      46.620  33.721  27.487  1.00  0.00     0.135 A 
ATOM     82  F   UNL A   1      47.024  32.188  30.758  1.00  0.00    -0.206 F 
ATOM     83  C   UNL A   1      47.440  34.391  30.064  1.00  0.00     0.059 A 
ATOM     84  C   UNL A   1      47.055  35.017  27.749  1.00  0.00     0.059 A 
ATOM     85  F   UNL A   1      46.238  33.423  26.235  1.00  0.00    -0.206 F 
ATOM     86  C   UNL A   1      47.453  35.345  29.045  1.00  0.00     0.060 A 
BRANCH  86  87
ATOM     87  S   UNL A   1      48.030  37.013  29.427  1.00  0.00     0.124 S 
ATOM     88  O   UNL A   1      48.724  37.372  28.196  1.00  0.00    -0.237 OA
ATOM     89  O   UNL A   1      46.780  37.718  29.686  1.00  0.00    -0.237 OA
ATOM     90  O   UNL A   1      48.882  36.813  30.595  1.00  0.00    -0.744 OA
ENDBRANCH  86  87
ENDBRANCH  54  79
BRANCH  66  91
ATOM     91  C   UNL A   1      49.809  27.039  26.021  1.00  0.00     0.058 A 
ATOM     92  C   UNL A   1      50.829  26.627  26.893  1.00  0.00     0.135 A 
ATOM     93  C   UNL A   1      50.119  27.152  24.655  1.00  0.00     0.135 A 
ATOM     94  F   UNL A   1      50.588  26.510  28.209  1.00  0.00    -0.206 F 
ATOM     95  C   UNL A   1      52.112  26.354  26.431  1.00  0.00     0.059 A 
ATOM     96  C   UNL A   1      51.386  26.853  24.167  1.00  0.00     0.059 A 
ATOM     97  F   UNL A   1      49.178  27.532  23.777  1.00  0.00    -0.206 F 
ATOM     98  C   UNL A   1      52.380  26.465  25.065  1.00  0.00     0.060 A 
BRANCH  98  99
ATOM     99  S   UNL A   1      54.039  26.068  24.474  1.00  0.00     0.124 S 
ATOM    100  O   UNL A   1      53.921  26.359  23.050  1.00  0.00    -0.237 OA
ATOM    101  O   UNL A   1      54.871  26.989  25.244  1.00  0.00    -0.237 OA
ATOM    102  O   UNL A   1      54.194  24.657  24.817  1.00  0.00    -0.744 OA
ENDBRANCH  98  99
ENDBRANCH  66  91
ENDBRANCH  40  41
ENDBRANCH  32  35
ENDBRANCH  30  31
ENDBRANCH  29  30
ENDBRANCH   1  29
TORSDOF 18
ENDMDL
MODEL 3
REMARK VINA RESULT:     -12.1      4.692     11.687
REMARK SMILES O=C(CSc1nnc(-c2ccncc2)s1)Nc1cccc(C(=O)NCCCNC(=O)c2ccc(-c3c4nc(c(-c5c(F)cc(S(=O)(=O)[O-])cc5F)c5ccc([nH]5)c(-c5c(F)cc(S(=O)(=O)[O-])cc5F)c5nc(c(-c6c(F)cc(S(=O)(=O)[O-])cc6F)c6ccc3[nH]6)C=C5)C=C4)cc2)c1
REMARK SMILES IDX 25 1 24 2 22 3 23 4 21 6 17 7 18 8 97 9 19 10 20 11 16 12
REMARK SMILES IDX 1 13 2 14 3 16 4 17 5 18 6 19 15 20 7 21 8 22 9 23 10 24
REMARK SMILES IDX 14 25 11 26 13 27 12 28 26 29 27 30 28 31 29 32 30 34 31 35
REMARK SMILES IDX 32 36 96 37 33 38 95 39 34 40 35 41 36 42 89 43 37 44 94 45
REMARK SMILES IDX 88 46 90 47 38 48 93 49 87 50 86 51 39 53 73 54 52 55 72 56
REMARK SMILES IDX 53 57 56 58 71 59 91 60 54 61 55 62 70 64 92 65 57 66 40 67
REMARK SMILES IDX 41 68 50 69 42 70 43 71 49 72 51 73 44 74 45 75 46 76 47 77
REMARK SMILES IDX 48 78 74 79 75 80 84 81 76 82 77 83 83 84 85 85 78 86 79 87
REMARK SMILES IDX 80 88 81 89 82 90 58 91 59 92 68 93 60 94 61 95 67 96 69 97
REMARK SMILES IDX 62 98 63 99 64 100 65 101 66 102
REMARK H PARENT 24 5 16 15 28 33 90 52 56 63
REMARK Flexibility Score: inf
ROOT
ATOM      1  C   UNL A   1      34.879  32.293  30.652  1.00  0.00     0.118 C 
ENDROOT
BRANCH   1   2
ATOM      2  N   UNL A   1      34.416  32.671  31.985  1.00  0.00    -0.352 N 
ATOM      3  C   UNL A   1      35.078  33.097  33.117  1.00  0.00     0.251 C 
ATOM      4  O   UNL A   1      34.416  33.331  34.128  1.00  0.00    -0.269 OA
ATOM      5  H   UNL A   1      33.440  32.610  32.097  1.00  0.00     0.163 HD
BRANCH   3   6
ATOM      6  C   UNL A   1      36.559  33.212  33.183  1.00  0.00     0.041 A 
ATOM      7  C   UNL A   1      38.727  32.188  33.526  1.00  0.00     0.041 A 
ATOM      8  C   UNL A   1      39.289  33.453  33.714  1.00  0.00     0.026 A 
ATOM      9  C   UNL A   1      37.395  32.100  33.126  1.00  0.00     0.040 A 
ATOM     10  C   UNL A   1      38.502  34.601  33.574  1.00  0.00     0.003 A 
ATOM     11  C   UNL A   1      37.130  34.479  33.350  1.00  0.00     0.014 A 
BRANCH   7  12
ATOM     12  N   UNL A   1      39.490  31.053  33.876  1.00  0.00    -0.325 N 
ATOM     13  O   UNL A   1      39.146  30.923  36.180  1.00  0.00    -0.274 OA
ATOM     14  C   UNL A   1      39.737  30.581  35.156  1.00  0.00     0.234 C 
ATOM     15  H   UNL A   1      39.887  30.542  33.134  1.00  0.00     0.169 HD
BRANCH  14  16
ATOM     16  C   UNL A   1      40.926  29.640  35.269  1.00  0.00     0.177 C 
BRANCH  16  17
ATOM     17  S   UNL A   1      41.364  28.828  33.716  1.00  0.00    -0.084 SA
BRANCH  17  18
ATOM     18  C   UNL A   1      42.062  27.347  34.316  1.00  0.00     0.175 A 
ATOM     19  N   UNL A   1      41.422  26.628  35.209  1.00  0.00    -0.131 NA
ATOM     20  S   UNL A   1      43.548  26.685  33.792  1.00  0.00    -0.086 S 
ATOM     21  N   UNL A   1      42.087  25.455  35.494  1.00  0.00    -0.137 NA
ATOM     22  C   UNL A   1      43.214  25.342  34.818  1.00  0.00     0.148 A 
BRANCH  22  23
ATOM     23  C   UNL A   1      44.061  24.152  34.821  1.00  0.00     0.015 A 
ATOM     24  C   UNL A   1      44.317  23.414  35.978  1.00  0.00     0.031 A 
ATOM     25  C   UNL A   1      44.619  23.722  33.613  1.00  0.00     0.031 A 
ATOM     26  C   UNL A   1      45.124  22.292  35.875  1.00  0.00     0.111 A 
ATOM     27  C   UNL A   1      45.419  22.595  33.615  1.00  0.00     0.111 A 
ATOM     28  N   UNL A   1      45.687  21.872  34.721  1.00  0.00    -0.265 NA
ENDBRANCH  22  23
ENDBRANCH  17  18
ENDBRANCH  16  17
ENDBRANCH  14  16
ENDBRANCH   7  12
ENDBRANCH   3   6
ENDBRANCH   1   2
BRANCH   1  29
ATOM     29  C   UNL A   1      34.233  33.073  29.520  1.00  0.00     0.042 C 
BRANCH  29  30
ATOM     30  C   UNL A   1      34.514  32.528  28.131  1.00  0.00     0.118 C 
BRANCH  30  31
ATOM     31  N   UNL A   1      33.936  31.207  27.909  1.00  0.00    -0.352 N 
ATOM     32  C   UNL A   1      34.519  29.962  27.859  1.00  0.00     0.251 C 
ATOM     33  H   UNL A   1      32.961  31.207  27.771  1.00  0.00     0.163 HD
ATOM     34  O   UNL A   1      33.859  29.005  27.467  1.00  0.00    -0.269 OA
BRANCH  32  35
ATOM     35  C   UNL A   1      35.936  29.770  28.248  1.00  0.00     0.039 A 
ATOM     36  C   UNL A   1      36.233  29.347  29.547  1.00  0.00     0.014 A 
ATOM     37  C   UNL A   1      36.973  30.024  27.351  1.00  0.00     0.014 A 
ATOM     38  C   UNL A   1      37.560  29.101  29.913  1.00  0.00     0.010 A 
ATOM     39  C   UNL A   1      38.278  29.673  27.679  1.00  0.00     0.010 A 
ATOM     40  C   UNL A   1      38.590  29.215  28.966  1.00  0.00    -0.014 A 
BRANCH  40  41
ATOM     41  C   UNL A   1      39.999  28.873  29.294  1.00  0.00     0.031 A 
ATOM     42  C   UNL A   1      40.886  29.896  29.958  1.00  0.00     0.074 A 
ATOM     43  C   UNL A   1      40.503  27.680  28.921  1.00  0.00     0.049 A 
ATOM     44  N   UNL A   1      42.165  29.830  30.227  1.00  0.00    -0.248 NA
ATOM     45  C   UNL A   1      40.260  31.173  30.340  1.00  0.00     0.031 C 
ATOM     46  C   UNL A   1      39.759  26.627  28.223  1.00  0.00     0.029 A 
ATOM     47  N   UNL A   1      41.764  27.154  29.058  1.00  0.00    -0.354 N 
ATOM     48  C   UNL A   1      42.497  31.058  30.787  1.00  0.00     0.074 A 
ATOM     49  C   UNL A   1      41.303  31.871  30.766  1.00  0.00     0.031 C 
ATOM     50  C   UNL A   1      40.570  25.578  28.016  1.00  0.00     0.029 A 
ATOM     51  C   UNL A   1      41.901  25.896  28.519  1.00  0.00     0.049 A 
ATOM     52  H   UNL A   1      42.501  27.633  29.501  1.00  0.00     0.167 HD
ATOM     53  C   UNL A   1      43.686  31.462  31.296  1.00  0.00     0.037 A 
ATOM     54  C   UNL A   1      42.981  25.094  28.427  1.00  0.00     0.037 A 
ATOM     55  C   UNL A   1      44.863  30.635  31.341  1.00  0.00     0.049 A 
ATOM     56  C   UNL A   1      44.291  25.567  28.999  1.00  0.00     0.074 A 
ATOM     57  C   UNL A   1      46.097  30.925  31.893  1.00  0.00     0.029 A 
ATOM     58  N   UNL A   1      44.953  29.355  30.812  1.00  0.00    -0.354 N 
ATOM     59  N   UNL A   1      44.570  26.706  29.588  1.00  0.00    -0.248 NA
ATOM     60  C   UNL A   1      45.431  24.646  28.901  1.00  0.00     0.031 C 
ATOM     61  C   UNL A   1      46.950  29.844  31.651  1.00  0.00     0.029 A 
ATOM     62  C   UNL A   1      46.229  28.854  31.002  1.00  0.00     0.049 A 
ATOM     63  H   UNL A   1      44.218  28.875  30.365  1.00  0.00     0.167 HD
ATOM     64  C   UNL A   1      45.908  26.625  29.956  1.00  0.00     0.074 A 
ATOM     65  C   UNL A   1      46.379  25.322  29.536  1.00  0.00     0.031 C 
ATOM     66  C   UNL A   1      46.678  27.547  30.587  1.00  0.00     0.037 A 
BRANCH  53  67
ATOM     67  C   UNL A   1      43.774  32.859  31.853  1.00  0.00     0.058 A 
ATOM     68  C   UNL A   1      44.191  33.945  31.066  1.00  0.00     0.135 A 
ATOM     69  C   UNL A   1      43.392  33.123  33.179  1.00  0.00     0.135 A 
ATOM     70  F   UNL A   1      44.583  33.749  29.796  1.00  0.00    -0.206 F 
ATOM     71  C   UNL A   1      44.253  35.236  31.578  1.00  0.00     0.059 A 
ATOM     72  C   UNL A   1      43.415  34.412  33.704  1.00  0.00     0.059 A 
ATOM     73  F   UNL A   1      42.986  32.124  33.978  1.00  0.00    -0.206 F 
ATOM     74  C   UNL A   1      43.859  35.461  32.899  1.00  0.00     0.060 A 
BRANCH  74  75
ATOM     75  S   UNL A   1      43.928  37.145  33.542  1.00  0.00     0.124 S 
ATOM     76  O   UNL A   1      42.649  37.244  34.238  1.00  0.00    -0.237 OA
ATOM     77  O   UNL A   1      45.111  37.103  34.396  1.00  0.00    -0.237 OA
ATOM     78  O   UNL A   1      44.054  37.965  32.341  1.00  0.00    -0.744 OA
ENDBRANCH  74  75
ENDBRANCH  53  67
BRANCH  54  79
ATOM     79  C   UNL A   1      42.866  23.758  27.782  1.00  0.00     0.058 A 
ATOM     80  C   UNL A   1      42.549  22.616  28.532  1.00  0.00     0.135 A 
ATOM     81  C   UNL A   1      43.065  23.596  26.401  1.00  0.00     0.135 A 
ATOM     82  F   UNL A   1      42.355  22.716  29.856  1.00  0.00    -0.206 F 
ATOM     83  C   UNL A   1      42.454  21.358  27.943  1.00  0.00     0.059 A 
ATOM     84  C   UNL A   1      42.946  22.354  25.784  1.00  0.00     0.059 A 
ATOM     85  F   UNL A   1      43.352  24.658  25.633  1.00  0.00    -0.206 F 
ATOM     86  C   UNL A   1      42.651  21.238  26.567  1.00  0.00     0.060 A 
BRANCH  86  87
ATOM     87  S   UNL A   1      42.481  19.609  25.806  1.00  0.00     0.124 S 
ATOM     88  O   UNL A   1      43.374  19.725  24.660  1.00  0.00    -0.237 OA
ATOM     89  O   UNL A   1      42.925  18.724  26.877  1.00  0.00    -0.237 OA
ATOM     90  O   UNL A   1      41.057  19.534  25.492  1.00  0.00    -0.744 OA
ENDBRANCH  86  87
ENDBRANCH  54  79
BRANCH  66  91
ATOM     91  C   UNL A   1      48.099  27.168  30.904  1.00  0.00     0.058 A 
ATOM     92  C   UNL A   1      48.422  26.351  31.998  1.00  0.00     0.135 A 
ATOM     93  C   UNL A   1      49.145  27.579  30.061  1.00  0.00     0.135 A 
ATOM     94  F   UNL A   1      47.462  25.936  32.840  1.00  0.00    -0.206 F 
ATOM     95  C   UNL A   1      49.735  25.972  32.258  1.00  0.00     0.059 A 
ATOM     96  C   UNL A   1      50.460  27.185  30.283  1.00  0.00     0.059 A 
ATOM     97  F   UNL A   1      48.889  28.353  28.994  1.00  0.00    -0.206 F 
ATOM     98  C   UNL A   1      50.747  26.390  31.391  1.00  0.00     0.060 A 
BRANCH  98  99
ATOM     99  S   UNL A   1      52.440  25.855  31.717  1.00  0.00     0.124 S 
ATOM    100  O   UNL A   1      52.231  24.494  32.197  1.00  0.00    -0.237 OA
ATOM    101  O   UNL A   1      53.062  25.976  30.402  1.00  0.00    -0.237 OA
ATOM    102  O   UNL A   1      52.911  26.809  32.717  1.00  0.00    -0.744 OA
ENDBRANCH  98  99
ENDBRANCH  66  91
ENDBRANCH  40  41
ENDBRANCH  32  35
ENDBRANCH  30  31
ENDBRANCH  29  30
ENDBRANCH   1  29
TORSDOF 18
ENDMDL
