MODEL 1
REMARK VINA RESULT:     -12.6      0.000      0.000
REMARK SMILES O=C(Cc1ccn(-c2ccccc2F)c1)NCCCNC(=O)c1ccc(-c2c3nc(c(-c4c(F)cc(S(=O)(=O)[O-])cc4F)c4ccc([nH]4)c(-c4c(F)cc(S(=O)(=O)[O-])cc4F)c4nc(c(-c5c(F)cc(S(=O)(=O)[O-])cc5F)c5ccc2[nH]5)C=C4)C=C3)cc1
REMARK SMILES IDX 18 1 17 2 16 3 1 4 2 5 3 7 4 8 5 9 15 10 6 11 7 12 8 13 9 14
REMARK SMILES IDX 13 15 10 16 12 17 14 18 11 19 19 20 20 21 21 22 22 24 23 25
REMARK SMILES IDX 24 26 88 27 25 28 87 29 26 30 27 31 28 32 81 33 29 34 86 35
REMARK SMILES IDX 80 36 82 37 30 38 85 39 79 40 78 41 31 43 65 44 44 45 64 46
REMARK SMILES IDX 45 47 48 48 63 49 83 50 46 51 47 52 62 54 84 55 49 56 32 57
REMARK SMILES IDX 33 58 42 59 34 60 35 61 41 62 43 63 36 64 37 65 38 66 39 67
REMARK SMILES IDX 40 68 66 69 67 70 76 71 68 72 69 73 75 74 77 75 70 76 71 77
REMARK SMILES IDX 72 78 73 79 74 80 50 81 51 82 60 83 52 84 53 85 59 86 61 87
REMARK SMILES IDX 54 88 55 89 56 90 57 91 58 92
REMARK H PARENT 16 6 20 23 82 42 48 53
REMARK Flexibility Score: inf
ROOT
ATOM      1  C   UNL A   1      33.253  28.630  26.013  1.00  0.00     0.042 C 
ENDROOT
BRANCH   1   2
ATOM      2  C   UNL A   1      32.630  27.236  26.091  1.00  0.00     0.117 C 
BRANCH   2   3
ATOM      3  N   UNL A   1      33.619  26.180  26.163  1.00  0.00    -0.356 N 
ATOM      4  O   UNL A   1      33.579  25.637  23.932  1.00  0.00    -0.275 OA
ATOM      5  C   UNL A   1      34.071  25.495  25.049  1.00  0.00     0.224 C 
ATOM      6  H   UNL A   1      33.987  25.938  27.043  1.00  0.00     0.163 HD
BRANCH   5   7
ATOM      7  C   UNL A   1      35.213  24.525  25.323  1.00  0.00     0.137 C 
BRANCH   7   8
ATOM      8  C   UNL A   1      34.776  23.113  25.610  1.00  0.00    -0.021 A 
ATOM      9  C   UNL A   1      34.275  22.564  26.822  1.00  0.00     0.024 A 
ATOM     10  C   UNL A   1      34.778  22.071  24.697  1.00  0.00     0.095 A 
ATOM     11  C   UNL A   1      33.876  21.272  26.569  1.00  0.00     0.091 A 
ATOM     12  N   UNL A   1      34.206  20.952  25.270  1.00  0.00    -0.321 N 
BRANCH  12  13
ATOM     13  C   UNL A   1      33.973  19.705  24.647  1.00  0.00     0.081 A 
ATOM     14  C   UNL A   1      34.957  18.707  24.704  1.00  0.00     0.030 A 
ATOM     15  C   UNL A   1      32.780  19.461  23.967  1.00  0.00     0.147 A 
ATOM     16  C   UNL A   1      34.726  17.469  24.099  1.00  0.00     0.002 A 
ATOM     17  C   UNL A   1      32.570  18.239  23.331  1.00  0.00     0.041 A 
ATOM     18  F   UNL A   1      31.845  20.413  23.831  1.00  0.00    -0.205 F 
ATOM     19  C   UNL A   1      33.539  17.239  23.404  1.00  0.00     0.003 A 
ENDBRANCH  12  13
ENDBRANCH   7   8
ENDBRANCH   5   7
ENDBRANCH   2   3
ENDBRANCH   1   2
BRANCH   1  20
ATOM     20  C   UNL A   1      34.530  28.760  26.841  1.00  0.00     0.118 C 
BRANCH  20  21
ATOM     21  N   UNL A   1      34.945  30.148  26.986  1.00  0.00    -0.352 N 
ATOM     22  C   UNL A   1      35.994  30.698  27.685  1.00  0.00     0.251 C 
ATOM     23  H   UNL A   1      34.385  30.799  26.504  1.00  0.00     0.163 HD
ATOM     24  O   UNL A   1      35.963  31.896  27.937  1.00  0.00    -0.269 OA
BRANCH  22  25
ATOM     25  C   UNL A   1      37.141  29.883  28.152  1.00  0.00     0.039 A 
ATOM     26  C   UNL A   1      38.287  29.837  27.340  1.00  0.00     0.014 A 
ATOM     27  C   UNL A   1      37.079  29.100  29.307  1.00  0.00     0.014 A 
ATOM     28  C   UNL A   1      39.383  29.064  27.719  1.00  0.00     0.010 A 
ATOM     29  C   UNL A   1      38.180  28.357  29.709  1.00  0.00     0.010 A 
ATOM     30  C   UNL A   1      39.334  28.349  28.919  1.00  0.00    -0.014 A 
BRANCH  30  31
ATOM     31  C   UNL A   1      40.537  27.659  29.427  1.00  0.00     0.031 A 
ATOM     32  C   UNL A   1      40.872  26.390  28.601  1.00  0.00     0.074 A 
ATOM     33  C   UNL A   1      41.157  28.272  30.484  1.00  0.00     0.049 A 
ATOM     34  N   UNL A   1      41.599  25.357  28.900  1.00  0.00    -0.248 NA
ATOM     35  C   UNL A   1      40.256  26.219  27.251  1.00  0.00     0.031 C 
ATOM     36  C   UNL A   1      40.676  29.514  31.135  1.00  0.00     0.029 A 
ATOM     37  N   UNL A   1      42.295  28.014  31.219  1.00  0.00    -0.354 N 
ATOM     38  C   UNL A   1      41.689  24.533  27.748  1.00  0.00     0.074 A 
ATOM     39  C   UNL A   1      40.765  25.070  26.798  1.00  0.00     0.031 C 
ATOM     40  C   UNL A   1      41.453  29.843  32.189  1.00  0.00     0.029 A 
ATOM     41  C   UNL A   1      42.523  28.879  32.324  1.00  0.00     0.049 A 
ATOM     42  H   UNL A   1      42.909  27.279  30.993  1.00  0.00     0.167 HD
ATOM     43  C   UNL A   1      42.595  23.517  27.614  1.00  0.00     0.037 A 
ATOM     44  C   UNL A   1      43.478  28.789  33.306  1.00  0.00     0.037 A 
ATOM     45  C   UNL A   1      43.391  23.429  28.790  1.00  0.00     0.049 A 
ATOM     46  C   UNL A   1      44.353  27.683  32.880  1.00  0.00     0.074 A 
ATOM     47  C   UNL A   1      43.125  22.946  30.043  1.00  0.00     0.029 A 
ATOM     48  N   UNL A   1      44.521  24.208  28.836  1.00  0.00    -0.354 N 
ATOM     49  N   UNL A   1      45.181  27.723  31.876  1.00  0.00    -0.248 NA
ATOM     50  C   UNL A   1      44.197  26.384  33.547  1.00  0.00     0.031 C 
ATOM     51  C   UNL A   1      43.813  23.837  30.889  1.00  0.00     0.029 A 
ATOM     52  C   UNL A   1      44.630  24.679  30.123  1.00  0.00     0.049 A 
ATOM     53  H   UNL A   1      45.135  24.394  28.090  1.00  0.00     0.167 HD
ATOM     54  C   UNL A   1      45.382  26.391  31.605  1.00  0.00     0.074 A 
ATOM     55  C   UNL A   1      45.025  25.661  32.802  1.00  0.00     0.031 C 
ATOM     56  C   UNL A   1      45.315  25.934  30.331  1.00  0.00     0.037 A 
BRANCH  43  57
ATOM     57  C   UNL A   1      43.025  22.647  26.458  1.00  0.00     0.058 A 
ATOM     58  C   UNL A   1      44.112  22.933  25.623  1.00  0.00     0.135 A 
ATOM     59  C   UNL A   1      42.549  21.311  26.422  1.00  0.00     0.135 A 
ATOM     60  F   UNL A   1      44.621  24.172  25.562  1.00  0.00    -0.206 F 
ATOM     61  C   UNL A   1      44.758  21.931  24.885  1.00  0.00     0.059 A 
ATOM     62  C   UNL A   1      43.197  20.293  25.728  1.00  0.00     0.059 A 
ATOM     63  F   UNL A   1      41.464  20.949  27.129  1.00  0.00    -0.206 F 
ATOM     64  C   UNL A   1      44.322  20.607  24.981  1.00  0.00     0.060 A 
BRANCH  64  65
ATOM     65  S   UNL A   1      45.289  19.283  24.217  1.00  0.00     0.124 S 
ATOM     66  O   UNL A   1      44.721  19.240  22.874  1.00  0.00    -0.237 OA
ATOM     67  O   UNL A   1      46.653  19.792  24.316  1.00  0.00    -0.237 OA
ATOM     68  O   UNL A   1      45.000  18.122  25.055  1.00  0.00    -0.744 OA
ENDBRANCH  64  65
ENDBRANCH  43  57
BRANCH  44  69
ATOM     69  C   UNL A   1      43.712  29.358  34.696  1.00  0.00     0.058 A 
ATOM     70  C   UNL A   1      42.708  29.195  35.693  1.00  0.00     0.135 A 
ATOM     71  C   UNL A   1      44.766  30.194  35.091  1.00  0.00     0.135 A 
ATOM     72  F   UNL A   1      41.744  28.271  35.576  1.00  0.00    -0.206 F 
ATOM     73  C   UNL A   1      42.604  29.990  36.831  1.00  0.00     0.059 A 
ATOM     74  C   UNL A   1      44.718  30.969  36.267  1.00  0.00     0.059 A 
ATOM     75  F   UNL A   1      45.880  30.301  34.358  1.00  0.00    -0.206 F 
ATOM     76  C   UNL A   1      43.588  30.926  37.079  1.00  0.00     0.060 A 
BRANCH  76  77
ATOM     77  S   UNL A   1      43.339  32.089  38.436  1.00  0.00     0.124 S 
ATOM     78  O   UNL A   1      43.464  31.208  39.595  1.00  0.00    -0.237 OA
ATOM     79  O   UNL A   1      44.427  33.043  38.249  1.00  0.00    -0.237 OA
ATOM     80  O   UNL A   1      42.000  32.613  38.187  1.00  0.00    -0.744 OA
ENDBRANCH  76  77
ENDBRANCH  44  69
BRANCH  56  81
ATOM     81  C   UNL A   1      45.649  26.940  29.249  1.00  0.00     0.058 A 
ATOM     82  C   UNL A   1      44.701  27.528  28.394  1.00  0.00     0.135 A 
ATOM     83  C   UNL A   1      46.976  27.355  29.073  1.00  0.00     0.135 A 
ATOM     84  F   UNL A   1      43.406  27.240  28.518  1.00  0.00    -0.206 F 
ATOM     85  C   UNL A   1      45.044  28.431  27.386  1.00  0.00     0.059 A 
ATOM     86  C   UNL A   1      47.349  28.268  28.081  1.00  0.00     0.059 A 
ATOM     87  F   UNL A   1      47.941  26.851  29.859  1.00  0.00    -0.206 F 
ATOM     88  C   UNL A   1      46.377  28.793  27.231  1.00  0.00     0.060 A 
BRANCH  88  89
ATOM     89  S   UNL A   1      46.818  29.913  25.883  1.00  0.00     0.124 S 
ATOM     90  O   UNL A   1      46.863  29.012  24.735  1.00  0.00    -0.237 OA
ATOM     91  O   UNL A   1      45.706  30.860  25.890  1.00  0.00    -0.237 OA
ATOM     92  O   UNL A   1      48.106  30.458  26.299  1.00  0.00    -0.744 OA
ENDBRANCH  88  89
ENDBRANCH  56  81
ENDBRANCH  30  31
ENDBRANCH  22  25
ENDBRANCH  20  21
ENDBRANCH   1  20
TORSDOF 15
ENDMDL
MODEL 2
REMARK VINA RESULT:     -12.6      2.995      4.710
REMARK SMILES O=C(Cc1ccn(-c2ccccc2F)c1)NCCCNC(=O)c1ccc(-c2c3nc(c(-c4c(F)cc(S(=O)(=O)[O-])cc4F)c4ccc([nH]4)c(-c4c(F)cc(S(=O)(=O)[O-])cc4F)c4nc(c(-c5c(F)cc(S(=O)(=O)[O-])cc5F)c5ccc2[nH]5)C=C4)C=C3)cc1
REMARK SMILES IDX 18 1 17 2 16 3 1 4 2 5 3 7 4 8 5 9 15 10 6 11 7 12 8 13 9 14
REMARK SMILES IDX 13 15 10 16 12 17 14 18 11 19 19 20 20 21 21 22 22 24 23 25
REMARK SMILES IDX 24 26 88 27 25 28 87 29 26 30 27 31 28 32 81 33 29 34 86 35
REMARK SMILES IDX 80 36 82 37 30 38 85 39 79 40 78 41 31 43 65 44 44 45 64 46
REMARK SMILES IDX 45 47 48 48 63 49 83 50 46 51 47 52 62 54 84 55 49 56 32 57
REMARK SMILES IDX 33 58 42 59 34 60 35 61 41 62 43 63 36 64 37 65 38 66 39 67
REMARK SMILES IDX 40 68 66 69 67 70 76 71 68 72 69 73 75 74 77 75 70 76 71 77
REMARK SMILES IDX 72 78 73 79 74 80 50 81 51 82 60 83 52 84 53 85 59 86 61 87
REMARK SMILES IDX 54 88 55 89 56 90 57 91 58 92
REMARK H PARENT 16 6 20 23 82 42 48 53
REMARK Flexibility Score: inf
ROOT
ATOM      1  C   UNL A   1      33.557  28.341  27.371  1.00  0.00     0.042 C 
ENDROOT
BRANCH   1   2
ATOM      2  C   UNL A   1      32.218  28.873  26.863  1.00  0.00     0.117 C 
BRANCH   2   3
ATOM      3  N   UNL A   1      31.740  28.168  25.690  1.00  0.00    -0.356 N 
ATOM      4  O   UNL A   1      30.970  26.311  26.800  1.00  0.00    -0.275 OA
ATOM      5  C   UNL A   1      31.085  26.952  25.757  1.00  0.00     0.224 C 
ATOM      6  H   UNL A   1      31.887  28.573  24.805  1.00  0.00     0.163 HD
BRANCH   5   7
ATOM      7  C   UNL A   1      30.540  26.452  24.425  1.00  0.00     0.137 C 
BRANCH   7   8
ATOM      8  C   UNL A   1      29.494  27.341  23.808  1.00  0.00    -0.021 A 
ATOM      9  C   UNL A   1      28.090  27.135  23.716  1.00  0.00     0.024 A 
ATOM     10  C   UNL A   1      29.734  28.567  23.208  1.00  0.00     0.095 A 
ATOM     11  C   UNL A   1      27.527  28.277  23.196  1.00  0.00     0.091 A 
ATOM     12  N   UNL A   1      28.536  29.154  22.857  1.00  0.00    -0.321 N 
BRANCH  12  13
ATOM     13  C   UNL A   1      28.354  30.429  22.275  1.00  0.00     0.081 A 
ATOM     14  C   UNL A   1      28.049  30.531  20.910  1.00  0.00     0.030 A 
ATOM     15  C   UNL A   1      28.484  31.587  23.042  1.00  0.00     0.147 A 
ATOM     16  C   UNL A   1      27.857  31.789  20.333  1.00  0.00     0.002 A 
ATOM     17  C   UNL A   1      28.332  32.841  22.455  1.00  0.00     0.041 A 
ATOM     18  F   UNL A   1      28.843  31.533  24.334  1.00  0.00    -0.205 F 
ATOM     19  C   UNL A   1      28.010  32.943  21.102  1.00  0.00     0.003 A 
ENDBRANCH  12  13
ENDBRANCH   7   8
ENDBRANCH   5   7
ENDBRANCH   2   3
ENDBRANCH   1   2
BRANCH   1  20
ATOM     20  C   UNL A   1      34.753  28.912  26.612  1.00  0.00     0.118 C 
BRANCH  20  21
ATOM     21  N   UNL A   1      35.066  30.271  27.033  1.00  0.00    -0.352 N 
ATOM     22  C   UNL A   1      36.010  30.736  27.918  1.00  0.00     0.251 C 
ATOM     23  H   UNL A   1      34.511  30.970  26.617  1.00  0.00     0.163 HD
ATOM     24  O   UNL A   1      35.881  31.869  28.367  1.00  0.00    -0.269 OA
BRANCH  22  25
ATOM     25  C   UNL A   1      37.160  29.906  28.350  1.00  0.00     0.039 A 
ATOM     26  C   UNL A   1      38.302  29.888  27.531  1.00  0.00     0.014 A 
ATOM     27  C   UNL A   1      37.103  29.083  29.478  1.00  0.00     0.014 A 
ATOM     28  C   UNL A   1      39.399  29.102  27.877  1.00  0.00     0.010 A 
ATOM     29  C   UNL A   1      38.206  28.327  29.848  1.00  0.00     0.010 A 
ATOM     30  C   UNL A   1      39.356  28.346  29.051  1.00  0.00    -0.014 A 
BRANCH  30  31
ATOM     31  C   UNL A   1      40.562  27.639  29.529  1.00  0.00     0.031 A 
ATOM     32  C   UNL A   1      40.866  26.373  28.686  1.00  0.00     0.074 A 
ATOM     33  C   UNL A   1      41.210  28.237  30.577  1.00  0.00     0.049 A 
ATOM     34  N   UNL A   1      41.586  25.329  28.963  1.00  0.00    -0.248 NA
ATOM     35  C   UNL A   1      40.219  26.219  27.349  1.00  0.00     0.031 C 
ATOM     36  C   UNL A   1      40.758  29.480  31.248  1.00  0.00     0.029 A 
ATOM     37  N   UNL A   1      42.360  27.961  31.286  1.00  0.00    -0.354 N 
ATOM     38  C   UNL A   1      41.643  24.514  27.803  1.00  0.00     0.074 A 
ATOM     39  C   UNL A   1      40.705  25.068  26.877  1.00  0.00     0.031 C 
ATOM     40  C   UNL A   1      41.560  29.791  32.287  1.00  0.00     0.029 A 
ATOM     41  C   UNL A   1      42.622  28.815  32.393  1.00  0.00     0.049 A 
ATOM     42  H   UNL A   1      42.962  27.220  31.042  1.00  0.00     0.167 HD
ATOM     43  C   UNL A   1      42.535  23.489  27.642  1.00  0.00     0.037 A 
ATOM     44  C   UNL A   1      43.596  28.706  33.353  1.00  0.00     0.037 A 
ATOM     45  C   UNL A   1      43.354  23.383  28.801  1.00  0.00     0.049 A 
ATOM     46  C   UNL A   1      44.449  27.594  32.901  1.00  0.00     0.074 A 
ATOM     47  C   UNL A   1      43.109  22.893  30.056  1.00  0.00     0.029 A 
ATOM     48  N   UNL A   1      44.494  24.149  28.829  1.00  0.00    -0.354 N 
ATOM     49  N   UNL A   1      45.256  27.633  31.880  1.00  0.00    -0.248 NA
ATOM     50  C   UNL A   1      44.292  26.292  33.561  1.00  0.00     0.031 C 
ATOM     51  C   UNL A   1      43.825  23.770  30.894  1.00  0.00     0.029 A 
ATOM     52  C   UNL A   1      44.634  24.608  30.117  1.00  0.00     0.049 A 
ATOM     53  H   UNL A   1      45.094  24.334  28.071  1.00  0.00     0.167 HD
ATOM     54  C   UNL A   1      45.437  26.301  31.596  1.00  0.00     0.074 A 
ATOM     55  C   UNL A   1      45.097  25.566  32.794  1.00  0.00     0.031 C 
ATOM     56  C   UNL A   1      45.338  25.855  30.320  1.00  0.00     0.037 A 
BRANCH  43  57
ATOM     57  C   UNL A   1      42.930  22.623  26.471  1.00  0.00     0.058 A 
ATOM     58  C   UNL A   1      43.947  22.948  25.564  1.00  0.00     0.135 A 
ATOM     59  C   UNL A   1      42.518  21.265  26.482  1.00  0.00     0.135 A 
ATOM     60  F   UNL A   1      44.390  24.208  25.456  1.00  0.00    -0.206 F 
ATOM     61  C   UNL A   1      44.592  21.966  24.798  1.00  0.00     0.059 A 
ATOM     62  C   UNL A   1      43.168  20.269  25.759  1.00  0.00     0.059 A 
ATOM     63  F   UNL A   1      41.499  20.864  27.262  1.00  0.00    -0.206 F 
ATOM     64  C   UNL A   1      44.227  20.625  24.937  1.00  0.00     0.060 A 
BRANCH  64  65
ATOM     65  S   UNL A   1      45.205  19.337  24.127  1.00  0.00     0.124 S 
ATOM     66  O   UNL A   1      46.559  19.865  24.263  1.00  0.00    -0.237 OA
ATOM     67  O   UNL A   1      44.898  18.158  24.929  1.00  0.00    -0.237 OA
ATOM     68  O   UNL A   1      44.678  19.314  22.765  1.00  0.00    -0.744 OA
ENDBRANCH  64  65
ENDBRANCH  43  57
BRANCH  44  69
ATOM     69  C   UNL A   1      43.866  29.262  34.743  1.00  0.00     0.058 A 
ATOM     70  C   UNL A   1      42.862  29.143  35.747  1.00  0.00     0.135 A 
ATOM     71  C   UNL A   1      44.958  30.049  35.131  1.00  0.00     0.135 A 
ATOM     72  F   UNL A   1      41.856  28.264  35.636  1.00  0.00    -0.206 F 
ATOM     73  C   UNL A   1      42.803  29.940  36.886  1.00  0.00     0.059 A 
ATOM     74  C   UNL A   1      44.954  30.824  36.309  1.00  0.00     0.059 A 
ATOM     75  F   UNL A   1      46.072  30.107  34.390  1.00  0.00    -0.206 F 
ATOM     76  C   UNL A   1      43.830  30.830  37.128  1.00  0.00     0.060 A 
BRANCH  76  77
ATOM     77  S   UNL A   1      43.643  32.001  38.489  1.00  0.00     0.124 S 
ATOM     78  O   UNL A   1      44.702  32.960  38.190  1.00  0.00    -0.237 OA
ATOM     79  O   UNL A   1      42.279  32.490  38.310  1.00  0.00    -0.237 OA
ATOM     80  O   UNL A   1      43.858  31.176  39.673  1.00  0.00    -0.744 OA
ENDBRANCH  76  77
ENDBRANCH  44  69
BRANCH  56  81
ATOM     81  C   UNL A   1      45.660  26.865  29.239  1.00  0.00     0.058 A 
ATOM     82  C   UNL A   1      44.697  27.506  28.440  1.00  0.00     0.135 A 
ATOM     83  C   UNL A   1      46.994  27.230  29.004  1.00  0.00     0.135 A 
ATOM     84  F   UNL A   1      43.399  27.267  28.622  1.00  0.00    -0.206 F 
ATOM     85  C   UNL A   1      45.028  28.411  27.430  1.00  0.00     0.059 A 
ATOM     86  C   UNL A   1      47.355  28.144  28.010  1.00  0.00     0.059 A 
ATOM     87  F   UNL A   1      47.974  26.674  29.734  1.00  0.00    -0.206 F 
ATOM     88  C   UNL A   1      46.366  28.722  27.216  1.00  0.00     0.060 A 
BRANCH  88  89
ATOM     89  S   UNL A   1      46.787  29.847  25.866  1.00  0.00     0.124 S 
ATOM     90  O   UNL A   1      48.091  30.354  26.281  1.00  0.00    -0.237 OA
ATOM     91  O   UNL A   1      46.803  28.953  24.710  1.00  0.00    -0.237 OA
ATOM     92  O   UNL A   1      45.703  30.824  25.884  1.00  0.00    -0.744 OA
ENDBRANCH  88  89
ENDBRANCH  56  81
ENDBRANCH  30  31
ENDBRANCH  22  25
ENDBRANCH  20  21
ENDBRANCH   1  20
TORSDOF 15
ENDMDL
MODEL 3
REMARK VINA RESULT:     -12.4      1.740      2.357
REMARK SMILES O=C(Cc1ccn(-c2ccccc2F)c1)NCCCNC(=O)c1ccc(-c2c3nc(c(-c4c(F)cc(S(=O)(=O)[O-])cc4F)c4ccc([nH]4)c(-c4c(F)cc(S(=O)(=O)[O-])cc4F)c4nc(c(-c5c(F)cc(S(=O)(=O)[O-])cc5F)c5ccc2[nH]5)C=C4)C=C3)cc1
REMARK SMILES IDX 18 1 17 2 16 3 1 4 2 5 3 7 4 8 5 9 15 10 6 11 7 12 8 13 9 14
REMARK SMILES IDX 13 15 10 16 12 17 14 18 11 19 19 20 20 21 21 22 22 24 23 25
REMARK SMILES IDX 24 26 88 27 25 28 87 29 26 30 27 31 28 32 81 33 29 34 86 35
REMARK SMILES IDX 80 36 82 37 30 38 85 39 79 40 78 41 31 43 65 44 44 45 64 46
REMARK SMILES IDX 45 47 48 48 63 49 83 50 46 51 47 52 62 54 84 55 49 56 32 57
REMARK SMILES IDX 33 58 42 59 34 60 35 61 41 62 43 63 36 64 37 65 38 66 39 67
REMARK SMILES IDX 40 68 66 69 67 70 76 71 68 72 69 73 75 74 77 75 70 76 71 77
REMARK SMILES IDX 72 78 73 79 74 80 50 81 51 82 60 83 52 84 53 85 59 86 61 87
REMARK SMILES IDX 54 88 55 89 56 90 57 91 58 92
REMARK H PARENT 16 6 20 23 82 42 48 53
REMARK Flexibility Score: inf
ROOT
ATOM      1  C   UNL A   1      33.024  28.444  27.209  1.00  0.00     0.042 C 
ENDROOT
BRANCH   1   2
ATOM      2  C   UNL A   1      32.058  29.192  26.291  1.00  0.00     0.117 C 
BRANCH   2   3
ATOM      3  N   UNL A   1      31.603  28.387  25.176  1.00  0.00    -0.356 N 
ATOM      4  O   UNL A   1      33.076  29.231  23.630  1.00  0.00    -0.275 OA
ATOM      5  C   UNL A   1      32.199  28.424  23.928  1.00  0.00     0.224 C 
ATOM      6  H   UNL A   1      30.835  27.786  25.311  1.00  0.00     0.163 HD
BRANCH   5   7
ATOM      7  C   UNL A   1      31.662  27.397  22.939  1.00  0.00     0.137 C 
BRANCH   7   8
ATOM      8  C   UNL A   1      32.427  26.102  22.908  1.00  0.00    -0.021 A 
ATOM      9  C   UNL A   1      32.276  24.998  22.024  1.00  0.00     0.024 A 
ATOM     10  C   UNL A   1      33.459  25.758  23.767  1.00  0.00     0.095 A 
ATOM     11  C   UNL A   1      33.286  24.103  22.288  1.00  0.00     0.091 A 
ATOM     12  N   UNL A   1      34.003  24.551  23.377  1.00  0.00    -0.321 N 
BRANCH  12  13
ATOM     13  C   UNL A   1      35.108  23.890  23.961  1.00  0.00     0.081 A 
ATOM     14  C   UNL A   1      35.837  22.959  23.207  1.00  0.00     0.030 A 
ATOM     15  C   UNL A   1      35.473  24.147  25.283  1.00  0.00     0.147 A 
ATOM     16  C   UNL A   1      36.936  22.312  23.777  1.00  0.00     0.002 A 
ATOM     17  C   UNL A   1      36.545  23.469  25.861  1.00  0.00     0.041 A 
ATOM     18  F   UNL A   1      34.758  24.976  26.057  1.00  0.00    -0.205 F 
ATOM     19  C   UNL A   1      37.283  22.559  25.106  1.00  0.00     0.003 A 
ENDBRANCH  12  13
ENDBRANCH   7   8
ENDBRANCH   5   7
ENDBRANCH   2   3
ENDBRANCH   1   2
BRANCH   1  20
ATOM     20  C   UNL A   1      34.490  28.656  26.834  1.00  0.00     0.118 C 
BRANCH  20  21
ATOM     21  N   UNL A   1      34.888  30.051  26.965  1.00  0.00    -0.352 N 
ATOM     22  C   UNL A   1      35.933  30.619  27.655  1.00  0.00     0.251 C 
ATOM     23  H   UNL A   1      34.317  30.691  26.482  1.00  0.00     0.163 HD
ATOM     24  O   UNL A   1      35.888  31.819  27.897  1.00  0.00    -0.269 OA
BRANCH  22  25
ATOM     25  C   UNL A   1      37.093  29.823  28.122  1.00  0.00     0.039 A 
ATOM     26  C   UNL A   1      38.233  29.780  27.302  1.00  0.00     0.014 A 
ATOM     27  C   UNL A   1      37.049  29.053  29.287  1.00  0.00     0.014 A 
ATOM     28  C   UNL A   1      39.340  29.023  27.680  1.00  0.00     0.010 A 
ATOM     29  C   UNL A   1      38.161  28.327  29.688  1.00  0.00     0.010 A 
ATOM     30  C   UNL A   1      39.309  28.322  28.889  1.00  0.00    -0.014 A 
BRANCH  30  31
ATOM     31  C   UNL A   1      40.524  27.652  29.395  1.00  0.00     0.031 A 
ATOM     32  C   UNL A   1      40.872  26.382  28.575  1.00  0.00     0.074 A 
ATOM     33  C   UNL A   1      41.140  28.279  30.446  1.00  0.00     0.049 A 
ATOM     34  N   UNL A   1      41.614  25.361  28.877  1.00  0.00    -0.248 NA
ATOM     35  C   UNL A   1      40.252  26.195  27.230  1.00  0.00     0.031 C 
ATOM     36  C   UNL A   1      40.646  29.519  31.092  1.00  0.00     0.029 A 
ATOM     37  N   UNL A   1      42.285  28.041  31.176  1.00  0.00    -0.354 N 
ATOM     38  C   UNL A   1      41.710  24.532  27.730  1.00  0.00     0.074 A 
ATOM     39  C   UNL A   1      40.774  25.050  26.781  1.00  0.00     0.031 C 
ATOM     40  C   UNL A   1      41.423  29.864  32.140  1.00  0.00     0.029 A 
ATOM     41  C   UNL A   1      42.507  28.916  32.276  1.00  0.00     0.049 A 
ATOM     42  H   UNL A   1      42.908  27.313  30.952  1.00  0.00     0.167 HD
ATOM     43  C   UNL A   1      42.629  23.527  27.597  1.00  0.00     0.037 A 
ATOM     44  C   UNL A   1      43.468  28.844  33.253  1.00  0.00     0.037 A 
ATOM     45  C   UNL A   1      43.432  23.457  28.770  1.00  0.00     0.049 A 
ATOM     46  C   UNL A   1      44.355  27.748  32.829  1.00  0.00     0.074 A 
ATOM     47  C   UNL A   1      43.178  22.978  30.027  1.00  0.00     0.029 A 
ATOM     48  N   UNL A   1      44.551  24.251  28.806  1.00  0.00    -0.354 N 
ATOM     49  N   UNL A   1      45.178  27.793  31.822  1.00  0.00    -0.248 NA
ATOM     50  C   UNL A   1      44.220  26.451  33.505  1.00  0.00     0.031 C 
ATOM     51  C   UNL A   1      43.858  23.883  30.865  1.00  0.00     0.029 A 
ATOM     52  C   UNL A   1      44.659  24.731  30.089  1.00  0.00     0.049 A 
ATOM     53  H   UNL A   1      45.160  24.441  28.056  1.00  0.00     0.167 HD
ATOM     54  C   UNL A   1      45.396  26.463  31.558  1.00  0.00     0.074 A 
ATOM     55  C   UNL A   1      45.054  25.735  32.760  1.00  0.00     0.031 C 
ATOM     56  C   UNL A   1      45.329  25.997  30.287  1.00  0.00     0.037 A 
BRANCH  43  57
ATOM     57  C   UNL A   1      43.065  22.656  26.444  1.00  0.00     0.058 A 
ATOM     58  C   UNL A   1      44.165  22.935  25.623  1.00  0.00     0.135 A 
ATOM     59  C   UNL A   1      42.578  21.324  26.400  1.00  0.00     0.135 A 
ATOM     60  F   UNL A   1      44.684  24.169  25.571  1.00  0.00    -0.206 F 
ATOM     61  C   UNL A   1      44.811  21.929  24.891  1.00  0.00     0.059 A 
ATOM     62  C   UNL A   1      43.226  20.302  25.711  1.00  0.00     0.059 A 
ATOM     63  F   UNL A   1      41.482  20.970  27.093  1.00  0.00    -0.206 F 
ATOM     64  C   UNL A   1      44.363  20.609  24.979  1.00  0.00     0.060 A 
BRANCH  64  65
ATOM     65  S   UNL A   1      45.328  19.278  24.223  1.00  0.00     0.124 S 
ATOM     66  O   UNL A   1      44.694  19.162  22.913  1.00  0.00    -0.237 OA
ATOM     67  O   UNL A   1      46.679  19.826  24.231  1.00  0.00    -0.237 OA
ATOM     68  O   UNL A   1      45.112  18.147  25.122  1.00  0.00    -0.744 OA
ENDBRANCH  64  65
ENDBRANCH  43  57
BRANCH  44  69
ATOM     69  C   UNL A   1      43.701  29.425  34.638  1.00  0.00     0.058 A 
ATOM     70  C   UNL A   1      42.678  29.308  35.624  1.00  0.00     0.135 A 
ATOM     71  C   UNL A   1      44.774  30.233  35.037  1.00  0.00     0.135 A 
ATOM     72  F   UNL A   1      41.687  28.413  35.505  1.00  0.00    -0.206 F 
ATOM     73  C   UNL A   1      42.584  30.121  36.749  1.00  0.00     0.059 A 
ATOM     74  C   UNL A   1      44.735  31.026  36.202  1.00  0.00     0.059 A 
ATOM     75  F   UNL A   1      45.902  30.295  34.319  1.00  0.00    -0.206 F 
ATOM     76  C   UNL A   1      43.594  31.029  36.998  1.00  0.00     0.060 A 
BRANCH  76  77
ATOM     77  S   UNL A   1      43.362  32.218  38.337  1.00  0.00     0.124 S 
ATOM     78  O   UNL A   1      44.698  32.249  38.926  1.00  0.00    -0.237 OA
ATOM     79  O   UNL A   1      42.957  33.428  37.628  1.00  0.00    -0.237 OA
ATOM     80  O   UNL A   1      42.327  31.600  39.159  1.00  0.00    -0.744 OA
ENDBRANCH  76  77
ENDBRANCH  44  69
BRANCH  56  81
ATOM     81  C   UNL A   1      45.644  27.001  29.197  1.00  0.00     0.058 A 
ATOM     82  C   UNL A   1      46.940  27.430  28.866  1.00  0.00     0.135 A 
ATOM     83  C   UNL A   1      44.603  27.544  28.432  1.00  0.00     0.135 A 
ATOM     84  F   UNL A   1      48.001  26.932  29.500  1.00  0.00    -0.206 F 
ATOM     85  C   UNL A   1      47.197  28.380  27.876  1.00  0.00     0.059 A 
ATOM     86  C   UNL A   1      44.829  28.487  27.423  1.00  0.00     0.059 A 
ATOM     87  F   UNL A   1      43.335  27.176  28.675  1.00  0.00    -0.206 F 
ATOM     88  C   UNL A   1      46.130  28.911  27.160  1.00  0.00     0.060 A 
BRANCH  88  89
ATOM     89  S   UNL A   1      46.467  30.186  25.925  1.00  0.00     0.124 S 
ATOM     90  O   UNL A   1      46.517  29.413  24.687  1.00  0.00    -0.237 OA
ATOM     91  O   UNL A   1      45.311  31.068  26.064  1.00  0.00    -0.237 OA
ATOM     92  O   UNL A   1      47.741  30.753  26.357  1.00  0.00    -0.744 OA
ENDBRANCH  88  89
ENDBRANCH  56  81
ENDBRANCH  30  31
ENDBRANCH  22  25
ENDBRANCH  20  21
ENDBRANCH   1  20
TORSDOF 15
ENDMDL
