MODEL 1
REMARK VINA RESULT:     -11.3      0.000      0.000
REMARK SMILES Cc1[nH]c(=O)n(C)c(=O)c1CC(=O)NCCCNC(=O)c1ccc(-c2c3nc(c(-c4c(F)cc(S(=O)(=O)[O-])cc4F)c4ccc([nH]4)c(-c4c(F)cc(S(=O)(=O)[O-])cc4F)c4nc(c(-c5c(F)cc(S(=O)(=O)[O-])cc5F)c5ccc2[nH]5)C=C4)C=C3)cc1
REMARK SMILES IDX 17 1 16 2 15 3 14 4 12 5 13 6 11 8 10 9 1 10 2 11 3 12 4 13
REMARK SMILES IDX 8 15 5 16 6 17 9 18 7 19 18 20 19 21 20 23 21 24 22 25 86 26
REMARK SMILES IDX 23 27 85 28 24 29 25 30 26 31 79 32 27 33 84 34 78 35 80 36
REMARK SMILES IDX 28 37 83 38 77 39 76 40 29 42 63 43 42 44 62 45 43 46 46 47
REMARK SMILES IDX 61 48 81 49 44 50 45 51 60 53 82 54 47 55 30 56 31 57 40 58
REMARK SMILES IDX 32 59 33 60 39 61 41 62 34 63 35 64 36 65 37 66 38 67 64 68
REMARK SMILES IDX 65 69 74 70 66 71 67 72 73 73 75 74 68 75 69 76 70 77 71 78
REMARK SMILES IDX 72 79 48 80 49 81 58 82 50 83 51 84 57 85 59 86 52 87 53 88
REMARK SMILES IDX 54 89 55 90 56 91
REMARK H PARENT 14 7 3 14 18 22 80 41 46 52
REMARK Flexibility Score: inf
ROOT
ATOM      1  C   UNL A   1      44.255  24.124  27.553  1.00  0.00     0.118 C 
ENDROOT
BRANCH   1   2
ATOM      2  C   UNL A   1      43.589  22.853  28.070  1.00  0.00     0.042 C 
BRANCH   2   3
ATOM      3  C   UNL A   1      42.079  22.835  27.866  1.00  0.00     0.117 C 
BRANCH   3   4
ATOM      4  N   UNL A   1      41.490  21.563  28.231  1.00  0.00    -0.356 N 
ATOM      5  C   UNL A   1      41.285  20.446  27.476  1.00  0.00     0.224 C 
ATOM      6  O   UNL A   1      40.872  19.436  28.050  1.00  0.00    -0.275 OA
ATOM      7  H   UNL A   1      41.192  21.494  29.167  1.00  0.00     0.163 HD
BRANCH   5   8
ATOM      8  C   UNL A   1      41.672  20.422  25.998  1.00  0.00     0.143 C 
BRANCH   8   9
ATOM      9  C   UNL A   1      43.121  20.100  25.732  1.00  0.00     0.046 A 
ATOM     10  C   UNL A   1      43.123  17.699  26.582  1.00  0.00     0.065 C 
ATOM     11  C   UNL A   1      43.745  18.934  25.989  1.00  0.00     0.026 A 
ATOM     12  N   UNL A   1      45.081  18.806  25.717  1.00  0.00    -0.311 N 
ATOM     13  C   UNL A   1      45.879  19.776  25.188  1.00  0.00     0.328 A 
ATOM     14  H   UNL A   1      45.501  17.939  25.921  1.00  0.00     0.171 HD
ATOM     15  C   UNL A   1      43.911  21.194  25.077  1.00  0.00     0.259 A 
ATOM     16  O   UNL A   1      47.069  19.541  24.994  1.00  0.00    -0.248 OA
ATOM     17  N   UNL A   1      45.262  20.972  24.893  1.00  0.00    -0.263 N 
ATOM     18  O   UNL A   1      43.339  22.220  24.715  1.00  0.00    -0.269 OA
ATOM     19  C   UNL A   1      46.085  22.011  24.307  1.00  0.00     0.158 C 
ENDBRANCH   8   9
ENDBRANCH   5   8
ENDBRANCH   3   4
ENDBRANCH   2   3
ENDBRANCH   1   2
BRANCH   1  20
ATOM     20  N   UNL A   1      43.642  24.611  26.323  1.00  0.00    -0.352 N 
ATOM     21  C   UNL A   1      42.697  25.589  26.134  1.00  0.00     0.251 C 
ATOM     22  H   UNL A   1      43.953  24.170  25.501  1.00  0.00     0.163 HD
ATOM     23  O   UNL A   1      42.155  25.696  25.036  1.00  0.00    -0.269 OA
BRANCH  21  24
ATOM     24  C   UNL A   1      42.325  26.495  27.239  1.00  0.00     0.039 A 
ATOM     25  C   UNL A   1      41.272  26.135  28.085  1.00  0.00     0.014 A 
ATOM     26  C   UNL A   1      42.993  27.708  27.430  1.00  0.00     0.014 A 
ATOM     27  C   UNL A   1      40.931  26.962  29.157  1.00  0.00     0.010 A 
ATOM     28  C   UNL A   1      42.705  28.491  28.544  1.00  0.00     0.010 A 
ATOM     29  C   UNL A   1      41.668  28.129  29.415  1.00  0.00    -0.014 A 
BRANCH  29  30
ATOM     30  C   UNL A   1      41.363  28.987  30.588  1.00  0.00     0.031 A 
ATOM     31  C   UNL A   1      42.196  28.883  31.835  1.00  0.00     0.074 A 
ATOM     32  C   UNL A   1      40.310  29.826  30.541  1.00  0.00     0.049 A 
ATOM     33  N   UNL A   1      42.058  29.511  32.973  1.00  0.00    -0.248 NA
ATOM     34  C   UNL A   1      43.320  27.931  31.809  1.00  0.00     0.031 C 
ATOM     35  C   UNL A   1      39.409  29.988  29.398  1.00  0.00     0.029 A 
ATOM     36  N   UNL A   1      39.815  30.698  31.478  1.00  0.00    -0.354 N 
ATOM     37  C   UNL A   1      43.072  29.035  33.795  1.00  0.00     0.074 A 
ATOM     38  C   UNL A   1      43.779  28.018  33.048  1.00  0.00     0.031 C 
ATOM     39  C   UNL A   1      38.494  30.927  29.687  1.00  0.00     0.029 A 
ATOM     40  C   UNL A   1      38.715  31.405  31.048  1.00  0.00     0.049 A 
ATOM     41  H   UNL A   1      40.210  30.809  32.372  1.00  0.00     0.167 HD
ATOM     42  C   UNL A   1      43.403  29.431  35.046  1.00  0.00     0.037 A 
ATOM     43  C   UNL A   1      37.968  32.330  31.682  1.00  0.00     0.037 A 
ATOM     44  C   UNL A   1      42.702  30.453  35.778  1.00  0.00     0.049 A 
ATOM     45  C   UNL A   1      38.333  32.727  33.086  1.00  0.00     0.074 A 
ATOM     46  C   UNL A   1      42.979  30.951  37.039  1.00  0.00     0.029 A 
ATOM     47  N   UNL A   1      41.585  31.134  35.316  1.00  0.00    -0.354 N 
ATOM     48  N   UNL A   1      39.323  32.298  33.832  1.00  0.00    -0.248 NA
ATOM     49  C   UNL A   1      37.481  33.732  33.737  1.00  0.00     0.031 C 
ATOM     50  C   UNL A   1      42.000  31.898  37.359  1.00  0.00     0.029 A 
ATOM     51  C   UNL A   1      41.147  32.031  36.275  1.00  0.00     0.049 A 
ATOM     52  H   UNL A   1      41.165  31.000  34.435  1.00  0.00     0.167 HD
ATOM     53  C   UNL A   1      39.229  32.998  35.030  1.00  0.00     0.074 A 
ATOM     54  C   UNL A   1      38.093  33.888  34.904  1.00  0.00     0.031 C 
ATOM     55  C   UNL A   1      40.013  32.913  36.133  1.00  0.00     0.037 A 
BRANCH  42  56
ATOM     56  C   UNL A   1      44.584  28.765  35.701  1.00  0.00     0.058 A 
ATOM     57  C   UNL A   1      44.430  27.619  36.498  1.00  0.00     0.135 A 
ATOM     58  C   UNL A   1      45.886  29.248  35.496  1.00  0.00     0.135 A 
ATOM     59  F   UNL A   1      43.207  27.124  36.742  1.00  0.00    -0.206 F 
ATOM     60  C   UNL A   1      45.522  26.990  37.087  1.00  0.00     0.059 A 
ATOM     61  C   UNL A   1      46.996  28.616  36.051  1.00  0.00     0.059 A 
ATOM     62  F   UNL A   1      46.092  30.341  34.744  1.00  0.00    -0.206 F 
ATOM     63  C   UNL A   1      46.802  27.494  36.855  1.00  0.00     0.060 A 
BRANCH  63  64
ATOM     64  S   UNL A   1      48.206  26.655  37.619  1.00  0.00     0.124 S 
ATOM     65  O   UNL A   1      49.306  27.546  37.261  1.00  0.00    -0.237 OA
ATOM     66  O   UNL A   1      47.831  26.647  39.029  1.00  0.00    -0.237 OA
ATOM     67  O   UNL A   1      48.221  25.350  36.967  1.00  0.00    -0.744 OA
ENDBRANCH  63  64
ENDBRANCH  42  56
BRANCH  43  68
ATOM     68  C   UNL A   1      36.826  32.968  30.974  1.00  0.00     0.058 A 
ATOM     69  C   UNL A   1      35.503  32.638  31.303  1.00  0.00     0.135 A 
ATOM     70  C   UNL A   1      37.028  33.942  29.982  1.00  0.00     0.135 A 
ATOM     71  F   UNL A   1      35.257  31.707  32.238  1.00  0.00    -0.206 F 
ATOM     72  C   UNL A   1      34.421  33.247  30.676  1.00  0.00     0.059 A 
ATOM     73  C   UNL A   1      35.963  34.584  29.359  1.00  0.00     0.059 A 
ATOM     74  F   UNL A   1      38.274  34.303  29.640  1.00  0.00    -0.206 F 
ATOM     75  C   UNL A   1      34.661  34.227  29.710  1.00  0.00     0.060 A 
BRANCH  75  76
ATOM     76  S   UNL A   1      33.246  35.055  28.953  1.00  0.00     0.124 S 
ATOM     77  O   UNL A   1      32.399  35.310  30.112  1.00  0.00    -0.237 OA
ATOM     78  O   UNL A   1      33.871  36.227  28.347  1.00  0.00    -0.237 OA
ATOM     79  O   UNL A   1      32.741  34.064  28.008  1.00  0.00    -0.744 OA
ENDBRANCH  75  76
ENDBRANCH  43  68
BRANCH  55  80
ATOM     80  C   UNL A   1      39.688  33.814  37.293  1.00  0.00     0.058 A 
ATOM     81  C   UNL A   1      38.871  33.386  38.350  1.00  0.00     0.135 A 
ATOM     82  C   UNL A   1      40.267  35.091  37.387  1.00  0.00     0.135 A 
ATOM     83  F   UNL A   1      38.287  32.178  38.307  1.00  0.00    -0.206 F 
ATOM     84  C   UNL A   1      38.627  34.198  39.453  1.00  0.00     0.059 A 
ATOM     85  C   UNL A   1      40.062  35.906  38.494  1.00  0.00     0.059 A 
ATOM     86  F   UNL A   1      41.066  35.544  36.407  1.00  0.00    -0.206 F 
ATOM     87  C   UNL A   1      39.234  35.453  39.519  1.00  0.00     0.060 A 
BRANCH  87  88
ATOM     88  S   UNL A   1      38.947  36.472  40.982  1.00  0.00     0.124 S 
ATOM     89  O   UNL A   1      37.871  35.742  41.644  1.00  0.00    -0.237 OA
ATOM     90  O   UNL A   1      40.245  36.430  41.648  1.00  0.00    -0.237 OA
ATOM     91  O   UNL A   1      38.574  37.770  40.427  1.00  0.00    -0.744 OA
ENDBRANCH  87  88
ENDBRANCH  55  80
ENDBRANCH  29  30
ENDBRANCH  21  24
ENDBRANCH   1  20
TORSDOF 14
ENDMDL
MODEL 2
REMARK VINA RESULT:     -11.3      6.066     14.449
REMARK SMILES Cc1[nH]c(=O)n(C)c(=O)c1CC(=O)NCCCNC(=O)c1ccc(-c2c3nc(c(-c4c(F)cc(S(=O)(=O)[O-])cc4F)c4ccc([nH]4)c(-c4c(F)cc(S(=O)(=O)[O-])cc4F)c4nc(c(-c5c(F)cc(S(=O)(=O)[O-])cc5F)c5ccc2[nH]5)C=C4)C=C3)cc1
REMARK SMILES IDX 17 1 16 2 15 3 14 4 12 5 13 6 11 8 10 9 1 10 2 11 3 12 4 13
REMARK SMILES IDX 8 15 5 16 6 17 9 18 7 19 18 20 19 21 20 23 21 24 22 25 86 26
REMARK SMILES IDX 23 27 85 28 24 29 25 30 26 31 79 32 27 33 84 34 78 35 80 36
REMARK SMILES IDX 28 37 83 38 77 39 76 40 29 42 63 43 42 44 62 45 43 46 46 47
REMARK SMILES IDX 61 48 81 49 44 50 45 51 60 53 82 54 47 55 30 56 31 57 40 58
REMARK SMILES IDX 32 59 33 60 39 61 41 62 34 63 35 64 36 65 37 66 38 67 64 68
REMARK SMILES IDX 65 69 74 70 66 71 67 72 73 73 75 74 68 75 69 76 70 77 71 78
REMARK SMILES IDX 72 79 48 80 49 81 58 82 50 83 51 84 57 85 59 86 52 87 53 88
REMARK SMILES IDX 54 89 55 90 56 91
REMARK H PARENT 14 7 3 14 18 22 80 41 46 52
REMARK Flexibility Score: inf
ROOT
ATOM      1  C   UNL A   1      37.665  33.373  31.521  1.00  0.00     0.118 C 
ENDROOT
BRANCH   1   2
ATOM      2  C   UNL A   1      37.242  34.052  30.222  1.00  0.00     0.042 C 
BRANCH   2   3
ATOM      3  C   UNL A   1      36.387  33.165  29.325  1.00  0.00     0.117 C 
BRANCH   3   4
ATOM      4  N   UNL A   1      35.837  33.889  28.198  1.00  0.00    -0.356 N 
ATOM      5  C   UNL A   1      34.604  34.447  28.034  1.00  0.00     0.224 C 
ATOM      6  O   UNL A   1      34.412  35.124  27.022  1.00  0.00    -0.275 OA
ATOM      7  H   UNL A   1      36.448  33.996  27.432  1.00  0.00     0.163 HD
BRANCH   5   8
ATOM      8  C   UNL A   1      33.545  34.332  29.130  1.00  0.00     0.143 C 
BRANCH   8   9
ATOM      9  C   UNL A   1      33.651  35.370  30.219  1.00  0.00     0.046 A 
ATOM     10  C   UNL A   1      33.021  37.414  28.836  1.00  0.00     0.065 C 
ATOM     11  C   UNL A   1      33.433  36.693  30.091  1.00  0.00     0.026 A 
ATOM     12  N   UNL A   1      33.600  37.516  31.173  1.00  0.00    -0.311 N 
ATOM     13  C   UNL A   1      33.978  37.117  32.421  1.00  0.00     0.328 A 
ATOM     14  H   UNL A   1      33.433  38.476  31.038  1.00  0.00     0.171 HD
ATOM     15  C   UNL A   1      33.994  34.840  31.580  1.00  0.00     0.259 A 
ATOM     16  O   UNL A   1      34.099  37.954  33.312  1.00  0.00    -0.248 OA
ATOM     17  N   UNL A   1      34.185  35.766  32.586  1.00  0.00    -0.263 N 
ATOM     18  O   UNL A   1      34.074  33.626  31.753  1.00  0.00    -0.269 OA
ATOM     19  C   UNL A   1      34.563  35.315  33.912  1.00  0.00     0.158 C 
ENDBRANCH   8   9
ENDBRANCH   5   8
ENDBRANCH   3   4
ENDBRANCH   2   3
ENDBRANCH   1   2
BRANCH   1  20
ATOM     20  N   UNL A   1      36.820  32.230  31.849  1.00  0.00    -0.352 N 
ATOM     21  C   UNL A   1      36.964  30.904  31.527  1.00  0.00     0.251 C 
ATOM     22  H   UNL A   1      36.024  32.443  32.386  1.00  0.00     0.163 HD
ATOM     23  O   UNL A   1      36.025  30.134  31.717  1.00  0.00    -0.269 OA
BRANCH  21  24
ATOM     24  C   UNL A   1      38.226  30.407  30.944  1.00  0.00     0.039 A 
ATOM     25  C   UNL A   1      38.379  30.414  29.554  1.00  0.00     0.014 A 
ATOM     26  C   UNL A   1      39.249  29.912  31.758  1.00  0.00     0.014 A 
ATOM     27  C   UNL A   1      39.581  29.983  28.988  1.00  0.00     0.010 A 
ATOM     28  C   UNL A   1      40.473  29.557  31.198  1.00  0.00     0.010 A 
ATOM     29  C   UNL A   1      40.649  29.584  29.808  1.00  0.00    -0.014 A 
BRANCH  29  30
ATOM     30  C   UNL A   1      41.956  29.185  29.227  1.00  0.00     0.031 A 
ATOM     31  C   UNL A   1      43.071  30.187  29.121  1.00  0.00     0.074 A 
ATOM     32  C   UNL A   1      42.119  27.932  28.757  1.00  0.00     0.049 A 
ATOM     33  N   UNL A   1      44.264  30.041  28.605  1.00  0.00    -0.248 NA
ATOM     34  C   UNL A   1      42.807  31.537  29.645  1.00  0.00     0.031 C 
ATOM     35  C   UNL A   1      41.097  26.884  28.775  1.00  0.00     0.029 A 
ATOM     36  N   UNL A   1      43.203  27.328  28.172  1.00  0.00    -0.354 N 
ATOM     37  C   UNL A   1      44.889  31.275  28.740  1.00  0.00     0.074 A 
ATOM     38  C   UNL A   1      43.923  32.175  29.329  1.00  0.00     0.031 C 
ATOM     39  C   UNL A   1      41.612  25.757  28.258  1.00  0.00     0.029 A 
ATOM     40  C   UNL A   1      42.985  26.012  27.834  1.00  0.00     0.049 A 
ATOM     41  H   UNL A   1      44.055  27.791  28.009  1.00  0.00     0.167 HD
ATOM     42  C   UNL A   1      46.162  31.616  28.431  1.00  0.00     0.037 A 
ATOM     43  C   UNL A   1      43.801  25.114  27.245  1.00  0.00     0.037 A 
ATOM     44  C   UNL A   1      47.121  30.708  27.857  1.00  0.00     0.049 A 
ATOM     45  C   UNL A   1      45.198  25.527  26.876  1.00  0.00     0.074 A 
ATOM     46  C   UNL A   1      48.446  30.948  27.537  1.00  0.00     0.029 A 
ATOM     47  N   UNL A   1      46.859  29.389  27.515  1.00  0.00    -0.354 N 
ATOM     48  N   UNL A   1      45.788  26.686  27.053  1.00  0.00    -0.248 NA
ATOM     49  C   UNL A   1      46.043  24.515  26.228  1.00  0.00     0.031 C 
ATOM     50  C   UNL A   1      48.971  29.788  26.958  1.00  0.00     0.029 A 
ATOM     51  C   UNL A   1      47.990  28.809  26.967  1.00  0.00     0.049 A 
ATOM     52  H   UNL A   1      45.995  28.934  27.644  1.00  0.00     0.167 HD
ATOM     53  C   UNL A   1      47.080  26.535  26.562  1.00  0.00     0.074 A 
ATOM     54  C   UNL A   1      47.190  25.169  26.092  1.00  0.00     0.031 C 
ATOM     55  C   UNL A   1      48.084  27.445  26.505  1.00  0.00     0.037 A 
BRANCH  42  56
ATOM     56  C   UNL A   1      46.597  33.028  28.718  1.00  0.00     0.058 A 
ATOM     57  C   UNL A   1      46.447  34.049  27.766  1.00  0.00     0.135 A 
ATOM     58  C   UNL A   1      47.125  33.377  29.971  1.00  0.00     0.135 A 
ATOM     59  F   UNL A   1      45.962  33.771  26.545  1.00  0.00    -0.206 F 
ATOM     60  C   UNL A   1      46.828  35.359  28.037  1.00  0.00     0.059 A 
ATOM     61  C   UNL A   1      47.486  34.687  30.274  1.00  0.00     0.059 A 
ATOM     62  F   UNL A   1      47.293  32.441  30.919  1.00  0.00    -0.206 F 
ATOM     63  C   UNL A   1      47.344  35.670  29.295  1.00  0.00     0.060 A 
BRANCH  63  64
ATOM     64  S   UNL A   1      47.821  37.378  29.630  1.00  0.00     0.124 S 
ATOM     65  O   UNL A   1      48.786  37.625  28.562  1.00  0.00    -0.237 OA
ATOM     66  O   UNL A   1      46.550  38.084  29.509  1.00  0.00    -0.237 OA
ATOM     67  O   UNL A   1      48.378  37.320  30.976  1.00  0.00    -0.744 OA
ENDBRANCH  63  64
ENDBRANCH  42  56
BRANCH  43  68
ATOM     68  C   UNL A   1      43.319  23.726  27.007  1.00  0.00     0.058 A 
ATOM     69  C   UNL A   1      43.008  23.287  25.712  1.00  0.00     0.135 A 
ATOM     70  C   UNL A   1      43.196  22.802  28.057  1.00  0.00     0.135 A 
ATOM     71  F   UNL A   1      43.102  24.135  24.676  1.00  0.00    -0.206 F 
ATOM     72  C   UNL A   1      42.588  21.985  25.463  1.00  0.00     0.059 A 
ATOM     73  C   UNL A   1      42.803  21.486  27.830  1.00  0.00     0.059 A 
ATOM     74  F   UNL A   1      43.494  23.167  29.312  1.00  0.00    -0.206 F 
ATOM     75  C   UNL A   1      42.498  21.087  26.529  1.00  0.00     0.060 A 
BRANCH  75  76
ATOM     76  S   UNL A   1      42.017  19.382  26.181  1.00  0.00     0.124 S 
ATOM     77  O   UNL A   1      42.844  19.073  25.020  1.00  0.00    -0.237 OA
ATOM     78  O   UNL A   1      42.379  18.706  27.423  1.00  0.00    -0.237 OA
ATOM     79  O   UNL A   1      40.583  19.481  25.925  1.00  0.00    -0.744 OA
ENDBRANCH  75  76
ENDBRANCH  43  68
BRANCH  55  80
ATOM     80  C   UNL A   1      49.401  26.998  25.933  1.00  0.00     0.058 A 
ATOM     81  C   UNL A   1      49.679  27.102  24.561  1.00  0.00     0.135 A 
ATOM     82  C   UNL A   1      50.424  26.536  26.777  1.00  0.00     0.135 A 
ATOM     83  F   UNL A   1      48.734  27.530  23.710  1.00  0.00    -0.206 F 
ATOM     84  C   UNL A   1      50.922  26.750  24.045  1.00  0.00     0.059 A 
ATOM     85  C   UNL A   1      51.684  26.208  26.286  1.00  0.00     0.059 A 
ATOM     86  F   UNL A   1      50.214  26.428  28.099  1.00  0.00    -0.206 F 
ATOM     87  C   UNL A   1      51.920  26.312  24.917  1.00  0.00     0.060 A 
BRANCH  87  88
ATOM     88  S   UNL A   1      53.543  25.908  24.235  1.00  0.00     0.124 S 
ATOM     89  O   UNL A   1      53.765  24.571  24.775  1.00  0.00    -0.237 OA
ATOM     90  O   UNL A   1      53.300  25.979  22.797  1.00  0.00    -0.237 OA
ATOM     91  O   UNL A   1      54.409  26.953  24.772  1.00  0.00    -0.744 OA
ENDBRANCH  87  88
ENDBRANCH  55  80
ENDBRANCH  29  30
ENDBRANCH  21  24
ENDBRANCH   1  20
TORSDOF 14
ENDMDL
MODEL 3
REMARK VINA RESULT:     -11.3      3.381      4.465
REMARK SMILES Cc1[nH]c(=O)n(C)c(=O)c1CC(=O)NCCCNC(=O)c1ccc(-c2c3nc(c(-c4c(F)cc(S(=O)(=O)[O-])cc4F)c4ccc([nH]4)c(-c4c(F)cc(S(=O)(=O)[O-])cc4F)c4nc(c(-c5c(F)cc(S(=O)(=O)[O-])cc5F)c5ccc2[nH]5)C=C4)C=C3)cc1
REMARK SMILES IDX 17 1 16 2 15 3 14 4 12 5 13 6 11 8 10 9 1 10 2 11 3 12 4 13
REMARK SMILES IDX 8 15 5 16 6 17 9 18 7 19 18 20 19 21 20 23 21 24 22 25 86 26
REMARK SMILES IDX 23 27 85 28 24 29 25 30 26 31 79 32 27 33 84 34 78 35 80 36
REMARK SMILES IDX 28 37 83 38 77 39 76 40 29 42 63 43 42 44 62 45 43 46 46 47
REMARK SMILES IDX 61 48 81 49 44 50 45 51 60 53 82 54 47 55 30 56 31 57 40 58
REMARK SMILES IDX 32 59 33 60 39 61 41 62 34 63 35 64 36 65 37 66 38 67 64 68
REMARK SMILES IDX 65 69 74 70 66 71 67 72 73 73 75 74 68 75 69 76 70 77 71 78
REMARK SMILES IDX 72 79 48 80 49 81 58 82 50 83 51 84 57 85 59 86 52 87 53 88
REMARK SMILES IDX 54 89 55 90 56 91
REMARK H PARENT 14 7 3 14 18 22 80 41 46 52
REMARK Flexibility Score: inf
ROOT
ATOM      1  C   UNL A   1      38.588  24.126  26.634  1.00  0.00     0.118 C 
ENDROOT
BRANCH   1   2
ATOM      2  C   UNL A   1      37.655  23.334  25.724  1.00  0.00     0.042 C 
BRANCH   2   3
ATOM      3  C   UNL A   1      36.203  23.793  25.795  1.00  0.00     0.117 C 
BRANCH   3   4
ATOM      4  N   UNL A   1      35.435  23.038  26.764  1.00  0.00    -0.356 N 
ATOM      5  C   UNL A   1      34.570  22.000  26.577  1.00  0.00     0.224 C 
ATOM      6  O   UNL A   1      34.126  21.439  27.580  1.00  0.00    -0.275 OA
ATOM      7  H   UNL A   1      35.555  23.318  27.700  1.00  0.00     0.163 HD
BRANCH   5   8
ATOM      8  C   UNL A   1      34.267  21.483  25.171  1.00  0.00     0.143 C 
BRANCH   8   9
ATOM      9  C   UNL A   1      34.445  19.996  24.996  1.00  0.00     0.046 A 
ATOM     10  C   UNL A   1      36.987  19.951  24.834  1.00  0.00     0.065 C 
ATOM     11  C   UNL A   1      35.612  19.340  24.843  1.00  0.00     0.026 A 
ATOM     12  N   UNL A   1      35.608  17.982  24.662  1.00  0.00    -0.311 N 
ATOM     13  C   UNL A   1      34.498  17.191  24.621  1.00  0.00     0.328 A 
ATOM     14  H   UNL A   1      36.480  17.540  24.552  1.00  0.00     0.171 HD
ATOM     15  C   UNL A   1      33.182  19.189  25.040  1.00  0.00     0.259 A 
ATOM     16  O   UNL A   1      34.623  15.982  24.446  1.00  0.00    -0.248 OA
ATOM     17  N   UNL A   1      33.292  17.834  24.797  1.00  0.00    -0.263 N 
ATOM     18  O   UNL A   1      32.119  19.745  25.304  1.00  0.00    -0.269 OA
ATOM     19  C   UNL A   1      32.099  17.010  24.782  1.00  0.00     0.158 C 
ENDBRANCH   8   9
ENDBRANCH   5   8
ENDBRANCH   3   4
ENDBRANCH   2   3
ENDBRANCH   1   2
BRANCH   1  20
ATOM     20  N   UNL A   1      39.960  24.142  26.141  1.00  0.00    -0.352 N 
ATOM     21  C   UNL A   1      41.004  24.973  26.461  1.00  0.00     0.251 C 
ATOM     22  H   UNL A   1      40.171  23.448  25.476  1.00  0.00     0.163 HD
ATOM     23  O   UNL A   1      42.021  24.954  25.771  1.00  0.00    -0.269 OA
BRANCH  21  24
ATOM     24  C   UNL A   1      40.904  25.892  27.613  1.00  0.00     0.039 A 
ATOM     25  C   UNL A   1      41.833  26.929  27.735  1.00  0.00     0.014 A 
ATOM     26  C   UNL A   1      39.916  25.719  28.587  1.00  0.00     0.014 A 
ATOM     27  C   UNL A   1      41.731  27.829  28.797  1.00  0.00     0.010 A 
ATOM     28  C   UNL A   1      39.768  26.661  29.600  1.00  0.00     0.010 A 
ATOM     29  C   UNL A   1      40.676  27.723  29.719  1.00  0.00    -0.014 A 
BRANCH  29  30
ATOM     30  C   UNL A   1      40.513  28.708  30.817  1.00  0.00     0.031 A 
ATOM     31  C   UNL A   1      41.373  28.616  32.047  1.00  0.00     0.074 A 
ATOM     32  C   UNL A   1      39.561  29.657  30.722  1.00  0.00     0.049 A 
ATOM     33  N   UNL A   1      41.348  29.353  33.127  1.00  0.00    -0.248 NA
ATOM     34  C   UNL A   1      42.379  27.542  32.078  1.00  0.00     0.031 C 
ATOM     35  C   UNL A   1      38.644  29.822  29.592  1.00  0.00     0.029 A 
ATOM     36  N   UNL A   1      39.203  30.659  31.588  1.00  0.00    -0.354 N 
ATOM     37  C   UNL A   1      42.330  28.834  33.963  1.00  0.00     0.074 A 
ATOM     38  C   UNL A   1      42.889  27.681  33.293  1.00  0.00     0.031 C 
ATOM     39  C   UNL A   1      37.853  30.883  29.818  1.00  0.00     0.029 A 
ATOM     40  C   UNL A   1      38.175  31.448  31.125  1.00  0.00     0.049 A 
ATOM     41  H   UNL A   1      39.639  30.800  32.459  1.00  0.00     0.167 HD
ATOM     42  C   UNL A   1      42.748  29.296  35.164  1.00  0.00     0.037 A 
ATOM     43  C   UNL A   1      37.562  32.506  31.692  1.00  0.00     0.037 A 
ATOM     44  C   UNL A   1      42.194  30.453  35.818  1.00  0.00     0.049 A 
ATOM     45  C   UNL A   1      38.019  32.979  33.044  1.00  0.00     0.074 A 
ATOM     46  C   UNL A   1      42.570  31.023  37.021  1.00  0.00     0.029 A 
ATOM     47  N   UNL A   1      41.146  31.217  35.325  1.00  0.00    -0.354 N 
ATOM     48  N   UNL A   1      38.980  32.504  33.800  1.00  0.00    -0.248 NA
ATOM     49  C   UNL A   1      37.311  34.128  33.623  1.00  0.00     0.031 C 
ATOM     50  C   UNL A   1      41.718  32.101  37.280  1.00  0.00     0.029 A 
ATOM     51  C   UNL A   1      40.847  32.239  36.210  1.00  0.00     0.049 A 
ATOM     52  H   UNL A   1      40.683  31.056  34.470  1.00  0.00     0.167 HD
ATOM     53  C   UNL A   1      39.009  33.311  34.932  1.00  0.00     0.074 A 
ATOM     54  C   UNL A   1      37.977  34.312  34.755  1.00  0.00     0.031 C 
ATOM     55  C   UNL A   1      39.816  33.230  36.018  1.00  0.00     0.037 A 
BRANCH  42  56
ATOM     56  C   UNL A   1      43.868  28.557  35.846  1.00  0.00     0.058 A 
ATOM     57  C   UNL A   1      45.210  28.919  35.652  1.00  0.00     0.135 A 
ATOM     58  C   UNL A   1      43.597  27.507  36.738  1.00  0.00     0.135 A 
ATOM     59  F   UNL A   1      45.528  29.905  34.798  1.00  0.00    -0.206 F 
ATOM     60  C   UNL A   1      46.246  28.252  36.298  1.00  0.00     0.059 A 
ATOM     61  C   UNL A   1      44.616  26.844  37.418  1.00  0.00     0.059 A 
ATOM     62  F   UNL A   1      42.332  27.117  36.961  1.00  0.00    -0.206 F 
ATOM     63  C   UNL A   1      45.939  27.217  37.181  1.00  0.00     0.060 A 
BRANCH  63  64
ATOM     64  S   UNL A   1      47.296  26.372  38.018  1.00  0.00     0.124 S 
ATOM     65  O   UNL A   1      46.766  26.238  39.372  1.00  0.00    -0.237 OA
ATOM     66  O   UNL A   1      47.405  25.132  37.256  1.00  0.00    -0.237 OA
ATOM     67  O   UNL A   1      48.416  27.296  37.873  1.00  0.00    -0.744 OA
ENDBRANCH  63  64
ENDBRANCH  42  56
BRANCH  43  68
ATOM     68  C   UNL A   1      36.475  33.209  30.957  1.00  0.00     0.058 A 
ATOM     69  C   UNL A   1      35.139  33.089  31.367  1.00  0.00     0.135 A 
ATOM     70  C   UNL A   1      36.749  34.040  29.859  1.00  0.00     0.135 A 
ATOM     71  F   UNL A   1      34.824  32.300  32.406  1.00  0.00    -0.206 F 
ATOM     72  C   UNL A   1      34.112  33.763  30.714  1.00  0.00     0.059 A 
ATOM     73  C   UNL A   1      35.742  34.745  29.206  1.00  0.00     0.059 A 
ATOM     74  F   UNL A   1      38.012  34.200  29.436  1.00  0.00    -0.206 F 
ATOM     75  C   UNL A   1      34.425  34.598  29.639  1.00  0.00     0.060 A 
BRANCH  75  76
ATOM     76  S   UNL A   1      33.089  35.519  28.846  1.00  0.00     0.124 S 
ATOM     77  O   UNL A   1      32.338  36.001  29.999  1.00  0.00    -0.237 OA
ATOM     78  O   UNL A   1      33.825  36.529  28.093  1.00  0.00    -0.237 OA
ATOM     79  O   UNL A   1      32.418  34.507  28.035  1.00  0.00    -0.744 OA
ENDBRANCH  75  76
ENDBRANCH  43  68
BRANCH  55  80
ATOM     80  C   UNL A   1      39.638  34.261  37.099  1.00  0.00     0.058 A 
ATOM     81  C   UNL A   1      38.877  33.996  38.249  1.00  0.00     0.135 A 
ATOM     82  C   UNL A   1      40.302  35.496  37.023  1.00  0.00     0.135 A 
ATOM     83  F   UNL A   1      38.216  32.834  38.369  1.00  0.00    -0.206 F 
ATOM     84  C   UNL A   1      38.769  34.926  39.278  1.00  0.00     0.059 A 
ATOM     85  C   UNL A   1      40.233  36.428  38.053  1.00  0.00     0.059 A 
ATOM     86  F   UNL A   1      41.052  35.795  35.950  1.00  0.00    -0.206 F 
ATOM     87  C   UNL A   1      39.458  36.136  39.173  1.00  0.00     0.060 A 
BRANCH  87  88
ATOM     88  S   UNL A   1      39.347  37.310  40.541  1.00  0.00     0.124 S 
ATOM     89  O   UNL A   1      40.718  37.802  40.619  1.00  0.00    -0.237 OA
ATOM     90  O   UNL A   1      38.357  38.263  40.050  1.00  0.00    -0.237 OA
ATOM     91  O   UNL A   1      38.912  36.485  41.665  1.00  0.00    -0.744 OA
ENDBRANCH  87  88
ENDBRANCH  55  80
ENDBRANCH  29  30
ENDBRANCH  21  24
ENDBRANCH   1  20
TORSDOF 14
ENDMDL
