MODEL 1
REMARK VINA RESULT:     -10.9      0.000      0.000
REMARK SMILES CC(C)(C)OC(=O)CSc1ccnc(C(=O)NCCCNC(=O)c2ccc(-c3c4nc(c(-c5c(F)cc(S(=O)(=O)[O-])cc5F)c5ccc([nH]5)c(-c5c(F)cc(S(=O)(=O)[O-])cc5F)c5nc(c(-c6c(F)cc(S(=O)(=O)[O-])cc6F)c6ccc3[nH]6)C=C5)C=C4)cc2)c1
REMARK SMILES IDX 18 1 17 2 15 3 16 4 14 6 10 7 11 8 90 9 12 10 13 11 9 12
REMARK SMILES IDX 8 13 6 14 7 15 5 16 2 17 1 18 3 19 4 20 19 21 20 22 21 23
REMARK SMILES IDX 22 24 23 26 24 27 25 28 89 29 26 30 88 31 27 32 28 33 29 34
REMARK SMILES IDX 82 35 30 36 87 37 81 38 83 39 31 40 86 41 80 42 79 43 32 45
REMARK SMILES IDX 66 46 45 47 65 48 46 49 49 50 64 51 84 52 47 53 48 54 63 56
REMARK SMILES IDX 85 57 50 58 33 59 34 60 43 61 35 62 36 63 42 64 44 65 37 66
REMARK SMILES IDX 38 67 39 68 40 69 41 70 67 71 68 72 77 73 69 74 70 75 76 76
REMARK SMILES IDX 78 77 71 78 72 79 73 80 74 81 75 82 51 83 52 84 61 85 53 86
REMARK SMILES IDX 54 87 60 88 62 89 55 90 56 91 57 92 58 93 59 94
REMARK H PARENT 17 5 21 25 83 44 49 55
REMARK Flexibility Score: inf
ROOT
ATOM      1  C   UNL A   1      38.050  22.243  25.728  1.00  0.00     0.118 C 
ENDROOT
BRANCH   1   2
ATOM      2  N   UNL A   1      37.489  22.610  24.441  1.00  0.00    -0.351 N 
ATOM      3  C   UNL A   1      36.214  22.624  23.925  1.00  0.00     0.269 C 
ATOM      4  O   UNL A   1      36.112  23.060  22.775  1.00  0.00    -0.268 OA
ATOM      5  H   UNL A   1      38.169  22.913  23.797  1.00  0.00     0.163 HD
BRANCH   3   6
ATOM      6  C   UNL A   1      34.974  22.192  24.671  1.00  0.00     0.129 A 
ATOM      7  C   UNL A   1      32.983  22.537  25.974  1.00  0.00     0.012 A 
ATOM      8  C   UNL A   1      32.726  21.171  25.886  1.00  0.00     0.035 A 
ATOM      9  C   UNL A   1      34.144  23.044  25.387  1.00  0.00     0.049 A 
ATOM     10  C   UNL A   1      33.627  20.376  25.205  1.00  0.00     0.113 A 
ATOM     11  N   UNL A   1      34.721  20.857  24.587  1.00  0.00    -0.251 NA
BRANCH   7  12
ATOM     12  S   UNL A   1      31.735  23.549  26.764  1.00  0.00    -0.114 SA
BRANCH  12  13
ATOM     13  C   UNL A   1      31.034  24.530  25.391  1.00  0.00     0.197 C 
BRANCH  13  14
ATOM     14  C   UNL A   1      31.164  26.010  25.644  1.00  0.00     0.316 C 
ATOM     15  O   UNL A   1      30.806  26.543  26.687  1.00  0.00    -0.251 OA
BRANCH  14  16
ATOM     16  O   UNL A   1      31.701  26.633  24.564  1.00  0.00    -0.459 OA
BRANCH  16  17
ATOM     17  C   UNL A   1      33.076  27.089  24.564  1.00  0.00     0.104 C 
ATOM     18  C   UNL A   1      33.725  26.330  23.397  1.00  0.00     0.056 C 
ATOM     19  C   UNL A   1      33.780  26.701  25.866  1.00  0.00     0.056 C 
ATOM     20  C   UNL A   1      33.167  28.593  24.281  1.00  0.00     0.056 C 
ENDBRANCH  16  17
ENDBRANCH  14  16
ENDBRANCH  13  14
ENDBRANCH  12  13
ENDBRANCH   7  12
ENDBRANCH   3   6
ENDBRANCH   1   2
BRANCH   1  21
ATOM     21  C   UNL A   1      38.543  23.471  26.495  1.00  0.00     0.042 C 
BRANCH  21  22
ATOM     22  C   UNL A   1      39.987  23.343  26.981  1.00  0.00     0.118 C 
BRANCH  22  23
ATOM     23  N   UNL A   1      40.915  24.042  26.101  1.00  0.00    -0.352 N 
ATOM     24  C   UNL A   1      41.336  25.346  26.093  1.00  0.00     0.251 C 
ATOM     25  H   UNL A   1      41.306  23.481  25.392  1.00  0.00     0.163 HD
ATOM     26  O   UNL A   1      41.910  25.772  25.093  1.00  0.00    -0.269 OA
BRANCH  24  27
ATOM     27  C   UNL A   1      41.119  26.236  27.256  1.00  0.00     0.039 A 
ATOM     28  C   UNL A   1      41.952  27.350  27.406  1.00  0.00     0.014 A 
ATOM     29  C   UNL A   1      40.172  25.943  28.241  1.00  0.00     0.014 A 
ATOM     30  C   UNL A   1      41.812  28.181  28.519  1.00  0.00     0.010 A 
ATOM     31  C   UNL A   1      39.982  26.816  29.312  1.00  0.00     0.010 A 
ATOM     32  C   UNL A   1      40.811  27.934  29.472  1.00  0.00    -0.014 A 
BRANCH  32  33
ATOM     33  C   UNL A   1      40.635  28.841  30.636  1.00  0.00     0.031 A 
ATOM     34  C   UNL A   1      41.506  28.704  31.856  1.00  0.00     0.074 A 
ATOM     35  C   UNL A   1      39.664  29.776  30.599  1.00  0.00     0.049 A 
ATOM     36  N   UNL A   1      41.504  29.410  32.957  1.00  0.00    -0.248 NA
ATOM     37  C   UNL A   1      42.494  27.612  31.851  1.00  0.00     0.031 C 
ATOM     38  C   UNL A   1      38.717  29.965  29.497  1.00  0.00     0.029 A 
ATOM     39  N   UNL A   1      39.313  30.744  31.505  1.00  0.00    -0.354 N 
ATOM     40  C   UNL A   1      42.476  28.848  33.776  1.00  0.00     0.074 A 
ATOM     41  C   UNL A   1      43.009  27.704  33.068  1.00  0.00     0.031 C 
ATOM     42  C   UNL A   1      37.919  31.007  29.777  1.00  0.00     0.029 A 
ATOM     43  C   UNL A   1      38.274  31.540  31.088  1.00  0.00     0.049 A 
ATOM     44  H   UNL A   1      39.764  30.857  32.373  1.00  0.00     0.167 HD
ATOM     45  C   UNL A   1      42.905  29.260  34.993  1.00  0.00     0.037 A 
ATOM     46  C   UNL A   1      37.678  32.586  31.690  1.00  0.00     0.037 A 
ATOM     47  C   UNL A   1      42.381  30.414  35.681  1.00  0.00     0.049 A 
ATOM     48  C   UNL A   1      38.190  33.043  33.029  1.00  0.00     0.074 A 
ATOM     49  C   UNL A   1      42.779  30.950  36.893  1.00  0.00     0.029 A 
ATOM     50  N   UNL A   1      41.343  31.210  35.215  1.00  0.00    -0.354 N 
ATOM     51  N   UNL A   1      39.155  32.538  33.759  1.00  0.00    -0.248 NA
ATOM     52  C   UNL A   1      37.540  34.221  33.619  1.00  0.00     0.031 C 
ATOM     53  C   UNL A   1      41.955  32.044  37.181  1.00  0.00     0.029 A 
ATOM     54  C   UNL A   1      41.078  32.222  36.124  1.00  0.00     0.049 A 
ATOM     55  H   UNL A   1      40.865  31.075  34.365  1.00  0.00     0.167 HD
ATOM     56  C   UNL A   1      39.247  33.352  34.883  1.00  0.00     0.074 A 
ATOM     57  C   UNL A   1      38.253  34.393  34.722  1.00  0.00     0.031 C 
ATOM     58  C   UNL A   1      40.078  33.248  35.950  1.00  0.00     0.037 A 
BRANCH  45  59
ATOM     59  C   UNL A   1      43.998  28.465  35.657  1.00  0.00     0.058 A 
ATOM     60  C   UNL A   1      45.356  28.735  35.417  1.00  0.00     0.135 A 
ATOM     61  C   UNL A   1      43.690  27.442  36.567  1.00  0.00     0.135 A 
ATOM     62  F   UNL A   1      45.711  29.692  34.545  1.00  0.00    -0.206 F 
ATOM     63  C   UNL A   1      46.366  27.999  36.029  1.00  0.00     0.059 A 
ATOM     64  C   UNL A   1      44.684  26.712  37.214  1.00  0.00     0.059 A 
ATOM     65  F   UNL A   1      42.410  27.139  36.837  1.00  0.00    -0.206 F 
ATOM     66  C   UNL A   1      46.020  26.988  36.927  1.00  0.00     0.060 A 
BRANCH  66  67
ATOM     67  S   UNL A   1      47.343  26.048  37.716  1.00  0.00     0.124 S 
ATOM     68  O   UNL A   1      48.453  26.994  37.651  1.00  0.00    -0.237 OA
ATOM     69  O   UNL A   1      46.800  25.801  39.048  1.00  0.00    -0.237 OA
ATOM     70  O   UNL A   1      47.475  24.868  36.868  1.00  0.00    -0.744 OA
ENDBRANCH  66  67
ENDBRANCH  45  59
BRANCH  46  71
ATOM     71  C   UNL A   1      36.561  33.297  31.012  1.00  0.00     0.058 A 
ATOM     72  C   UNL A   1      36.795  34.116  29.897  1.00  0.00     0.135 A 
ATOM     73  C   UNL A   1      35.236  33.157  31.453  1.00  0.00     0.135 A 
ATOM     74  F   UNL A   1      38.045  34.282  29.439  1.00  0.00    -0.206 F 
ATOM     75  C   UNL A   1      35.760  34.786  29.254  1.00  0.00     0.059 A 
ATOM     76  C   UNL A   1      34.180  33.795  30.810  1.00  0.00     0.059 A 
ATOM     77  F   UNL A   1      34.954  32.369  32.501  1.00  0.00    -0.206 F 
ATOM     78  C   UNL A   1      34.454  34.617  29.717  1.00  0.00     0.060 A 
BRANCH  78  79
ATOM     79  S   UNL A   1      33.110  35.451  28.844  1.00  0.00     0.124 S 
ATOM     80  O   UNL A   1      33.840  36.426  28.044  1.00  0.00    -0.237 OA
ATOM     81  O   UNL A   1      32.493  34.352  28.108  1.00  0.00    -0.237 OA
ATOM     82  O   UNL A   1      32.299  36.001  29.926  1.00  0.00    -0.744 OA
ENDBRANCH  78  79
ENDBRANCH  46  71
BRANCH  58  83
ATOM     83  C   UNL A   1      39.962  34.310  37.010  1.00  0.00     0.058 A 
ATOM     84  C   UNL A   1      40.653  35.529  36.913  1.00  0.00     0.135 A 
ATOM     85  C   UNL A   1      39.150  34.105  38.136  1.00  0.00     0.135 A 
ATOM     86  F   UNL A   1      41.446  35.776  35.859  1.00  0.00    -0.206 F 
ATOM     87  C   UNL A   1      40.581  36.486  37.921  1.00  0.00     0.059 A 
ATOM     88  C   UNL A   1      39.037  35.061  39.140  1.00  0.00     0.059 A 
ATOM     89  F   UNL A   1      38.455  32.963  38.271  1.00  0.00    -0.206 F 
ATOM     90  C   UNL A   1      39.776  36.239  39.035  1.00  0.00     0.060 A 
BRANCH  90  91
ATOM     91  S   UNL A   1      39.703  37.479  40.344  1.00  0.00     0.124 S 
ATOM     92  O   UNL A   1      39.994  36.674  41.525  1.00  0.00    -0.237 OA
ATOM     93  O   UNL A   1      40.746  38.419  39.945  1.00  0.00    -0.237 OA
ATOM     94  O   UNL A   1      38.339  37.990  40.251  1.00  0.00    -0.744 OA
ENDBRANCH  90  91
ENDBRANCH  58  83
ENDBRANCH  32  33
ENDBRANCH  24  27
ENDBRANCH  22  23
ENDBRANCH  21  22
ENDBRANCH   1  21
TORSDOF 18
ENDMDL
MODEL 2
REMARK VINA RESULT:     -10.9      6.644     12.264
REMARK SMILES CC(C)(C)OC(=O)CSc1ccnc(C(=O)NCCCNC(=O)c2ccc(-c3c4nc(c(-c5c(F)cc(S(=O)(=O)[O-])cc5F)c5ccc([nH]5)c(-c5c(F)cc(S(=O)(=O)[O-])cc5F)c5nc(c(-c6c(F)cc(S(=O)(=O)[O-])cc6F)c6ccc3[nH]6)C=C5)C=C4)cc2)c1
REMARK SMILES IDX 18 1 17 2 15 3 16 4 14 6 10 7 11 8 90 9 12 10 13 11 9 12
REMARK SMILES IDX 8 13 6 14 7 15 5 16 2 17 1 18 3 19 4 20 19 21 20 22 21 23
REMARK SMILES IDX 22 24 23 26 24 27 25 28 89 29 26 30 88 31 27 32 28 33 29 34
REMARK SMILES IDX 82 35 30 36 87 37 81 38 83 39 31 40 86 41 80 42 79 43 32 45
REMARK SMILES IDX 66 46 45 47 65 48 46 49 49 50 64 51 84 52 47 53 48 54 63 56
REMARK SMILES IDX 85 57 50 58 33 59 34 60 43 61 35 62 36 63 42 64 44 65 37 66
REMARK SMILES IDX 38 67 39 68 40 69 41 70 67 71 68 72 77 73 69 74 70 75 76 76
REMARK SMILES IDX 78 77 71 78 72 79 73 80 74 81 75 82 51 83 52 84 61 85 53 86
REMARK SMILES IDX 54 87 60 88 62 89 55 90 56 91 57 92 58 93 59 94
REMARK H PARENT 17 5 21 25 83 44 49 55
REMARK Flexibility Score: inf
ROOT
ATOM      1  C   UNL A   1      34.079  30.092  27.129  1.00  0.00     0.118 C 
ENDROOT
BRANCH   1   2
ATOM      2  N   UNL A   1      33.050  29.218  27.661  1.00  0.00    -0.351 N 
ATOM      3  C   UNL A   1      32.020  28.502  27.096  1.00  0.00     0.269 C 
ATOM      4  O   UNL A   1      31.363  27.810  27.879  1.00  0.00    -0.268 OA
ATOM      5  H   UNL A   1      33.099  29.117  28.639  1.00  0.00     0.163 HD
BRANCH   3   6
ATOM      6  C   UNL A   1      31.687  28.482  25.624  1.00  0.00     0.129 A 
ATOM      7  C   UNL A   1      31.577  27.511  23.426  1.00  0.00     0.012 A 
ATOM      8  C   UNL A   1      30.900  28.649  22.992  1.00  0.00     0.035 A 
ATOM      9  C   UNL A   1      32.007  27.448  24.753  1.00  0.00     0.049 A 
ATOM     10  C   UNL A   1      30.668  29.661  23.901  1.00  0.00     0.113 A 
ATOM     11  N   UNL A   1      31.025  29.592  25.197  1.00  0.00    -0.251 NA
BRANCH   7  12
ATOM     12  S   UNL A   1      31.758  26.174  22.249  1.00  0.00    -0.114 SA
BRANCH  12  13
ATOM     13  C   UNL A   1      33.491  25.635  22.462  1.00  0.00     0.197 C 
BRANCH  13  14
ATOM     14  C   UNL A   1      33.582  24.154  22.728  1.00  0.00     0.316 C 
ATOM     15  O   UNL A   1      33.768  23.328  21.843  1.00  0.00    -0.251 OA
BRANCH  14  16
ATOM     16  O   UNL A   1      33.410  23.895  24.049  1.00  0.00    -0.459 OA
BRANCH  16  17
ATOM     17  C   UNL A   1      34.442  23.243  24.829  1.00  0.00     0.104 C 
ATOM     18  C   UNL A   1      34.192  21.744  24.609  1.00  0.00     0.056 C 
ATOM     19  C   UNL A   1      34.287  23.562  26.317  1.00  0.00     0.056 C 
ATOM     20  C   UNL A   1      35.841  23.588  24.306  1.00  0.00     0.056 C 
ENDBRANCH  16  17
ENDBRANCH  14  16
ENDBRANCH  13  14
ENDBRANCH  12  13
ENDBRANCH   7  12
ENDBRANCH   3   6
ENDBRANCH   1   2
BRANCH   1  21
ATOM     21  C   UNL A   1      34.251  31.344  27.990  1.00  0.00     0.042 C 
BRANCH  21  22
ATOM     22  C   UNL A   1      35.653  31.484  28.584  1.00  0.00     0.118 C 
BRANCH  22  23
ATOM     23  N   UNL A   1      35.675  31.136  29.999  1.00  0.00    -0.352 N 
ATOM     24  C   UNL A   1      36.546  30.363  30.720  1.00  0.00     0.251 C 
ATOM     25  H   UNL A   1      34.939  31.523  30.526  1.00  0.00     0.163 HD
ATOM     26  O   UNL A   1      36.211  29.990  31.842  1.00  0.00    -0.269 OA
BRANCH  24  27
ATOM     27  C   UNL A   1      37.870  29.979  30.179  1.00  0.00     0.039 A 
ATOM     28  C   UNL A   1      38.884  29.641  31.081  1.00  0.00     0.014 A 
ATOM     29  C   UNL A   1      38.149  30.031  28.810  1.00  0.00     0.014 A 
ATOM     30  C   UNL A   1      40.160  29.327  30.609  1.00  0.00     0.010 A 
ATOM     31  C   UNL A   1      39.401  29.642  28.336  1.00  0.00     0.010 A 
ATOM     32  C   UNL A   1      40.426  29.302  29.231  1.00  0.00    -0.014 A 
BRANCH  32  33
ATOM     33  C   UNL A   1      41.772  28.928  28.726  1.00  0.00     0.031 A 
ATOM     34  C   UNL A   1      42.872  29.953  28.638  1.00  0.00     0.074 A 
ATOM     35  C   UNL A   1      41.993  27.661  28.320  1.00  0.00     0.049 A 
ATOM     36  N   UNL A   1      44.108  29.805  28.235  1.00  0.00    -0.248 NA
ATOM     37  C   UNL A   1      42.533  31.331  29.030  1.00  0.00     0.031 C 
ATOM     38  C   UNL A   1      40.987  26.596  28.299  1.00  0.00     0.029 A 
ATOM     39  N   UNL A   1      43.128  27.053  27.851  1.00  0.00    -0.354 N 
ATOM     40  C   UNL A   1      44.690  31.065  28.315  1.00  0.00     0.074 A 
ATOM     41  C   UNL A   1      43.655  31.977  28.751  1.00  0.00     0.031 C 
ATOM     42  C   UNL A   1      41.561  25.458  27.876  1.00  0.00     0.029 A 
ATOM     43  C   UNL A   1      42.962  25.719  27.566  1.00  0.00     0.049 A 
ATOM     44  H   UNL A   1      43.983  27.527  27.730  1.00  0.00     0.167 HD
ATOM     45  C   UNL A   1      45.974  31.425  28.075  1.00  0.00     0.037 A 
ATOM     46  C   UNL A   1      43.842  24.806  27.113  1.00  0.00     0.037 A 
ATOM     47  C   UNL A   1      47.003  30.504  27.661  1.00  0.00     0.049 A 
ATOM     48  C   UNL A   1      45.268  25.222  26.879  1.00  0.00     0.074 A 
ATOM     49  C   UNL A   1      48.346  30.753  27.440  1.00  0.00     0.029 A 
ATOM     50  N   UNL A   1      46.801  29.154  27.405  1.00  0.00    -0.354 N 
ATOM     51  N   UNL A   1      45.816  26.406  27.024  1.00  0.00    -0.248 NA
ATOM     52  C   UNL A   1      46.198  24.177  26.435  1.00  0.00     0.031 C 
ATOM     53  C   UNL A   1      48.948  29.565  27.011  1.00  0.00     0.029 A 
ATOM     54  C   UNL A   1      47.992  28.562  27.014  1.00  0.00     0.049 A 
ATOM     55  H   UNL A   1      45.939  28.686  27.489  1.00  0.00     0.167 HD
ATOM     56  C   UNL A   1      47.161  26.241  26.713  1.00  0.00     0.074 A 
ATOM     57  C   UNL A   1      47.345  24.840  26.395  1.00  0.00     0.031 C 
ATOM     58  C   UNL A   1      48.155  27.165  26.694  1.00  0.00     0.037 A 
BRANCH  45  59
ATOM     59  C   UNL A   1      46.341  32.874  28.260  1.00  0.00     0.058 A 
ATOM     60  C   UNL A   1      46.798  33.368  29.494  1.00  0.00     0.135 A 
ATOM     61  C   UNL A   1      46.267  33.776  27.186  1.00  0.00     0.135 A 
ATOM     62  F   UNL A   1      46.875  32.555  30.560  1.00  0.00    -0.206 F 
ATOM     63  C   UNL A   1      47.135  34.707  29.665  1.00  0.00     0.059 A 
ATOM     64  C   UNL A   1      46.628  35.114  27.326  1.00  0.00     0.059 A 
ATOM     65  F   UNL A   1      45.839  33.361  25.983  1.00  0.00    -0.206 F 
ATOM     66  C   UNL A   1      47.047  35.573  28.574  1.00  0.00     0.060 A 
BRANCH  66  67
ATOM     67  S   UNL A   1      47.495  37.306  28.812  1.00  0.00     0.124 S 
ATOM     68  O   UNL A   1      46.827  37.937  27.677  1.00  0.00    -0.237 OA
ATOM     69  O   UNL A   1      46.927  37.599  30.124  1.00  0.00    -0.237 OA
ATOM     70  O   UNL A   1      48.953  37.291  28.752  1.00  0.00    -0.744 OA
ENDBRANCH  66  67
ENDBRANCH  45  59
BRANCH  46  71
ATOM     71  C   UNL A   1      43.406  23.400  26.891  1.00  0.00     0.058 A 
ATOM     72  C   UNL A   1      43.263  22.883  25.595  1.00  0.00     0.135 A 
ATOM     73  C   UNL A   1      43.143  22.541  27.969  1.00  0.00     0.135 A 
ATOM     74  F   UNL A   1      43.501  23.666  24.531  1.00  0.00    -0.206 F 
ATOM     75  C   UNL A   1      42.857  21.572  25.373  1.00  0.00     0.059 A 
ATOM     76  C   UNL A   1      42.762  21.217  27.774  1.00  0.00     0.059 A 
ATOM     77  F   UNL A   1      43.286  22.979  29.229  1.00  0.00    -0.206 F 
ATOM     78  C   UNL A   1      42.610  20.745  26.471  1.00  0.00     0.060 A 
BRANCH  78  79
ATOM     79  S   UNL A   1      42.132  19.029  26.173  1.00  0.00     0.124 S 
ATOM     80  O   UNL A   1      43.003  18.670  25.060  1.00  0.00    -0.237 OA
ATOM     81  O   UNL A   1      42.438  18.398  27.454  1.00  0.00    -0.237 OA
ATOM     82  O   UNL A   1      40.711  19.128  25.858  1.00  0.00    -0.744 OA
ENDBRANCH  78  79
ENDBRANCH  46  71
BRANCH  58  83
ATOM     83  C   UNL A   1      49.534  26.675  26.345  1.00  0.00     0.058 A 
ATOM     84  C   UNL A   1      50.378  26.096  27.306  1.00  0.00     0.135 A 
ATOM     85  C   UNL A   1      50.017  26.787  25.032  1.00  0.00     0.135 A 
ATOM     86  F   UNL A   1      49.968  25.968  28.577  1.00  0.00    -0.206 F 
ATOM     87  C   UNL A   1      51.671  25.692  26.987  1.00  0.00     0.059 A 
ATOM     88  C   UNL A   1      51.294  26.360  24.683  1.00  0.00     0.059 A 
ATOM     89  F   UNL A   1      49.245  27.319  24.069  1.00  0.00    -0.206 F 
ATOM     90  C   UNL A   1      52.122  25.835  25.674  1.00  0.00     0.060 A 
BRANCH  90  91
ATOM     91  S   UNL A   1      53.806  25.322  25.275  1.00  0.00     0.124 S 
ATOM     92  O   UNL A   1      54.564  25.941  26.357  1.00  0.00    -0.237 OA
ATOM     93  O   UNL A   1      53.710  23.867  25.321  1.00  0.00    -0.237 OA
ATOM     94  O   UNL A   1      54.027  25.888  23.948  1.00  0.00    -0.744 OA
ENDBRANCH  90  91
ENDBRANCH  58  83
ENDBRANCH  32  33
ENDBRANCH  24  27
ENDBRANCH  22  23
ENDBRANCH  21  22
ENDBRANCH   1  21
TORSDOF 18
ENDMDL
MODEL 3
REMARK VINA RESULT:     -10.9      2.022      3.261
REMARK SMILES CC(C)(C)OC(=O)CSc1ccnc(C(=O)NCCCNC(=O)c2ccc(-c3c4nc(c(-c5c(F)cc(S(=O)(=O)[O-])cc5F)c5ccc([nH]5)c(-c5c(F)cc(S(=O)(=O)[O-])cc5F)c5nc(c(-c6c(F)cc(S(=O)(=O)[O-])cc6F)c6ccc3[nH]6)C=C5)C=C4)cc2)c1
REMARK SMILES IDX 18 1 17 2 15 3 16 4 14 6 10 7 11 8 90 9 12 10 13 11 9 12
REMARK SMILES IDX 8 13 6 14 7 15 5 16 2 17 1 18 3 19 4 20 19 21 20 22 21 23
REMARK SMILES IDX 22 24 23 26 24 27 25 28 89 29 26 30 88 31 27 32 28 33 29 34
REMARK SMILES IDX 82 35 30 36 87 37 81 38 83 39 31 40 86 41 80 42 79 43 32 45
REMARK SMILES IDX 66 46 45 47 65 48 46 49 49 50 64 51 84 52 47 53 48 54 63 56
REMARK SMILES IDX 85 57 50 58 33 59 34 60 43 61 35 62 36 63 42 64 44 65 37 66
REMARK SMILES IDX 38 67 39 68 40 69 41 70 67 71 68 72 77 73 69 74 70 75 76 76
REMARK SMILES IDX 78 77 71 78 72 79 73 80 74 81 75 82 51 83 52 84 61 85 53 86
REMARK SMILES IDX 54 87 60 88 62 89 55 90 56 91 57 92 58 93 59 94
REMARK H PARENT 17 5 21 25 83 44 49 55
REMARK Flexibility Score: inf
ROOT
ATOM      1  C   UNL A   1      42.026  21.724  27.735  1.00  0.00     0.118 C 
ENDROOT
BRANCH   1   2
ATOM      2  N   UNL A   1      41.460  20.614  26.991  1.00  0.00    -0.351 N 
ATOM      3  C   UNL A   1      40.318  20.452  26.241  1.00  0.00     0.269 C 
ATOM      4  O   UNL A   1      40.192  19.350  25.699  1.00  0.00    -0.268 OA
ATOM      5  H   UNL A   1      42.013  19.800  27.033  1.00  0.00     0.163 HD
BRANCH   3   6
ATOM      6  C   UNL A   1      39.271  21.517  26.019  1.00  0.00     0.129 A 
ATOM      7  C   UNL A   1      37.200  22.394  25.168  1.00  0.00     0.012 A 
ATOM      8  C   UNL A   1      37.471  23.589  25.830  1.00  0.00     0.035 A 
ATOM      9  C   UNL A   1      38.134  21.359  25.237  1.00  0.00     0.049 A 
ATOM     10  C   UNL A   1      38.649  23.694  26.541  1.00  0.00     0.113 A 
ATOM     11  N   UNL A   1      39.534  22.686  26.663  1.00  0.00    -0.251 NA
BRANCH   7  12
ATOM     12  S   UNL A   1      35.611  22.257  24.354  1.00  0.00    -0.114 SA
BRANCH  12  13
ATOM     13  C   UNL A   1      34.543  21.467  25.608  1.00  0.00     0.197 C 
BRANCH  13  14
ATOM     14  C   UNL A   1      33.356  20.787  24.976  1.00  0.00     0.316 C 
ATOM     15  O   UNL A   1      32.670  21.312  24.108  1.00  0.00    -0.251 OA
BRANCH  14  16
ATOM     16  O   UNL A   1      33.165  19.557  25.519  1.00  0.00    -0.459 OA
BRANCH  16  17
ATOM     17  C   UNL A   1      33.358  18.352  24.740  1.00  0.00     0.104 C 
ATOM     18  C   UNL A   1      32.884  17.222  25.666  1.00  0.00     0.056 C 
ATOM     19  C   UNL A   1      34.838  18.142  24.413  1.00  0.00     0.056 C 
ATOM     20  C   UNL A   1      32.482  18.353  23.482  1.00  0.00     0.056 C 
ENDBRANCH  16  17
ENDBRANCH  14  16
ENDBRANCH  13  14
ENDBRANCH  12  13
ENDBRANCH   7  12
ENDBRANCH   3   6
ENDBRANCH   1   2
BRANCH   1  21
ATOM     21  C   UNL A   1      43.363  22.173  27.142  1.00  0.00     0.042 C 
BRANCH  21  22
ATOM     22  C   UNL A   1      43.595  23.681  27.242  1.00  0.00     0.118 C 
BRANCH  22  23
ATOM     23  N   UNL A   1      43.038  24.388  26.095  1.00  0.00    -0.352 N 
ATOM     24  C   UNL A   1      42.210  25.478  26.028  1.00  0.00     0.251 C 
ATOM     25  H   UNL A   1      43.302  24.020  25.221  1.00  0.00     0.163 HD
ATOM     26  O   UNL A   1      41.655  25.729  24.960  1.00  0.00    -0.269 OA
BRANCH  24  27
ATOM     27  C   UNL A   1      41.981  26.350  27.202  1.00  0.00     0.039 A 
ATOM     28  C   UNL A   1      40.982  25.990  28.113  1.00  0.00     0.014 A 
ATOM     29  C   UNL A   1      42.672  27.553  27.371  1.00  0.00     0.014 A 
ATOM     30  C   UNL A   1      40.703  26.817  29.203  1.00  0.00     0.010 A 
ATOM     31  C   UNL A   1      42.446  28.338  28.501  1.00  0.00     0.010 A 
ATOM     32  C   UNL A   1      41.446  27.988  29.420  1.00  0.00    -0.014 A 
BRANCH  32  33
ATOM     33  C   UNL A   1      41.177  28.847  30.601  1.00  0.00     0.031 A 
ATOM     34  C   UNL A   1      42.015  28.724  31.848  1.00  0.00     0.074 A 
ATOM     35  C   UNL A   1      40.154  29.725  30.557  1.00  0.00     0.049 A 
ATOM     36  N   UNL A   1      41.933  29.396  32.967  1.00  0.00    -0.248 NA
ATOM     37  C   UNL A   1      43.065  27.693  31.846  1.00  0.00     0.031 C 
ATOM     38  C   UNL A   1      39.235  29.891  29.429  1.00  0.00     0.029 A 
ATOM     39  N   UNL A   1      39.717  30.642  31.477  1.00  0.00    -0.354 N 
ATOM     40  C   UNL A   1      42.909  28.867  33.803  1.00  0.00     0.074 A 
ATOM     41  C   UNL A   1      43.533  27.778  33.082  1.00  0.00     0.031 C 
ATOM     42  C   UNL A   1      38.367  30.875  29.709  1.00  0.00     0.029 A 
ATOM     43  C   UNL A   1      38.646  31.389  31.047  1.00  0.00     0.049 A 
ATOM     44  H   UNL A   1      40.131  30.755  32.364  1.00  0.00     0.167 HD
ATOM     45  C   UNL A   1      43.272  29.267  35.046  1.00  0.00     0.037 A 
ATOM     46  C   UNL A   1      37.970  32.380  31.656  1.00  0.00     0.037 A 
ATOM     47  C   UNL A   1      42.658  30.367  35.747  1.00  0.00     0.049 A 
ATOM     48  C   UNL A   1      38.408  32.825  33.025  1.00  0.00     0.074 A 
ATOM     49  C   UNL A   1      42.983  30.888  36.987  1.00  0.00     0.029 A 
ATOM     50  N   UNL A   1      41.591  31.114  35.268  1.00  0.00    -0.354 N 
ATOM     51  N   UNL A   1      39.378  32.355  33.774  1.00  0.00    -0.248 NA
ATOM     52  C   UNL A   1      37.671  33.945  33.624  1.00  0.00     0.031 C 
ATOM     53  C   UNL A   1      42.086  31.923  37.277  1.00  0.00     0.029 A 
ATOM     54  C   UNL A   1      41.235  32.082  36.194  1.00  0.00     0.049 A 
ATOM     55  H   UNL A   1      41.150  30.977  34.398  1.00  0.00     0.167 HD
ATOM     56  C   UNL A   1      39.383  33.140  34.922  1.00  0.00     0.074 A 
ATOM     57  C   UNL A   1      38.334  34.125  34.757  1.00  0.00     0.031 C 
ATOM     58  C   UNL A   1      40.183  33.053  36.015  1.00  0.00     0.037 A 
BRANCH  45  59
ATOM     59  C   UNL A   1      44.388  28.517  35.725  1.00  0.00     0.058 A 
ATOM     60  C   UNL A   1      45.736  28.865  35.529  1.00  0.00     0.135 A 
ATOM     61  C   UNL A   1      44.111  27.460  36.606  1.00  0.00     0.135 A 
ATOM     62  F   UNL A   1      46.062  29.858  34.687  1.00  0.00    -0.206 F 
ATOM     63  C   UNL A   1      46.767  28.171  36.155  1.00  0.00     0.059 A 
ATOM     64  C   UNL A   1      45.125  26.771  37.266  1.00  0.00     0.059 A 
ATOM     65  F   UNL A   1      42.842  27.084  36.832  1.00  0.00    -0.206 F 
ATOM     66  C   UNL A   1      46.451  27.125  37.023  1.00  0.00     0.060 A 
BRANCH  66  67
ATOM     67  S   UNL A   1      47.801  26.239  37.831  1.00  0.00     0.124 S 
ATOM     68  O   UNL A   1      48.932  26.590  36.978  1.00  0.00    -0.237 OA
ATOM     69  O   UNL A   1      47.807  26.830  39.166  1.00  0.00    -0.237 OA
ATOM     70  O   UNL A   1      47.378  24.844  37.769  1.00  0.00    -0.744 OA
ENDBRANCH  66  67
ENDBRANCH  45  59
BRANCH  46  71
ATOM     71  C   UNL A   1      36.835  33.044  30.960  1.00  0.00     0.058 A 
ATOM     72  C   UNL A   1      37.061  34.012  29.970  1.00  0.00     0.135 A 
ATOM     73  C   UNL A   1      35.505  32.712  31.256  1.00  0.00     0.135 A 
ATOM     74  F   UNL A   1      38.316  34.365  29.652  1.00  0.00    -0.206 F 
ATOM     75  C   UNL A   1      36.010  34.641  29.311  1.00  0.00     0.059 A 
ATOM     76  C   UNL A   1      34.436  33.306  30.592  1.00  0.00     0.059 A 
ATOM     77  F   UNL A   1      35.234  31.776  32.180  1.00  0.00    -0.206 F 
ATOM     78  C   UNL A   1      34.699  34.279  29.628  1.00  0.00     0.060 A 
BRANCH  78  79
ATOM     79  S   UNL A   1      33.342  35.064  28.731  1.00  0.00     0.124 S 
ATOM     80  O   UNL A   1      32.529  35.584  29.825  1.00  0.00    -0.237 OA
ATOM     81  O   UNL A   1      34.042  36.059  27.925  1.00  0.00    -0.237 OA
ATOM     82  O   UNL A   1      32.757  33.960  27.978  1.00  0.00    -0.744 OA
ENDBRANCH  78  79
ENDBRANCH  46  71
BRANCH  58  83
ATOM     83  C   UNL A   1      39.969  34.073  37.099  1.00  0.00     0.058 A 
ATOM     84  C   UNL A   1      39.157  33.809  38.214  1.00  0.00     0.135 A 
ATOM     85  C   UNL A   1      40.584  35.333  37.022  1.00  0.00     0.135 A 
ATOM     86  F   UNL A   1      38.542  32.622  38.337  1.00  0.00    -0.206 F 
ATOM     87  C   UNL A   1      38.924  34.775  39.188  1.00  0.00     0.059 A 
ATOM     88  C   UNL A   1      40.391  36.302  38.000  1.00  0.00     0.059 A 
ATOM     89  F   UNL A   1      41.383  35.633  35.984  1.00  0.00    -0.206 F 
ATOM     90  C   UNL A   1      39.539  36.022  39.068  1.00  0.00     0.060 A 
BRANCH  90  91
ATOM     91  S   UNL A   1      39.217  37.273  40.327  1.00  0.00     0.124 S 
ATOM     92  O   UNL A   1      38.453  36.510  41.308  1.00  0.00    -0.237 OA
ATOM     93  O   UNL A   1      40.563  37.661  40.735  1.00  0.00    -0.237 OA
ATOM     94  O   UNL A   1      38.469  38.297  39.605  1.00  0.00    -0.744 OA
ENDBRANCH  90  91
ENDBRANCH  58  83
ENDBRANCH  32  33
ENDBRANCH  24  27
ENDBRANCH  22  23
ENDBRANCH  21  22
ENDBRANCH   1  21
TORSDOF 18
ENDMDL
