MODEL 1
REMARK VINA RESULT:     -10.7      0.000      0.000
REMARK SMILES CC[NH2+]C(C)(C)C(=O)N[C@@](C)(C(=O)NCCCNC(=O)c1ccc(-c2c3nc(c(-c4c(F)cc(S(=O)(=O)[O-])cc4F)c4ccc([nH]4)c(-c4c(F)cc(S(=O)(=O)[O-])cc4F)c4nc(c(-c5c(F)cc(S(=O)(=O)[O-])cc5F)c5ccc2[nH]5)C=C4)C=C3)cc1)C(F)(F)F
REMARK SMILES IDX 15 1 14 2 12 3 13 4 10 6 11 7 9 8 7 9 8 10 4 12 5 13 6 14
REMARK SMILES IDX 3 15 2 18 1 19 87 20 88 21 89 22 90 23 16 24 17 25 18 26
REMARK SMILES IDX 19 27 20 29 21 30 22 31 86 32 23 33 85 34 24 35 25 36 26 37
REMARK SMILES IDX 79 38 27 39 84 40 78 41 80 42 28 43 83 44 77 45 76 46 29 48
REMARK SMILES IDX 63 49 42 50 62 51 43 52 46 53 61 54 81 55 44 56 45 57 60 59
REMARK SMILES IDX 82 60 47 61 30 62 31 63 40 64 32 65 33 66 39 67 41 68 34 69
REMARK SMILES IDX 35 70 36 71 37 72 38 73 64 74 65 75 74 76 66 77 67 78 73 79
REMARK SMILES IDX 75 80 68 81 69 82 70 83 71 84 72 85 48 86 49 87 58 88 50 89
REMARK SMILES IDX 51 90 57 91 59 92 52 93 53 94 54 95 55 96 56 97
REMARK H PARENT 14 5 9 11 3 16 3 17 18 28 80 47 46 58
REMARK Flexibility Score: inf
ROOT
ATOM      1  C   UNL A   1      35.962  23.654  25.960  1.00  0.00     0.117 C 
ENDROOT
BRANCH   1   2
ATOM      2  N   UNL A   1      35.351  22.397  26.366  1.00  0.00    -0.354 N 
ATOM      3  C   UNL A   1      34.103  21.865  26.237  1.00  0.00     0.254 C 
ATOM      4  O   UNL A   1      33.975  20.736  26.722  1.00  0.00    -0.272 OA
ATOM      5  H   UNL A   1      35.976  21.802  26.838  1.00  0.00     0.163 HD
BRANCH   3   6
ATOM      6  C   UNL A   1      32.922  22.616  25.580  1.00  0.00     0.212 C 
ATOM      7  C   UNL A   1      31.691  21.702  25.376  1.00  0.00     0.056 C 
BRANCH   6   8
ATOM      8  N   UNL A   1      33.427  23.020  24.202  1.00  0.00    -0.329 N 
ATOM      9  C   UNL A   1      33.282  23.951  23.218  1.00  0.00     0.281 C 
ATOM     10  O   UNL A   1      34.177  23.892  22.365  1.00  0.00    -0.268 OA
ATOM     11  H   UNL A   1      34.108  22.370  23.917  1.00  0.00     0.165 HD
BRANCH   9  12
ATOM     12  C   UNL A   1      32.112  24.965  23.127  1.00  0.00     0.169 C 
ATOM     13  C   UNL A   1      30.778  24.221  23.252  1.00  0.00     0.090 C 
ATOM     14  C   UNL A   1      32.289  25.724  21.793  1.00  0.00     0.090 C 
BRANCH  12  15
ATOM     15  N   UNL A   1      32.179  26.080  24.119  1.00  0.00    -0.334 N 
ATOM     16  H   UNL A   1      32.666  25.721  24.941  1.00  0.00     0.347 HD
ATOM     17  H   UNL A   1      32.641  26.833  23.611  1.00  0.00     0.347 HD
BRANCH  15  18
ATOM     18  C   UNL A   1      30.934  26.682  24.587  1.00  0.00     0.257 C 
ATOM     19  C   UNL A   1      30.967  28.173  24.254  1.00  0.00     0.071 C 
ENDBRANCH  15  18
ENDBRANCH  12  15
ENDBRANCH   9  12
ENDBRANCH   6   8
BRANCH   6  20
ATOM     20  C   UNL A   1      32.447  23.628  26.671  1.00  0.00     0.420 C 
ATOM     21  F   UNL A   1      33.072  24.815  26.685  1.00  0.00    -0.168 F 
ATOM     22  F   UNL A   1      31.119  23.887  26.568  1.00  0.00    -0.168 F 
ATOM     23  F   UNL A   1      32.593  23.095  27.917  1.00  0.00    -0.168 F 
ENDBRANCH   6  20
ENDBRANCH   3   6
ENDBRANCH   1   2
BRANCH   1  24
ATOM     24  C   UNL A   1      37.440  23.505  25.638  1.00  0.00     0.042 C 
BRANCH  24  25
ATOM     25  C   UNL A   1      38.369  24.257  26.578  1.00  0.00     0.118 C 
BRANCH  25  26
ATOM     26  N   UNL A   1      39.765  24.196  26.165  1.00  0.00    -0.352 N 
ATOM     27  C   UNL A   1      40.821  24.999  26.511  1.00  0.00     0.251 C 
ATOM     28  H   UNL A   1      39.982  23.466  25.541  1.00  0.00     0.163 HD
ATOM     29  O   UNL A   1      41.883  24.891  25.896  1.00  0.00    -0.269 OA
BRANCH  27  30
ATOM     30  C   UNL A   1      40.688  25.993  27.597  1.00  0.00     0.039 A 
ATOM     31  C   UNL A   1      39.716  25.796  28.583  1.00  0.00     0.014 A 
ATOM     32  C   UNL A   1      41.498  27.130  27.637  1.00  0.00     0.014 A 
ATOM     33  C   UNL A   1      39.594  26.715  29.628  1.00  0.00     0.010 A 
ATOM     34  C   UNL A   1      41.448  27.984  28.733  1.00  0.00     0.010 A 
ATOM     35  C   UNL A   1      40.478  27.803  29.726  1.00  0.00    -0.014 A 
BRANCH  35  36
ATOM     36  C   UNL A   1      40.370  28.786  30.834  1.00  0.00     0.031 A 
ATOM     37  C   UNL A   1      41.228  28.631  32.062  1.00  0.00     0.074 A 
ATOM     38  C   UNL A   1      39.466  29.782  30.762  1.00  0.00     0.049 A 
ATOM     39  N   UNL A   1      41.247  29.352  33.154  1.00  0.00    -0.248 NA
ATOM     40  C   UNL A   1      42.163  27.494  32.080  1.00  0.00     0.031 C 
ATOM     41  C   UNL A   1      38.530  29.996  29.656  1.00  0.00     0.029 A 
ATOM     42  N   UNL A   1      39.177  30.793  31.642  1.00  0.00    -0.354 N 
ATOM     43  C   UNL A   1      42.183  28.749  33.988  1.00  0.00     0.074 A 
ATOM     44  C   UNL A   1      42.650  27.562  33.309  1.00  0.00     0.031 C 
ATOM     45  C   UNL A   1      37.786  31.083  29.915  1.00  0.00     0.029 A 
ATOM     46  C   UNL A   1      38.166  31.622  31.217  1.00  0.00     0.049 A 
ATOM     47  H   UNL A   1      39.648  30.914  32.498  1.00  0.00     0.167 HD
ATOM     48  C   UNL A   1      42.640  29.164  35.194  1.00  0.00     0.037 A 
ATOM     49  C   UNL A   1      37.607  32.695  31.811  1.00  0.00     0.037 A 
ATOM     50  C   UNL A   1      42.181  30.356  35.857  1.00  0.00     0.049 A 
ATOM     51  C   UNL A   1      38.140  33.155  33.140  1.00  0.00     0.074 A 
ATOM     52  C   UNL A   1      42.606  30.893  37.059  1.00  0.00     0.029 A 
ATOM     53  N   UNL A   1      41.188  31.197  35.373  1.00  0.00    -0.354 N 
ATOM     54  N   UNL A   1      39.073  32.611  33.886  1.00  0.00    -0.248 NA
ATOM     55  C   UNL A   1      37.558  34.381  33.700  1.00  0.00     0.031 C 
ATOM     56  C   UNL A   1      41.840  32.035  37.321  1.00  0.00     0.029 A 
ATOM     57  C   UNL A   1      40.977  32.241  36.257  1.00  0.00     0.049 A 
ATOM     58  H   UNL A   1      40.704  31.069  34.524  1.00  0.00     0.167 HD
ATOM     59  C   UNL A   1      39.209  33.444  34.992  1.00  0.00     0.074 A 
ATOM     60  C   UNL A   1      38.270  34.533  34.808  1.00  0.00     0.031 C 
ATOM     61  C   UNL A   1      40.037  33.320  36.059  1.00  0.00     0.037 A 
BRANCH  48  62
ATOM     62  C   UNL A   1      43.690  28.314  35.862  1.00  0.00     0.058 A 
ATOM     63  C   UNL A   1      43.347  27.279  36.748  1.00  0.00     0.135 A 
ATOM     64  C   UNL A   1      45.055  28.543  35.627  1.00  0.00     0.135 A 
ATOM     65  F   UNL A   1      42.057  27.022  37.022  1.00  0.00    -0.206 F 
ATOM     66  C   UNL A   1      44.316  26.541  37.420  1.00  0.00     0.059 A 
ATOM     67  C   UNL A   1      46.043  27.793  36.262  1.00  0.00     0.059 A 
ATOM     68  F   UNL A   1      45.444  29.515  34.787  1.00  0.00    -0.206 F 
ATOM     69  C   UNL A   1      45.662  26.812  37.176  1.00  0.00     0.060 A 
BRANCH  69  70
ATOM     70  S   UNL A   1      46.908  25.872  38.083  1.00  0.00     0.124 S 
ATOM     71  O   UNL A   1      46.425  24.505  37.907  1.00  0.00    -0.237 OA
ATOM     72  O   UNL A   1      48.134  26.206  37.367  1.00  0.00    -0.237 OA
ATOM     73  O   UNL A   1      46.813  26.401  39.440  1.00  0.00    -0.744 OA
ENDBRANCH  69  70
ENDBRANCH  48  62
BRANCH  49  74
ATOM     74  C   UNL A   1      36.503  33.417  31.125  1.00  0.00     0.058 A 
ATOM     75  C   UNL A   1      36.737  34.171  29.966  1.00  0.00     0.135 A 
ATOM     76  C   UNL A   1      35.180  33.319  31.585  1.00  0.00     0.135 A 
ATOM     77  F   UNL A   1      37.985  34.297  29.491  1.00  0.00    -0.206 F 
ATOM     78  C   UNL A   1      35.702  34.806  29.289  1.00  0.00     0.059 A 
ATOM     79  C   UNL A   1      34.124  33.925  30.910  1.00  0.00     0.059 A 
ATOM     80  F   UNL A   1      34.900  32.593  32.678  1.00  0.00    -0.206 F 
ATOM     81  C   UNL A   1      34.396  34.670  29.763  1.00  0.00     0.060 A 
BRANCH  81  82
ATOM     82  S   UNL A   1      33.051  35.431  28.829  1.00  0.00     0.124 S 
ATOM     83  O   UNL A   1      32.213  35.961  29.897  1.00  0.00    -0.237 OA
ATOM     84  O   UNL A   1      33.762  36.420  28.023  1.00  0.00    -0.237 OA
ATOM     85  O   UNL A   1      32.489  34.311  28.079  1.00  0.00    -0.744 OA
ENDBRANCH  81  82
ENDBRANCH  49  74
BRANCH  61  86
ATOM     86  C   UNL A   1      39.993  34.407  37.098  1.00  0.00     0.058 A 
ATOM     87  C   UNL A   1      40.790  35.558  37.001  1.00  0.00     0.135 A 
ATOM     88  C   UNL A   1      39.109  34.312  38.186  1.00  0.00     0.135 A 
ATOM     89  F   UNL A   1      41.655  35.700  35.984  1.00  0.00    -0.206 F 
ATOM     90  C   UNL A   1      40.736  36.563  37.963  1.00  0.00     0.059 A 
ATOM     91  C   UNL A   1      39.016  35.318  39.142  1.00  0.00     0.059 A 
ATOM     92  F   UNL A   1      38.314  33.238  38.319  1.00  0.00    -0.206 F 
ATOM     93  C   UNL A   1      39.845  36.433  39.031  1.00  0.00     0.060 A 
BRANCH  93  94
ATOM     94  S   UNL A   1      39.771  37.749  40.263  1.00  0.00     0.124 S 
ATOM     95  O   UNL A   1      38.816  38.668  39.655  1.00  0.00    -0.237 OA
ATOM     96  O   UNL A   1      39.302  37.040  41.450  1.00  0.00    -0.237 OA
ATOM     97  O   UNL A   1      41.149  38.229  40.331  1.00  0.00    -0.744 OA
ENDBRANCH  93  94
ENDBRANCH  61  86
ENDBRANCH  35  36
ENDBRANCH  27  30
ENDBRANCH  25  26
ENDBRANCH  24  25
ENDBRANCH   1  24
TORSDOF 18
ENDMDL
MODEL 2
REMARK VINA RESULT:     -10.7      6.804     12.234
REMARK SMILES CC[NH2+]C(C)(C)C(=O)N[C@@](C)(C(=O)NCCCNC(=O)c1ccc(-c2c3nc(c(-c4c(F)cc(S(=O)(=O)[O-])cc4F)c4ccc([nH]4)c(-c4c(F)cc(S(=O)(=O)[O-])cc4F)c4nc(c(-c5c(F)cc(S(=O)(=O)[O-])cc5F)c5ccc2[nH]5)C=C4)C=C3)cc1)C(F)(F)F
REMARK SMILES IDX 15 1 14 2 12 3 13 4 10 6 11 7 9 8 7 9 8 10 4 12 5 13 6 14
REMARK SMILES IDX 3 15 2 18 1 19 87 20 88 21 89 22 90 23 16 24 17 25 18 26
REMARK SMILES IDX 19 27 20 29 21 30 22 31 86 32 23 33 85 34 24 35 25 36 26 37
REMARK SMILES IDX 79 38 27 39 84 40 78 41 80 42 28 43 83 44 77 45 76 46 29 48
REMARK SMILES IDX 63 49 42 50 62 51 43 52 46 53 61 54 81 55 44 56 45 57 60 59
REMARK SMILES IDX 82 60 47 61 30 62 31 63 40 64 32 65 33 66 39 67 41 68 34 69
REMARK SMILES IDX 35 70 36 71 37 72 38 73 64 74 65 75 74 76 66 77 67 78 73 79
REMARK SMILES IDX 75 80 68 81 69 82 70 83 71 84 72 85 48 86 49 87 58 88 50 89
REMARK SMILES IDX 51 90 57 91 59 92 52 93 53 94 54 95 55 96 56 97
REMARK H PARENT 14 5 9 11 3 16 3 17 18 28 80 47 46 58
REMARK Flexibility Score: inf
ROOT
ATOM      1  C   UNL A   1      33.380  28.701  26.215  1.00  0.00     0.117 C 
ENDROOT
BRANCH   1   2
ATOM      2  N   UNL A   1      32.539  29.166  25.123  1.00  0.00    -0.354 N 
ATOM      3  C   UNL A   1      31.887  28.548  24.098  1.00  0.00     0.254 C 
ATOM      4  O   UNL A   1      31.253  29.309  23.361  1.00  0.00    -0.272 OA
ATOM      5  H   UNL A   1      32.414  30.143  25.124  1.00  0.00     0.163 HD
BRANCH   3   6
ATOM      6  C   UNL A   1      31.962  27.025  23.839  1.00  0.00     0.212 C 
ATOM      7  C   UNL A   1      30.994  26.576  22.719  1.00  0.00     0.056 C 
BRANCH   6   8
ATOM      8  N   UNL A   1      31.495  26.379  25.136  1.00  0.00    -0.329 N 
ATOM      9  C   UNL A   1      31.486  25.206  25.827  1.00  0.00     0.281 C 
ATOM     10  O   UNL A   1      31.132  25.344  27.005  1.00  0.00    -0.268 OA
ATOM     11  H   UNL A   1      31.028  27.059  25.672  1.00  0.00     0.165 HD
BRANCH   9  12
ATOM     12  C   UNL A   1      31.839  23.822  25.222  1.00  0.00     0.169 C 
ATOM     13  C   UNL A   1      31.005  23.587  23.958  1.00  0.00     0.090 C 
ATOM     14  C   UNL A   1      31.601  22.779  26.337  1.00  0.00     0.090 C 
BRANCH  12  15
ATOM     15  N   UNL A   1      33.291  23.624  24.930  1.00  0.00    -0.334 N 
ATOM     16  H   UNL A   1      33.378  22.734  24.439  1.00  0.00     0.347 HD
ATOM     17  H   UNL A   1      33.552  24.459  24.407  1.00  0.00     0.347 HD
BRANCH  15  18
ATOM     18  C   UNL A   1      34.235  23.594  26.043  1.00  0.00     0.257 C 
ATOM     19  C   UNL A   1      35.609  24.008  25.517  1.00  0.00     0.071 C 
ENDBRANCH  15  18
ENDBRANCH  12  15
ENDBRANCH   9  12
ENDBRANCH   6   8
BRANCH   6  20
ATOM     20  C   UNL A   1      33.374  26.805  23.209  1.00  0.00     0.420 C 
ATOM     21  F   UNL A   1      33.487  25.769  22.364  1.00  0.00    -0.168 F 
ATOM     22  F   UNL A   1      33.797  27.904  22.536  1.00  0.00    -0.168 F 
ATOM     23  F   UNL A   1      34.311  26.619  24.180  1.00  0.00    -0.168 F 
ENDBRANCH   6  20
ENDBRANCH   3   6
ENDBRANCH   1   2
BRANCH   1  24
ATOM     24  C   UNL A   1      33.934  29.843  27.051  1.00  0.00     0.042 C 
BRANCH  24  25
ATOM     25  C   UNL A   1      35.170  29.490  27.862  1.00  0.00     0.118 C 
BRANCH  25  26
ATOM     26  N   UNL A   1      35.258  30.230  29.113  1.00  0.00    -0.352 N 
ATOM     27  C   UNL A   1      36.318  30.389  29.969  1.00  0.00     0.251 C 
ATOM     28  H   UNL A   1      34.429  30.686  29.386  1.00  0.00     0.163 HD
ATOM     29  O   UNL A   1      36.124  30.897  31.075  1.00  0.00    -0.269 OA
BRANCH  27  30
ATOM     30  C   UNL A   1      37.673  29.944  29.582  1.00  0.00     0.039 A 
ATOM     31  C   UNL A   1      38.042  29.986  28.235  1.00  0.00     0.014 A 
ATOM     32  C   UNL A   1      38.574  29.463  30.535  1.00  0.00     0.014 A 
ATOM     33  C   UNL A   1      39.328  29.591  27.856  1.00  0.00     0.010 A 
ATOM     34  C   UNL A   1      39.884  29.173  30.172  1.00  0.00     0.010 A 
ATOM     35  C   UNL A   1      40.269  29.207  28.826  1.00  0.00    -0.014 A 
BRANCH  35  36
ATOM     36  C   UNL A   1      41.643  28.791  28.445  1.00  0.00     0.031 A 
ATOM     37  C   UNL A   1      42.743  29.816  28.367  1.00  0.00     0.074 A 
ATOM     38  C   UNL A   1      41.889  27.508  28.116  1.00  0.00     0.049 A 
ATOM     39  N   UNL A   1      43.992  29.664  28.007  1.00  0.00    -0.248 NA
ATOM     40  C   UNL A   1      42.384  31.203  28.704  1.00  0.00     0.031 C 
ATOM     41  C   UNL A   1      40.891  26.436  28.086  1.00  0.00     0.029 A 
ATOM     42  N   UNL A   1      43.052  26.891  27.733  1.00  0.00    -0.354 N 
ATOM     43  C   UNL A   1      44.559  30.932  28.063  1.00  0.00     0.074 A 
ATOM     44  C   UNL A   1      43.500  31.852  28.414  1.00  0.00     0.031 C 
ATOM     45  C   UNL A   1      41.489  25.290  27.725  1.00  0.00     0.029 A 
ATOM     46  C   UNL A   1      42.902  25.550  27.465  1.00  0.00     0.049 A 
ATOM     47  H   UNL A   1      43.913  27.362  27.656  1.00  0.00     0.167 HD
ATOM     48  C   UNL A   1      45.850  31.296  27.875  1.00  0.00     0.037 A 
ATOM     49  C   UNL A   1      43.801  24.635  27.054  1.00  0.00     0.037 A 
ATOM     50  C   UNL A   1      46.902  30.371  27.541  1.00  0.00     0.049 A 
ATOM     51  C   UNL A   1      45.235  25.050  26.871  1.00  0.00     0.074 A 
ATOM     52  C   UNL A   1      48.251  30.624  27.371  1.00  0.00     0.029 A 
ATOM     53  N   UNL A   1      46.720  29.012  27.324  1.00  0.00    -0.354 N 
ATOM     54  N   UNL A   1      45.769  26.243  26.993  1.00  0.00    -0.248 NA
ATOM     55  C   UNL A   1      46.191  23.995  26.511  1.00  0.00     0.031 C 
ATOM     56  C   UNL A   1      48.877  29.426  27.009  1.00  0.00     0.029 A 
ATOM     57  C   UNL A   1      47.929  28.416  27.009  1.00  0.00     0.049 A 
ATOM     58  H   UNL A   1      45.856  28.542  27.385  1.00  0.00     0.167 HD
ATOM     59  C   UNL A   1      47.129  26.078  26.750  1.00  0.00     0.074 A 
ATOM     60  C   UNL A   1      47.334  24.667  26.488  1.00  0.00     0.031 C 
ATOM     61  C   UNL A   1      48.117  27.008  26.749  1.00  0.00     0.037 A 
BRANCH  48  62
ATOM     62  C   UNL A   1      46.184  32.757  28.032  1.00  0.00     0.058 A 
ATOM     63  C   UNL A   1      46.646  33.282  29.251  1.00  0.00     0.135 A 
ATOM     64  C   UNL A   1      46.027  33.648  26.958  1.00  0.00     0.135 A 
ATOM     65  F   UNL A   1      46.801  32.479  30.317  1.00  0.00    -0.206 F 
ATOM     66  C   UNL A   1      46.884  34.641  29.418  1.00  0.00     0.059 A 
ATOM     67  C   UNL A   1      46.295  35.010  27.092  1.00  0.00     0.059 A 
ATOM     68  F   UNL A   1      45.594  33.206  25.768  1.00  0.00    -0.206 F 
ATOM     69  C   UNL A   1      46.698  35.499  28.334  1.00  0.00     0.060 A 
BRANCH  69  70
ATOM     70  S   UNL A   1      46.977  37.266  28.575  1.00  0.00     0.124 S 
ATOM     71  O   UNL A   1      45.609  37.764  28.677  1.00  0.00    -0.237 OA
ATOM     72  O   UNL A   1      47.754  37.294  29.810  1.00  0.00    -0.237 OA
ATOM     73  O   UNL A   1      47.702  37.663  27.372  1.00  0.00    -0.744 OA
ENDBRANCH  69  70
ENDBRANCH  48  62
BRANCH  49  74
ATOM     74  C   UNL A   1      43.364  23.232  26.825  1.00  0.00     0.058 A 
ATOM     75  C   UNL A   1      43.274  22.701  25.530  1.00  0.00     0.135 A 
ATOM     76  C   UNL A   1      43.081  22.378  27.903  1.00  0.00     0.135 A 
ATOM     77  F   UNL A   1      43.530  23.479  24.468  1.00  0.00    -0.206 F 
ATOM     78  C   UNL A   1      42.916  21.376  25.311  1.00  0.00     0.059 A 
ATOM     79  C   UNL A   1      42.746  21.042  27.710  1.00  0.00     0.059 A 
ATOM     80  F   UNL A   1      43.172  22.833  29.163  1.00  0.00    -0.206 F 
ATOM     81  C   UNL A   1      42.663  20.550  26.407  1.00  0.00     0.060 A 
BRANCH  81  82
ATOM     82  S   UNL A   1      42.280  18.810  26.112  1.00  0.00     0.124 S 
ATOM     83  O   UNL A   1      42.581  18.217  27.409  1.00  0.00    -0.237 OA
ATOM     84  O   UNL A   1      40.868  18.867  25.747  1.00  0.00    -0.237 OA
ATOM     85  O   UNL A   1      43.185  18.448  25.025  1.00  0.00    -0.744 OA
ENDBRANCH  81  82
ENDBRANCH  49  74
BRANCH  61  86
ATOM     86  C   UNL A   1      49.518  26.526  26.490  1.00  0.00     0.058 A 
ATOM     87  C   UNL A   1      50.316  25.981  27.507  1.00  0.00     0.135 A 
ATOM     88  C   UNL A   1      50.055  26.575  25.192  1.00  0.00     0.135 A 
ATOM     89  F   UNL A   1      49.855  25.913  28.766  1.00  0.00    -0.206 F 
ATOM     90  C   UNL A   1      51.609  25.530  27.255  1.00  0.00     0.059 A 
ATOM     91  C   UNL A   1      51.332  26.103  24.911  1.00  0.00     0.059 A 
ATOM     92  F   UNL A   1      49.329  27.075  24.179  1.00  0.00    -0.206 F 
ATOM     93  C   UNL A   1      52.108  25.597  25.952  1.00  0.00     0.060 A 
BRANCH  93  94
ATOM     94  S   UNL A   1      53.779  24.995  25.634  1.00  0.00     0.124 S 
ATOM     95  O   UNL A   1      54.450  25.310  26.890  1.00  0.00    -0.237 OA
ATOM     96  O   UNL A   1      53.556  23.576  25.373  1.00  0.00    -0.237 OA
ATOM     97  O   UNL A   1      54.208  25.778  24.479  1.00  0.00    -0.744 OA
ENDBRANCH  93  94
ENDBRANCH  61  86
ENDBRANCH  35  36
ENDBRANCH  27  30
ENDBRANCH  25  26
ENDBRANCH  24  25
ENDBRANCH   1  24
TORSDOF 18
ENDMDL
MODEL 3
REMARK VINA RESULT:     -10.7      1.315      2.183
REMARK SMILES CC[NH2+]C(C)(C)C(=O)N[C@@](C)(C(=O)NCCCNC(=O)c1ccc(-c2c3nc(c(-c4c(F)cc(S(=O)(=O)[O-])cc4F)c4ccc([nH]4)c(-c4c(F)cc(S(=O)(=O)[O-])cc4F)c4nc(c(-c5c(F)cc(S(=O)(=O)[O-])cc5F)c5ccc2[nH]5)C=C4)C=C3)cc1)C(F)(F)F
REMARK SMILES IDX 15 1 14 2 12 3 13 4 10 6 11 7 9 8 7 9 8 10 4 12 5 13 6 14
REMARK SMILES IDX 3 15 2 18 1 19 87 20 88 21 89 22 90 23 16 24 17 25 18 26
REMARK SMILES IDX 19 27 20 29 21 30 22 31 86 32 23 33 85 34 24 35 25 36 26 37
REMARK SMILES IDX 79 38 27 39 84 40 78 41 80 42 28 43 83 44 77 45 76 46 29 48
REMARK SMILES IDX 63 49 42 50 62 51 43 52 46 53 61 54 81 55 44 56 45 57 60 59
REMARK SMILES IDX 82 60 47 61 30 62 31 63 40 64 32 65 33 66 39 67 41 68 34 69
REMARK SMILES IDX 35 70 36 71 37 72 38 73 64 74 65 75 74 76 66 77 67 78 73 79
REMARK SMILES IDX 75 80 68 81 69 82 70 83 71 84 72 85 48 86 49 87 58 88 50 89
REMARK SMILES IDX 51 90 57 91 59 92 52 93 53 94 54 95 55 96 56 97
REMARK H PARENT 14 5 9 11 3 16 3 17 18 28 80 47 46 58
REMARK Flexibility Score: inf
ROOT
ATOM      1  C   UNL A   1      37.530  22.926  25.890  1.00  0.00     0.117 C 
ENDROOT
BRANCH   1   2
ATOM      2  N   UNL A   1      37.405  22.917  24.441  1.00  0.00    -0.354 N 
ATOM      3  C   UNL A   1      36.350  22.984  23.580  1.00  0.00     0.254 C 
ATOM      4  O   UNL A   1      36.661  22.953  22.385  1.00  0.00    -0.272 OA
ATOM      5  H   UNL A   1      38.273  22.846  23.981  1.00  0.00     0.163 HD
BRANCH   3   6
ATOM      6  C   UNL A   1      34.877  23.049  24.045  1.00  0.00     0.212 C 
ATOM      7  C   UNL A   1      33.891  23.065  22.853  1.00  0.00     0.056 C 
BRANCH   6   8
ATOM      8  N   UNL A   1      34.747  24.383  24.767  1.00  0.00    -0.329 N 
ATOM      9  C   UNL A   1      33.842  25.258  25.285  1.00  0.00     0.281 C 
ATOM     10  O   UNL A   1      34.364  26.126  25.997  1.00  0.00    -0.268 OA
ATOM     11  H   UNL A   1      35.650  24.747  24.912  1.00  0.00     0.165 HD
BRANCH   9  12
ATOM     12  C   UNL A   1      32.316  25.220  25.004  1.00  0.00     0.169 C 
ATOM     13  C   UNL A   1      32.047  25.715  23.578  1.00  0.00     0.090 C 
ATOM     14  C   UNL A   1      31.644  26.070  26.104  1.00  0.00     0.090 C 
BRANCH  12  15
ATOM     15  N   UNL A   1      31.678  23.887  25.220  1.00  0.00    -0.334 N 
ATOM     16  H   UNL A   1      30.715  23.960  24.891  1.00  0.00     0.347 HD
ATOM     17  H   UNL A   1      32.282  23.241  24.714  1.00  0.00     0.347 HD
BRANCH  15  18
ATOM     18  C   UNL A   1      31.629  23.340  26.572  1.00  0.00     0.257 C 
ATOM     19  C   UNL A   1      30.187  22.939  26.876  1.00  0.00     0.071 C 
ENDBRANCH  15  18
ENDBRANCH  12  15
ENDBRANCH   9  12
ENDBRANCH   6   8
BRANCH   6  20
ATOM     20  C   UNL A   1      34.617  21.661  24.712  1.00  0.00     0.420 C 
ATOM     21  F   UNL A   1      35.554  20.724  24.507  1.00  0.00    -0.168 F 
ATOM     22  F   UNL A   1      34.466  21.774  26.056  1.00  0.00    -0.168 F 
ATOM     23  F   UNL A   1      33.436  21.133  24.281  1.00  0.00    -0.168 F 
ENDBRANCH   6  20
ENDBRANCH   3   6
ENDBRANCH   1   2
BRANCH   1  24
ATOM     24  C   UNL A   1      38.504  23.984  26.383  1.00  0.00     0.042 C 
BRANCH  24  25
ATOM     25  C   UNL A   1      39.806  23.432  26.941  1.00  0.00     0.118 C 
BRANCH  25  26
ATOM     26  N   UNL A   1      40.972  23.848  26.173  1.00  0.00    -0.352 N 
ATOM     27  C   UNL A   1      41.730  24.987  26.271  1.00  0.00     0.251 C 
ATOM     28  H   UNL A   1      41.260  23.213  25.478  1.00  0.00     0.163 HD
ATOM     29  O   UNL A   1      42.559  25.232  25.393  1.00  0.00    -0.269 OA
BRANCH  27  30
ATOM     30  C   UNL A   1      41.546  25.920  27.402  1.00  0.00     0.039 A 
ATOM     31  C   UNL A   1      42.334  27.073  27.466  1.00  0.00     0.014 A 
ATOM     32  C   UNL A   1      40.619  25.654  28.413  1.00  0.00     0.014 A 
ATOM     33  C   UNL A   1      42.156  27.976  28.518  1.00  0.00     0.010 A 
ATOM     34  C   UNL A   1      40.369  26.604  29.396  1.00  0.00     0.010 A 
ATOM     35  C   UNL A   1      41.152  27.762  29.477  1.00  0.00    -0.014 A 
BRANCH  35  36
ATOM     36  C   UNL A   1      40.941  28.713  30.598  1.00  0.00     0.031 A 
ATOM     37  C   UNL A   1      41.785  28.608  31.841  1.00  0.00     0.074 A 
ATOM     38  C   UNL A   1      39.958  29.631  30.523  1.00  0.00     0.049 A 
ATOM     39  N   UNL A   1      41.722  29.308  32.945  1.00  0.00    -0.248 NA
ATOM     40  C   UNL A   1      42.811  27.553  31.861  1.00  0.00     0.031 C 
ATOM     41  C   UNL A   1      39.029  29.786  29.402  1.00  0.00     0.029 A 
ATOM     42  N   UNL A   1      39.568  30.598  31.414  1.00  0.00    -0.354 N 
ATOM     43  C   UNL A   1      42.689  28.771  33.789  1.00  0.00     0.074 A 
ATOM     44  C   UNL A   1      43.267  27.639  33.100  1.00  0.00     0.031 C 
ATOM     45  C   UNL A   1      38.192  30.802  29.662  1.00  0.00     0.029 A 
ATOM     46  C   UNL A   1      38.500  31.348  30.981  1.00  0.00     0.049 A 
ATOM     47  H   UNL A   1      40.011  30.743  32.281  1.00  0.00     0.167 HD
ATOM     48  C   UNL A   1      43.085  29.201  35.011  1.00  0.00     0.037 A 
ATOM     49  C   UNL A   1      37.841  32.359  31.580  1.00  0.00     0.037 A 
ATOM     50  C   UNL A   1      42.515  30.339  35.683  1.00  0.00     0.049 A 
ATOM     51  C   UNL A   1      38.307  32.838  32.927  1.00  0.00     0.074 A 
ATOM     52  C   UNL A   1      42.870  30.888  36.902  1.00  0.00     0.029 A 
ATOM     53  N   UNL A   1      41.464  31.103  35.191  1.00  0.00    -0.354 N 
ATOM     54  N   UNL A   1      39.268  32.361  33.684  1.00  0.00    -0.248 NA
ATOM     55  C   UNL A   1      37.614  34.001  33.495  1.00  0.00     0.031 C 
ATOM     56  C   UNL A   1      42.006  31.957  37.167  1.00  0.00     0.029 A 
ATOM     57  C   UNL A   1      41.150  32.109  36.088  1.00  0.00     0.049 A 
ATOM     58  H   UNL A   1      41.010  30.949  34.331  1.00  0.00     0.167 HD
ATOM     59  C   UNL A   1      39.312  33.182  34.806  1.00  0.00     0.074 A 
ATOM     60  C   UNL A   1      38.289  34.192  34.620  1.00  0.00     0.031 C 
ATOM     61  C   UNL A   1      40.127  33.109  35.888  1.00  0.00     0.037 A 
BRANCH  48  62
ATOM     62  C   UNL A   1      44.190  28.430  35.686  1.00  0.00     0.058 A 
ATOM     63  C   UNL A   1      43.923  27.296  36.473  1.00  0.00     0.135 A 
ATOM     64  C   UNL A   1      45.529  28.834  35.560  1.00  0.00     0.135 A 
ATOM     65  F   UNL A   1      42.660  26.871  36.642  1.00  0.00    -0.206 F 
ATOM     66  C   UNL A   1      44.933  26.627  37.156  1.00  0.00     0.059 A 
ATOM     67  C   UNL A   1      46.561  28.157  36.206  1.00  0.00     0.059 A 
ATOM     68  F   UNL A   1      45.846  29.906  34.818  1.00  0.00    -0.206 F 
ATOM     69  C   UNL A   1      46.249  27.070  37.022  1.00  0.00     0.060 A 
BRANCH  69  70
ATOM     70  S   UNL A   1      47.545  26.214  37.942  1.00  0.00     0.124 S 
ATOM     71  O   UNL A   1      47.100  26.410  39.319  1.00  0.00    -0.237 OA
ATOM     72  O   UNL A   1      47.442  24.851  37.432  1.00  0.00    -0.237 OA
ATOM     73  O   UNL A   1      48.759  26.932  37.567  1.00  0.00    -0.744 OA
ENDBRANCH  69  70
ENDBRANCH  48  62
BRANCH  49  74
ATOM     74  C   UNL A   1      36.694  32.998  30.883  1.00  0.00     0.058 A 
ATOM     75  C   UNL A   1      35.375  32.792  31.314  1.00  0.00     0.135 A 
ATOM     76  C   UNL A   1      36.899  33.874  29.805  1.00  0.00     0.135 A 
ATOM     77  F   UNL A   1      35.127  31.960  32.337  1.00  0.00    -0.206 F 
ATOM     78  C   UNL A   1      34.301  33.427  30.700  1.00  0.00     0.059 A 
ATOM     79  C   UNL A   1      35.843  34.540  29.192  1.00  0.00     0.059 A 
ATOM     80  F   UNL A   1      38.144  34.120  29.367  1.00  0.00    -0.206 F 
ATOM     81  C   UNL A   1      34.546  34.307  29.645  1.00  0.00     0.060 A 
BRANCH  81  82
ATOM     82  S   UNL A   1      33.150  35.189  28.911  1.00  0.00     0.124 S 
ATOM     83  O   UNL A   1      33.814  36.329  28.291  1.00  0.00    -0.237 OA
ATOM     84  O   UNL A   1      32.607  34.190  27.996  1.00  0.00    -0.237 OA
ATOM     85  O   UNL A   1      32.306  35.497  30.062  1.00  0.00    -0.744 OA
ENDBRANCH  81  82
ENDBRANCH  49  74
BRANCH  61  86
ATOM     86  C   UNL A   1      39.972  34.170  36.943  1.00  0.00     0.058 A 
ATOM     87  C   UNL A   1      40.631  35.405  36.856  1.00  0.00     0.135 A 
ATOM     88  C   UNL A   1      39.116  33.961  38.037  1.00  0.00     0.135 A 
ATOM     89  F   UNL A   1      41.463  35.658  35.832  1.00  0.00    -0.206 F 
ATOM     90  C   UNL A   1      40.474  36.385  37.833  1.00  0.00     0.059 A 
ATOM     91  C   UNL A   1      38.920  34.936  39.010  1.00  0.00     0.059 A 
ATOM     92  F   UNL A   1      38.450  32.802  38.162  1.00  0.00    -0.206 F 
ATOM     93  C   UNL A   1      39.616  36.139  38.907  1.00  0.00     0.060 A 
BRANCH  93  94
ATOM     94  S   UNL A   1      39.408  37.422  40.159  1.00  0.00     0.124 S 
ATOM     95  O   UNL A   1      40.770  37.926  40.293  1.00  0.00    -0.237 OA
ATOM     96  O   UNL A   1      38.456  38.328  39.523  1.00  0.00    -0.237 OA
ATOM     97  O   UNL A   1      38.892  36.690  41.312  1.00  0.00    -0.744 OA
ENDBRANCH  93  94
ENDBRANCH  61  86
ENDBRANCH  35  36
ENDBRANCH  27  30
ENDBRANCH  25  26
ENDBRANCH  24  25
ENDBRANCH   1  24
TORSDOF 18
ENDMDL
