MODEL 1
REMARK VINA RESULT:     -12.1      0.000      0.000
REMARK SMILES CC(=O)c1ccc(N2/C(=[NH+]/C(=O)CCC(=O)NCCCNC(=O)c3ccc(-c4c5nc(c(-c6c(F)cc(S(=O)(=O)[O-])cc6F)c6ccc([nH]6)c(-c6c(F)cc(S(=O)(=O)[O-])cc6F)c6nc(c(-c7c(F)cc(S(=O)(=O)[O-])cc7F)c7ccc4[nH]7)C=C6)C=C5)cc3)S[C@H]3CS(=O)(=O)C[C@@H]32)cc1
REMARK SMILES IDX 18 1 17 2 15 3 16 4 14 6 13 7 11 8 8 9 9 10 97 11 10 12
REMARK SMILES IDX 90 13 91 14 96 15 92 17 93 18 12 19 94 20 95 21 7 22 4 23
REMARK SMILES IDX 5 24 99 25 6 26 98 27 2 28 1 29 3 30 19 31 20 32 21 33 22 34
REMARK SMILES IDX 23 36 24 37 25 38 89 39 26 40 88 41 27 42 28 43 29 44 82 45
REMARK SMILES IDX 30 46 87 47 81 48 83 49 31 50 86 51 80 52 79 53 32 55 66 56
REMARK SMILES IDX 45 57 65 58 46 59 49 60 64 61 84 62 47 63 48 64 63 66 85 67
REMARK SMILES IDX 50 68 33 69 34 70 43 71 35 72 36 73 42 74 44 75 37 76 38 77
REMARK SMILES IDX 39 78 40 79 41 80 67 81 68 82 77 83 69 84 70 85 76 86 78 87
REMARK SMILES IDX 71 88 72 89 73 90 74 91 75 92 51 93 52 94 61 95 53 96 54 97
REMARK SMILES IDX 60 98 62 99 55 100 56 101 57 102 58 103 59 104
REMARK H PARENT 17 5 10 16 21 35 83 54 49 65
REMARK Flexibility Score: inf
ROOT
ATOM      1  C   UNL A   1      41.747  21.435  27.542  1.00  0.00     0.117 C 
ENDROOT
BRANCH   1   2
ATOM      2  N   UNL A   1      40.997  22.654  27.893  1.00  0.00    -0.356 N 
ATOM      3  C   UNL A   1      39.938  23.310  27.326  1.00  0.00     0.220 C 
ATOM      4  O   UNL A   1      39.384  24.190  27.990  1.00  0.00    -0.275 OA
ATOM      5  H   UNL A   1      41.329  23.089  28.711  1.00  0.00     0.163 HD
BRANCH   3   6
ATOM      6  C   UNL A   1      39.454  23.016  25.922  1.00  0.00     0.112 C 
BRANCH   6   7
ATOM      7  C   UNL A   1      38.416  21.893  25.961  1.00  0.00     0.138 C 
BRANCH   7   8
ATOM      8  C   UNL A   1      37.132  22.536  25.554  1.00  0.00     0.308 C 
ATOM      9  N   UNL A   1      33.757  21.498  25.045  1.00  0.00    -0.217 N 
ATOM     10  C   UNL A   1      35.031  22.042  24.783  1.00  0.00     0.319 C 
ATOM     11  C   UNL A   1      32.714  22.820  24.909  1.00  0.00     0.212 C 
ATOM     12  N   UNL A   1      36.118  21.636  25.344  1.00  0.00    -0.204 N 
ATOM     13  S   UNL A   1      34.911  23.574  23.855  1.00  0.00    -0.029 SA
ATOM     14  C   UNL A   1      33.649  24.072  25.004  1.00  0.00     0.120 C 
ATOM     15  C   UNL A   1      31.666  23.400  25.898  1.00  0.00     0.188 C 
ATOM     16  H   UNL A   1      36.219  20.696  25.619  1.00  0.00     0.316 HD
ATOM     17  C   UNL A   1      32.907  25.398  24.841  1.00  0.00     0.156 C 
ATOM     18  S   UNL A   1      31.257  25.025  25.349  1.00  0.00     0.155 S 
ATOM     19  O   UNL A   1      36.994  23.746  25.748  1.00  0.00    -0.247 OA
ATOM     20  O   UNL A   1      30.876  25.799  26.507  1.00  0.00    -0.229 OA
ATOM     21  O   UNL A   1      30.402  24.914  24.182  1.00  0.00    -0.229 OA
BRANCH   9  22
ATOM     22  C   UNL A   1      33.630  20.042  25.038  1.00  0.00     0.128 A 
ATOM     23  C   UNL A   1      33.645  17.019  25.197  1.00  0.00     0.018 A 
ATOM     24  C   UNL A   1      32.704  17.821  25.872  1.00  0.00     0.016 A 
ATOM     25  C   UNL A   1      34.474  17.694  24.371  1.00  0.00     0.016 A 
ATOM     26  C   UNL A   1      32.660  19.296  25.749  1.00  0.00     0.052 A 
ATOM     27  C   UNL A   1      34.449  19.097  24.357  1.00  0.00     0.052 A 
BRANCH  23  28
ATOM     28  C   UNL A   1      33.870  15.534  25.319  1.00  0.00     0.159 C 
ATOM     29  C   UNL A   1      32.659  14.611  25.548  1.00  0.00     0.093 C 
ATOM     30  O   UNL A   1      35.005  15.077  25.218  1.00  0.00    -0.295 OA
ENDBRANCH  23  28
ENDBRANCH   9  22
ENDBRANCH   7   8
ENDBRANCH   6   7
ENDBRANCH   3   6
ENDBRANCH   1   2
BRANCH   1  31
ATOM     31  C   UNL A   1      42.338  21.319  26.077  1.00  0.00     0.042 C 
BRANCH  31  32
ATOM     32  C   UNL A   1      43.457  22.357  25.785  1.00  0.00     0.118 C 
BRANCH  32  33
ATOM     33  N   UNL A   1      43.258  24.003  25.748  1.00  0.00    -0.352 N 
ATOM     34  C   UNL A   1      43.935  25.232  26.347  1.00  0.00     0.251 C 
ATOM     35  H   UNL A   1      42.492  24.257  25.185  1.00  0.00     0.163 HD
ATOM     36  O   UNL A   1      44.938  25.628  25.748  1.00  0.00    -0.269 OA
BRANCH  34  37
ATOM     37  C   UNL A   1      43.290  26.268  27.487  1.00  0.00     0.039 A 
ATOM     38  C   UNL A   1      42.229  25.908  28.339  1.00  0.00     0.014 A 
ATOM     39  C   UNL A   1      43.653  27.606  27.713  1.00  0.00     0.014 A 
ATOM     40  C   UNL A   1      41.780  26.739  29.454  1.00  0.00     0.010 A 
ATOM     41  C   UNL A   1      43.334  28.389  28.868  1.00  0.00     0.010 A 
ATOM     42  C   UNL A   1      42.384  27.968  29.786  1.00  0.00    -0.014 A 
BRANCH  42  43
ATOM     43  C   UNL A   1      41.960  28.956  30.867  1.00  0.00     0.031 A 
ATOM     44  C   UNL A   1      42.635  28.867  32.231  1.00  0.00     0.074 A 
ATOM     45  C   UNL A   1      40.881  29.776  30.769  1.00  0.00     0.049 A 
ATOM     46  N   UNL A   1      42.441  29.569  33.324  1.00  0.00    -0.248 NA
ATOM     47  C   UNL A   1      43.640  27.803  32.387  1.00  0.00     0.031 C 
ATOM     48  C   UNL A   1      40.009  29.893  29.602  1.00  0.00     0.029 A 
ATOM     49  N   UNL A   1      40.298  30.646  31.682  1.00  0.00    -0.354 N 
ATOM     50  C   UNL A   1      43.331  29.064  34.270  1.00  0.00     0.074 A 
ATOM     51  C   UNL A   1      43.992  27.934  33.657  1.00  0.00     0.031 C 
ATOM     52  C   UNL A   1      39.017  30.770  29.862  1.00  0.00     0.029 A 
ATOM     53  C   UNL A   1      39.170  31.301  31.215  1.00  0.00     0.049 A 
ATOM     54  H   UNL A   1      40.659  30.786  32.587  1.00  0.00     0.167 HD
ATOM     55  C   UNL A   1      43.613  29.509  35.521  1.00  0.00     0.037 A 
ATOM     56  C   UNL A   1      38.369  32.229  31.795  1.00  0.00     0.037 A 
ATOM     57  C   UNL A   1      42.916  30.585  36.174  1.00  0.00     0.049 A 
ATOM     58  C   UNL A   1      38.685  32.713  33.200  1.00  0.00     0.074 A 
ATOM     59  C   UNL A   1      43.143  31.134  37.425  1.00  0.00     0.029 A 
ATOM     60  N   UNL A   1      41.837  31.265  35.631  1.00  0.00    -0.354 N 
ATOM     61  N   UNL A   1      39.645  32.329  34.009  1.00  0.00    -0.248 NA
ATOM     62  C   UNL A   1      37.824  33.768  33.763  1.00  0.00     0.031 C 
ATOM     63  C   UNL A   1      42.176  32.120  37.654  1.00  0.00     0.029 A 
ATOM     64  C   UNL A   1      41.382  32.222  36.523  1.00  0.00     0.049 A 
ATOM     65  H   UNL A   1      41.450  31.093  34.742  1.00  0.00     0.167 HD
ATOM     66  C   UNL A   1      39.534  33.129  35.146  1.00  0.00     0.074 A 
ATOM     67  C   UNL A   1      38.419  34.023  34.921  1.00  0.00     0.031 C 
ATOM     68  C   UNL A   1      40.290  33.128  36.273  1.00  0.00     0.037 A 
BRANCH  55  69
ATOM     69  C   UNL A   1      44.770  28.861  36.244  1.00  0.00     0.058 A 
ATOM     70  C   UNL A   1      46.074  29.366  36.095  1.00  0.00     0.135 A 
ATOM     71  C   UNL A   1      44.590  27.776  37.117  1.00  0.00     0.135 A 
ATOM     72  F   UNL A   1      46.309  30.398  35.269  1.00  0.00    -0.206 F 
ATOM     73  C   UNL A   1      47.159  28.801  36.757  1.00  0.00     0.059 A 
ATOM     74  C   UNL A   1      45.660  27.211  37.813  1.00  0.00     0.059 A 
ATOM     75  F   UNL A   1      43.368  27.253  37.303  1.00  0.00    -0.206 F 
ATOM     76  C   UNL A   1      46.942  27.725  37.617  1.00  0.00     0.060 A 
BRANCH  76  77
ATOM     77  S   UNL A   1      48.364  27.022  38.480  1.00  0.00     0.124 S 
ATOM     78  O   UNL A   1      48.941  28.207  39.108  1.00  0.00    -0.237 OA
ATOM     79  O   UNL A   1      47.735  26.069  39.389  1.00  0.00    -0.237 OA
ATOM     80  O   UNL A   1      49.158  26.432  37.408  1.00  0.00    -0.744 OA
ENDBRANCH  76  77
ENDBRANCH  55  69
BRANCH  56  81
ATOM     81  C   UNL A   1      37.208  32.841  31.061  1.00  0.00     0.058 A 
ATOM     82  C   UNL A   1      35.888  32.427  31.319  1.00  0.00     0.135 A 
ATOM     83  C   UNL A   1      37.386  33.789  30.040  1.00  0.00     0.135 A 
ATOM     84  F   UNL A   1      35.650  31.506  32.267  1.00  0.00    -0.206 F 
ATOM     85  C   UNL A   1      34.802  32.893  30.576  1.00  0.00     0.059 A 
ATOM     86  C   UNL A   1      36.312  34.293  29.302  1.00  0.00     0.059 A 
ATOM     87  F   UNL A   1      38.617  34.232  29.743  1.00  0.00    -0.206 F 
ATOM     88  C   UNL A   1      35.025  33.825  29.565  1.00  0.00     0.060 A 
BRANCH  88  89
ATOM     89  S   UNL A   1      33.608  34.432  28.614  1.00  0.00     0.124 S 
ATOM     90  O   UNL A   1      34.192  35.559  27.897  1.00  0.00    -0.237 OA
ATOM     91  O   UNL A   1      33.262  33.269  27.802  1.00  0.00    -0.237 OA
ATOM     92  O   UNL A   1      32.634  34.777  29.645  1.00  0.00    -0.744 OA
ENDBRANCH  88  89
ENDBRANCH  56  81
BRANCH  68  93
ATOM     93  C   UNL A   1      39.990  34.161  37.327  1.00  0.00     0.058 A 
ATOM     94  C   UNL A   1      39.145  33.893  38.415  1.00  0.00     0.135 A 
ATOM     95  C   UNL A   1      40.619  35.417  37.282  1.00  0.00     0.135 A 
ATOM     96  F   UNL A   1      38.517  32.710  38.508  1.00  0.00    -0.206 F 
ATOM     97  C   UNL A   1      38.917  34.841  39.409  1.00  0.00     0.059 A 
ATOM     98  C   UNL A   1      40.429  36.368  38.279  1.00  0.00     0.059 A 
ATOM     99  F   UNL A   1      41.447  35.722  36.270  1.00  0.00    -0.206 F 
ATOM    100  C   UNL A   1      39.567  36.075  39.335  1.00  0.00     0.060 A 
BRANCH 100 101
ATOM    101  S   UNL A   1      39.296  37.278  40.653  1.00  0.00     0.124 S 
ATOM    102  O   UNL A   1      38.252  38.117  40.075  1.00  0.00    -0.237 OA
ATOM    103  O   UNL A   1      38.883  36.431  41.768  1.00  0.00    -0.237 OA
ATOM    104  O   UNL A   1      40.600  37.915  40.807  1.00  0.00    -0.744 OA
ENDBRANCH 100 101
ENDBRANCH  68  93
ENDBRANCH  42  43
ENDBRANCH  34  37
ENDBRANCH  32  33
ENDBRANCH  31  32
ENDBRANCH   1  31
TORSDOF 17
ENDMDL
MODEL 2
REMARK VINA RESULT:     -11.3      6.137     12.347
REMARK SMILES CC(=O)c1ccc(N2/C(=[NH+]/C(=O)CCC(=O)NCCCNC(=O)c3ccc(-c4c5nc(c(-c6c(F)cc(S(=O)(=O)[O-])cc6F)c6ccc([nH]6)c(-c6c(F)cc(S(=O)(=O)[O-])cc6F)c6nc(c(-c7c(F)cc(S(=O)(=O)[O-])cc7F)c7ccc4[nH]7)C=C6)C=C5)cc3)S[C@H]3CS(=O)(=O)C[C@@H]32)cc1
REMARK SMILES IDX 18 1 17 2 15 3 16 4 14 6 13 7 11 8 8 9 9 10 97 11 10 12
REMARK SMILES IDX 90 13 91 14 96 15 92 17 93 18 12 19 94 20 95 21 7 22 4 23
REMARK SMILES IDX 5 24 99 25 6 26 98 27 2 28 1 29 3 30 19 31 20 32 21 33 22 34
REMARK SMILES IDX 23 36 24 37 25 38 89 39 26 40 88 41 27 42 28 43 29 44 82 45
REMARK SMILES IDX 30 46 87 47 81 48 83 49 31 50 86 51 80 52 79 53 32 55 66 56
REMARK SMILES IDX 45 57 65 58 46 59 49 60 64 61 84 62 47 63 48 64 63 66 85 67
REMARK SMILES IDX 50 68 33 69 34 70 43 71 35 72 36 73 42 74 44 75 37 76 38 77
REMARK SMILES IDX 39 78 40 79 41 80 67 81 68 82 77 83 69 84 70 85 76 86 78 87
REMARK SMILES IDX 71 88 72 89 73 90 74 91 75 92 51 93 52 94 61 95 53 96 54 97
REMARK SMILES IDX 60 98 62 99 55 100 56 101 57 102 58 103 59 104
REMARK H PARENT 17 5 10 16 21 35 83 54 49 65
REMARK Flexibility Score: inf
ROOT
ATOM      1  C   UNL A   1      35.590  32.841  29.204  1.00  0.00     0.117 C 
ENDROOT
BRANCH   1   2
ATOM      2  N   UNL A   1      35.926  31.417  29.376  1.00  0.00    -0.356 N 
ATOM      3  C   UNL A   1      35.921  30.336  28.538  1.00  0.00     0.220 C 
ATOM      4  O   UNL A   1      36.481  29.305  28.924  1.00  0.00    -0.275 OA
ATOM      5  H   UNL A   1      36.216  31.196  30.291  1.00  0.00     0.163 HD
BRANCH   3   6
ATOM      6  C   UNL A   1      35.237  30.354  27.188  1.00  0.00     0.112 C 
BRANCH   6   7
ATOM      7  C   UNL A   1      33.725  30.221  27.375  1.00  0.00     0.138 C 
BRANCH   7   8
ATOM      8  C   UNL A   1      33.366  28.920  26.738  1.00  0.00     0.308 C 
ATOM      9  N   UNL A   1      31.353  27.842  23.997  1.00  0.00    -0.217 N 
ATOM     10  C   UNL A   1      31.844  27.969  25.313  1.00  0.00     0.319 C 
ATOM     11  C   UNL A   1      31.653  26.227  23.604  1.00  0.00     0.212 C 
ATOM     12  N   UNL A   1      32.393  29.038  25.778  1.00  0.00    -0.204 N 
ATOM     13  S   UNL A   1      31.932  26.376  26.135  1.00  0.00    -0.029 SA
ATOM     14  C   UNL A   1      32.706  25.752  24.662  1.00  0.00     0.120 C 
ATOM     15  C   UNL A   1      32.413  25.590  22.410  1.00  0.00     0.188 C 
ATOM     16  H   UNL A   1      32.120  29.925  25.449  1.00  0.00     0.316 HD
ATOM     17  C   UNL A   1      33.078  24.276  24.526  1.00  0.00     0.156 C 
ATOM     18  S   UNL A   1      32.756  23.911  22.828  1.00  0.00     0.155 S 
ATOM     19  O   UNL A   1      34.139  27.969  26.870  1.00  0.00    -0.247 OA
ATOM     20  O   UNL A   1      33.961  23.521  22.136  1.00  0.00    -0.229 OA
ATOM     21  O   UNL A   1      31.525  23.151  22.720  1.00  0.00    -0.229 OA
BRANCH   9  22
ATOM     22  C   UNL A   1      30.507  28.919  23.486  1.00  0.00     0.128 A 
ATOM     23  C   UNL A   1      29.019  31.342  22.447  1.00  0.00     0.018 A 
ATOM     24  C   UNL A   1      29.329  30.225  21.645  1.00  0.00     0.016 A 
ATOM     25  C   UNL A   1      29.330  31.202  23.754  1.00  0.00     0.016 A 
ATOM     26  C   UNL A   1      30.005  29.016  22.166  1.00  0.00     0.052 A 
ATOM     27  C   UNL A   1      30.049  30.074  24.180  1.00  0.00     0.052 A 
BRANCH  23  28
ATOM     28  C   UNL A   1      28.439  32.667  22.026  1.00  0.00     0.159 C 
ATOM     29  C   UNL A   1      27.754  32.780  20.652  1.00  0.00     0.093 C 
ATOM     30  O   UNL A   1      28.504  33.631  22.783  1.00  0.00    -0.295 OA
ENDBRANCH  23  28
ENDBRANCH   9  22
ENDBRANCH   7   8
ENDBRANCH   6   7
ENDBRANCH   3   6
ENDBRANCH   1   2
BRANCH   1  31
ATOM     31  C   UNL A   1      34.507  33.474  30.172  1.00  0.00     0.042 C 
BRANCH  31  32
ATOM     32  C   UNL A   1      34.927  33.434  31.668  1.00  0.00     0.118 C 
BRANCH  32  33
ATOM     33  N   UNL A   1      36.145  32.505  32.301  1.00  0.00    -0.352 N 
ATOM     34  C   UNL A   1      37.631  32.658  32.611  1.00  0.00     0.251 C 
ATOM     35  H   UNL A   1      35.820  31.608  32.543  1.00  0.00     0.163 HD
ATOM     36  O   UNL A   1      37.894  33.220  33.678  1.00  0.00    -0.269 OA
BRANCH  34  37
ATOM     37  C   UNL A   1      38.893  31.868  31.854  1.00  0.00     0.039 A 
ATOM     38  C   UNL A   1      39.145  31.973  30.473  1.00  0.00     0.014 A 
ATOM     39  C   UNL A   1      39.809  30.981  32.443  1.00  0.00     0.014 A 
ATOM     40  C   UNL A   1      40.345  31.433  29.836  1.00  0.00     0.010 A 
ATOM     41  C   UNL A   1      41.055  30.553  31.885  1.00  0.00     0.010 A 
ATOM     42  C   UNL A   1      41.366  30.778  30.553  1.00  0.00    -0.014 A 
BRANCH  42  43
ATOM     43  C   UNL A   1      42.617  30.108  29.996  1.00  0.00     0.031 A 
ATOM     44  C   UNL A   1      43.858  30.965  29.777  1.00  0.00     0.074 A 
ATOM     45  C   UNL A   1      42.644  28.848  29.488  1.00  0.00     0.049 A 
ATOM     46  N   UNL A   1      45.037  30.648  29.295  1.00  0.00    -0.248 NA
ATOM     47  C   UNL A   1      43.726  32.392  30.113  1.00  0.00     0.031 C 
ATOM     48  C   UNL A   1      41.515  27.921  29.459  1.00  0.00     0.029 A 
ATOM     49  N   UNL A   1      43.652  28.131  28.855  1.00  0.00    -0.354 N 
ATOM     50  C   UNL A   1      45.792  31.819  29.321  1.00  0.00     0.074 A 
ATOM     51  C   UNL A   1      44.910  32.873  29.768  1.00  0.00     0.031 C 
ATOM     52  C   UNL A   1      41.883  26.774  28.852  1.00  0.00     0.029 A 
ATOM     53  C   UNL A   1      43.286  26.859  28.445  1.00  0.00     0.049 A 
ATOM     54  H   UNL A   1      44.554  28.497  28.710  1.00  0.00     0.167 HD
ATOM     55  C   UNL A   1      47.106  32.011  29.038  1.00  0.00     0.037 A 
ATOM     56  C   UNL A   1      43.993  25.875  27.836  1.00  0.00     0.037 A 
ATOM     57  C   UNL A   1      47.981  30.991  28.523  1.00  0.00     0.049 A 
ATOM     58  C   UNL A   1      45.459  26.104  27.513  1.00  0.00     0.074 A 
ATOM     59  C   UNL A   1      49.334  31.073  28.233  1.00  0.00     0.029 A 
ATOM     60  N   UNL A   1      47.582  29.704  28.200  1.00  0.00    -0.354 N 
ATOM     61  N   UNL A   1      46.190  27.177  27.706  1.00  0.00    -0.248 NA
ATOM     62  C   UNL A   1      46.203  24.983  26.910  1.00  0.00     0.031 C 
ATOM     63  C   UNL A   1      49.742  29.845  27.699  1.00  0.00     0.029 A 
ATOM     64  C   UNL A   1      48.657  28.983  27.707  1.00  0.00     0.049 A 
ATOM     65  H   UNL A   1      46.668  29.353  28.305  1.00  0.00     0.167 HD
ATOM     66  C   UNL A   1      47.482  26.842  27.299  1.00  0.00     0.074 A 
ATOM     67  C   UNL A   1      47.437  25.466  26.855  1.00  0.00     0.031 C 
ATOM     68  C   UNL A   1      48.605  27.603  27.298  1.00  0.00     0.037 A 
BRANCH  55  69
ATOM     69  C   UNL A   1      47.690  33.371  29.339  1.00  0.00     0.058 A 
ATOM     70  C   UNL A   1      47.696  34.377  28.357  1.00  0.00     0.135 A 
ATOM     71  C   UNL A   1      48.200  33.698  30.606  1.00  0.00     0.135 A 
ATOM     72  F   UNL A   1      47.227  34.122  27.125  1.00  0.00    -0.206 F 
ATOM     73  C   UNL A   1      48.213  35.643  28.607  1.00  0.00     0.059 A 
ATOM     74  C   UNL A   1      48.699  34.971  30.888  1.00  0.00     0.059 A 
ATOM     75  F   UNL A   1      48.218  32.781  31.586  1.00  0.00    -0.206 F 
ATOM     76  C   UNL A   1      48.711  35.932  29.878  1.00  0.00     0.060 A 
BRANCH  76  77
ATOM     77  S   UNL A   1      49.359  37.590  30.183  1.00  0.00     0.124 S 
ATOM     78  O   UNL A   1      50.104  37.391  31.423  1.00  0.00    -0.237 OA
ATOM     79  O   UNL A   1      50.167  37.831  28.992  1.00  0.00    -0.237 OA
ATOM     80  O   UNL A   1      48.158  38.411  30.299  1.00  0.00    -0.744 OA
ENDBRANCH  76  77
ENDBRANCH  55  69
BRANCH  56  81
ATOM     81  C   UNL A   1      43.381  24.537  27.525  1.00  0.00     0.058 A 
ATOM     82  C   UNL A   1      42.821  24.272  26.262  1.00  0.00     0.135 A 
ATOM     83  C   UNL A   1      43.270  23.526  28.492  1.00  0.00     0.135 A 
ATOM     84  F   UNL A   1      42.873  25.206  25.299  1.00  0.00    -0.206 F 
ATOM     85  C   UNL A   1      42.146  23.084  25.981  1.00  0.00     0.059 A 
ATOM     86  C   UNL A   1      42.625  22.314  28.226  1.00  0.00     0.059 A 
ATOM     87  F   UNL A   1      43.785  23.708  29.718  1.00  0.00    -0.206 F 
ATOM     88  C   UNL A   1      42.050  22.109  26.972  1.00  0.00     0.060 A 
BRANCH  88  89
ATOM     89  S   UNL A   1      41.182  20.566  26.594  1.00  0.00     0.124 S 
ATOM     90  O   UNL A   1      41.089  19.947  27.911  1.00  0.00    -0.237 OA
ATOM     91  O   UNL A   1      39.928  21.050  26.026  1.00  0.00    -0.237 OA
ATOM     92  O   UNL A   1      42.073  19.902  25.648  1.00  0.00    -0.744 OA
ENDBRANCH  88  89
ENDBRANCH  56  81
BRANCH  68  93
ATOM     93  C   UNL A   1      49.897  26.958  26.868  1.00  0.00     0.058 A 
ATOM     94  C   UNL A   1      50.777  26.365  27.785  1.00  0.00     0.135 A 
ATOM     95  C   UNL A   1      50.220  26.873  25.502  1.00  0.00     0.135 A 
ATOM     96  F   UNL A   1      50.519  26.419  29.101  1.00  0.00    -0.206 F 
ATOM     97  C   UNL A   1      51.942  25.728  27.367  1.00  0.00     0.059 A 
ATOM     98  C   UNL A   1      51.364  26.215  25.059  1.00  0.00     0.059 A 
ATOM     99  F   UNL A   1      49.407  27.412  24.580  1.00  0.00    -0.206 F 
ATOM    100  C   UNL A   1      52.226  25.656  26.001  1.00  0.00     0.060 A 
BRANCH 100 101
ATOM    101  S   UNL A   1      53.718  24.790  25.470  1.00  0.00     0.124 S 
ATOM    102  O   UNL A   1      54.188  25.649  24.390  1.00  0.00    -0.237 OA
ATOM    103  O   UNL A   1      54.530  24.796  26.683  1.00  0.00    -0.237 OA
ATOM    104  O   UNL A   1      53.224  23.479  25.060  1.00  0.00    -0.744 OA
ENDBRANCH 100 101
ENDBRANCH  68  93
ENDBRANCH  42  43
ENDBRANCH  34  37
ENDBRANCH  32  33
ENDBRANCH  31  32
ENDBRANCH   1  31
TORSDOF 17
ENDMDL
MODEL 3
REMARK VINA RESULT:     -11.3      5.159     12.596
REMARK SMILES CC(=O)c1ccc(N2/C(=[NH+]/C(=O)CCC(=O)NCCCNC(=O)c3ccc(-c4c5nc(c(-c6c(F)cc(S(=O)(=O)[O-])cc6F)c6ccc([nH]6)c(-c6c(F)cc(S(=O)(=O)[O-])cc6F)c6nc(c(-c7c(F)cc(S(=O)(=O)[O-])cc7F)c7ccc4[nH]7)C=C6)C=C5)cc3)S[C@H]3CS(=O)(=O)C[C@@H]32)cc1
REMARK SMILES IDX 18 1 17 2 15 3 16 4 14 6 13 7 11 8 8 9 9 10 97 11 10 12
REMARK SMILES IDX 90 13 91 14 96 15 92 17 93 18 12 19 94 20 95 21 7 22 4 23
REMARK SMILES IDX 5 24 99 25 6 26 98 27 2 28 1 29 3 30 19 31 20 32 21 33 22 34
REMARK SMILES IDX 23 36 24 37 25 38 89 39 26 40 88 41 27 42 28 43 29 44 82 45
REMARK SMILES IDX 30 46 87 47 81 48 83 49 31 50 86 51 80 52 79 53 32 55 66 56
REMARK SMILES IDX 45 57 65 58 46 59 49 60 64 61 84 62 47 63 48 64 63 66 85 67
REMARK SMILES IDX 50 68 33 69 34 70 43 71 35 72 36 73 42 74 44 75 37 76 38 77
REMARK SMILES IDX 39 78 40 79 41 80 67 81 68 82 77 83 69 84 70 85 76 86 78 87
REMARK SMILES IDX 71 88 72 89 73 90 74 91 75 92 51 93 52 94 61 95 53 96 54 97
REMARK SMILES IDX 60 98 62 99 55 100 56 101 57 102 58 103 59 104
REMARK H PARENT 17 5 10 16 21 35 83 54 49 65
REMARK Flexibility Score: inf
ROOT
ATOM      1  C   UNL A   1      50.110  23.141  35.141  1.00  0.00     0.117 C 
ENDROOT
BRANCH   1   2
ATOM      2  N   UNL A   1      50.913  22.530  34.068  1.00  0.00    -0.356 N 
ATOM      3  C   UNL A   1      50.978  21.272  33.534  1.00  0.00     0.220 C 
ATOM      4  O   UNL A   1      51.599  21.126  32.477  1.00  0.00    -0.275 OA
ATOM      5  H   UNL A   1      51.539  23.162  33.646  1.00  0.00     0.163 HD
BRANCH   3   6
ATOM      6  C   UNL A   1      50.348  20.069  34.203  1.00  0.00     0.112 C 
BRANCH   6   7
ATOM      7  C   UNL A   1      51.393  19.351  35.059  1.00  0.00     0.138 C 
BRANCH   7   8
ATOM      8  C   UNL A   1      50.821  19.333  36.438  1.00  0.00     0.308 C 
ATOM      9  N   UNL A   1      47.657  20.005  37.944  1.00  0.00    -0.217 N 
ATOM     10  C   UNL A   1      49.036  20.089  37.660  1.00  0.00     0.319 C 
ATOM     11  C   UNL A   1      47.602  19.460  39.542  1.00  0.00     0.212 C 
ATOM     12  N   UNL A   1      49.551  19.848  36.504  1.00  0.00    -0.204 N 
ATOM     13  S   UNL A   1      50.006  20.225  39.165  1.00  0.00    -0.029 SA
ATOM     14  C   UNL A   1      49.034  18.886  39.813  1.00  0.00     0.120 C 
ATOM     15  C   UNL A   1      46.881  18.244  40.182  1.00  0.00     0.188 C 
ATOM     16  H   UNL A   1      49.041  20.029  35.681  1.00  0.00     0.316 HD
ATOM     17  C   UNL A   1      49.225  18.387  41.245  1.00  0.00     0.156 C 
ATOM     18  S   UNL A   1      47.591  17.979  41.775  1.00  0.00     0.155 S 
ATOM     19  O   UNL A   1      51.353  18.612  37.284  1.00  0.00    -0.247 OA
ATOM     20  O   UNL A   1      47.474  16.574  42.082  1.00  0.00    -0.229 OA
ATOM     21  O   UNL A   1      47.101  19.008  42.673  1.00  0.00    -0.229 OA
BRANCH   9  22
ATOM     22  C   UNL A   1      46.736  20.650  37.010  1.00  0.00     0.128 A 
ATOM     23  C   UNL A   1      45.068  22.197  35.013  1.00  0.00     0.018 A 
ATOM     24  C   UNL A   1      45.534  20.888  34.778  1.00  0.00     0.016 A 
ATOM     25  C   UNL A   1      45.319  22.672  36.253  1.00  0.00     0.016 A 
ATOM     26  C   UNL A   1      46.300  20.109  35.777  1.00  0.00     0.052 A 
ATOM     27  C   UNL A   1      46.125  21.930  37.130  1.00  0.00     0.052 A 
BRANCH  23  28
ATOM     28  C   UNL A   1      44.381  23.134  34.054  1.00  0.00     0.159 C 
ATOM     29  C   UNL A   1      43.058  23.797  34.477  1.00  0.00     0.093 C 
ATOM     30  O   UNL A   1      44.887  23.371  32.962  1.00  0.00    -0.295 OA
ENDBRANCH  23  28
ENDBRANCH   9  22
ENDBRANCH   7   8
ENDBRANCH   6   7
ENDBRANCH   3   6
ENDBRANCH   1   2
BRANCH   1  31
ATOM     31  C   UNL A   1      50.872  23.747  36.391  1.00  0.00     0.042 C 
BRANCH  31  32
ATOM     32  C   UNL A   1      50.758  25.294  36.485  1.00  0.00     0.118 C 
BRANCH  32  33
ATOM     33  N   UNL A   1      49.476  26.128  37.125  1.00  0.00    -0.352 N 
ATOM     34  C   UNL A   1      48.009  25.860  37.447  1.00  0.00     0.251 C 
ATOM     35  H   UNL A   1      49.731  27.049  37.361  1.00  0.00     0.163 HD
ATOM     36  O   UNL A   1      47.799  25.285  38.518  1.00  0.00    -0.269 OA
BRANCH  34  37
ATOM     37  C   UNL A   1      46.683  26.546  36.697  1.00  0.00     0.039 A 
ATOM     38  C   UNL A   1      45.361  26.134  36.948  1.00  0.00     0.014 A 
ATOM     39  C   UNL A   1      46.696  27.546  35.710  1.00  0.00     0.014 A 
ATOM     40  C   UNL A   1      44.191  26.844  36.435  1.00  0.00     0.010 A 
ATOM     41  C   UNL A   1      45.582  28.344  35.297  1.00  0.00     0.010 A 
ATOM     42  C   UNL A   1      44.284  28.017  35.659  1.00  0.00    -0.014 A 
BRANCH  42  43
ATOM     43  C   UNL A   1      43.149  28.797  35.006  1.00  0.00     0.031 A 
ATOM     44  C   UNL A   1      42.795  28.478  33.558  1.00  0.00     0.074 A 
ATOM     45  C   UNL A   1      42.567  29.896  35.552  1.00  0.00     0.049 A 
ATOM     46  N   UNL A   1      41.892  29.010  32.766  1.00  0.00    -0.248 NA
ATOM     47  C   UNL A   1      43.609  27.440  32.906  1.00  0.00     0.031 C 
ATOM     48  C   UNL A   1      42.879  30.457  36.865  1.00  0.00     0.029 A 
ATOM     49  N   UNL A   1      41.610  30.774  35.058  1.00  0.00    -0.354 N 
ATOM     50  C   UNL A   1      42.001  28.336  31.550  1.00  0.00     0.074 A 
ATOM     51  C   UNL A   1      43.121  27.430  31.676  1.00  0.00     0.031 C 
ATOM     52  C   UNL A   1      42.141  31.567  37.073  1.00  0.00     0.029 A 
ATOM     53  C   UNL A   1      41.281  31.812  35.915  1.00  0.00     0.049 A 
ATOM     54  H   UNL A   1      41.199  30.668  34.170  1.00  0.00     0.167 HD
ATOM     55  C   UNL A   1      41.228  28.424  30.437  1.00  0.00     0.037 A 
ATOM     56  C   UNL A   1      40.386  32.823  35.796  1.00  0.00     0.037 A 
ATOM     57  C   UNL A   1      40.156  29.368  30.268  1.00  0.00     0.049 A 
ATOM     58  C   UNL A   1      39.534  32.919  34.543  1.00  0.00     0.074 A 
ATOM     59  C   UNL A   1      39.293  29.519  29.195  1.00  0.00     0.029 A 
ATOM     60  N   UNL A   1      39.814  30.342  31.194  1.00  0.00    -0.354 N 
ATOM     61  N   UNL A   1      39.548  32.158  33.473  1.00  0.00    -0.248 NA
ATOM     62  C   UNL A   1      38.530  33.998  34.486  1.00  0.00     0.031 C 
ATOM     63  C   UNL A   1      38.454  30.608  29.457  1.00  0.00     0.029 A 
ATOM     64  C   UNL A   1      38.759  31.101  30.715  1.00  0.00     0.049 A 
ATOM     65  H   UNL A   1      40.256  30.475  32.063  1.00  0.00     0.167 HD
ATOM     66  C   UNL A   1      38.527  32.630  32.649  1.00  0.00     0.074 A 
ATOM     67  C   UNL A   1      37.910  33.740  33.342  1.00  0.00     0.031 C 
ATOM     68  C   UNL A   1      38.133  32.183  31.430  1.00  0.00     0.037 A 
BRANCH  55  69
ATOM     69  C   UNL A   1      41.483  27.422  29.335  1.00  0.00     0.058 A 
ATOM     70  C   UNL A   1      42.662  27.487  28.573  1.00  0.00     0.135 A 
ATOM     71  C   UNL A   1      40.589  26.375  29.061  1.00  0.00     0.135 A 
ATOM     72  F   UNL A   1      43.552  28.471  28.786  1.00  0.00    -0.206 F 
ATOM     73  C   UNL A   1      42.932  26.573  27.561  1.00  0.00     0.059 A 
ATOM     74  C   UNL A   1      40.853  25.429  28.069  1.00  0.00     0.059 A 
ATOM     75  F   UNL A   1      39.448  26.258  29.757  1.00  0.00    -0.206 F 
ATOM     76  C   UNL A   1      42.022  25.544  27.317  1.00  0.00     0.060 A 
BRANCH  76  77
ATOM     77  S   UNL A   1      42.406  24.358  26.011  1.00  0.00     0.124 S 
ATOM     78  O   UNL A   1      41.509  23.254  26.344  1.00  0.00    -0.237 OA
ATOM     79  O   UNL A   1      42.066  25.106  24.804  1.00  0.00    -0.237 OA
ATOM     80  O   UNL A   1      43.827  24.089  26.199  1.00  0.00    -0.744 OA
ENDBRANCH  76  77
ENDBRANCH  55  69
BRANCH  56  81
ATOM     81  C   UNL A   1      40.169  33.822  36.899  1.00  0.00     0.058 A 
ATOM     82  C   UNL A   1      40.914  35.014  36.956  1.00  0.00     0.135 A 
ATOM     83  C   UNL A   1      39.279  33.581  37.958  1.00  0.00     0.135 A 
ATOM     84  F   UNL A   1      41.799  35.295  35.986  1.00  0.00    -0.206 F 
ATOM     85  C   UNL A   1      40.816  35.904  38.026  1.00  0.00     0.059 A 
ATOM     86  C   UNL A   1      39.140  34.471  39.027  1.00  0.00     0.059 A 
ATOM     87  F   UNL A   1      38.533  32.466  37.968  1.00  0.00    -0.206 F 
ATOM     88  C   UNL A   1      39.927  35.622  39.061  1.00  0.00     0.060 A 
BRANCH  88  89
ATOM     89  S   UNL A   1      39.799  36.789  40.440  1.00  0.00     0.124 S 
ATOM     90  O   UNL A   1      38.355  36.887  40.614  1.00  0.00    -0.237 OA
ATOM     91  O   UNL A   1      40.523  36.092  41.499  1.00  0.00    -0.237 OA
ATOM     92  O   UNL A   1      40.456  37.987  39.929  1.00  0.00    -0.744 OA
ENDBRANCH  88  89
ENDBRANCH  56  81
BRANCH  68  93
ATOM     93  C   UNL A   1      36.940  32.842  30.787  1.00  0.00     0.058 A 
ATOM     94  C   UNL A   1      35.625  32.547  31.176  1.00  0.00     0.135 A 
ATOM     95  C   UNL A   1      37.126  33.837  29.812  1.00  0.00     0.135 A 
ATOM     96  F   UNL A   1      35.389  31.604  32.102  1.00  0.00    -0.206 F 
ATOM     97  C   UNL A   1      34.535  33.201  30.608  1.00  0.00     0.059 A 
ATOM     98  C   UNL A   1      36.054  34.524  29.252  1.00  0.00     0.059 A 
ATOM     99  F   UNL A   1      38.364  34.168  29.411  1.00  0.00    -0.206 F 
ATOM    100  C   UNL A   1      34.760  34.191  29.648  1.00  0.00     0.060 A 
BRANCH 100 101
ATOM    101  S   UNL A   1      33.339  35.060  28.951  1.00  0.00     0.124 S 
ATOM    102  O   UNL A   1      32.908  34.131  27.912  1.00  0.00    -0.237 OA
ATOM    103  O   UNL A   1      32.451  35.180  30.102  1.00  0.00    -0.237 OA
ATOM    104  O   UNL A   1      33.910  36.316  28.473  1.00  0.00    -0.744 OA
ENDBRANCH 100 101
ENDBRANCH  68  93
ENDBRANCH  42  43
ENDBRANCH  34  37
ENDBRANCH  32  33
ENDBRANCH  31  32
ENDBRANCH   1  31
TORSDOF 17
ENDMDL
