MODEL 1
REMARK VINA RESULT:     -13.4      0.000      0.000
REMARK SMILES O=C(Cn1cnc(-c2ccccc2)c1-c1ccccc1)NCCCNC(=O)c1ccc(-c2c3nc(c(-c4c(F)cc(S(=O)(=O)[O-])cc4F)c4ccc([nH]4)c(-c4c(F)cc(S(=O)(=O)[O-])cc4F)c4nc(c(-c5c(F)cc(S(=O)(=O)[O-])cc5F)c5ccc2[nH]5)C=C4)C=C3)cc1
REMARK SMILES IDX 23 1 22 2 21 3 1 4 2 5 3 7 4 8 5 9 14 10 6 11 7 12 15 13
REMARK SMILES IDX 16 14 20 15 17 16 19 17 18 18 8 19 9 20 13 21 10 22 12 23
REMARK SMILES IDX 11 24 24 25 25 26 26 27 27 29 28 30 29 31 93 32 30 33 92 34
REMARK SMILES IDX 31 35 32 36 33 37 86 38 34 39 91 40 85 41 87 42 35 43 90 44
REMARK SMILES IDX 84 45 83 46 36 48 70 49 49 50 69 51 50 52 53 53 68 54 88 55
REMARK SMILES IDX 51 56 52 57 67 59 89 60 54 61 37 62 38 63 47 64 39 65 40 66
REMARK SMILES IDX 46 67 48 68 41 69 42 70 43 71 44 72 45 73 71 74 72 75 81 76
REMARK SMILES IDX 73 77 74 78 80 79 82 80 75 81 76 82 77 83 78 84 79 85 55 86
REMARK SMILES IDX 56 87 65 88 57 89 58 90 64 91 66 92 59 93 60 94 61 95 62 96
REMARK SMILES IDX 63 97
REMARK H PARENT 21 6 25 28 87 47 53 58
REMARK Flexibility Score: inf
ROOT
ATOM      1  C   UNL A   1      36.946  21.243  25.151  1.00  0.00     0.042 C 
ENDROOT
BRANCH   1   2
ATOM      2  C   UNL A   1      35.893  21.978  24.308  1.00  0.00     0.117 C 
BRANCH   2   3
ATOM      3  N   UNL A   1      34.648  22.304  25.008  1.00  0.00    -0.354 N 
ATOM      4  O   UNL A   1      35.225  24.456  25.546  1.00  0.00    -0.273 OA
ATOM      5  C   UNL A   1      34.377  23.565  25.510  1.00  0.00     0.239 C 
ATOM      6  H   UNL A   1      33.975  21.595  25.129  1.00  0.00     0.163 HD
BRANCH   5   7
ATOM      7  C   UNL A   1      32.979  23.791  26.067  1.00  0.00     0.223 C 
BRANCH   7   8
ATOM      8  N   UNL A   1      32.057  24.386  25.108  1.00  0.00    -0.321 N 
ATOM      9  C   UNL A   1      31.333  23.717  24.160  1.00  0.00     0.201 A 
ATOM     10  C   UNL A   1      31.759  25.716  24.960  1.00  0.00     0.076 A 
ATOM     11  N   UNL A   1      30.551  24.524  23.469  1.00  0.00    -0.236 NA
ATOM     12  C   UNL A   1      30.831  25.784  23.935  1.00  0.00     0.096 A 
BRANCH  10  13
ATOM     13  C   UNL A   1      32.244  26.768  25.810  1.00  0.00     0.000 A 
ATOM     14  C   UNL A   1      31.401  27.218  26.837  1.00  0.00     0.010 A 
ATOM     15  C   UNL A   1      33.485  27.359  25.548  1.00  0.00     0.010 A 
ATOM     16  C   UNL A   1      31.790  28.287  27.593  1.00  0.00     0.001 A 
ATOM     17  C   UNL A   1      33.903  28.390  26.346  1.00  0.00     0.001 A 
ATOM     18  C   UNL A   1      33.038  28.826  27.334  1.00  0.00     0.000 A 
ENDBRANCH  10  13
BRANCH  12  19
ATOM     19  C   UNL A   1      30.170  27.023  23.525  1.00  0.00     0.002 A 
ATOM     20  C   UNL A   1      30.893  28.002  22.836  1.00  0.00     0.010 A 
ATOM     21  C   UNL A   1      28.776  27.180  23.653  1.00  0.00     0.010 A 
ATOM     22  C   UNL A   1      30.236  29.100  22.265  1.00  0.00     0.001 A 
ATOM     23  C   UNL A   1      28.121  28.275  23.079  1.00  0.00     0.001 A 
ATOM     24  C   UNL A   1      28.852  29.233  22.382  1.00  0.00     0.000 A 
ENDBRANCH  12  19
ENDBRANCH   7   8
ENDBRANCH   5   7
ENDBRANCH   2   3
ENDBRANCH   1   2
BRANCH   1  25
ATOM     25  C   UNL A   1      37.981  22.181  25.744  1.00  0.00     0.118 C 
BRANCH  25  26
ATOM     26  N   UNL A   1      39.375  21.757  25.761  1.00  0.00    -0.352 N 
ATOM     27  C   UNL A   1      40.512  22.423  26.234  1.00  0.00     0.251 C 
ATOM     28  H   UNL A   1      39.544  20.864  25.382  1.00  0.00     0.163 HD
ATOM     29  O   UNL A   1      41.607  21.928  26.016  1.00  0.00    -0.269 OA
BRANCH  27  30
ATOM     30  C   UNL A   1      40.424  23.694  27.030  1.00  0.00     0.039 A 
ATOM     31  C   UNL A   1      39.412  24.652  26.830  1.00  0.00     0.014 A 
ATOM     32  C   UNL A   1      41.404  24.016  27.944  1.00  0.00     0.014 A 
ATOM     33  C   UNL A   1      39.494  25.923  27.451  1.00  0.00     0.010 A 
ATOM     34  C   UNL A   1      41.418  25.189  28.644  1.00  0.00     0.010 A 
ATOM     35  C   UNL A   1      40.567  26.212  28.292  1.00  0.00    -0.014 A 
BRANCH  35  36
ATOM     36  C   UNL A   1      40.820  27.424  29.064  1.00  0.00     0.031 A 
ATOM     37  C   UNL A   1      41.780  28.302  28.364  1.00  0.00     0.074 A 
ATOM     38  C   UNL A   1      40.038  27.932  30.050  1.00  0.00     0.049 A 
ATOM     39  N   UNL A   1      43.025  28.383  28.681  1.00  0.00    -0.248 NA
ATOM     40  C   UNL A   1      41.443  28.964  27.091  1.00  0.00     0.031 C 
ATOM     41  C   UNL A   1      38.892  27.363  30.763  1.00  0.00     0.029 A 
ATOM     42  N   UNL A   1      40.048  29.205  30.539  1.00  0.00    -0.354 N 
ATOM     43  C   UNL A   1      43.556  29.328  27.827  1.00  0.00     0.074 A 
ATOM     44  C   UNL A   1      42.646  29.412  26.717  1.00  0.00     0.031 C 
ATOM     45  C   UNL A   1      38.145  28.349  31.320  1.00  0.00     0.029 A 
ATOM     46  C   UNL A   1      38.903  29.583  31.241  1.00  0.00     0.049 A 
ATOM     47  H   UNL A   1      40.809  29.816  30.405  1.00  0.00     0.167 HD
ATOM     48  C   UNL A   1      44.530  30.170  28.263  1.00  0.00     0.037 A 
ATOM     49  C   UNL A   1      38.645  30.784  31.824  1.00  0.00     0.037 A 
ATOM     50  C   UNL A   1      44.980  29.791  29.588  1.00  0.00     0.049 A 
ATOM     51  C   UNL A   1      39.978  31.377  32.117  1.00  0.00     0.074 A 
ATOM     52  C   UNL A   1      45.472  28.621  30.141  1.00  0.00     0.029 A 
ATOM     53  N   UNL A   1      44.527  30.542  30.652  1.00  0.00    -0.354 N 
ATOM     54  N   UNL A   1      40.818  30.850  32.971  1.00  0.00    -0.248 NA
ATOM     55  C   UNL A   1      40.578  32.235  31.108  1.00  0.00     0.031 C 
ATOM     56  C   UNL A   1      44.846  28.522  31.420  1.00  0.00     0.029 A 
ATOM     57  C   UNL A   1      44.085  29.676  31.623  1.00  0.00     0.049 A 
ATOM     58  H   UNL A   1      44.521  31.525  30.706  1.00  0.00     0.167 HD
ATOM     59  C   UNL A   1      42.049  30.914  32.335  1.00  0.00     0.074 A 
ATOM     60  C   UNL A   1      41.857  31.869  31.241  1.00  0.00     0.031 C 
ATOM     61  C   UNL A   1      43.015  29.971  32.557  1.00  0.00     0.037 A 
BRANCH  48  62
ATOM     62  C   UNL A   1      44.817  31.525  27.682  1.00  0.00     0.058 A 
ATOM     63  C   UNL A   1      46.045  31.718  27.021  1.00  0.00     0.135 A 
ATOM     64  C   UNL A   1      44.063  32.691  27.936  1.00  0.00     0.135 A 
ATOM     65  F   UNL A   1      46.840  30.675  26.736  1.00  0.00    -0.206 F 
ATOM     66  C   UNL A   1      46.524  32.985  26.703  1.00  0.00     0.059 A 
ATOM     67  C   UNL A   1      44.492  33.959  27.567  1.00  0.00     0.059 A 
ATOM     68  F   UNL A   1      42.927  32.677  28.643  1.00  0.00    -0.206 F 
ATOM     69  C   UNL A   1      45.743  34.100  26.992  1.00  0.00     0.060 A 
BRANCH  69  70
ATOM     70  S   UNL A   1      46.406  35.740  26.676  1.00  0.00     0.124 S 
ATOM     71  O   UNL A   1      47.399  35.858  27.738  1.00  0.00    -0.237 OA
ATOM     72  O   UNL A   1      46.928  35.598  25.321  1.00  0.00    -0.237 OA
ATOM     73  O   UNL A   1      45.236  36.604  26.805  1.00  0.00    -0.744 OA
ENDBRANCH  69  70
ENDBRANCH  48  62
BRANCH  49  74
ATOM     74  C   UNL A   1      37.374  31.561  31.882  1.00  0.00     0.058 A 
ATOM     75  C   UNL A   1      36.788  31.925  33.111  1.00  0.00     0.135 A 
ATOM     76  C   UNL A   1      36.865  32.219  30.744  1.00  0.00     0.135 A 
ATOM     77  F   UNL A   1      37.215  31.363  34.252  1.00  0.00    -0.206 F 
ATOM     78  C   UNL A   1      35.806  32.922  33.213  1.00  0.00     0.059 A 
ATOM     79  C   UNL A   1      35.883  33.213  30.821  1.00  0.00     0.059 A 
ATOM     80  F   UNL A   1      37.380  31.979  29.528  1.00  0.00    -0.206 F 
ATOM     81  C   UNL A   1      35.378  33.581  32.063  1.00  0.00     0.060 A 
BRANCH  81  82
ATOM     82  S   UNL A   1      34.262  35.003  32.211  1.00  0.00     0.124 S 
ATOM     83  O   UNL A   1      35.020  35.894  33.081  1.00  0.00    -0.237 OA
ATOM     84  O   UNL A   1      34.122  35.432  30.825  1.00  0.00    -0.237 OA
ATOM     85  O   UNL A   1      33.058  34.425  32.805  1.00  0.00    -0.744 OA
ENDBRANCH  81  82
ENDBRANCH  49  74
BRANCH  61  86
ATOM     86  C   UNL A   1      42.859  29.020  33.725  1.00  0.00     0.058 A 
ATOM     87  C   UNL A   1      43.118  29.343  35.069  1.00  0.00     0.135 A 
ATOM     88  C   UNL A   1      42.254  27.777  33.485  1.00  0.00     0.135 A 
ATOM     89  F   UNL A   1      43.601  30.540  35.413  1.00  0.00    -0.206 F 
ATOM     90  C   UNL A   1      42.824  28.466  36.117  1.00  0.00     0.059 A 
ATOM     91  C   UNL A   1      41.925  26.897  34.514  1.00  0.00     0.059 A 
ATOM     92  F   UNL A   1      41.925  27.422  32.232  1.00  0.00    -0.206 F 
ATOM     93  C   UNL A   1      42.224  27.244  35.830  1.00  0.00     0.060 A 
BRANCH  93  94
ATOM     94  S   UNL A   1      41.787  26.139  37.189  1.00  0.00     0.124 S 
ATOM     95  O   UNL A   1      42.883  26.357  38.126  1.00  0.00    -0.237 OA
ATOM     96  O   UNL A   1      40.484  26.650  37.607  1.00  0.00    -0.237 OA
ATOM     97  O   UNL A   1      41.756  24.820  36.560  1.00  0.00    -0.744 OA
ENDBRANCH  93  94
ENDBRANCH  61  86
ENDBRANCH  35  36
ENDBRANCH  27  30
ENDBRANCH  25  26
ENDBRANCH   1  25
TORSDOF 16
ENDMDL
MODEL 2
REMARK VINA RESULT:     -12.1      2.042      3.157
REMARK SMILES O=C(Cn1cnc(-c2ccccc2)c1-c1ccccc1)NCCCNC(=O)c1ccc(-c2c3nc(c(-c4c(F)cc(S(=O)(=O)[O-])cc4F)c4ccc([nH]4)c(-c4c(F)cc(S(=O)(=O)[O-])cc4F)c4nc(c(-c5c(F)cc(S(=O)(=O)[O-])cc5F)c5ccc2[nH]5)C=C4)C=C3)cc1
REMARK SMILES IDX 23 1 22 2 21 3 1 4 2 5 3 7 4 8 5 9 14 10 6 11 7 12 15 13
REMARK SMILES IDX 16 14 20 15 17 16 19 17 18 18 8 19 9 20 13 21 10 22 12 23
REMARK SMILES IDX 11 24 24 25 25 26 26 27 27 29 28 30 29 31 93 32 30 33 92 34
REMARK SMILES IDX 31 35 32 36 33 37 86 38 34 39 91 40 85 41 87 42 35 43 90 44
REMARK SMILES IDX 84 45 83 46 36 48 70 49 49 50 69 51 50 52 53 53 68 54 88 55
REMARK SMILES IDX 51 56 52 57 67 59 89 60 54 61 37 62 38 63 47 64 39 65 40 66
REMARK SMILES IDX 46 67 48 68 41 69 42 70 43 71 44 72 45 73 71 74 72 75 81 76
REMARK SMILES IDX 73 77 74 78 80 79 82 80 75 81 76 82 77 83 78 84 79 85 55 86
REMARK SMILES IDX 56 87 65 88 57 89 58 90 64 91 66 92 59 93 60 94 61 95 62 96
REMARK SMILES IDX 63 97
REMARK H PARENT 21 6 25 28 87 47 53 58
REMARK Flexibility Score: inf
ROOT
ATOM      1  C   UNL A   1      40.803  20.865  26.177  1.00  0.00     0.042 C 
ENDROOT
BRANCH   1   2
ATOM      2  C   UNL A   1      39.686  21.919  26.179  1.00  0.00     0.117 C 
BRANCH   2   3
ATOM      3  N   UNL A   1      38.322  21.385  26.147  1.00  0.00    -0.354 N 
ATOM      4  O   UNL A   1      37.380  23.180  25.079  1.00  0.00    -0.273 OA
ATOM      5  C   UNL A   1      37.275  22.035  25.517  1.00  0.00     0.239 C 
ATOM      6  H   UNL A   1      38.141  20.526  26.594  1.00  0.00     0.163 HD
BRANCH   5   7
ATOM      7  C   UNL A   1      35.957  21.280  25.429  1.00  0.00     0.223 C 
BRANCH   7   8
ATOM      8  N   UNL A   1      34.877  21.902  26.184  1.00  0.00    -0.321 N 
ATOM      9  C   UNL A   1      34.702  21.850  27.540  1.00  0.00     0.201 A 
ATOM     10  C   UNL A   1      33.829  22.632  25.683  1.00  0.00     0.076 A 
ATOM     11  N   UNL A   1      33.656  22.550  27.935  1.00  0.00    -0.236 NA
ATOM     12  C   UNL A   1      33.079  23.019  26.781  1.00  0.00     0.096 A 
BRANCH  10  13
ATOM     13  C   UNL A   1      33.666  22.999  24.304  1.00  0.00     0.000 A 
ATOM     14  C   UNL A   1      34.214  24.220  23.884  1.00  0.00     0.010 A 
ATOM     15  C   UNL A   1      32.914  22.184  23.451  1.00  0.00     0.010 A 
ATOM     16  C   UNL A   1      33.984  24.646  22.607  1.00  0.00     0.001 A 
ATOM     17  C   UNL A   1      32.736  22.580  22.152  1.00  0.00     0.001 A 
ATOM     18  C   UNL A   1      33.267  23.802  21.777  1.00  0.00     0.000 A 
ENDBRANCH  10  13
BRANCH  12  19
ATOM     19  C   UNL A   1      31.920  23.906  26.694  1.00  0.00     0.002 A 
ATOM     20  C   UNL A   1      32.102  25.265  26.420  1.00  0.00     0.010 A 
ATOM     21  C   UNL A   1      30.608  23.392  26.709  1.00  0.00     0.010 A 
ATOM     22  C   UNL A   1      31.003  26.088  26.139  1.00  0.00     0.001 A 
ATOM     23  C   UNL A   1      29.512  24.213  26.425  1.00  0.00     0.001 A 
ATOM     24  C   UNL A   1      29.711  25.561  26.137  1.00  0.00     0.000 A 
ENDBRANCH  12  19
ENDBRANCH   7   8
ENDBRANCH   5   7
ENDBRANCH   2   3
ENDBRANCH   1   2
BRANCH   1  25
ATOM     25  C   UNL A   1      42.129  21.415  26.666  1.00  0.00     0.118 C 
BRANCH  25  26
ATOM     26  N   UNL A   1      43.055  21.973  25.688  1.00  0.00    -0.352 N 
ATOM     27  C   UNL A   1      43.321  23.308  25.362  1.00  0.00     0.251 C 
ATOM     28  H   UNL A   1      43.572  21.309  25.178  1.00  0.00     0.163 HD
ATOM     29  O   UNL A   1      44.041  23.537  24.403  1.00  0.00    -0.269 OA
BRANCH  27  30
ATOM     30  C   UNL A   1      42.789  24.455  26.173  1.00  0.00     0.039 A 
ATOM     31  C   UNL A   1      41.644  25.185  25.803  1.00  0.00     0.014 A 
ATOM     32  C   UNL A   1      43.467  24.898  27.289  1.00  0.00     0.014 A 
ATOM     33  C   UNL A   1      41.307  26.384  26.479  1.00  0.00     0.010 A 
ATOM     34  C   UNL A   1      43.072  25.978  28.023  1.00  0.00     0.010 A 
ATOM     35  C   UNL A   1      42.097  26.821  27.541  1.00  0.00    -0.014 A 
BRANCH  35  36
ATOM     36  C   UNL A   1      41.906  27.986  28.399  1.00  0.00     0.031 A 
ATOM     37  C   UNL A   1      42.887  29.043  28.076  1.00  0.00     0.074 A 
ATOM     38  C   UNL A   1      40.788  28.297  29.104  1.00  0.00     0.049 A 
ATOM     39  N   UNL A   1      43.944  29.265  28.775  1.00  0.00    -0.248 NA
ATOM     40  C   UNL A   1      42.861  29.759  26.788  1.00  0.00     0.031 C 
ATOM     41  C   UNL A   1      39.582  27.519  29.391  1.00  0.00     0.029 A 
ATOM     42  N   UNL A   1      40.448  29.513  29.618  1.00  0.00    -0.354 N 
ATOM     43  C   UNL A   1      44.559  30.342  28.172  1.00  0.00     0.074 A 
ATOM     44  C   UNL A   1      44.036  30.396  26.834  1.00  0.00     0.031 C 
ATOM     45  C   UNL A   1      38.555  28.343  29.719  1.00  0.00     0.029 A 
ATOM     46  C   UNL A   1      39.098  29.671  29.932  1.00  0.00     0.049 A 
ATOM     47  H   UNL A   1      41.109  30.230  29.757  1.00  0.00     0.167 HD
ATOM     48  C   UNL A   1      45.206  31.268  28.928  1.00  0.00     0.037 A 
ATOM     49  C   UNL A   1      38.489  30.771  30.449  1.00  0.00     0.037 A 
ATOM     50  C   UNL A   1      45.278  30.842  30.312  1.00  0.00     0.049 A 
ATOM     51  C   UNL A   1      39.556  31.512  31.174  1.00  0.00     0.074 A 
ATOM     52  C   UNL A   1      45.751  29.707  30.947  1.00  0.00     0.029 A 
ATOM     53  N   UNL A   1      44.407  31.431  31.204  1.00  0.00    -0.354 N 
ATOM     54  N   UNL A   1      40.162  31.033  32.230  1.00  0.00    -0.248 NA
ATOM     55  C   UNL A   1      40.298  32.527  30.442  1.00  0.00     0.031 C 
ATOM     56  C   UNL A   1      44.784  29.415  31.955  1.00  0.00     0.029 A 
ATOM     57  C   UNL A   1      43.827  30.433  31.950  1.00  0.00     0.049 A 
ATOM     58  H   UNL A   1      44.232  32.395  31.290  1.00  0.00     0.167 HD
ATOM     59  C   UNL A   1      41.504  31.317  32.023  1.00  0.00     0.074 A 
ATOM     60  C   UNL A   1      41.514  32.328  30.962  1.00  0.00     0.031 C 
ATOM     61  C   UNL A   1      42.489  30.499  32.504  1.00  0.00     0.037 A 
BRANCH  48  62
ATOM     62  C   UNL A   1      45.445  32.694  28.521  1.00  0.00     0.058 A 
ATOM     63  C   UNL A   1      46.770  33.170  28.508  1.00  0.00     0.135 A 
ATOM     64  C   UNL A   1      44.438  33.671  28.368  1.00  0.00     0.135 A 
ATOM     65  F   UNL A   1      47.802  32.323  28.650  1.00  0.00    -0.206 F 
ATOM     66  C   UNL A   1      47.070  34.526  28.425  1.00  0.00     0.059 A 
ATOM     67  C   UNL A   1      44.718  35.023  28.217  1.00  0.00     0.059 A 
ATOM     68  F   UNL A   1      43.133  33.386  28.460  1.00  0.00    -0.206 F 
ATOM     69  C   UNL A   1      46.034  35.445  28.291  1.00  0.00     0.060 A 
BRANCH  69  70
ATOM     70  S   UNL A   1      46.415  37.201  28.288  1.00  0.00     0.124 S 
ATOM     71  O   UNL A   1      45.406  37.711  27.366  1.00  0.00    -0.237 OA
ATOM     72  O   UNL A   1      46.236  37.551  29.694  1.00  0.00    -0.237 OA
ATOM     73  O   UNL A   1      47.792  37.244  27.807  1.00  0.00    -0.744 OA
ENDBRANCH  69  70
ENDBRANCH  48  62
BRANCH  49  74
ATOM     74  C   UNL A   1      37.157  31.361  30.129  1.00  0.00     0.058 A 
ATOM     75  C   UNL A   1      36.355  31.954  31.124  1.00  0.00     0.135 A 
ATOM     76  C   UNL A   1      36.773  31.623  28.798  1.00  0.00     0.135 A 
ATOM     77  F   UNL A   1      36.650  31.774  32.420  1.00  0.00    -0.206 F 
ATOM     78  C   UNL A   1      35.281  32.803  30.821  1.00  0.00     0.059 A 
ATOM     79  C   UNL A   1      35.703  32.463  28.471  1.00  0.00     0.059 A 
ATOM     80  F   UNL A   1      37.491  31.143  27.771  1.00  0.00    -0.206 F 
ATOM     81  C   UNL A   1      34.977  33.074  29.488  1.00  0.00     0.060 A 
BRANCH  81  82
ATOM     82  S   UNL A   1      33.724  34.324  29.093  1.00  0.00     0.124 S 
ATOM     83  O   UNL A   1      33.220  34.676  30.415  1.00  0.00    -0.237 OA
ATOM     84  O   UNL A   1      34.512  35.348  28.417  1.00  0.00    -0.237 OA
ATOM     85  O   UNL A   1      32.786  33.600  28.239  1.00  0.00    -0.744 OA
ENDBRANCH  81  82
ENDBRANCH  49  74
BRANCH  61  86
ATOM     86  C   UNL A   1      42.128  29.440  33.524  1.00  0.00     0.058 A 
ATOM     87  C   UNL A   1      41.812  28.103  33.223  1.00  0.00     0.135 A 
ATOM     88  C   UNL A   1      42.279  29.757  34.883  1.00  0.00     0.135 A 
ATOM     89  F   UNL A   1      41.742  27.676  31.959  1.00  0.00    -0.206 F 
ATOM     90  C   UNL A   1      41.622  27.139  34.217  1.00  0.00     0.059 A 
ATOM     91  C   UNL A   1      42.123  28.807  35.892  1.00  0.00     0.059 A 
ATOM     92  F   UNL A   1      42.636  31.000  35.246  1.00  0.00    -0.206 F 
ATOM     93  C   UNL A   1      41.782  27.500  35.551  1.00  0.00     0.060 A 
BRANCH  93  94
ATOM     94  S   UNL A   1      41.600  26.239  36.831  1.00  0.00     0.124 S 
ATOM     95  O   UNL A   1      42.796  26.447  37.638  1.00  0.00    -0.237 OA
ATOM     96  O   UNL A   1      40.336  26.609  37.462  1.00  0.00    -0.237 OA
ATOM     97  O   UNL A   1      41.567  24.989  36.074  1.00  0.00    -0.744 OA
ENDBRANCH  93  94
ENDBRANCH  61  86
ENDBRANCH  35  36
ENDBRANCH  27  30
ENDBRANCH  25  26
ENDBRANCH   1  25
TORSDOF 16
ENDMDL
MODEL 3
REMARK VINA RESULT:     -11.8      4.499     12.150
REMARK SMILES O=C(Cn1cnc(-c2ccccc2)c1-c1ccccc1)NCCCNC(=O)c1ccc(-c2c3nc(c(-c4c(F)cc(S(=O)(=O)[O-])cc4F)c4ccc([nH]4)c(-c4c(F)cc(S(=O)(=O)[O-])cc4F)c4nc(c(-c5c(F)cc(S(=O)(=O)[O-])cc5F)c5ccc2[nH]5)C=C4)C=C3)cc1
REMARK SMILES IDX 23 1 22 2 21 3 1 4 2 5 3 7 4 8 5 9 14 10 6 11 7 12 15 13
REMARK SMILES IDX 16 14 20 15 17 16 19 17 18 18 8 19 9 20 13 21 10 22 12 23
REMARK SMILES IDX 11 24 24 25 25 26 26 27 27 29 28 30 29 31 93 32 30 33 92 34
REMARK SMILES IDX 31 35 32 36 33 37 86 38 34 39 91 40 85 41 87 42 35 43 90 44
REMARK SMILES IDX 84 45 83 46 36 48 70 49 49 50 69 51 50 52 53 53 68 54 88 55
REMARK SMILES IDX 51 56 52 57 67 59 89 60 54 61 37 62 38 63 47 64 39 65 40 66
REMARK SMILES IDX 46 67 48 68 41 69 42 70 43 71 44 72 45 73 71 74 72 75 81 76
REMARK SMILES IDX 73 77 74 78 80 79 82 80 75 81 76 82 77 83 78 84 79 85 55 86
REMARK SMILES IDX 56 87 65 88 57 89 58 90 64 91 66 92 59 93 60 94 61 95 62 96
REMARK SMILES IDX 63 97
REMARK H PARENT 21 6 25 28 87 47 53 58
REMARK Flexibility Score: inf
ROOT
ATOM      1  C   UNL A   1      34.786  32.561  32.073  1.00  0.00     0.042 C 
ENDROOT
BRANCH   1   2
ATOM      2  C   UNL A   1      36.103  32.126  32.734  1.00  0.00     0.117 C 
BRANCH   2   3
ATOM      3  N   UNL A   1      36.903  33.211  33.307  1.00  0.00    -0.354 N 
ATOM      4  O   UNL A   1      38.823  32.740  32.147  1.00  0.00    -0.273 OA
ATOM      5  C   UNL A   1      38.197  33.485  32.901  1.00  0.00     0.239 C 
ATOM      6  H   UNL A   1      36.503  33.770  34.012  1.00  0.00     0.163 HD
BRANCH   5   7
ATOM      7  C   UNL A   1      38.840  34.741  33.471  1.00  0.00     0.223 C 
BRANCH   7   8
ATOM      8  N   UNL A   1      40.196  34.532  33.964  1.00  0.00    -0.321 N 
ATOM      9  C   UNL A   1      41.350  34.949  33.360  1.00  0.00     0.201 A 
ATOM     10  C   UNL A   1      40.570  33.865  35.102  1.00  0.00     0.076 A 
ATOM     11  N   UNL A   1      42.420  34.650  34.070  1.00  0.00    -0.236 NA
ATOM     12  C   UNL A   1      41.951  33.941  35.149  1.00  0.00     0.096 A 
BRANCH  10  13
ATOM     13  C   UNL A   1      39.662  33.329  36.078  1.00  0.00     0.000 A 
ATOM     14  C   UNL A   1      39.222  32.008  35.904  1.00  0.00     0.010 A 
ATOM     15  C   UNL A   1      39.188  34.145  37.111  1.00  0.00     0.010 A 
ATOM     16  C   UNL A   1      38.278  31.506  36.753  1.00  0.00     0.001 A 
ATOM     17  C   UNL A   1      38.289  33.622  38.001  1.00  0.00     0.001 A 
ATOM     18  C   UNL A   1      37.856  32.325  37.786  1.00  0.00     0.000 A 
ENDBRANCH  10  13
BRANCH  12  19
ATOM     19  C   UNL A   1      42.751  33.440  36.266  1.00  0.00     0.002 A 
ATOM     20  C   UNL A   1      43.345  32.177  36.185  1.00  0.00     0.010 A 
ATOM     21  C   UNL A   1      43.082  34.271  37.354  1.00  0.00     0.010 A 
ATOM     22  C   UNL A   1      44.270  31.763  37.152  1.00  0.00     0.001 A 
ATOM     23  C   UNL A   1      44.008  33.859  38.317  1.00  0.00     0.001 A 
ATOM     24  C   UNL A   1      44.604  32.605  38.214  1.00  0.00     0.000 A 
ENDBRANCH  12  19
ENDBRANCH   7   8
ENDBRANCH   5   7
ENDBRANCH   2   3
ENDBRANCH   1   2
BRANCH   1  25
ATOM     25  C   UNL A   1      34.995  33.193  30.710  1.00  0.00     0.118 C 
BRANCH  25  26
ATOM     26  N   UNL A   1      34.205  32.703  29.587  1.00  0.00    -0.352 N 
ATOM     27  C   UNL A   1      34.576  31.880  28.518  1.00  0.00     0.251 C 
ATOM     28  H   UNL A   1      33.266  32.997  29.580  1.00  0.00     0.163 HD
ATOM     29  O   UNL A   1      33.776  31.713  27.610  1.00  0.00    -0.269 OA
BRANCH  27  30
ATOM     30  C   UNL A   1      35.898  31.169  28.473  1.00  0.00     0.039 A 
ATOM     31  C   UNL A   1      36.020  29.802  28.159  1.00  0.00     0.014 A 
ATOM     32  C   UNL A   1      37.058  31.824  28.830  1.00  0.00     0.014 A 
ATOM     33  C   UNL A   1      37.256  29.132  28.337  1.00  0.00     0.010 A 
ATOM     34  C   UNL A   1      38.277  31.212  28.878  1.00  0.00     0.010 A 
ATOM     35  C   UNL A   1      38.365  29.841  28.793  1.00  0.00    -0.014 A 
BRANCH  35  36
ATOM     36  C   UNL A   1      39.730  29.366  28.997  1.00  0.00     0.031 A 
ATOM     37  C   UNL A   1      39.974  29.065  30.423  1.00  0.00     0.074 A 
ATOM     38  C   UNL A   1      40.560  28.859  28.049  1.00  0.00     0.049 A 
ATOM     39  N   UNL A   1      40.612  29.854  31.214  1.00  0.00    -0.248 NA
ATOM     40  C   UNL A   1      39.290  27.955  31.110  1.00  0.00     0.031 C 
ATOM     41  C   UNL A   1      40.452  28.829  26.589  1.00  0.00     0.029 A 
ATOM     42  N   UNL A   1      41.674  28.100  28.249  1.00  0.00    -0.354 N 
ATOM     43  C   UNL A   1      40.657  29.196  32.425  1.00  0.00     0.074 A 
ATOM     44  C   UNL A   1      39.602  28.220  32.383  1.00  0.00     0.031 C 
ATOM     45  C   UNL A   1      41.242  27.851  26.078  1.00  0.00     0.029 A 
ATOM     46  C   UNL A   1      42.109  27.377  27.138  1.00  0.00     0.049 A 
ATOM     47  H   UNL A   1      42.140  28.065  29.116  1.00  0.00     0.167 HD
ATOM     48  C   UNL A   1      41.752  29.309  33.222  1.00  0.00     0.037 A 
ATOM     49  C   UNL A   1      43.180  26.543  27.059  1.00  0.00     0.037 A 
ATOM     50  C   UNL A   1      42.672  30.298  32.694  1.00  0.00     0.049 A 
ATOM     51  C   UNL A   1      44.122  27.004  28.114  1.00  0.00     0.074 A 
ATOM     52  C   UNL A   1      42.553  31.629  32.335  1.00  0.00     0.029 A 
ATOM     53  N   UNL A   1      43.794  29.836  32.039  1.00  0.00    -0.354 N 
ATOM     54  N   UNL A   1      44.704  28.174  28.084  1.00  0.00    -0.248 NA
ATOM     55  C   UNL A   1      44.017  26.397  29.432  1.00  0.00     0.031 C 
ATOM     56  C   UNL A   1      43.297  31.756  31.124  1.00  0.00     0.029 A 
ATOM     57  C   UNL A   1      43.909  30.529  30.858  1.00  0.00     0.049 A 
ATOM     58  H   UNL A   1      44.403  29.133  32.361  1.00  0.00     0.167 HD
ATOM     59  C   UNL A   1      44.601  28.650  29.383  1.00  0.00     0.074 A 
ATOM     60  C   UNL A   1      44.265  27.472  30.188  1.00  0.00     0.031 C 
ATOM     61  C   UNL A   1      44.494  29.988  29.646  1.00  0.00     0.037 A 
BRANCH  48  62
ATOM     62  C   UNL A   1      42.175  28.298  34.250  1.00  0.00     0.058 A 
ATOM     63  C   UNL A   1      42.059  28.642  35.609  1.00  0.00     0.135 A 
ATOM     64  C   UNL A   1      42.893  27.114  33.972  1.00  0.00     0.135 A 
ATOM     65  F   UNL A   1      41.398  29.750  35.980  1.00  0.00    -0.206 F 
ATOM     66  C   UNL A   1      42.675  27.905  36.616  1.00  0.00     0.059 A 
ATOM     67  C   UNL A   1      43.460  26.329  34.966  1.00  0.00     0.059 A 
ATOM     68  F   UNL A   1      43.173  26.713  32.726  1.00  0.00    -0.206 F 
ATOM     69  C   UNL A   1      43.384  26.756  36.281  1.00  0.00     0.060 A 
BRANCH  69  70
ATOM     70  S   UNL A   1      44.266  25.864  37.567  1.00  0.00     0.124 S 
ATOM     71  O   UNL A   1      45.639  26.294  37.325  1.00  0.00    -0.237 OA
ATOM     72  O   UNL A   1      43.636  26.380  38.779  1.00  0.00    -0.237 OA
ATOM     73  O   UNL A   1      43.977  24.466  37.263  1.00  0.00    -0.744 OA
ENDBRANCH  69  70
ENDBRANCH  48  62
BRANCH  49  74
ATOM     74  C   UNL A   1      43.319  25.236  26.352  1.00  0.00     0.058 A 
ATOM     75  C   UNL A   1      44.269  25.050  25.328  1.00  0.00     0.135 A 
ATOM     76  C   UNL A   1      42.734  24.061  26.864  1.00  0.00     0.135 A 
ATOM     77  F   UNL A   1      44.891  26.108  24.787  1.00  0.00    -0.206 F 
ATOM     78  C   UNL A   1      44.661  23.778  24.885  1.00  0.00     0.059 A 
ATOM     79  C   UNL A   1      43.105  22.782  26.435  1.00  0.00     0.059 A 
ATOM     80  F   UNL A   1      41.848  24.120  27.870  1.00  0.00    -0.206 F 
ATOM     81  C   UNL A   1      44.091  22.646  25.464  1.00  0.00     0.060 A 
BRANCH  81  82
ATOM     82  S   UNL A   1      44.736  21.005  25.039  1.00  0.00     0.124 S 
ATOM     83  O   UNL A   1      44.621  21.000  23.586  1.00  0.00    -0.237 OA
ATOM     84  O   UNL A   1      46.092  21.059  25.572  1.00  0.00    -0.237 OA
ATOM     85  O   UNL A   1      43.831  20.097  25.741  1.00  0.00    -0.744 OA
ENDBRANCH  81  82
ENDBRANCH  49  74
BRANCH  61  86
ATOM     86  C   UNL A   1      44.792  30.979  28.541  1.00  0.00     0.058 A 
ATOM     87  C   UNL A   1      43.897  31.340  27.518  1.00  0.00     0.135 A 
ATOM     88  C   UNL A   1      45.980  31.722  28.625  1.00  0.00     0.135 A 
ATOM     89  F   UNL A   1      42.698  30.761  27.410  1.00  0.00    -0.206 F 
ATOM     90  C   UNL A   1      44.179  32.361  26.606  1.00  0.00     0.059 A 
ATOM     91  C   UNL A   1      46.271  32.764  27.746  1.00  0.00     0.059 A 
ATOM     92  F   UNL A   1      46.857  31.473  29.611  1.00  0.00    -0.206 F 
ATOM     93  C   UNL A   1      45.369  33.071  26.730  1.00  0.00     0.060 A 
BRANCH  93  94
ATOM     94  S   UNL A   1      45.703  34.432  25.591  1.00  0.00     0.124 S 
ATOM     95  O   UNL A   1      47.149  34.341  25.420  1.00  0.00    -0.237 OA
ATOM     96  O   UNL A   1      44.902  34.073  24.424  1.00  0.00    -0.237 OA
ATOM     97  O   UNL A   1      45.234  35.609  26.320  1.00  0.00    -0.744 OA
ENDBRANCH  93  94
ENDBRANCH  61  86
ENDBRANCH  35  36
ENDBRANCH  27  30
ENDBRANCH  25  26
ENDBRANCH   1  25
TORSDOF 16
ENDMDL
