MODEL 1
REMARK VINA RESULT:     -12.1      0.000      0.000
REMARK SMILES Cc1cc(Br)cc2c1O[C@H](C(F)(F)F)C(C(=O)NCCCNC(=O)c1ccc(-c3c4nc(c(-c5c(F)cc(S(=O)(=O)[O-])cc5F)c5ccc([nH]5)c(-c5c(F)cc(S(=O)(=O)[O-])cc5F)c5nc(c(-c6c(F)cc(S(=O)(=O)[O-])cc6F)c6ccc3[nH]6)C=C5)C=C4)cc1)=C2
REMARK SMILES IDX 21 1 20 2 19 3 18 4 16 5 17 6 15 8 1 9 2 10 3 11 8 12 4 13
REMARK SMILES IDX 7 14 9 15 5 16 6 17 91 18 10 19 11 20 12 21 13 22 14 23
REMARK SMILES IDX 22 24 23 25 24 27 25 28 26 29 90 30 27 31 89 32 28 33 29 34
REMARK SMILES IDX 30 35 83 36 31 37 88 38 82 39 84 40 32 41 87 42 81 43 80 44
REMARK SMILES IDX 33 46 67 47 46 48 66 49 47 50 50 51 65 52 85 53 48 54 49 55
REMARK SMILES IDX 64 57 86 58 51 59 34 60 35 61 44 62 36 63 37 64 43 65 45 66
REMARK SMILES IDX 38 67 39 68 40 69 41 70 42 71 68 72 69 73 78 74 70 75 71 76
REMARK SMILES IDX 77 77 79 78 72 79 73 80 74 81 75 82 76 83 52 84 53 85 62 86
REMARK SMILES IDX 54 87 55 88 61 89 63 90 56 91 57 92 58 93 59 94 60 95
REMARK H PARENT 18 7 22 26 84 45 50 56
REMARK Flexibility Score: inf
ROOT
ATOM      1  C   UNL A   1      33.634  28.317  27.021  1.00  0.00     0.118 C 
ENDROOT
BRANCH   1   2
ATOM      2  C   UNL A   1      34.042  28.132  25.566  1.00  0.00     0.042 C 
BRANCH   2   3
ATOM      3  C   UNL A   1      32.935  27.494  24.742  1.00  0.00     0.118 C 
BRANCH   3   4
ATOM      4  N   UNL A   1      31.905  26.898  25.579  1.00  0.00    -0.352 N 
ATOM      5  C   UNL A   1      31.594  25.665  26.042  1.00  0.00     0.251 C 
ATOM      6  O   UNL A   1      30.596  25.611  26.769  1.00  0.00    -0.270 OA
ATOM      7  H   UNL A   1      31.260  27.573  25.890  1.00  0.00     0.163 HD
BRANCH   5   8
ATOM      8  C   UNL A   1      32.359  24.421  25.744  1.00  0.00     0.067 C 
ATOM      9  C   UNL A   1      33.928  19.633  24.694  1.00  0.00     0.048 C 
ATOM     10  C   UNL A   1      34.585  20.902  25.159  1.00  0.00    -0.007 A 
ATOM     11  C   UNL A   1      35.979  20.953  25.289  1.00  0.00     0.023 A 
ATOM     12  C   UNL A   1      33.846  22.067  25.404  1.00  0.00     0.130 A 
ATOM     13  C   UNL A   1      36.605  22.135  25.686  1.00  0.00     0.019 A 
ATOM     14  C   UNL A   1      34.471  23.253  25.804  1.00  0.00     0.019 A 
ATOM     15  O   UNL A   1      32.488  21.978  25.282  1.00  0.00    -0.475 OA
ATOM     16  Br  UNL A   1      38.487  22.179  25.869  1.00  0.00    -0.051 Br
ATOM     17  C   UNL A   1      35.860  23.284  25.949  1.00  0.00     0.027 A 
ATOM     18  C   UNL A   1      33.658  24.430  26.092  1.00  0.00     0.025 C 
ATOM     19  C   UNL A   1      31.770  23.218  25.069  1.00  0.00     0.314 C 
BRANCH  19  20
ATOM     20  C   UNL A   1      31.565  23.427  23.556  1.00  0.00     0.429 C 
ATOM     21  F   UNL A   1      32.361  24.428  23.102  1.00  0.00    -0.167 F 
ATOM     22  F   UNL A   1      31.879  22.329  22.827  1.00  0.00    -0.167 F 
ATOM     23  F   UNL A   1      30.290  23.749  23.241  1.00  0.00    -0.167 F 
ENDBRANCH  19  20
ENDBRANCH   5   8
ENDBRANCH   3   4
ENDBRANCH   2   3
ENDBRANCH   1   2
BRANCH   1  24
ATOM     24  N   UNL A   1      33.541  29.731  27.379  1.00  0.00    -0.352 N 
ATOM     25  C   UNL A   1      34.412  30.525  28.080  1.00  0.00     0.251 C 
ATOM     26  H   UNL A   1      32.724  30.184  27.068  1.00  0.00     0.163 HD
ATOM     27  O   UNL A   1      34.025  31.601  28.533  1.00  0.00    -0.269 OA
BRANCH  25  28
ATOM     28  C   UNL A   1      35.805  30.085  28.286  1.00  0.00     0.039 A 
ATOM     29  C   UNL A   1      36.724  30.187  27.240  1.00  0.00     0.014 A 
ATOM     30  C   UNL A   1      36.194  29.548  29.514  1.00  0.00     0.014 A 
ATOM     31  C   UNL A   1      38.050  29.806  27.451  1.00  0.00     0.010 A 
ATOM     32  C   UNL A   1      37.531  29.274  29.757  1.00  0.00     0.010 A 
ATOM     33  C   UNL A   1      38.468  29.377  28.721  1.00  0.00    -0.014 A 
BRANCH  33  34
ATOM     34  C   UNL A   1      39.872  28.987  28.985  1.00  0.00     0.031 A 
ATOM     35  C   UNL A   1      40.808  29.969  29.634  1.00  0.00     0.074 A 
ATOM     36  C   UNL A   1      40.314  27.778  28.592  1.00  0.00     0.049 A 
ATOM     37  N   UNL A   1      42.081  29.843  29.903  1.00  0.00    -0.248 NA
ATOM     38  C   UNL A   1      40.245  31.281  29.998  1.00  0.00     0.031 C 
ATOM     39  C   UNL A   1      39.504  26.761  27.918  1.00  0.00     0.029 A 
ATOM     40  N   UNL A   1      41.550  27.197  28.707  1.00  0.00    -0.354 N 
ATOM     41  C   UNL A   1      42.468  31.053  30.465  1.00  0.00     0.074 A 
ATOM     42  C   UNL A   1      41.319  31.931  30.417  1.00  0.00     0.031 C 
ATOM     43  C   UNL A   1      40.252  25.663  27.725  1.00  0.00     0.029 A 
ATOM     44  C   UNL A   1      41.600  25.912  28.223  1.00  0.00     0.049 A 
ATOM     45  H   UNL A   1      42.327  27.657  29.099  1.00  0.00     0.167 HD
ATOM     46  C   UNL A   1      43.659  31.392  31.011  1.00  0.00     0.037 A 
ATOM     47  C   UNL A   1      42.620  25.032  28.193  1.00  0.00     0.037 A 
ATOM     48  C   UNL A   1      44.791  30.507  31.063  1.00  0.00     0.049 A 
ATOM     49  C   UNL A   1      43.949  25.438  28.765  1.00  0.00     0.074 A 
ATOM     50  C   UNL A   1      46.038  30.735  31.615  1.00  0.00     0.029 A 
ATOM     51  N   UNL A   1      44.813  29.222  30.537  1.00  0.00    -0.354 N 
ATOM     52  N   UNL A   1      44.288  26.572  29.334  1.00  0.00    -0.248 NA
ATOM     53  C   UNL A   1      45.033  24.451  28.692  1.00  0.00     0.031 C 
ATOM     54  C   UNL A   1      46.828  29.602  31.385  1.00  0.00     0.029 A 
ATOM     55  C   UNL A   1      46.058  28.652  30.732  1.00  0.00     0.049 A 
ATOM     56  H   UNL A   1      44.053  28.782  30.092  1.00  0.00     0.167 HD
ATOM     57  C   UNL A   1      45.622  26.430  29.702  1.00  0.00     0.074 A 
ATOM     58  C   UNL A   1      46.022  25.094  29.301  1.00  0.00     0.031 C 
ATOM     59  C   UNL A   1      46.439  27.322  30.314  1.00  0.00     0.037 A 
BRANCH  46  60
ATOM     60  C   UNL A   1      43.776  32.774  31.597  1.00  0.00     0.058 A 
ATOM     61  C   UNL A   1      43.429  33.034  32.935  1.00  0.00     0.135 A 
ATOM     62  C   UNL A   1      44.212  33.854  30.815  1.00  0.00     0.135 A 
ATOM     63  F   UNL A   1      42.989  32.042  33.725  1.00  0.00    -0.206 F 
ATOM     64  C   UNL A   1      43.456  34.322  33.457  1.00  0.00     0.059 A 
ATOM     65  C   UNL A   1      44.279  35.147  31.328  1.00  0.00     0.059 A 
ATOM     66  F   UNL A   1      44.558  33.665  29.532  1.00  0.00    -0.206 F 
ATOM     67  C   UNL A   1      43.875  35.374  32.643  1.00  0.00     0.060 A 
BRANCH  67  68
ATOM     68  S   UNL A   1      43.862  37.045  33.325  1.00  0.00     0.124 S 
ATOM     69  O   UNL A   1      45.099  37.051  34.100  1.00  0.00    -0.237 OA
ATOM     70  O   UNL A   1      43.865  37.872  32.122  1.00  0.00    -0.237 OA
ATOM     71  O   UNL A   1      42.631  37.084  34.108  1.00  0.00    -0.744 OA
ENDBRANCH  67  68
ENDBRANCH  46  60
BRANCH  47  72
ATOM     72  C   UNL A   1      42.384  23.664  27.662  1.00  0.00     0.058 A 
ATOM     73  C   UNL A   1      42.414  23.424  26.282  1.00  0.00     0.135 A 
ATOM     74  C   UNL A   1      42.215  22.563  28.516  1.00  0.00     0.135 A 
ATOM     75  F   UNL A   1      42.567  24.446  25.426  1.00  0.00    -0.206 F 
ATOM     76  C   UNL A   1      42.302  22.138  25.763  1.00  0.00     0.059 A 
ATOM     77  C   UNL A   1      42.121  21.264  28.023  1.00  0.00     0.059 A 
ATOM     78  F   UNL A   1      42.194  22.740  29.846  1.00  0.00    -0.206 F 
ATOM     79  C   UNL A   1      42.171  21.063  26.644  1.00  0.00     0.060 A 
BRANCH  79  80
ATOM     80  S   UNL A   1      42.137  19.391  25.960  1.00  0.00     0.124 S 
ATOM     81  O   UNL A   1      42.671  18.606  27.066  1.00  0.00    -0.237 OA
ATOM     82  O   UNL A   1      40.717  19.211  25.674  1.00  0.00    -0.237 OA
ATOM     83  O   UNL A   1      42.998  19.491  24.784  1.00  0.00    -0.744 OA
ENDBRANCH  79  80
ENDBRANCH  47  72
BRANCH  59  84
ATOM     84  C   UNL A   1      47.853  26.893  30.591  1.00  0.00     0.058 A 
ATOM     85  C   UNL A   1      48.898  27.203  29.708  1.00  0.00     0.135 A 
ATOM     86  C   UNL A   1      48.178  26.243  31.792  1.00  0.00     0.135 A 
ATOM     87  F   UNL A   1      48.638  27.817  28.542  1.00  0.00    -0.206 F 
ATOM     88  C   UNL A   1      50.216  26.876  30.002  1.00  0.00     0.059 A 
ATOM     89  C   UNL A   1      49.493  25.930  32.120  1.00  0.00     0.059 A 
ATOM     90  F   UNL A   1      47.216  25.932  32.676  1.00  0.00    -0.206 F 
ATOM     91  C   UNL A   1      50.506  26.247  31.214  1.00  0.00     0.060 A 
BRANCH  91  92
ATOM     92  S   UNL A   1      52.230  25.882  31.604  1.00  0.00     0.124 S 
ATOM     93  O   UNL A   1      52.521  26.889  32.620  1.00  0.00    -0.237 OA
ATOM     94  O   UNL A   1      52.155  24.504  32.081  1.00  0.00    -0.237 OA
ATOM     95  O   UNL A   1      52.915  26.062  30.328  1.00  0.00    -0.744 OA
ENDBRANCH  91  92
ENDBRANCH  59  84
ENDBRANCH  33  34
ENDBRANCH  25  28
ENDBRANCH   1  24
TORSDOF 14
ENDMDL
MODEL 2
REMARK VINA RESULT:     -12.0      4.832     10.348
REMARK SMILES Cc1cc(Br)cc2c1O[C@H](C(F)(F)F)C(C(=O)NCCCNC(=O)c1ccc(-c3c4nc(c(-c5c(F)cc(S(=O)(=O)[O-])cc5F)c5ccc([nH]5)c(-c5c(F)cc(S(=O)(=O)[O-])cc5F)c5nc(c(-c6c(F)cc(S(=O)(=O)[O-])cc6F)c6ccc3[nH]6)C=C5)C=C4)cc1)=C2
REMARK SMILES IDX 21 1 20 2 19 3 18 4 16 5 17 6 15 8 1 9 2 10 3 11 8 12 4 13
REMARK SMILES IDX 7 14 9 15 5 16 6 17 91 18 10 19 11 20 12 21 13 22 14 23
REMARK SMILES IDX 22 24 23 25 24 27 25 28 26 29 90 30 27 31 89 32 28 33 29 34
REMARK SMILES IDX 30 35 83 36 31 37 88 38 82 39 84 40 32 41 87 42 81 43 80 44
REMARK SMILES IDX 33 46 67 47 46 48 66 49 47 50 50 51 65 52 85 53 48 54 49 55
REMARK SMILES IDX 64 57 86 58 51 59 34 60 35 61 44 62 36 63 37 64 43 65 45 66
REMARK SMILES IDX 38 67 39 68 40 69 41 70 42 71 68 72 69 73 78 74 70 75 71 76
REMARK SMILES IDX 77 77 79 78 72 79 73 80 74 81 75 82 76 83 52 84 53 85 62 86
REMARK SMILES IDX 54 87 55 88 61 89 63 90 56 91 57 92 58 93 59 94 60 95
REMARK H PARENT 18 7 22 26 84 45 50 56
REMARK Flexibility Score: inf
ROOT
ATOM      1  C   UNL A   1      40.349  23.176  27.153  1.00  0.00     0.118 C 
ENDROOT
BRANCH   1   2
ATOM      2  C   UNL A   1      39.137  22.553  26.475  1.00  0.00     0.042 C 
BRANCH   2   3
ATOM      3  C   UNL A   1      38.136  23.603  26.022  1.00  0.00     0.118 C 
BRANCH   3   4
ATOM      4  N   UNL A   1      37.643  23.344  24.677  1.00  0.00    -0.352 N 
ATOM      5  C   UNL A   1      36.449  23.350  24.040  1.00  0.00     0.251 C 
ATOM      6  O   UNL A   1      36.492  23.071  22.837  1.00  0.00    -0.270 OA
ATOM      7  H   UNL A   1      38.375  23.095  24.068  1.00  0.00     0.163 HD
BRANCH   5   8
ATOM      8  C   UNL A   1      35.140  23.671  24.678  1.00  0.00     0.067 C 
ATOM      9  C   UNL A   1      30.335  23.686  26.522  1.00  0.00     0.048 C 
ATOM     10  C   UNL A   1      31.393  24.724  26.269  1.00  0.00    -0.007 A 
ATOM     11  C   UNL A   1      31.178  26.047  26.676  1.00  0.00     0.023 A 
ATOM     12  C   UNL A   1      32.627  24.391  25.694  1.00  0.00     0.130 A 
ATOM     13  C   UNL A   1      32.165  27.012  26.478  1.00  0.00     0.019 A 
ATOM     14  C   UNL A   1      33.619  25.358  25.493  1.00  0.00     0.019 A 
ATOM     15  O   UNL A   1      32.798  23.095  25.296  1.00  0.00    -0.475 OA
ATOM     16  Br  UNL A   1      31.848  28.796  27.021  1.00  0.00    -0.051 Br
ATOM     17  C   UNL A   1      33.382  26.678  25.885  1.00  0.00     0.027 A 
ATOM     18  C   UNL A   1      34.872  24.977  24.849  1.00  0.00     0.025 C 
ATOM     19  C   UNL A   1      34.164  22.634  25.148  1.00  0.00     0.314 C 
BRANCH  19  20
ATOM     20  C   UNL A   1      34.608  21.949  26.455  1.00  0.00     0.429 C 
ATOM     21  F   UNL A   1      33.600  21.197  26.965  1.00  0.00    -0.167 F 
ATOM     22  F   UNL A   1      35.658  21.110  26.277  1.00  0.00    -0.167 F 
ATOM     23  F   UNL A   1      34.977  22.833  27.409  1.00  0.00    -0.167 F 
ENDBRANCH  19  20
ENDBRANCH   5   8
ENDBRANCH   3   4
ENDBRANCH   2   3
ENDBRANCH   1   2
BRANCH   1  24
ATOM     24  N   UNL A   1      41.218  23.851  26.191  1.00  0.00    -0.352 N 
ATOM     25  C   UNL A   1      41.527  25.181  26.060  1.00  0.00     0.251 C 
ATOM     26  H   UNL A   1      41.651  23.257  25.535  1.00  0.00     0.163 HD
ATOM     27  O   UNL A   1      42.034  25.587  25.016  1.00  0.00    -0.269 OA
BRANCH  25  28
ATOM     28  C   UNL A   1      41.248  26.114  27.167  1.00  0.00     0.039 A 
ATOM     29  C   UNL A   1      40.221  25.828  28.070  1.00  0.00     0.014 A 
ATOM     30  C   UNL A   1      41.991  27.288  27.296  1.00  0.00     0.014 A 
ATOM     31  C   UNL A   1      39.986  26.694  29.139  1.00  0.00     0.010 A 
ATOM     32  C   UNL A   1      41.831  28.088  28.417  1.00  0.00     0.010 A 
ATOM     33  C   UNL A   1      40.811  27.813  29.336  1.00  0.00    -0.014 A 
BRANCH  33  34
ATOM     34  C   UNL A   1      40.603  28.739  30.473  1.00  0.00     0.031 A 
ATOM     35  C   UNL A   1      41.474  28.627  31.694  1.00  0.00     0.074 A 
ATOM     36  C   UNL A   1      39.600  29.636  30.428  1.00  0.00     0.049 A 
ATOM     37  N   UNL A   1      41.422  29.303  32.811  1.00  0.00    -0.248 NA
ATOM     38  C   UNL A   1      42.523  27.593  31.668  1.00  0.00     0.031 C 
ATOM     39  C   UNL A   1      38.669  29.806  29.311  1.00  0.00     0.029 A 
ATOM     40  N   UNL A   1      39.201  30.578  31.341  1.00  0.00    -0.354 N 
ATOM     41  C   UNL A   1      42.425  28.778  33.615  1.00  0.00     0.074 A 
ATOM     42  C   UNL A   1      43.011  27.669  32.895  1.00  0.00     0.031 C 
ATOM     43  C   UNL A   1      37.839  30.825  29.584  1.00  0.00     0.029 A 
ATOM     44  C   UNL A   1      38.152  31.352  30.908  1.00  0.00     0.049 A 
ATOM     45  H   UNL A   1      39.626  30.687  32.222  1.00  0.00     0.167 HD
ATOM     46  C   UNL A   1      42.851  29.206  34.828  1.00  0.00     0.037 A 
ATOM     47  C   UNL A   1      37.521  32.379  31.511  1.00  0.00     0.037 A 
ATOM     48  C   UNL A   1      42.267  30.316  35.530  1.00  0.00     0.049 A 
ATOM     49  C   UNL A   1      37.978  32.814  32.875  1.00  0.00     0.074 A 
ATOM     50  C   UNL A   1      42.634  30.853  36.750  1.00  0.00     0.029 A 
ATOM     51  N   UNL A   1      41.188  31.060  35.072  1.00  0.00    -0.354 N 
ATOM     52  N   UNL A   1      38.958  32.336  33.606  1.00  0.00    -0.248 NA
ATOM     53  C   UNL A   1      37.246  33.924  33.497  1.00  0.00     0.031 C 
ATOM     54  C   UNL A   1      41.748  31.894  37.050  1.00  0.00     0.029 A 
ATOM     55  C   UNL A   1      40.860  32.037  35.995  1.00  0.00     0.049 A 
ATOM     56  H   UNL A   1      40.724  30.913  34.215  1.00  0.00     0.167 HD
ATOM     57  C   UNL A   1      38.972  33.097  34.770  1.00  0.00     0.074 A 
ATOM     58  C   UNL A   1      37.909  34.075  34.638  1.00  0.00     0.031 C 
ATOM     59  C   UNL A   1      39.788  32.995  35.848  1.00  0.00     0.037 A 
BRANCH  46  60
ATOM     60  C   UNL A   1      44.005  28.465  35.448  1.00  0.00     0.058 A 
ATOM     61  C   UNL A   1      43.796  27.393  36.335  1.00  0.00     0.135 A 
ATOM     62  C   UNL A   1      45.330  28.839  35.178  1.00  0.00     0.135 A 
ATOM     63  F   UNL A   1      42.549  27.003  36.642  1.00  0.00    -0.206 F 
ATOM     64  C   UNL A   1      44.855  26.759  36.974  1.00  0.00     0.059 A 
ATOM     65  C   UNL A   1      46.408  28.195  35.781  1.00  0.00     0.059 A 
ATOM     66  F   UNL A   1      45.590  29.853  34.339  1.00  0.00    -0.206 F 
ATOM     67  C   UNL A   1      46.159  27.173  36.697  1.00  0.00     0.060 A 
BRANCH  67  68
ATOM     68  S   UNL A   1      47.518  26.367  37.568  1.00  0.00     0.124 S 
ATOM     69  O   UNL A   1      47.808  25.246  36.679  1.00  0.00    -0.237 OA
ATOM     70  O   UNL A   1      48.528  27.420  37.609  1.00  0.00    -0.237 OA
ATOM     71  O   UNL A   1      46.933  26.011  38.856  1.00  0.00    -0.744 OA
ENDBRANCH  67  68
ENDBRANCH  46  60
BRANCH  47  72
ATOM     72  C   UNL A   1      36.441  33.095  30.784  1.00  0.00     0.058 A 
ATOM     73  C   UNL A   1      35.104  32.949  31.175  1.00  0.00     0.135 A 
ATOM     74  C   UNL A   1      36.727  34.003  29.751  1.00  0.00     0.135 A 
ATOM     75  F   UNL A   1      34.781  32.089  32.153  1.00  0.00    -0.206 F 
ATOM     76  C   UNL A   1      34.086  33.688  30.581  1.00  0.00     0.059 A 
ATOM     77  C   UNL A   1      35.729  34.769  29.155  1.00  0.00     0.059 A 
ATOM     78  F   UNL A   1      37.994  34.188  29.350  1.00  0.00    -0.206 F 
ATOM     79  C   UNL A   1      34.411  34.607  29.582  1.00  0.00     0.060 A 
BRANCH  79  80
ATOM     80  S   UNL A   1      33.093  35.637  28.899  1.00  0.00     0.124 S 
ATOM     81  O   UNL A   1      33.852  36.655  28.182  1.00  0.00    -0.237 OA
ATOM     82  O   UNL A   1      32.363  34.682  28.072  1.00  0.00    -0.237 OA
ATOM     83  O   UNL A   1      32.380  36.101  30.086  1.00  0.00    -0.744 OA
ENDBRANCH  79  80
ENDBRANCH  47  72
BRANCH  59  84
ATOM     84  C   UNL A   1      39.571  33.962  36.978  1.00  0.00     0.058 A 
ATOM     85  C   UNL A   1      38.838  33.601  38.119  1.00  0.00     0.135 A 
ATOM     86  C   UNL A   1      40.173  35.230  36.957  1.00  0.00     0.135 A 
ATOM     87  F   UNL A   1      38.236  32.403  38.184  1.00  0.00    -0.206 F 
ATOM     88  C   UNL A   1      38.704  34.467  39.198  1.00  0.00     0.059 A 
ATOM     89  C   UNL A   1      40.075  36.102  38.036  1.00  0.00     0.059 A 
ATOM     90  F   UNL A   1      40.893  35.621  35.892  1.00  0.00    -0.206 F 
ATOM     91  C   UNL A   1      39.333  35.713  39.151  1.00  0.00     0.060 A 
BRANCH  91  92
ATOM     92  S   UNL A   1      39.196  36.800  40.585  1.00  0.00     0.124 S 
ATOM     93  O   UNL A   1      40.593  36.942  40.981  1.00  0.00    -0.237 OA
ATOM     94  O   UNL A   1      38.575  37.991  40.012  1.00  0.00    -0.237 OA
ATOM     95  O   UNL A   1      38.355  36.044  41.508  1.00  0.00    -0.744 OA
ENDBRANCH  91  92
ENDBRANCH  59  84
ENDBRANCH  33  34
ENDBRANCH  25  28
ENDBRANCH   1  24
TORSDOF 14
ENDMDL
MODEL 3
REMARK VINA RESULT:     -11.9      4.842     10.394
REMARK SMILES Cc1cc(Br)cc2c1O[C@H](C(F)(F)F)C(C(=O)NCCCNC(=O)c1ccc(-c3c4nc(c(-c5c(F)cc(S(=O)(=O)[O-])cc5F)c5ccc([nH]5)c(-c5c(F)cc(S(=O)(=O)[O-])cc5F)c5nc(c(-c6c(F)cc(S(=O)(=O)[O-])cc6F)c6ccc3[nH]6)C=C5)C=C4)cc1)=C2
REMARK SMILES IDX 21 1 20 2 19 3 18 4 16 5 17 6 15 8 1 9 2 10 3 11 8 12 4 13
REMARK SMILES IDX 7 14 9 15 5 16 6 17 91 18 10 19 11 20 12 21 13 22 14 23
REMARK SMILES IDX 22 24 23 25 24 27 25 28 26 29 90 30 27 31 89 32 28 33 29 34
REMARK SMILES IDX 30 35 83 36 31 37 88 38 82 39 84 40 32 41 87 42 81 43 80 44
REMARK SMILES IDX 33 46 67 47 46 48 66 49 47 50 50 51 65 52 85 53 48 54 49 55
REMARK SMILES IDX 64 57 86 58 51 59 34 60 35 61 44 62 36 63 37 64 43 65 45 66
REMARK SMILES IDX 38 67 39 68 40 69 41 70 42 71 68 72 69 73 78 74 70 75 71 76
REMARK SMILES IDX 77 77 79 78 72 79 73 80 74 81 75 82 76 83 52 84 53 85 62 86
REMARK SMILES IDX 54 87 55 88 61 89 63 90 56 91 57 92 58 93 59 94 60 95
REMARK H PARENT 18 7 22 26 84 45 50 56
REMARK Flexibility Score: inf
ROOT
ATOM      1  C   UNL A   1      39.525  23.444  26.883  1.00  0.00     0.118 C 
ENDROOT
BRANCH   1   2
ATOM      2  C   UNL A   1      38.235  23.583  26.089  1.00  0.00     0.042 C 
BRANCH   2   3
ATOM      3  C   UNL A   1      37.770  22.253  25.520  1.00  0.00     0.118 C 
BRANCH   3   4
ATOM      4  N   UNL A   1      36.524  21.805  26.126  1.00  0.00    -0.352 N 
ATOM      5  C   UNL A   1      35.204  22.062  25.985  1.00  0.00     0.251 C 
ATOM      6  O   UNL A   1      34.457  21.415  26.727  1.00  0.00    -0.270 OA
ATOM      7  H   UNL A   1      36.688  21.134  26.829  1.00  0.00     0.163 HD
BRANCH   5   8
ATOM      8  C   UNL A   1      34.621  23.037  25.018  1.00  0.00     0.067 C 
ATOM      9  C   UNL A   1      32.903  25.578  20.886  1.00  0.00     0.048 C 
ATOM     10  C   UNL A   1      33.196  25.928  22.318  1.00  0.00    -0.007 A 
ATOM     11  C   UNL A   1      32.880  27.205  22.799  1.00  0.00     0.023 A 
ATOM     12  C   UNL A   1      33.717  24.985  23.214  1.00  0.00     0.130 A 
ATOM     13  C   UNL A   1      33.114  27.532  24.135  1.00  0.00     0.019 A 
ATOM     14  C   UNL A   1      33.954  25.310  24.555  1.00  0.00     0.019 A 
ATOM     15  O   UNL A   1      34.026  23.753  22.709  1.00  0.00    -0.475 OA
ATOM     16  Br  UNL A   1      32.694  29.267  24.759  1.00  0.00    -0.051 Br
ATOM     17  C   UNL A   1      33.653  26.594  25.015  1.00  0.00     0.027 A 
ATOM     18  C   UNL A   1      34.540  24.311  25.442  1.00  0.00     0.025 C 
ATOM     19  C   UNL A   1      34.110  22.662  23.659  1.00  0.00     0.314 C 
BRANCH  19  20
ATOM     20  C   UNL A   1      32.752  21.937  23.713  1.00  0.00     0.429 C 
ATOM     21  F   UNL A   1      31.995  22.421  24.729  1.00  0.00    -0.167 F 
ATOM     22  F   UNL A   1      32.023  22.101  22.582  1.00  0.00    -0.167 F 
ATOM     23  F   UNL A   1      32.878  20.604  23.901  1.00  0.00    -0.167 F 
ENDBRANCH  19  20
ENDBRANCH   5   8
ENDBRANCH   3   4
ENDBRANCH   2   3
ENDBRANCH   1   2
BRANCH   1  24
ATOM     24  N   UNL A   1      40.678  23.933  26.130  1.00  0.00    -0.352 N 
ATOM     25  C   UNL A   1      41.286  25.162  26.141  1.00  0.00     0.251 C 
ATOM     26  H   UNL A   1      41.083  23.275  25.518  1.00  0.00     0.163 HD
ATOM     27  O   UNL A   1      42.048  25.473  25.228  1.00  0.00    -0.269 OA
BRANCH  25  28
ATOM     28  C   UNL A   1      41.021  26.103  27.246  1.00  0.00     0.039 A 
ATOM     29  C   UNL A   1      40.076  25.776  28.221  1.00  0.00     0.014 A 
ATOM     30  C   UNL A   1      41.695  27.324  27.301  1.00  0.00     0.014 A 
ATOM     31  C   UNL A   1      39.857  26.652  29.285  1.00  0.00     0.010 A 
ATOM     32  C   UNL A   1      41.558  28.140  28.413  1.00  0.00     0.010 A 
ATOM     33  C   UNL A   1      40.620  27.825  29.404  1.00  0.00    -0.014 A 
BRANCH  33  34
ATOM     34  C   UNL A   1      40.428  28.764  30.533  1.00  0.00     0.031 A 
ATOM     35  C   UNL A   1      41.294  28.644  31.757  1.00  0.00     0.074 A 
ATOM     36  C   UNL A   1      39.444  29.680  30.479  1.00  0.00     0.049 A 
ATOM     37  N   UNL A   1      41.253  29.330  32.868  1.00  0.00    -0.248 NA
ATOM     38  C   UNL A   1      42.322  27.589  31.741  1.00  0.00     0.031 C 
ATOM     39  C   UNL A   1      38.518  29.860  29.358  1.00  0.00     0.029 A 
ATOM     40  N   UNL A   1      39.062  30.637  31.384  1.00  0.00    -0.354 N 
ATOM     41  C   UNL A   1      42.244  28.792  33.679  1.00  0.00     0.074 A 
ATOM     42  C   UNL A   1      42.809  27.666  32.969  1.00  0.00     0.031 C 
ATOM     43  C   UNL A   1      37.708  30.898  29.622  1.00  0.00     0.029 A 
ATOM     44  C   UNL A   1      38.029  31.429  30.943  1.00  0.00     0.049 A 
ATOM     45  H   UNL A   1      39.487  30.745  32.265  1.00  0.00     0.167 HD
ATOM     46  C   UNL A   1      42.676  29.220  34.889  1.00  0.00     0.037 A 
ATOM     47  C   UNL A   1      37.417  32.472  31.536  1.00  0.00     0.037 A 
ATOM     48  C   UNL A   1      42.114  30.348  35.581  1.00  0.00     0.049 A 
ATOM     49  C   UNL A   1      37.880  32.909  32.897  1.00  0.00     0.074 A 
ATOM     50  C   UNL A   1      42.489  30.887  36.797  1.00  0.00     0.029 A 
ATOM     51  N   UNL A   1      41.050  31.109  35.114  1.00  0.00    -0.354 N 
ATOM     52  N   UNL A   1      38.849  32.418  33.634  1.00  0.00    -0.248 NA
ATOM     53  C   UNL A   1      37.169  34.038  33.509  1.00  0.00     0.031 C 
ATOM     54  C   UNL A   1      41.623  31.948  37.087  1.00  0.00     0.029 A 
ATOM     55  C   UNL A   1      40.740  32.100  36.029  1.00  0.00     0.049 A 
ATOM     56  H   UNL A   1      40.585  30.965  34.258  1.00  0.00     0.167 HD
ATOM     57  C   UNL A   1      38.875  33.187  34.792  1.00  0.00     0.074 A 
ATOM     58  C   UNL A   1      37.832  34.185  34.650  1.00  0.00     0.031 C 
ATOM     59  C   UNL A   1      39.688  33.078  35.872  1.00  0.00     0.037 A 
BRANCH  46  60
ATOM     60  C   UNL A   1      43.814  28.462  35.517  1.00  0.00     0.058 A 
ATOM     61  C   UNL A   1      45.154  28.763  35.212  1.00  0.00     0.135 A 
ATOM     62  C   UNL A   1      43.571  27.409  36.413  1.00  0.00     0.135 A 
ATOM     63  F   UNL A   1      45.444  29.750  34.349  1.00  0.00    -0.206 F 
ATOM     64  C   UNL A   1      46.205  28.014  35.725  1.00  0.00     0.059 A 
ATOM     65  C   UNL A   1      44.611  26.666  36.966  1.00  0.00     0.059 A 
ATOM     66  F   UNL A   1      42.314  27.077  36.743  1.00  0.00    -0.206 F 
ATOM     67  C   UNL A   1      45.923  26.960  36.596  1.00  0.00     0.060 A 
BRANCH  67  68
ATOM     68  S   UNL A   1      47.298  25.970  37.218  1.00  0.00     0.124 S 
ATOM     69  O   UNL A   1      47.854  26.856  38.237  1.00  0.00    -0.237 OA
ATOM     70  O   UNL A   1      46.622  24.777  37.717  1.00  0.00    -0.237 OA
ATOM     71  O   UNL A   1      48.134  25.769  36.039  1.00  0.00    -0.744 OA
ENDBRANCH  67  68
ENDBRANCH  46  60
BRANCH  47  72
ATOM     72  C   UNL A   1      36.353  33.204  30.801  1.00  0.00     0.058 A 
ATOM     73  C   UNL A   1      35.019  33.130  31.222  1.00  0.00     0.135 A 
ATOM     74  C   UNL A   1      36.655  34.058  29.727  1.00  0.00     0.135 A 
ATOM     75  F   UNL A   1      34.681  32.323  32.240  1.00  0.00    -0.206 F 
ATOM     76  C   UNL A   1      34.020  33.887  30.619  1.00  0.00     0.059 A 
ATOM     77  C   UNL A   1      35.677  34.841  29.120  1.00  0.00     0.059 A 
ATOM     78  F   UNL A   1      37.921  34.174  29.296  1.00  0.00    -0.206 F 
ATOM     79  C   UNL A   1      34.363  34.752  29.578  1.00  0.00     0.060 A 
BRANCH  79  80
ATOM     80  S   UNL A   1      33.075  35.808  28.879  1.00  0.00     0.124 S 
ATOM     81  O   UNL A   1      32.365  36.243  30.075  1.00  0.00    -0.237 OA
ATOM     82  O   UNL A   1      33.861  36.830  28.195  1.00  0.00    -0.237 OA
ATOM     83  O   UNL A   1      32.338  34.903  28.001  1.00  0.00    -0.744 OA
ENDBRANCH  79  80
ENDBRANCH  47  72
BRANCH  59  84
ATOM     84  C   UNL A   1      39.487  34.058  36.994  1.00  0.00     0.058 A 
ATOM     85  C   UNL A   1      38.739  33.724  38.133  1.00  0.00     0.135 A 
ATOM     86  C   UNL A   1      40.122  35.310  36.968  1.00  0.00     0.135 A 
ATOM     87  F   UNL A   1      38.106  32.541  38.202  1.00  0.00    -0.206 F 
ATOM     88  C   UNL A   1      38.619  34.600  39.205  1.00  0.00     0.059 A 
ATOM     89  C   UNL A   1      40.039  36.192  38.041  1.00  0.00     0.059 A 
ATOM     90  F   UNL A   1      40.858  35.675  35.906  1.00  0.00    -0.206 F 
ATOM     91  C   UNL A   1      39.280  35.829  39.154  1.00  0.00     0.060 A 
BRANCH  91  92
ATOM     92  S   UNL A   1      39.161  36.930  40.579  1.00  0.00     0.124 S 
ATOM     93  O   UNL A   1      38.329  38.007  40.051  1.00  0.00    -0.237 OA
ATOM     94  O   UNL A   1      38.529  36.074  41.580  1.00  0.00    -0.237 OA
ATOM     95  O   UNL A   1      40.550  37.286  40.853  1.00  0.00    -0.744 OA
ENDBRANCH  91  92
ENDBRANCH  59  84
ENDBRANCH  33  34
ENDBRANCH  25  28
ENDBRANCH   1  24
TORSDOF 14
ENDMDL
