MODEL 1
REMARK VINA RESULT:     -11.9      0.000      0.000
REMARK SMILES Cc1cc(Cl)c2c(c1)C=C(C(=O)NCCCNC(=O)c1ccc(-c3c4nc(c(-c5c(F)cc(S(=O)(=O)[O-])cc5F)c5ccc([nH]5)c(-c5c(F)cc(S(=O)(=O)[O-])cc5F)c5nc(c(-c6c(F)cc(S(=O)(=O)[O-])cc6F)c6ccc3[nH]6)C=C5)C=C4)cc1)[C@@H](C(F)(F)F)O2
REMARK SMILES IDX 16 1 15 2 14 3 13 4 11 5 12 6 10 8 1 9 2 10 3 11 8 12 4 13
REMARK SMILES IDX 7 14 5 15 6 16 9 17 91 18 86 19 87 20 88 21 89 22 90 23
REMARK SMILES IDX 17 24 18 25 19 27 20 28 21 29 85 30 22 31 84 32 23 33 24 34
REMARK SMILES IDX 25 35 78 36 26 37 83 38 77 39 79 40 27 41 82 42 76 43 75 44
REMARK SMILES IDX 28 46 62 47 41 48 61 49 42 50 45 51 60 52 80 53 43 54 44 55
REMARK SMILES IDX 59 57 81 58 46 59 29 60 30 61 39 62 31 63 32 64 38 65 40 66
REMARK SMILES IDX 33 67 34 68 35 69 36 70 37 71 63 72 64 73 73 74 65 75 66 76
REMARK SMILES IDX 72 77 74 78 67 79 68 80 69 81 70 82 71 83 47 84 48 85 57 86
REMARK SMILES IDX 49 87 50 88 56 89 58 90 51 91 52 92 53 93 54 94 55 95
REMARK H PARENT 13 7 17 26 79 45 45 56
REMARK Flexibility Score: inf
ROOT
ATOM      1  C   UNL A   1      33.733  28.252  26.848  1.00  0.00     0.118 C 
ENDROOT
BRANCH   1   2
ATOM      2  C   UNL A   1      34.001  28.153  25.351  1.00  0.00     0.042 C 
BRANCH   2   3
ATOM      3  C   UNL A   1      32.972  27.289  24.640  1.00  0.00     0.118 C 
BRANCH   3   4
ATOM      4  N   UNL A   1      32.039  26.674  25.572  1.00  0.00    -0.352 N 
ATOM      5  C   UNL A   1      31.824  25.445  26.092  1.00  0.00     0.251 C 
ATOM      6  O   UNL A   1      30.889  25.368  26.897  1.00  0.00    -0.270 OA
ATOM      7  H   UNL A   1      31.389  27.329  25.916  1.00  0.00     0.163 HD
BRANCH   5   8
ATOM      8  C   UNL A   1      32.623  24.226  25.772  1.00  0.00     0.067 C 
ATOM      9  C   UNL A   1      38.453  22.176  25.799  1.00  0.00     0.044 C 
ATOM     10  C   UNL A   1      36.962  22.078  25.668  1.00  0.00    -0.049 A 
ATOM     11  C   UNL A   1      36.359  20.886  25.248  1.00  0.00     0.028 A 
ATOM     12  C   UNL A   1      36.156  23.191  25.949  1.00  0.00     0.015 A 
ATOM     13  C   UNL A   1      34.973  20.807  25.117  1.00  0.00     0.084 A 
ATOM     14  C   UNL A   1      34.766  23.117  25.812  1.00  0.00     0.019 A 
ATOM     15  Cl  UNL A   1      34.277  19.316  24.594  1.00  0.00    -0.080 Cl
ATOM     16  C   UNL A   1      34.177  21.923  25.390  1.00  0.00     0.146 A 
ATOM     17  C   UNL A   1      33.920  24.262  26.129  1.00  0.00     0.025 C 
ATOM     18  O   UNL A   1      32.820  21.797  25.276  1.00  0.00    -0.474 OA
ATOM     19  C   UNL A   1      32.074  23.022  25.061  1.00  0.00     0.314 C 
BRANCH  19  20
ATOM     20  C   UNL A   1      31.902  23.262  23.548  1.00  0.00     0.429 C 
ATOM     21  F   UNL A   1      32.793  24.182  23.105  1.00  0.00    -0.167 F 
ATOM     22  F   UNL A   1      32.111  22.141  22.814  1.00  0.00    -0.167 F 
ATOM     23  F   UNL A   1      30.665  23.706  23.229  1.00  0.00    -0.167 F 
ENDBRANCH  19  20
ENDBRANCH   5   8
ENDBRANCH   3   4
ENDBRANCH   2   3
ENDBRANCH   1   2
BRANCH   1  24
ATOM     24  N   UNL A   1      33.596  29.642  27.280  1.00  0.00    -0.352 N 
ATOM     25  C   UNL A   1      34.437  30.416  28.038  1.00  0.00     0.251 C 
ATOM     26  H   UNL A   1      32.773  30.091  26.981  1.00  0.00     0.163 HD
ATOM     27  O   UNL A   1      34.017  31.459  28.539  1.00  0.00    -0.269 OA
BRANCH  25  28
ATOM     28  C   UNL A   1      35.836  29.999  28.247  1.00  0.00     0.039 A 
ATOM     29  C   UNL A   1      36.757  30.123  27.204  1.00  0.00     0.014 A 
ATOM     30  C   UNL A   1      36.230  29.464  29.475  1.00  0.00     0.014 A 
ATOM     31  C   UNL A   1      38.089  29.766  27.420  1.00  0.00     0.010 A 
ATOM     32  C   UNL A   1      37.571  29.207  29.719  1.00  0.00     0.010 A 
ATOM     33  C   UNL A   1      38.510  29.338  28.689  1.00  0.00    -0.014 A 
BRANCH  33  34
ATOM     34  C   UNL A   1      39.923  28.978  28.958  1.00  0.00     0.031 A 
ATOM     35  C   UNL A   1      40.838  29.990  29.593  1.00  0.00     0.074 A 
ATOM     36  C   UNL A   1      40.388  27.771  28.583  1.00  0.00     0.049 A 
ATOM     37  N   UNL A   1      42.118  29.905  29.840  1.00  0.00    -0.248 NA
ATOM     38  C   UNL A   1      40.240  31.281  29.979  1.00  0.00     0.031 C 
ATOM     39  C   UNL A   1      39.598  26.725  27.927  1.00  0.00     0.029 A 
ATOM     40  N   UNL A   1      41.636  27.217  28.699  1.00  0.00    -0.354 N 
ATOM     41  C   UNL A   1      42.476  31.123  30.406  1.00  0.00     0.074 A 
ATOM     42  C   UNL A   1      41.298  31.960  30.395  1.00  0.00     0.031 C 
ATOM     43  C   UNL A   1      40.370  25.642  27.743  1.00  0.00     0.029 A 
ATOM     44  C   UNL A   1      41.718  25.930  28.223  1.00  0.00     0.049 A 
ATOM     45  H   UNL A   1      42.404  27.696  29.089  1.00  0.00     0.167 HD
ATOM     46  C   UNL A   1      43.668  31.496  30.925  1.00  0.00     0.037 A 
ATOM     47  C   UNL A   1      42.762  25.080  28.181  1.00  0.00     0.037 A 
ATOM     48  C   UNL A   1      44.828  30.645  30.955  1.00  0.00     0.049 A 
ATOM     49  C   UNL A   1      44.089  25.535  28.727  1.00  0.00     0.074 A 
ATOM     50  C   UNL A   1      46.079  30.914  31.479  1.00  0.00     0.029 A 
ATOM     51  N   UNL A   1      44.874  29.355  30.447  1.00  0.00    -0.354 N 
ATOM     52  N   UNL A   1      44.402  26.680  29.286  1.00  0.00    -0.248 NA
ATOM     53  C   UNL A   1      45.206  24.585  28.635  1.00  0.00     0.031 C 
ATOM     54  C   UNL A   1      46.893  29.802  31.253  1.00  0.00     0.029 A 
ATOM     55  C   UNL A   1      46.137  28.821  30.631  1.00  0.00     0.049 A 
ATOM     56  H   UNL A   1      44.120  28.888  30.019  1.00  0.00     0.167 HD
ATOM     57  C   UNL A   1      45.743  26.577  29.638  1.00  0.00     0.074 A 
ATOM     58  C   UNL A   1      46.179  25.255  29.239  1.00  0.00     0.031 C 
ATOM     59  C   UNL A   1      46.545  27.496  30.233  1.00  0.00     0.037 A 
BRANCH  46  60
ATOM     60  C   UNL A   1      43.767  32.868  31.531  1.00  0.00     0.058 A 
ATOM     61  C   UNL A   1      44.140  33.981  30.760  1.00  0.00     0.135 A 
ATOM     62  C   UNL A   1      43.444  33.086  32.880  1.00  0.00     0.135 A 
ATOM     63  F   UNL A   1      44.480  33.826  29.470  1.00  0.00    -0.206 F 
ATOM     64  C   UNL A   1      44.208  35.257  31.307  1.00  0.00     0.059 A 
ATOM     65  C   UNL A   1      43.477  34.359  33.442  1.00  0.00     0.059 A 
ATOM     66  F   UNL A   1      43.086  32.057  33.665  1.00  0.00    -0.206 F 
ATOM     67  C   UNL A   1      43.870  35.437  32.649  1.00  0.00     0.060 A 
BRANCH  67  68
ATOM     68  S   UNL A   1      43.943  37.105  33.333  1.00  0.00     0.124 S 
ATOM     69  O   UNL A   1      45.223  37.078  34.033  1.00  0.00    -0.237 OA
ATOM     70  O   UNL A   1      43.894  37.934  32.133  1.00  0.00    -0.237 OA
ATOM     71  O   UNL A   1      42.763  37.175  34.188  1.00  0.00    -0.744 OA
ENDBRANCH  67  68
ENDBRANCH  46  60
BRANCH  47  72
ATOM     72  C   UNL A   1      42.586  23.704  27.645  1.00  0.00     0.058 A 
ATOM     73  C   UNL A   1      42.428  22.613  28.512  1.00  0.00     0.135 A 
ATOM     74  C   UNL A   1      42.557  23.449  26.264  1.00  0.00     0.135 A 
ATOM     75  F   UNL A   1      42.453  22.804  29.839  1.00  0.00    -0.206 F 
ATOM     76  C   UNL A   1      42.264  21.318  28.034  1.00  0.00     0.059 A 
ATOM     77  C   UNL A   1      42.369  22.166  25.761  1.00  0.00     0.059 A 
ATOM     78  F   UNL A   1      42.687  24.460  25.390  1.00  0.00    -0.206 F 
ATOM     79  C   UNL A   1      42.234  21.104  26.655  1.00  0.00     0.060 A 
BRANCH  79  80
ATOM     80  S   UNL A   1      41.982  19.422  26.050  1.00  0.00     0.124 S 
ATOM     81  O   UNL A   1      42.435  18.629  27.186  1.00  0.00    -0.237 OA
ATOM     82  O   UNL A   1      40.546  19.404  25.790  1.00  0.00    -0.237 OA
ATOM     83  O   UNL A   1      42.828  19.362  24.861  1.00  0.00    -0.744 OA
ENDBRANCH  79  80
ENDBRANCH  47  72
BRANCH  59  84
ATOM     84  C   UNL A   1      47.966  27.099  30.513  1.00  0.00     0.058 A 
ATOM     85  C   UNL A   1      48.999  27.389  29.609  1.00  0.00     0.135 A 
ATOM     86  C   UNL A   1      48.310  26.499  31.736  1.00  0.00     0.135 A 
ATOM     87  F   UNL A   1      48.721  27.956  28.425  1.00  0.00    -0.206 F 
ATOM     88  C   UNL A   1      50.324  27.083  29.901  1.00  0.00     0.059 A 
ATOM     89  C   UNL A   1      49.632  26.212  32.060  1.00  0.00     0.059 A 
ATOM     90  F   UNL A   1      47.360  26.213  32.640  1.00  0.00    -0.206 F 
ATOM     91  C   UNL A   1      50.630  26.501  31.133  1.00  0.00     0.060 A 
BRANCH  91  92
ATOM     92  S   UNL A   1      52.361  26.161  31.515  1.00  0.00     0.124 S 
ATOM     93  O   UNL A   1      52.665  27.220  32.471  1.00  0.00    -0.237 OA
ATOM     94  O   UNL A   1      52.298  24.810  32.063  1.00  0.00    -0.237 OA
ATOM     95  O   UNL A   1      53.026  26.275  30.220  1.00  0.00    -0.744 OA
ENDBRANCH  91  92
ENDBRANCH  59  84
ENDBRANCH  33  34
ENDBRANCH  25  28
ENDBRANCH   1  24
TORSDOF 14
ENDMDL
MODEL 2
REMARK VINA RESULT:     -11.9      0.263      1.224
REMARK SMILES Cc1cc(Cl)c2c(c1)C=C(C(=O)NCCCNC(=O)c1ccc(-c3c4nc(c(-c5c(F)cc(S(=O)(=O)[O-])cc5F)c5ccc([nH]5)c(-c5c(F)cc(S(=O)(=O)[O-])cc5F)c5nc(c(-c6c(F)cc(S(=O)(=O)[O-])cc6F)c6ccc3[nH]6)C=C5)C=C4)cc1)[C@@H](C(F)(F)F)O2
REMARK SMILES IDX 16 1 15 2 14 3 13 4 11 5 12 6 10 8 1 9 2 10 3 11 8 12 4 13
REMARK SMILES IDX 7 14 5 15 6 16 9 17 91 18 86 19 87 20 88 21 89 22 90 23
REMARK SMILES IDX 17 24 18 25 19 27 20 28 21 29 85 30 22 31 84 32 23 33 24 34
REMARK SMILES IDX 25 35 78 36 26 37 83 38 77 39 79 40 27 41 82 42 76 43 75 44
REMARK SMILES IDX 28 46 62 47 41 48 61 49 42 50 45 51 60 52 80 53 43 54 44 55
REMARK SMILES IDX 59 57 81 58 46 59 29 60 30 61 39 62 31 63 32 64 38 65 40 66
REMARK SMILES IDX 33 67 34 68 35 69 36 70 37 71 63 72 64 73 73 74 65 75 66 76
REMARK SMILES IDX 72 77 74 78 67 79 68 80 69 81 70 82 71 83 47 84 48 85 57 86
REMARK SMILES IDX 49 87 50 88 56 89 58 90 51 91 52 92 53 93 54 94 55 95
REMARK H PARENT 13 7 17 26 79 45 45 56
REMARK Flexibility Score: inf
ROOT
ATOM      1  C   UNL A   1      33.833  27.953  26.525  1.00  0.00     0.118 C 
ENDROOT
BRANCH   1   2
ATOM      2  C   UNL A   1      33.943  27.780  25.016  1.00  0.00     0.042 C 
BRANCH   2   3
ATOM      3  C   UNL A   1      32.686  27.170  24.415  1.00  0.00     0.118 C 
BRANCH   3   4
ATOM      4  N   UNL A   1      31.841  26.557  25.428  1.00  0.00    -0.352 N 
ATOM      5  C   UNL A   1      31.724  25.347  26.022  1.00  0.00     0.251 C 
ATOM      6  O   UNL A   1      30.838  25.265  26.880  1.00  0.00    -0.270 OA
ATOM      7  H   UNL A   1      31.173  27.193  25.773  1.00  0.00     0.163 HD
BRANCH   5   8
ATOM      8  C   UNL A   1      32.573  24.159  25.721  1.00  0.00     0.067 C 
ATOM      9  C   UNL A   1      38.475  22.331  25.844  1.00  0.00     0.044 C 
ATOM     10  C   UNL A   1      36.992  22.175  25.693  1.00  0.00    -0.049 A 
ATOM     11  C   UNL A   1      36.440  20.959  25.271  1.00  0.00     0.028 A 
ATOM     12  C   UNL A   1      36.140  23.259  25.955  1.00  0.00     0.015 A 
ATOM     13  C   UNL A   1      35.060  20.827  25.121  1.00  0.00     0.084 A 
ATOM     14  C   UNL A   1      34.756  23.132  25.798  1.00  0.00     0.019 A 
ATOM     15  Cl  UNL A   1      34.429  19.308  24.597  1.00  0.00    -0.080 Cl
ATOM     16  C   UNL A   1      34.219  21.913  25.376  1.00  0.00     0.146 A 
ATOM     17  C   UNL A   1      33.862  24.245  26.096  1.00  0.00     0.025 C 
ATOM     18  O   UNL A   1      32.869  21.736  25.243  1.00  0.00    -0.474 OA
ATOM     19  C   UNL A   1      32.080  22.931  25.010  1.00  0.00     0.314 C 
BRANCH  19  20
ATOM     20  C   UNL A   1      31.921  23.155  23.493  1.00  0.00     0.429 C 
ATOM     21  F   UNL A   1      32.814  24.073  23.049  1.00  0.00    -0.167 F 
ATOM     22  F   UNL A   1      32.140  22.027  22.772  1.00  0.00    -0.167 F 
ATOM     23  F   UNL A   1      30.685  23.591  23.158  1.00  0.00    -0.167 F 
ENDBRANCH  19  20
ENDBRANCH   5   8
ENDBRANCH   3   4
ENDBRANCH   2   3
ENDBRANCH   1   2
BRANCH   1  24
ATOM     24  N   UNL A   1      33.528  29.335  26.889  1.00  0.00    -0.352 N 
ATOM     25  C   UNL A   1      34.221  30.211  27.685  1.00  0.00     0.251 C 
ATOM     26  H   UNL A   1      32.696  29.693  26.503  1.00  0.00     0.163 HD
ATOM     27  O   UNL A   1      33.662  31.223  28.107  1.00  0.00    -0.269 OA
BRANCH  25  28
ATOM     28  C   UNL A   1      35.628  29.939  28.030  1.00  0.00     0.039 A 
ATOM     29  C   UNL A   1      35.956  29.537  29.326  1.00  0.00     0.014 A 
ATOM     30  C   UNL A   1      36.629  30.104  27.069  1.00  0.00     0.014 A 
ATOM     31  C   UNL A   1      37.285  29.240  29.637  1.00  0.00     0.010 A 
ATOM     32  C   UNL A   1      37.929  29.711  27.350  1.00  0.00     0.010 A 
ATOM     33  C   UNL A   1      38.274  29.292  28.641  1.00  0.00    -0.014 A 
BRANCH  33  34
ATOM     34  C   UNL A   1      39.688  28.956  28.932  1.00  0.00     0.031 A 
ATOM     35  C   UNL A   1      40.575  29.983  29.581  1.00  0.00     0.074 A 
ATOM     36  C   UNL A   1      40.179  27.756  28.566  1.00  0.00     0.049 A 
ATOM     37  N   UNL A   1      41.853  29.919  29.848  1.00  0.00    -0.248 NA
ATOM     38  C   UNL A   1      39.950  31.265  29.955  1.00  0.00     0.031 C 
ATOM     39  C   UNL A   1      39.416  26.697  27.900  1.00  0.00     0.029 A 
ATOM     40  N   UNL A   1      41.434  27.223  28.704  1.00  0.00    -0.354 N 
ATOM     41  C   UNL A   1      42.181  31.144  30.418  1.00  0.00     0.074 A 
ATOM     42  C   UNL A   1      40.990  31.961  30.387  1.00  0.00     0.031 C 
ATOM     43  C   UNL A   1      40.209  25.626  27.730  1.00  0.00     0.029 A 
ATOM     44  C   UNL A   1      41.543  25.937  28.231  1.00  0.00     0.049 A 
ATOM     45  H   UNL A   1      42.187  27.715  29.106  1.00  0.00     0.167 HD
ATOM     46  C   UNL A   1      43.358  31.537  30.956  1.00  0.00     0.037 A 
ATOM     47  C   UNL A   1      42.602  25.105  28.207  1.00  0.00     0.037 A 
ATOM     48  C   UNL A   1      44.531  30.706  31.005  1.00  0.00     0.049 A 
ATOM     49  C   UNL A   1      43.912  25.582  28.773  1.00  0.00     0.074 A 
ATOM     50  C   UNL A   1      45.769  30.996  31.549  1.00  0.00     0.029 A 
ATOM     51  N   UNL A   1      44.607  29.416  30.500  1.00  0.00    -0.354 N 
ATOM     52  N   UNL A   1      44.198  26.732  29.336  1.00  0.00    -0.248 NA
ATOM     53  C   UNL A   1      45.047  24.650  28.701  1.00  0.00     0.031 C 
ATOM     54  C   UNL A   1      46.605  29.897  31.338  1.00  0.00     0.029 A 
ATOM     55  C   UNL A   1      45.875  28.903  30.705  1.00  0.00     0.049 A 
ATOM     56  H   UNL A   1      43.867  28.937  30.060  1.00  0.00     0.167 HD
ATOM     57  C   UNL A   1      45.535  26.652  29.709  1.00  0.00     0.074 A 
ATOM     58  C   UNL A   1      45.998  25.336  29.319  1.00  0.00     0.031 C 
ATOM     59  C   UNL A   1      46.311  27.584  30.316  1.00  0.00     0.037 A 
BRANCH  46  60
ATOM     60  C   UNL A   1      43.425  32.912  31.561  1.00  0.00     0.058 A 
ATOM     61  C   UNL A   1      43.185  33.120  32.929  1.00  0.00     0.135 A 
ATOM     62  C   UNL A   1      43.777  34.026  30.783  1.00  0.00     0.135 A 
ATOM     63  F   UNL A   1      42.825  32.092  33.716  1.00  0.00    -0.206 F 
ATOM     64  C   UNL A   1      43.271  34.384  33.500  1.00  0.00     0.059 A 
ATOM     65  C   UNL A   1      43.898  35.296  31.339  1.00  0.00     0.059 A 
ATOM     66  F   UNL A   1      44.012  33.886  29.468  1.00  0.00    -0.206 F 
ATOM     67  C   UNL A   1      43.633  35.466  32.698  1.00  0.00     0.060 A 
BRANCH  67  68
ATOM     68  S   UNL A   1      43.762  37.095  33.464  1.00  0.00     0.124 S 
ATOM     69  O   UNL A   1      43.771  37.968  32.294  1.00  0.00    -0.237 OA
ATOM     70  O   UNL A   1      42.556  37.147  34.284  1.00  0.00    -0.237 OA
ATOM     71  O   UNL A   1      45.018  37.026  34.204  1.00  0.00    -0.744 OA
ENDBRANCH  67  68
ENDBRANCH  46  60
BRANCH  47  72
ATOM     72  C   UNL A   1      42.458  23.725  27.670  1.00  0.00     0.058 A 
ATOM     73  C   UNL A   1      42.339  22.628  28.537  1.00  0.00     0.135 A 
ATOM     74  C   UNL A   1      42.420  23.472  26.289  1.00  0.00     0.135 A 
ATOM     75  F   UNL A   1      42.374  22.818  29.864  1.00  0.00    -0.206 F 
ATOM     76  C   UNL A   1      42.206  21.330  28.058  1.00  0.00     0.059 A 
ATOM     77  C   UNL A   1      42.261  22.185  25.785  1.00  0.00     0.059 A 
ATOM     78  F   UNL A   1      42.512  24.487  25.416  1.00  0.00    -0.206 F 
ATOM     79  C   UNL A   1      42.165  21.118  26.679  1.00  0.00     0.060 A 
BRANCH  79  80
ATOM     80  S   UNL A   1      41.952  19.430  26.073  1.00  0.00     0.124 S 
ATOM     81  O   UNL A   1      42.396  18.648  27.220  1.00  0.00    -0.237 OA
ATOM     82  O   UNL A   1      40.522  19.389  25.787  1.00  0.00    -0.237 OA
ATOM     83  O   UNL A   1      42.821  19.382  24.900  1.00  0.00    -0.744 OA
ENDBRANCH  79  80
ENDBRANCH  47  72
BRANCH  59  84
ATOM     84  C   UNL A   1      47.735  27.212  30.619  1.00  0.00     0.058 A 
ATOM     85  C   UNL A   1      48.778  27.525  29.735  1.00  0.00     0.135 A 
ATOM     86  C   UNL A   1      48.067  26.610  31.844  1.00  0.00     0.135 A 
ATOM     87  F   UNL A   1      48.511  28.095  28.550  1.00  0.00    -0.206 F 
ATOM     88  C   UNL A   1      50.102  27.241  30.049  1.00  0.00     0.059 A 
ATOM     89  C   UNL A   1      49.388  26.345  32.191  1.00  0.00     0.059 A 
ATOM     90  F   UNL A   1      47.106  26.302  32.729  1.00  0.00    -0.206 F 
ATOM     91  C   UNL A   1      50.397  26.658  31.283  1.00  0.00     0.060 A 
BRANCH  91  92
ATOM     92  S   UNL A   1      52.127  26.346  31.694  1.00  0.00     0.124 S 
ATOM     93  O   UNL A   1      52.714  26.158  30.372  1.00  0.00    -0.237 OA
ATOM     94  O   UNL A   1      52.507  27.571  32.388  1.00  0.00    -0.237 OA
ATOM     95  O   UNL A   1      52.069  25.150  32.531  1.00  0.00    -0.744 OA
ENDBRANCH  91  92
ENDBRANCH  59  84
ENDBRANCH  33  34
ENDBRANCH  25  28
ENDBRANCH   1  24
TORSDOF 14
ENDMDL
MODEL 3
REMARK VINA RESULT:     -11.8      4.646     10.174
REMARK SMILES Cc1cc(Cl)c2c(c1)C=C(C(=O)NCCCNC(=O)c1ccc(-c3c4nc(c(-c5c(F)cc(S(=O)(=O)[O-])cc5F)c5ccc([nH]5)c(-c5c(F)cc(S(=O)(=O)[O-])cc5F)c5nc(c(-c6c(F)cc(S(=O)(=O)[O-])cc6F)c6ccc3[nH]6)C=C5)C=C4)cc1)[C@@H](C(F)(F)F)O2
REMARK SMILES IDX 16 1 15 2 14 3 13 4 11 5 12 6 10 8 1 9 2 10 3 11 8 12 4 13
REMARK SMILES IDX 7 14 5 15 6 16 9 17 91 18 86 19 87 20 88 21 89 22 90 23
REMARK SMILES IDX 17 24 18 25 19 27 20 28 21 29 85 30 22 31 84 32 23 33 24 34
REMARK SMILES IDX 25 35 78 36 26 37 83 38 77 39 79 40 27 41 82 42 76 43 75 44
REMARK SMILES IDX 28 46 62 47 41 48 61 49 42 50 45 51 60 52 80 53 43 54 44 55
REMARK SMILES IDX 59 57 81 58 46 59 29 60 30 61 39 62 31 63 32 64 38 65 40 66
REMARK SMILES IDX 33 67 34 68 35 69 36 70 37 71 63 72 64 73 73 74 65 75 66 76
REMARK SMILES IDX 72 77 74 78 67 79 68 80 69 81 70 82 71 83 47 84 48 85 57 86
REMARK SMILES IDX 49 87 50 88 56 89 58 90 51 91 52 92 53 93 54 94 55 95
REMARK H PARENT 13 7 17 26 79 45 45 56
REMARK Flexibility Score: inf
ROOT
ATOM      1  C   UNL A   1      40.353  23.043  27.109  1.00  0.00     0.118 C 
ENDROOT
BRANCH   1   2
ATOM      2  C   UNL A   1      39.143  22.437  26.411  1.00  0.00     0.042 C 
BRANCH   2   3
ATOM      3  C   UNL A   1      38.113  23.489  26.032  1.00  0.00     0.118 C 
BRANCH   3   4
ATOM      4  N   UNL A   1      37.619  23.305  24.676  1.00  0.00    -0.352 N 
ATOM      5  C   UNL A   1      36.427  23.359  24.040  1.00  0.00     0.251 C 
ATOM      6  O   UNL A   1      36.467  23.140  22.824  1.00  0.00    -0.270 OA
ATOM      7  H   UNL A   1      38.348  23.080  24.054  1.00  0.00     0.163 HD
BRANCH   5   8
ATOM      8  C   UNL A   1      35.120  23.665  24.691  1.00  0.00     0.067 C 
ATOM      9  C   UNL A   1      31.858  28.434  26.882  1.00  0.00     0.044 C 
ATOM     10  C   UNL A   1      32.108  27.014  26.470  1.00  0.00    -0.049 A 
ATOM     11  C   UNL A   1      31.149  26.022  26.707  1.00  0.00     0.028 A 
ATOM     12  C   UNL A   1      33.321  26.663  25.858  1.00  0.00     0.015 A 
ATOM     13  C   UNL A   1      31.395  24.701  26.332  1.00  0.00     0.084 A 
ATOM     14  C   UNL A   1      33.574  25.337  25.488  1.00  0.00     0.019 A 
ATOM     15  Cl  UNL A   1      30.182  23.514  26.647  1.00  0.00    -0.080 Cl
ATOM     16  C   UNL A   1      32.608  24.357  25.731  1.00  0.00     0.146 A 
ATOM     17  C   UNL A   1      34.820  24.970  24.825  1.00  0.00     0.025 C 
ATOM     18  O   UNL A   1      32.802  23.056  25.353  1.00  0.00    -0.474 OA
ATOM     19  C   UNL A   1      34.178  22.621  25.219  1.00  0.00     0.314 C 
BRANCH  19  20
ATOM     20  C   UNL A   1      34.659  22.015  26.552  1.00  0.00     0.429 C 
ATOM     21  F   UNL A   1      33.667  21.303  27.140  1.00  0.00    -0.167 F 
ATOM     22  F   UNL A   1      35.701  21.163  26.394  1.00  0.00    -0.167 F 
ATOM     23  F   UNL A   1      35.064  22.957  27.435  1.00  0.00    -0.167 F 
ENDBRANCH  19  20
ENDBRANCH   5   8
ENDBRANCH   3   4
ENDBRANCH   2   3
ENDBRANCH   1   2
BRANCH   1  24
ATOM     24  N   UNL A   1      41.269  23.668  26.156  1.00  0.00    -0.352 N 
ATOM     25  C   UNL A   1      41.648  24.979  26.026  1.00  0.00     0.251 C 
ATOM     26  H   UNL A   1      41.677  23.050  25.507  1.00  0.00     0.163 HD
ATOM     27  O   UNL A   1      42.193  25.355  24.989  1.00  0.00    -0.269 OA
BRANCH  25  28
ATOM     28  C   UNL A   1      41.401  25.930  27.125  1.00  0.00     0.039 A 
ATOM     29  C   UNL A   1      40.392  25.666  28.053  1.00  0.00     0.014 A 
ATOM     30  C   UNL A   1      42.160  27.099  27.223  1.00  0.00     0.014 A 
ATOM     31  C   UNL A   1      40.189  26.549  29.116  1.00  0.00     0.010 A 
ATOM     32  C   UNL A   1      42.027  27.919  28.333  1.00  0.00     0.010 A 
ATOM     33  C   UNL A   1      41.029  27.663  29.281  1.00  0.00    -0.014 A 
BRANCH  33  34
ATOM     34  C   UNL A   1      40.858  28.603  30.414  1.00  0.00     0.031 A 
ATOM     35  C   UNL A   1      41.757  28.488  31.615  1.00  0.00     0.074 A 
ATOM     36  C   UNL A   1      39.867  29.516  30.382  1.00  0.00     0.049 A 
ATOM     37  N   UNL A   1      41.724  29.156  32.738  1.00  0.00    -0.248 NA
ATOM     38  C   UNL A   1      42.819  27.467  31.558  1.00  0.00     0.031 C 
ATOM     39  C   UNL A   1      38.915  29.693  29.282  1.00  0.00     0.029 A 
ATOM     40  N   UNL A   1      39.497  30.466  31.296  1.00  0.00    -0.354 N 
ATOM     41  C   UNL A   1      42.753  28.639  33.516  1.00  0.00     0.074 A 
ATOM     42  C   UNL A   1      43.343  27.549  32.771  1.00  0.00     0.031 C 
ATOM     43  C   UNL A   1      38.100  30.721  29.569  1.00  0.00     0.029 A 
ATOM     44  C   UNL A   1      38.440  31.246  30.887  1.00  0.00     0.049 A 
ATOM     45  H   UNL A   1      39.946  30.582  32.166  1.00  0.00     0.167 HD
ATOM     46  C   UNL A   1      43.194  29.060  34.723  1.00  0.00     0.037 A 
ATOM     47  C   UNL A   1      37.820  32.268  31.507  1.00  0.00     0.037 A 
ATOM     48  C   UNL A   1      42.616  30.162  35.444  1.00  0.00     0.049 A 
ATOM     49  C   UNL A   1      38.302  32.690  32.869  1.00  0.00     0.074 A 
ATOM     50  C   UNL A   1      42.999  30.688  36.664  1.00  0.00     0.029 A 
ATOM     51  N   UNL A   1      41.537  30.915  35.003  1.00  0.00    -0.354 N 
ATOM     52  N   UNL A   1      39.297  32.210  33.577  1.00  0.00    -0.248 NA
ATOM     53  C   UNL A   1      37.578  33.791  33.519  1.00  0.00     0.031 C 
ATOM     54  C   UNL A   1      42.129  31.734  36.980  1.00  0.00     0.029 A 
ATOM     55  C   UNL A   1      41.231  31.891  35.935  1.00  0.00     0.049 A 
ATOM     56  H   UNL A   1      41.059  30.775  34.154  1.00  0.00     0.167 HD
ATOM     57  C   UNL A   1      39.335  32.967  34.743  1.00  0.00     0.074 A 
ATOM     58  C   UNL A   1      38.272  33.945  34.639  1.00  0.00     0.031 C 
ATOM     59  C   UNL A   1      40.172  32.862  35.805  1.00  0.00     0.037 A 
BRANCH  46  60
ATOM     60  C   UNL A   1      44.375  28.348  35.323  1.00  0.00     0.058 A 
ATOM     61  C   UNL A   1      45.689  28.775  35.073  1.00  0.00     0.135 A 
ATOM     62  C   UNL A   1      44.195  27.260  36.192  1.00  0.00     0.135 A 
ATOM     63  F   UNL A   1      45.919  29.799  34.234  1.00  0.00    -0.206 F 
ATOM     64  C   UNL A   1      46.783  28.138  35.646  1.00  0.00     0.059 A 
ATOM     65  C   UNL A   1      45.274  26.625  36.799  1.00  0.00     0.059 A 
ATOM     66  F   UNL A   1      42.960  26.806  36.461  1.00  0.00    -0.206 F 
ATOM     67  C   UNL A   1      46.566  27.066  36.513  1.00  0.00     0.060 A 
BRANCH  67  68
ATOM     68  S   UNL A   1      47.999  26.269  37.264  1.00  0.00     0.124 S 
ATOM     69  O   UNL A   1      47.363  25.318  38.170  1.00  0.00    -0.237 OA
ATOM     70  O   UNL A   1      48.671  25.687  36.106  1.00  0.00    -0.237 OA
ATOM     71  O   UNL A   1      48.706  27.371  37.907  1.00  0.00    -0.744 OA
ENDBRANCH  67  68
ENDBRANCH  46  60
BRANCH  47  72
ATOM     72  C   UNL A   1      36.709  32.990  30.831  1.00  0.00     0.058 A 
ATOM     73  C   UNL A   1      35.378  32.782  31.223  1.00  0.00     0.135 A 
ATOM     74  C   UNL A   1      36.948  33.909  29.797  1.00  0.00     0.135 A 
ATOM     75  F   UNL A   1      35.097  31.910  32.203  1.00  0.00    -0.206 F 
ATOM     76  C   UNL A   1      34.323  33.443  30.605  1.00  0.00     0.059 A 
ATOM     77  C   UNL A   1      35.912  34.602  29.180  1.00  0.00     0.059 A 
ATOM     78  F   UNL A   1      38.205  34.158  29.395  1.00  0.00    -0.206 F 
ATOM     79  C   UNL A   1      34.600  34.355  29.584  1.00  0.00     0.060 A 
BRANCH  79  80
ATOM     80  S   UNL A   1      33.223  35.235  28.818  1.00  0.00     0.124 S 
ATOM     81  O   UNL A   1      32.463  35.666  29.985  1.00  0.00    -0.237 OA
ATOM     82  O   UNL A   1      33.909  36.289  28.078  1.00  0.00    -0.237 OA
ATOM     83  O   UNL A   1      32.587  34.211  27.993  1.00  0.00    -0.744 OA
ENDBRANCH  79  80
ENDBRANCH  47  72
BRANCH  59  84
ATOM     84  C   UNL A   1      39.991  33.840  36.931  1.00  0.00     0.058 A 
ATOM     85  C   UNL A   1      40.608  35.099  36.913  1.00  0.00     0.135 A 
ATOM     86  C   UNL A   1      39.125  33.545  37.997  1.00  0.00     0.135 A 
ATOM     87  F   UNL A   1      41.448  35.427  35.919  1.00  0.00    -0.206 F 
ATOM     88  C   UNL A   1      40.384  36.029  37.922  1.00  0.00     0.059 A 
ATOM     89  C   UNL A   1      38.865  34.471  39.001  1.00  0.00     0.059 A 
ATOM     90  F   UNL A   1      38.502  32.357  38.053  1.00  0.00    -0.206 F 
ATOM     91  C   UNL A   1      39.505  35.708  38.958  1.00  0.00     0.060 A 
BRANCH  91  92
ATOM     92  S   UNL A   1      39.186  36.948  40.231  1.00  0.00     0.124 S 
ATOM     93  O   UNL A   1      40.534  37.221  40.719  1.00  0.00    -0.237 OA
ATOM     94  O   UNL A   1      38.559  38.022  39.467  1.00  0.00    -0.237 OA
ATOM     95  O   UNL A   1      38.307  36.257  41.169  1.00  0.00    -0.744 OA
ENDBRANCH  91  92
ENDBRANCH  59  84
ENDBRANCH  33  34
ENDBRANCH  25  28
ENDBRANCH   1  24
TORSDOF 14
ENDMDL
