MODEL 1
REMARK VINA RESULT:     -12.3      0.000      0.000
REMARK SMILES O=C(NCCCNC(=O)[C@@H]1Cc2ccccc2CN1C(=O)COc1ccccc1)c1ccc(-c2c3nc(c(-c4c(F)cc(S(=O)(=O)[O-])cc4F)c4ccc([nH]4)c(-c4c(F)cc(S(=O)(=O)[O-])cc4F)c4nc(c(-c5c(F)cc(S(=O)(=O)[O-])cc5F)c5ccc2[nH]5)C=C4)C=C3)cc1
REMARK SMILES IDX 5 1 4 2 3 3 1 4 2 5 30 7 31 8 95 9 32 10 94 11 33 12 34 13
REMARK SMILES IDX 35 14 88 15 36 16 93 17 87 18 89 19 37 20 92 21 86 22 85 23
REMARK SMILES IDX 38 25 72 26 51 27 71 28 52 29 55 30 70 31 90 32 53 33 54 34
REMARK SMILES IDX 69 36 91 37 56 38 39 39 40 40 49 41 41 42 42 43 48 44 50 45
REMARK SMILES IDX 43 46 44 47 45 48 46 49 47 50 73 51 74 52 83 53 75 54 76 55
REMARK SMILES IDX 82 56 84 57 77 58 78 59 79 60 80 61 81 62 57 63 58 64 67 65
REMARK SMILES IDX 59 66 60 67 66 68 68 69 61 70 62 71 63 72 64 73 65 74 6 75
REMARK SMILES IDX 7 76 8 77 9 79 10 80 11 81 19 82 12 83 18 84 13 85 17 86
REMARK SMILES IDX 14 87 16 88 15 89 20 90 21 91 22 92 23 93 24 94 25 95 29 96
REMARK SMILES IDX 26 97 28 98 27 99
REMARK H PARENT 3 6 89 24 55 35 7 78
REMARK Flexibility Score: inf
ROOT
ATOM      1  C   UNL A   1      38.109  20.157  25.041  1.00  0.00     0.042 C 
ENDROOT
BRANCH   1   2
ATOM      2  C   UNL A   1      39.313  20.580  25.880  1.00  0.00     0.118 C 
BRANCH   2   3
ATOM      3  N   UNL A   1      40.275  19.504  26.023  1.00  0.00    -0.352 N 
ATOM      4  O   UNL A   1      42.267  18.493  25.934  1.00  0.00    -0.269 OA
ATOM      5  C   UNL A   1      41.646  19.542  26.106  1.00  0.00     0.251 C 
ATOM      6  H   UNL A   1      39.883  18.603  26.070  1.00  0.00     0.163 HD
BRANCH   5   7
ATOM      7  C   UNL A   1      42.393  20.793  26.397  1.00  0.00     0.039 A 
ATOM      8  C   UNL A   1      42.875  21.631  25.386  1.00  0.00     0.014 A 
ATOM      9  C   UNL A   1      42.492  21.211  27.731  1.00  0.00     0.014 A 
ATOM     10  C   UNL A   1      43.509  22.836  25.706  1.00  0.00     0.010 A 
ATOM     11  C   UNL A   1      43.065  22.449  28.046  1.00  0.00     0.010 A 
ATOM     12  C   UNL A   1      43.578  23.276  27.036  1.00  0.00    -0.014 A 
BRANCH  12  13
ATOM     13  C   UNL A   1      44.083  24.638  27.369  1.00  0.00     0.031 A 
ATOM     14  C   UNL A   1      43.142  25.734  27.787  1.00  0.00     0.074 A 
ATOM     15  C   UNL A   1      45.396  24.907  27.224  1.00  0.00     0.049 A 
ATOM     16  N   UNL A   1      43.391  27.001  27.996  1.00  0.00    -0.248 NA
ATOM     17  C   UNL A   1      41.735  25.357  27.985  1.00  0.00     0.031 C 
ATOM     18  C   UNL A   1      46.412  23.939  26.805  1.00  0.00     0.029 A 
ATOM     19  N   UNL A   1      46.101  26.074  27.393  1.00  0.00    -0.354 N 
ATOM     20  C   UNL A   1      42.172  27.583  28.321  1.00  0.00     0.074 A 
ATOM     21  C   UNL A   1      41.179  26.529  28.269  1.00  0.00     0.031 C 
ATOM     22  C   UNL A   1      47.607  24.547  26.758  1.00  0.00     0.029 A 
ATOM     23  C   UNL A   1      47.435  25.959  27.083  1.00  0.00     0.049 A 
ATOM     24  H   UNL A   1      45.690  26.911  27.706  1.00  0.00     0.167 HD
ATOM     25  C   UNL A   1      41.904  28.876  28.634  1.00  0.00     0.037 A 
ATOM     26  C   UNL A   1      48.413  26.886  27.033  1.00  0.00     0.037 A 
ATOM     27  C   UNL A   1      42.896  29.920  28.694  1.00  0.00     0.049 A 
ATOM     28  C   UNL A   1      48.096  28.313  27.373  1.00  0.00     0.074 A 
ATOM     29  C   UNL A   1      42.727  31.250  29.036  1.00  0.00     0.029 A 
ATOM     30  N   UNL A   1      44.241  29.754  28.396  1.00  0.00    -0.354 N 
ATOM     31  N   UNL A   1      46.942  28.839  27.708  1.00  0.00    -0.248 NA
ATOM     32  C   UNL A   1      49.206  29.273  27.328  1.00  0.00     0.031 C 
ATOM     33  C   UNL A   1      43.961  31.898  28.910  1.00  0.00     0.029 A 
ATOM     34  C   UNL A   1      44.910  30.961  28.532  1.00  0.00     0.049 A 
ATOM     35  H   UNL A   1      44.661  28.905  28.127  1.00  0.00     0.167 HD
ATOM     36  C   UNL A   1      47.190  30.187  27.935  1.00  0.00     0.074 A 
ATOM     37  C   UNL A   1      48.605  30.397  27.700  1.00  0.00     0.031 C 
ATOM     38  C   UNL A   1      46.321  31.158  28.308  1.00  0.00     0.037 A 
BRANCH  25  39
ATOM     39  C   UNL A   1      40.469  29.237  28.908  1.00  0.00     0.058 A 
ATOM     40  C   UNL A   1      39.549  29.451  27.870  1.00  0.00     0.135 A 
ATOM     41  C   UNL A   1      40.008  29.367  30.228  1.00  0.00     0.135 A 
ATOM     42  F   UNL A   1      39.938  29.348  26.589  1.00  0.00    -0.206 F 
ATOM     43  C   UNL A   1      38.234  29.827  28.130  1.00  0.00     0.059 A 
ATOM     44  C   UNL A   1      38.690  29.716  30.512  1.00  0.00     0.059 A 
ATOM     45  F   UNL A   1      40.843  29.164  31.259  1.00  0.00    -0.206 F 
ATOM     46  C   UNL A   1      37.818  29.968  29.455  1.00  0.00     0.060 A 
BRANCH  46  47
ATOM     47  S   UNL A   1      36.122  30.496  29.780  1.00  0.00     0.124 S 
ATOM     48  O   UNL A   1      35.394  29.793  28.727  1.00  0.00    -0.237 OA
ATOM     49  O   UNL A   1      35.894  30.011  31.138  1.00  0.00    -0.237 OA
ATOM     50  O   UNL A   1      36.185  31.948  29.639  1.00  0.00    -0.744 OA
ENDBRANCH  46  47
ENDBRANCH  25  39
BRANCH  26  51
ATOM     51  C   UNL A   1      49.783  26.469  26.638  1.00  0.00     0.058 A 
ATOM     52  C   UNL A   1      50.700  26.009  27.592  1.00  0.00     0.135 A 
ATOM     53  C   UNL A   1      50.171  26.444  25.288  1.00  0.00     0.135 A 
ATOM     54  F   UNL A   1      50.376  26.022  28.894  1.00  0.00    -0.206 F 
ATOM     55  C   UNL A   1      51.951  25.524  27.224  1.00  0.00     0.059 A 
ATOM     56  C   UNL A   1      51.407  25.943  24.893  1.00  0.00     0.059 A 
ATOM     57  F   UNL A   1      49.321  26.860  24.337  1.00  0.00    -0.206 F 
ATOM     58  C   UNL A   1      52.290  25.484  25.869  1.00  0.00     0.060 A 
BRANCH  58  59
ATOM     59  S   UNL A   1      53.873  24.754  25.394  1.00  0.00     0.124 S 
ATOM     60  O   UNL A   1      54.644  24.897  26.622  1.00  0.00    -0.237 OA
ATOM     61  O   UNL A   1      53.488  23.391  25.038  1.00  0.00    -0.237 OA
ATOM     62  O   UNL A   1      54.303  25.586  24.274  1.00  0.00    -0.744 OA
ENDBRANCH  58  59
ENDBRANCH  26  51
BRANCH  38  63
ATOM     63  C   UNL A   1      46.873  32.538  28.530  1.00  0.00     0.058 A 
ATOM     64  C   UNL A   1      47.388  32.935  29.772  1.00  0.00     0.135 A 
ATOM     65  C   UNL A   1      46.962  33.444  27.460  1.00  0.00     0.135 A 
ATOM     66  F   UNL A   1      47.316  32.110  30.828  1.00  0.00    -0.206 F 
ATOM     67  C   UNL A   1      47.973  34.186  29.949  1.00  0.00     0.059 A 
ATOM     68  C   UNL A   1      47.559  34.691  27.609  1.00  0.00     0.059 A 
ATOM     69  F   UNL A   1      46.487  33.109  26.250  1.00  0.00    -0.206 F 
ATOM     70  C   UNL A   1      48.060  35.055  28.859  1.00  0.00     0.060 A 
BRANCH  70  71
ATOM     71  S   UNL A   1      48.883  36.648  29.079  1.00  0.00     0.124 S 
ATOM     72  O   UNL A   1      47.985  37.544  28.361  1.00  0.00    -0.237 OA
ATOM     73  O   UNL A   1      48.897  36.794  30.532  1.00  0.00    -0.237 OA
ATOM     74  O   UNL A   1      50.191  36.441  28.464  1.00  0.00    -0.744 OA
ENDBRANCH  70  71
ENDBRANCH  38  63
ENDBRANCH  12  13
ENDBRANCH   5   7
ENDBRANCH   2   3
ENDBRANCH   1   2
BRANCH   1  75
ATOM     75  C   UNL A   1      36.844  20.981  25.281  1.00  0.00     0.117 C 
BRANCH  75  76
ATOM     76  N   UNL A   1      35.619  20.236  25.021  1.00  0.00    -0.354 N 
ATOM     77  C   UNL A   1      34.332  20.581  24.753  1.00  0.00     0.243 C 
ATOM     78  H   UNL A   1      35.754  19.261  25.044  1.00  0.00     0.163 HD
ATOM     79  O   UNL A   1      33.586  19.638  24.451  1.00  0.00    -0.273 OA
BRANCH  77  80
ATOM     80  C   UNL A   1      33.748  22.020  24.785  1.00  0.00     0.179 C 
ATOM     81  C   UNL A   1      34.366  22.783  23.579  1.00  0.00     0.071 C 
ATOM     82  N   UNL A   1      33.805  22.772  26.052  1.00  0.00    -0.323 N 
ATOM     83  C   UNL A   1      34.124  24.269  23.674  1.00  0.00    -0.040 A 
ATOM     84  C   UNL A   1      34.659  23.960  26.088  1.00  0.00     0.156 C 
ATOM     85  C   UNL A   1      33.773  25.048  22.572  1.00  0.00     0.004 A 
ATOM     86  C   UNL A   1      34.284  24.864  24.938  1.00  0.00    -0.025 A 
ATOM     87  C   UNL A   1      33.559  26.417  22.733  1.00  0.00     0.000 A 
ATOM     88  C   UNL A   1      34.076  26.236  25.091  1.00  0.00     0.006 A 
ATOM     89  C   UNL A   1      33.708  27.009  23.989  1.00  0.00     0.000 A 
BRANCH  82  90
ATOM     90  C   UNL A   1      32.941  22.564  27.119  1.00  0.00     0.261 C 
ATOM     91  O   UNL A   1      33.357  22.163  28.207  1.00  0.00    -0.271 OA
BRANCH  90  92
ATOM     92  C   UNL A   1      31.443  22.833  26.914  1.00  0.00     0.329 C 
BRANCH  92  93
ATOM     93  O   UNL A   1      31.098  24.198  27.145  1.00  0.00    -0.484 OA
BRANCH  93  94
ATOM     94  C   UNL A   1      30.724  24.773  25.960  1.00  0.00     0.120 A 
ATOM     95  C   UNL A   1      30.437  26.136  25.932  1.00  0.00     0.046 A 
ATOM     96  C   UNL A   1      30.648  24.000  24.804  1.00  0.00     0.046 A 
ATOM     97  C   UNL A   1      30.130  26.744  24.716  1.00  0.00     0.004 A 
ATOM     98  C   UNL A   1      30.347  24.612  23.589  1.00  0.00     0.004 A 
ATOM     99  C   UNL A   1      30.096  25.984  23.545  1.00  0.00     0.000 A 
ENDBRANCH  93  94
ENDBRANCH  92  93
ENDBRANCH  90  92
ENDBRANCH  82  90
ENDBRANCH  77  80
ENDBRANCH  75  76
ENDBRANCH   1  75
TORSDOF 17
ENDMDL
MODEL 2
REMARK VINA RESULT:     -12.3      3.235      8.087
REMARK SMILES O=C(NCCCNC(=O)[C@@H]1Cc2ccccc2CN1C(=O)COc1ccccc1)c1ccc(-c2c3nc(c(-c4c(F)cc(S(=O)(=O)[O-])cc4F)c4ccc([nH]4)c(-c4c(F)cc(S(=O)(=O)[O-])cc4F)c4nc(c(-c5c(F)cc(S(=O)(=O)[O-])cc5F)c5ccc2[nH]5)C=C4)C=C3)cc1
REMARK SMILES IDX 5 1 4 2 3 3 1 4 2 5 30 7 31 8 95 9 32 10 94 11 33 12 34 13
REMARK SMILES IDX 35 14 88 15 36 16 93 17 87 18 89 19 37 20 92 21 86 22 85 23
REMARK SMILES IDX 38 25 72 26 51 27 71 28 52 29 55 30 70 31 90 32 53 33 54 34
REMARK SMILES IDX 69 36 91 37 56 38 39 39 40 40 49 41 41 42 42 43 48 44 50 45
REMARK SMILES IDX 43 46 44 47 45 48 46 49 47 50 73 51 74 52 83 53 75 54 76 55
REMARK SMILES IDX 82 56 84 57 77 58 78 59 79 60 80 61 81 62 57 63 58 64 67 65
REMARK SMILES IDX 59 66 60 67 66 68 68 69 61 70 62 71 63 72 64 73 65 74 6 75
REMARK SMILES IDX 7 76 8 77 9 79 10 80 11 81 19 82 12 83 18 84 13 85 17 86
REMARK SMILES IDX 14 87 16 88 15 89 20 90 21 91 22 92 23 93 24 94 25 95 29 96
REMARK SMILES IDX 26 97 28 98 27 99
REMARK H PARENT 3 6 89 24 55 35 7 78
REMARK Flexibility Score: inf
ROOT
ATOM      1  C   UNL A   1      31.867  28.194  27.143  1.00  0.00     0.042 C 
ENDROOT
BRANCH   1   2
ATOM      2  C   UNL A   1      33.321  28.641  27.268  1.00  0.00     0.118 C 
BRANCH   2   3
ATOM      3  N   UNL A   1      33.426  30.034  27.663  1.00  0.00    -0.352 N 
ATOM      4  O   UNL A   1      34.188  31.804  28.793  1.00  0.00    -0.269 OA
ATOM      5  C   UNL A   1      34.438  30.701  28.309  1.00  0.00     0.251 C 
ATOM      6  H   UNL A   1      32.648  30.588  27.429  1.00  0.00     0.163 HD
BRANCH   5   7
ATOM      7  C   UNL A   1      35.809  30.141  28.436  1.00  0.00     0.039 A 
ATOM      8  C   UNL A   1      36.733  30.178  27.387  1.00  0.00     0.014 A 
ATOM      9  C   UNL A   1      36.226  29.689  29.695  1.00  0.00     0.014 A 
ATOM     10  C   UNL A   1      38.036  29.705  27.575  1.00  0.00     0.010 A 
ATOM     11  C   UNL A   1      37.549  29.280  29.900  1.00  0.00     0.010 A 
ATOM     12  C   UNL A   1      38.470  29.285  28.841  1.00  0.00    -0.014 A 
BRANCH  12  13
ATOM     13  C   UNL A   1      39.901  28.957  29.092  1.00  0.00     0.031 A 
ATOM     14  C   UNL A   1      40.860  29.999  29.600  1.00  0.00     0.074 A 
ATOM     15  C   UNL A   1      40.356  27.724  28.793  1.00  0.00     0.049 A 
ATOM     16  N   UNL A   1      42.156  29.921  29.760  1.00  0.00    -0.248 NA
ATOM     17  C   UNL A   1      40.286  31.302  29.966  1.00  0.00     0.031 C 
ATOM     18  C   UNL A   1      39.536  26.628  28.274  1.00  0.00     0.029 A 
ATOM     19  N   UNL A   1      41.619  27.188  28.862  1.00  0.00    -0.354 N 
ATOM     20  C   UNL A   1      42.562  31.170  30.215  1.00  0.00     0.074 A 
ATOM     21  C   UNL A   1      41.371  31.992  30.293  1.00  0.00     0.031 C 
ATOM     22  C   UNL A   1      40.311  25.550  28.080  1.00  0.00     0.029 A 
ATOM     23  C   UNL A   1      41.692  25.894  28.402  1.00  0.00     0.049 A 
ATOM     24  H   UNL A   1      42.396  27.682  29.208  1.00  0.00     0.167 HD
ATOM     25  C   UNL A   1      43.810  31.591  30.537  1.00  0.00     0.037 A 
ATOM     26  C   UNL A   1      42.751  25.079  28.224  1.00  0.00     0.037 A 
ATOM     27  C   UNL A   1      44.990  30.767  30.466  1.00  0.00     0.049 A 
ATOM     28  C   UNL A   1      44.125  25.566  28.578  1.00  0.00     0.074 A 
ATOM     29  C   UNL A   1      46.291  31.095  30.806  1.00  0.00     0.029 A 
ATOM     30  N   UNL A   1      45.015  29.454  30.018  1.00  0.00    -0.354 N 
ATOM     31  N   UNL A   1      44.486  26.741  29.036  1.00  0.00    -0.248 NA
ATOM     32  C   UNL A   1      45.237  24.625  28.390  1.00  0.00     0.031 C 
ATOM     33  C   UNL A   1      47.109  29.994  30.529  1.00  0.00     0.029 A 
ATOM     34  C   UNL A   1      46.311  28.963  30.057  1.00  0.00     0.049 A 
ATOM     35  H   UNL A   1      44.229  28.945  29.715  1.00  0.00     0.167 HD
ATOM     36  C   UNL A   1      45.863  26.674  29.212  1.00  0.00     0.074 A 
ATOM     37  C   UNL A   1      46.271  25.343  28.813  1.00  0.00     0.031 C 
ATOM     38  C   UNL A   1      46.707  27.632  29.668  1.00  0.00     0.037 A 
BRANCH  25  39
ATOM     39  C   UNL A   1      43.964  33.025  30.970  1.00  0.00     0.058 A 
ATOM     40  C   UNL A   1      43.882  33.404  32.319  1.00  0.00     0.135 A 
ATOM     41  C   UNL A   1      44.201  34.032  30.021  1.00  0.00     0.135 A 
ATOM     42  F   UNL A   1      43.649  32.482  33.267  1.00  0.00    -0.206 F 
ATOM     43  C   UNL A   1      43.983  34.736  32.708  1.00  0.00     0.059 A 
ATOM     44  C   UNL A   1      44.331  35.369  30.390  1.00  0.00     0.059 A 
ATOM     45  F   UNL A   1      44.298  33.725  28.718  1.00  0.00    -0.206 F 
ATOM     46  C   UNL A   1      44.197  35.712  31.733  1.00  0.00     0.060 A 
BRANCH  46  47
ATOM     47  S   UNL A   1      44.284  37.443  32.244  1.00  0.00     0.124 S 
ATOM     48  O   UNL A   1      43.890  38.127  31.016  1.00  0.00    -0.237 OA
ATOM     49  O   UNL A   1      43.318  37.499  33.338  1.00  0.00    -0.237 OA
ATOM     50  O   UNL A   1      45.680  37.611  32.637  1.00  0.00    -0.744 OA
ENDBRANCH  46  47
ENDBRANCH  25  39
BRANCH  26  51
ATOM     51  C   UNL A   1      42.528  23.714  27.680  1.00  0.00     0.058 A 
ATOM     52  C   UNL A   1      42.499  23.486  26.298  1.00  0.00     0.135 A 
ATOM     53  C   UNL A   1      42.425  22.603  28.532  1.00  0.00     0.135 A 
ATOM     54  F   UNL A   1      42.586  24.518  25.446  1.00  0.00    -0.206 F 
ATOM     55  C   UNL A   1      42.389  22.200  25.776  1.00  0.00     0.059 A 
ATOM     56  C   UNL A   1      42.337  21.307  28.034  1.00  0.00     0.059 A 
ATOM     57  F   UNL A   1      42.464  22.771  29.863  1.00  0.00    -0.206 F 
ATOM     58  C   UNL A   1      42.321  21.116  26.654  1.00  0.00     0.060 A 
BRANCH  58  59
ATOM     59  S   UNL A   1      42.288  19.446  25.966  1.00  0.00     0.124 S 
ATOM     60  O   UNL A   1      42.774  18.655  27.090  1.00  0.00    -0.237 OA
ATOM     61  O   UNL A   1      40.876  19.280  25.633  1.00  0.00    -0.237 OA
ATOM     62  O   UNL A   1      43.186  19.537  24.819  1.00  0.00    -0.744 OA
ENDBRANCH  58  59
ENDBRANCH  26  51
BRANCH  38  63
ATOM     63  C   UNL A   1      48.159  27.272  29.805  1.00  0.00     0.058 A 
ATOM     64  C   UNL A   1      49.088  27.560  28.795  1.00  0.00     0.135 A 
ATOM     65  C   UNL A   1      48.638  26.707  30.998  1.00  0.00     0.135 A 
ATOM     66  F   UNL A   1      48.679  28.091  27.631  1.00  0.00    -0.206 F 
ATOM     67  C   UNL A   1      50.446  27.300  28.962  1.00  0.00     0.059 A 
ATOM     68  C   UNL A   1      49.992  26.456  31.194  1.00  0.00     0.059 A 
ATOM     69  F   UNL A   1      47.788  26.416  31.997  1.00  0.00    -0.206 F 
ATOM     70  C   UNL A   1      50.889  26.754  30.169  1.00  0.00     0.060 A 
BRANCH  70  71
ATOM     71  S   UNL A   1      52.660  26.485  30.403  1.00  0.00     0.124 S 
ATOM     72  O   UNL A   1      53.089  26.161  29.048  1.00  0.00    -0.237 OA
ATOM     73  O   UNL A   1      53.107  27.776  30.918  1.00  0.00    -0.237 OA
ATOM     74  O   UNL A   1      52.712  25.384  31.361  1.00  0.00    -0.744 OA
ENDBRANCH  70  71
ENDBRANCH  38  63
ENDBRANCH  12  13
ENDBRANCH   5   7
ENDBRANCH   2   3
ENDBRANCH   1   2
BRANCH   1  75
ATOM     75  C   UNL A   1      31.683  26.723  26.772  1.00  0.00     0.117 C 
BRANCH  75  76
ATOM     76  N   UNL A   1      31.743  26.485  25.335  1.00  0.00    -0.354 N 
ATOM     77  C   UNL A   1      32.319  25.537  24.549  1.00  0.00     0.243 C 
ATOM     78  H   UNL A   1      31.256  27.164  24.816  1.00  0.00     0.163 HD
ATOM     79  O   UNL A   1      32.028  25.603  23.346  1.00  0.00    -0.273 OA
BRANCH  77  80
ATOM     80  C   UNL A   1      33.273  24.409  25.031  1.00  0.00     0.179 C 
ATOM     81  C   UNL A   1      34.721  24.966  24.920  1.00  0.00     0.071 C 
ATOM     82  N   UNL A   1      33.112  23.061  24.454  1.00  0.00    -0.323 N 
ATOM     83  C   UNL A   1      35.752  23.875  25.061  1.00  0.00    -0.040 A 
ATOM     84  C   UNL A   1      34.204  22.555  23.622  1.00  0.00     0.156 C 
ATOM     85  C   UNL A   1      36.925  24.036  25.797  1.00  0.00     0.004 A 
ATOM     86  C   UNL A   1      35.496  22.662  24.396  1.00  0.00    -0.025 A 
ATOM     87  C   UNL A   1      37.834  22.981  25.890  1.00  0.00     0.000 A 
ATOM     88  C   UNL A   1      36.413  21.613  24.485  1.00  0.00     0.006 A 
ATOM     89  C   UNL A   1      37.578  21.773  25.237  1.00  0.00     0.000 A 
BRANCH  82  90
ATOM     90  C   UNL A   1      32.118  22.169  24.830  1.00  0.00     0.261 C 
ATOM     91  O   UNL A   1      31.210  22.510  25.591  1.00  0.00    -0.271 OA
BRANCH  90  92
ATOM     92  C   UNL A   1      32.174  20.733  24.287  1.00  0.00     0.329 C 
BRANCH  92  93
ATOM     93  O   UNL A   1      32.095  19.756  25.324  1.00  0.00    -0.484 OA
BRANCH  93  94
ATOM     94  C   UNL A   1      32.615  18.574  24.868  1.00  0.00     0.120 A 
ATOM     95  C   UNL A   1      33.052  18.493  23.549  1.00  0.00     0.046 A 
ATOM     96  C   UNL A   1      32.712  17.480  25.726  1.00  0.00     0.046 A 
ATOM     97  C   UNL A   1      33.652  17.317  23.099  1.00  0.00     0.004 A 
ATOM     98  C   UNL A   1      33.318  16.309  25.275  1.00  0.00     0.004 A 
ATOM     99  C   UNL A   1      33.795  16.231  23.966  1.00  0.00     0.000 A 
ENDBRANCH  93  94
ENDBRANCH  92  93
ENDBRANCH  90  92
ENDBRANCH  82  90
ENDBRANCH  77  80
ENDBRANCH  75  76
ENDBRANCH   1  75
TORSDOF 17
ENDMDL
MODEL 3
REMARK VINA RESULT:     -11.9      2.588      8.371
REMARK SMILES O=C(NCCCNC(=O)[C@@H]1Cc2ccccc2CN1C(=O)COc1ccccc1)c1ccc(-c2c3nc(c(-c4c(F)cc(S(=O)(=O)[O-])cc4F)c4ccc([nH]4)c(-c4c(F)cc(S(=O)(=O)[O-])cc4F)c4nc(c(-c5c(F)cc(S(=O)(=O)[O-])cc5F)c5ccc2[nH]5)C=C4)C=C3)cc1
REMARK SMILES IDX 5 1 4 2 3 3 1 4 2 5 30 7 31 8 95 9 32 10 94 11 33 12 34 13
REMARK SMILES IDX 35 14 88 15 36 16 93 17 87 18 89 19 37 20 92 21 86 22 85 23
REMARK SMILES IDX 38 25 72 26 51 27 71 28 52 29 55 30 70 31 90 32 53 33 54 34
REMARK SMILES IDX 69 36 91 37 56 38 39 39 40 40 49 41 41 42 42 43 48 44 50 45
REMARK SMILES IDX 43 46 44 47 45 48 46 49 47 50 73 51 74 52 83 53 75 54 76 55
REMARK SMILES IDX 82 56 84 57 77 58 78 59 79 60 80 61 81 62 57 63 58 64 67 65
REMARK SMILES IDX 59 66 60 67 66 68 68 69 61 70 62 71 63 72 64 73 65 74 6 75
REMARK SMILES IDX 7 76 8 77 9 79 10 80 11 81 19 82 12 83 18 84 13 85 17 86
REMARK SMILES IDX 14 87 16 88 15 89 20 90 21 91 22 92 23 93 24 94 25 95 29 96
REMARK SMILES IDX 26 97 28 98 27 99
REMARK H PARENT 3 6 89 24 55 35 7 78
REMARK Flexibility Score: inf
ROOT
ATOM      1  C   UNL A   1      33.428  29.693  26.822  1.00  0.00     0.042 C 
ENDROOT
BRANCH   1   2
ATOM      2  C   UNL A   1      34.676  29.366  27.638  1.00  0.00     0.118 C 
BRANCH   2   3
ATOM      3  N   UNL A   1      34.929  30.364  28.661  1.00  0.00    -0.352 N 
ATOM      4  O   UNL A   1      35.918  31.290  30.438  1.00  0.00    -0.269 OA
ATOM      5  C   UNL A   1      36.037  30.571  29.447  1.00  0.00     0.251 C 
ATOM      6  H   UNL A   1      34.190  30.995  28.814  1.00  0.00     0.163 HD
BRANCH   5   7
ATOM      7  C   UNL A   1      37.358  29.963  29.140  1.00  0.00     0.039 A 
ATOM      8  C   UNL A   1      37.867  29.895  27.839  1.00  0.00     0.014 A 
ATOM      9  C   UNL A   1      38.174  29.573  30.210  1.00  0.00     0.014 A 
ATOM     10  C   UNL A   1      39.147  29.382  27.604  1.00  0.00     0.010 A 
ATOM     11  C   UNL A   1      39.479  29.124  29.981  1.00  0.00     0.010 A 
ATOM     12  C   UNL A   1      39.981  29.024  28.674  1.00  0.00    -0.014 A 
BRANCH  12  13
ATOM     13  C   UNL A   1      41.406  28.653  28.445  1.00  0.00     0.031 A 
ATOM     14  C   UNL A   1      42.490  29.696  28.447  1.00  0.00     0.074 A 
ATOM     15  C   UNL A   1      41.715  27.371  28.165  1.00  0.00     0.049 A 
ATOM     16  N   UNL A   1      43.757  29.569  28.149  1.00  0.00    -0.248 NA
ATOM     17  C   UNL A   1      42.093  31.061  28.822  1.00  0.00     0.031 C 
ATOM     18  C   UNL A   1      40.755  26.267  28.111  1.00  0.00     0.029 A 
ATOM     19  N   UNL A   1      42.915  26.782  27.853  1.00  0.00    -0.354 N 
ATOM     20  C   UNL A   1      44.308  30.839  28.270  1.00  0.00     0.074 A 
ATOM     21  C   UNL A   1      43.229  31.726  28.656  1.00  0.00     0.031 C 
ATOM     22  C   UNL A   1      41.403  25.135  27.795  1.00  0.00     0.029 A 
ATOM     23  C   UNL A   1      42.811  25.441  27.565  1.00  0.00     0.049 A 
ATOM     24  H   UNL A   1      43.769  27.272  27.837  1.00  0.00     0.167 HD
ATOM     25  C   UNL A   1      45.592  31.230  28.076  1.00  0.00     0.037 A 
ATOM     26  C   UNL A   1      43.731  24.557  27.131  1.00  0.00     0.037 A 
ATOM     27  C   UNL A   1      46.664  30.342  27.700  1.00  0.00     0.049 A 
ATOM     28  C   UNL A   1      45.145  25.010  26.914  1.00  0.00     0.074 A 
ATOM     29  C   UNL A   1      48.003  30.639  27.515  1.00  0.00     0.029 A 
ATOM     30  N   UNL A   1      46.518  28.987  27.442  1.00  0.00    -0.354 N 
ATOM     31  N   UNL A   1      45.654  26.209  27.062  1.00  0.00    -0.248 NA
ATOM     32  C   UNL A   1      46.110  23.996  26.468  1.00  0.00     0.031 C 
ATOM     33  C   UNL A   1      48.661  29.472  27.110  1.00  0.00     0.029 A 
ATOM     34  C   UNL A   1      47.740  28.437  27.085  1.00  0.00     0.049 A 
ATOM     35  H   UNL A   1      45.672  28.488  27.502  1.00  0.00     0.167 HD
ATOM     36  C   UNL A   1      47.003  26.092  26.750  1.00  0.00     0.074 A 
ATOM     37  C   UNL A   1      47.232  24.703  26.405  1.00  0.00     0.031 C 
ATOM     38  C   UNL A   1      47.961  27.050  26.754  1.00  0.00     0.037 A 
BRANCH  25  39
ATOM     39  C   UNL A   1      45.901  32.694  28.240  1.00  0.00     0.058 A 
ATOM     40  C   UNL A   1      46.296  33.232  29.475  1.00  0.00     0.135 A 
ATOM     41  C   UNL A   1      45.804  33.568  27.146  1.00  0.00     0.135 A 
ATOM     42  F   UNL A   1      46.398  32.442  30.556  1.00  0.00    -0.206 F 
ATOM     43  C   UNL A   1      46.539  34.594  29.630  1.00  0.00     0.059 A 
ATOM     44  C   UNL A   1      46.067  34.930  27.273  1.00  0.00     0.059 A 
ATOM     45  F   UNL A   1      45.439  33.105  25.940  1.00  0.00    -0.206 F 
ATOM     46  C   UNL A   1      46.410  35.436  28.524  1.00  0.00     0.060 A 
BRANCH  46  47
ATOM     47  S   UNL A   1      46.687  37.207  28.746  1.00  0.00     0.124 S 
ATOM     48  O   UNL A   1      45.859  37.765  27.681  1.00  0.00    -0.237 OA
ATOM     49  O   UNL A   1      46.205  37.435  30.106  1.00  0.00    -0.237 OA
ATOM     50  O   UNL A   1      48.128  37.352  28.564  1.00  0.00    -0.744 OA
ENDBRANCH  46  47
ENDBRANCH  25  39
BRANCH  26  51
ATOM     51  C   UNL A   1      43.319  23.152  26.878  1.00  0.00     0.058 A 
ATOM     52  C   UNL A   1      43.251  22.644  25.574  1.00  0.00     0.135 A 
ATOM     53  C   UNL A   1      43.068  22.268  27.941  1.00  0.00     0.135 A 
ATOM     54  F   UNL A   1      43.476  23.453  24.527  1.00  0.00    -0.206 F 
ATOM     55  C   UNL A   1      42.962  21.305  25.329  1.00  0.00     0.059 A 
ATOM     56  C   UNL A   1      42.799  20.921  27.722  1.00  0.00     0.059 A 
ATOM     57  F   UNL A   1      43.137  22.705  29.208  1.00  0.00    -0.206 F 
ATOM     58  C   UNL A   1      42.750  20.449  26.412  1.00  0.00     0.060 A 
BRANCH  58  59
ATOM     59  S   UNL A   1      42.482  18.693  26.087  1.00  0.00     0.124 S 
ATOM     60  O   UNL A   1      41.068  18.671  25.734  1.00  0.00    -0.237 OA
ATOM     61  O   UNL A   1      43.416  18.436  24.995  1.00  0.00    -0.237 OA
ATOM     62  O   UNL A   1      42.828  18.060  27.357  1.00  0.00    -0.744 OA
ENDBRANCH  58  59
ENDBRANCH  26  51
BRANCH  38  63
ATOM     63  C   UNL A   1      49.365  26.633  26.416  1.00  0.00     0.058 A 
ATOM     64  C   UNL A   1      50.174  25.952  27.335  1.00  0.00     0.135 A 
ATOM     65  C   UNL A   1      49.872  26.848  25.124  1.00  0.00     0.135 A 
ATOM     66  F   UNL A   1      49.738  25.732  28.586  1.00  0.00    -0.206 F 
ATOM     67  C   UNL A   1      51.442  25.496  26.987  1.00  0.00     0.059 A 
ATOM     68  C   UNL A   1      51.129  26.384  24.748  1.00  0.00     0.059 A 
ATOM     69  F   UNL A   1      49.134  27.493  24.206  1.00  0.00    -0.206 F 
ATOM     70  C   UNL A   1      51.908  25.711  25.689  1.00  0.00     0.060 A 
BRANCH  70  71
ATOM     71  S   UNL A   1      53.526  25.054  25.225  1.00  0.00     0.124 S 
ATOM     72  O   UNL A   1      53.669  25.560  23.864  1.00  0.00    -0.237 OA
ATOM     73  O   UNL A   1      54.406  25.658  26.221  1.00  0.00    -0.237 OA
ATOM     74  O   UNL A   1      53.353  23.610  25.345  1.00  0.00    -0.744 OA
ENDBRANCH  70  71
ENDBRANCH  38  63
ENDBRANCH  12  13
ENDBRANCH   5   7
ENDBRANCH   2   3
ENDBRANCH   1   2
BRANCH   1  75
ATOM     75  C   UNL A   1      33.585  29.502  25.314  1.00  0.00     0.117 C 
BRANCH  75  76
ATOM     76  N   UNL A   1      32.340  29.695  24.581  1.00  0.00    -0.354 N 
ATOM     77  C   UNL A   1      31.337  28.874  24.172  1.00  0.00     0.243 C 
ATOM     78  H   UNL A   1      32.191  30.634  24.325  1.00  0.00     0.163 HD
ATOM     79  O   UNL A   1      30.356  29.447  23.677  1.00  0.00    -0.273 OA
BRANCH  77  80
ATOM     80  C   UNL A   1      31.324  27.325  24.284  1.00  0.00     0.179 C 
ATOM     81  C   UNL A   1      30.672  26.978  25.653  1.00  0.00     0.071 C 
ATOM     82  N   UNL A   1      32.577  26.592  24.024  1.00  0.00    -0.323 N 
ATOM     83  C   UNL A   1      30.878  25.530  26.020  1.00  0.00    -0.040 A 
ATOM     84  C   UNL A   1      33.186  25.886  25.152  1.00  0.00     0.156 C 
ATOM     85  C   UNL A   1      29.876  24.747  26.592  1.00  0.00     0.004 A 
ATOM     86  C   UNL A   1      32.151  24.983  25.777  1.00  0.00    -0.025 A 
ATOM     87  C   UNL A   1      30.134  23.411  26.901  1.00  0.00     0.000 A 
ATOM     88  C   UNL A   1      32.406  23.648  26.098  1.00  0.00     0.006 A 
ATOM     89  C   UNL A   1      31.395  22.863  26.653  1.00  0.00     0.000 A 
BRANCH  82  90
ATOM     90  C   UNL A   1      33.081  26.341  22.755  1.00  0.00     0.261 C 
ATOM     91  O   UNL A   1      33.860  27.128  22.212  1.00  0.00    -0.271 OA
BRANCH  90  92
ATOM     92  C   UNL A   1      32.639  25.063  22.027  1.00  0.00     0.329 C 
BRANCH  92  93
ATOM     93  O   UNL A   1      33.738  24.213  21.704  1.00  0.00    -0.484 OA
BRANCH  93  94
ATOM     94  C   UNL A   1      33.717  23.120  22.529  1.00  0.00     0.120 A 
ATOM     95  C   UNL A   1      34.814  22.872  23.350  1.00  0.00     0.046 A 
ATOM     96  C   UNL A   1      32.603  22.282  22.546  1.00  0.00     0.046 A 
ATOM     97  C   UNL A   1      34.769  21.806  24.247  1.00  0.00     0.004 A 
ATOM     98  C   UNL A   1      32.560  21.221  23.448  1.00  0.00     0.004 A 
ATOM     99  C   UNL A   1      33.638  20.989  24.303  1.00  0.00     0.000 A 
ENDBRANCH  93  94
ENDBRANCH  92  93
ENDBRANCH  90  92
ENDBRANCH  82  90
ENDBRANCH  77  80
ENDBRANCH  75  76
ENDBRANCH   1  75
TORSDOF 17
ENDMDL
