MODEL 1
REMARK VINA RESULT:     -10.3      0.000      0.000
REMARK SMILES Cc1cccc(C[S@@](=O)C[C@H](C)C(=O)NCCCNC(=O)c2ccc(-c3c4nc(c(-c5c(F)cc(S(=O)(=O)[O-])cc5F)c5ccc([nH]5)c(-c5c(F)cc(S(=O)(=O)[O-])cc5F)c5nc(c(-c6c(F)cc(S(=O)(=O)[O-])cc6F)c6ccc3[nH]6)C=C5)C=C4)cc2)n1
REMARK SMILES IDX 16 1 15 2 13 3 14 4 11 6 12 7 10 8 8 9 9 10 7 11 6 12 1 13
REMARK SMILES IDX 2 14 3 15 88 16 4 17 5 18 17 19 18 20 19 21 20 22 21 24
REMARK SMILES IDX 22 25 23 26 87 27 24 28 86 29 25 30 26 31 27 32 80 33 28 34
REMARK SMILES IDX 85 35 79 36 81 37 29 38 84 39 78 40 77 41 30 43 64 44 43 45
REMARK SMILES IDX 63 46 44 47 47 48 62 49 82 50 45 51 46 52 61 54 83 55 48 56
REMARK SMILES IDX 31 57 32 58 41 59 33 60 34 61 40 62 42 63 35 64 36 65 37 66
REMARK SMILES IDX 38 67 39 68 65 69 66 70 75 71 67 72 68 73 74 74 76 75 69 76
REMARK SMILES IDX 70 77 71 78 72 79 73 80 49 81 50 82 59 83 51 84 52 85 58 86
REMARK SMILES IDX 60 87 53 88 54 89 55 90 56 91 57 92
REMARK H PARENT 15 5 19 23 81 42 47 53
REMARK Flexibility Score: inf
ROOT
ATOM      1  C   UNL A   1      33.225  28.923  23.642  1.00  0.00     0.117 C 
ENDROOT
BRANCH   1   2
ATOM      2  N   UNL A   1      32.159  29.355  22.778  1.00  0.00    -0.356 N 
ATOM      3  C   UNL A   1      31.009  28.671  22.523  1.00  0.00     0.223 C 
ATOM      4  O   UNL A   1      30.098  29.261  21.935  1.00  0.00    -0.275 OA
ATOM      5  H   UNL A   1      32.271  30.224  22.330  1.00  0.00     0.163 HD
BRANCH   3   6
ATOM      6  C   UNL A   1      30.863  27.186  22.890  1.00  0.00     0.088 C 
ATOM      7  C   UNL A   1      29.676  26.991  23.821  1.00  0.00     0.019 C 
BRANCH   6   8
ATOM      8  C   UNL A   1      31.191  26.190  21.761  1.00  0.00     0.118 C 
BRANCH   8   9
ATOM      9  S   UNL A   1      32.836  25.643  21.240  1.00  0.00     0.028 S 
ATOM     10  O   UNL A   1      32.974  25.460  19.764  1.00  0.00    -0.259 OA
BRANCH   9  11
ATOM     11  C   UNL A   1      33.086  24.085  22.117  1.00  0.00     0.161 C 
BRANCH  11  12
ATOM     12  C   UNL A   1      32.945  24.315  23.590  1.00  0.00     0.053 A 
ATOM     13  C   UNL A   1      30.768  22.792  26.111  1.00  0.00     0.067 C 
ATOM     14  C   UNL A   1      31.853  23.643  25.532  1.00  0.00     0.038 A 
ATOM     15  C   UNL A   1      32.726  24.378  26.319  1.00  0.00     0.023 A 
ATOM     16  N   UNL A   1      31.956  23.612  24.189  1.00  0.00    -0.257 NA
ATOM     17  C   UNL A   1      33.719  25.128  25.694  1.00  0.00     0.004 A 
ATOM     18  C   UNL A   1      33.830  25.107  24.308  1.00  0.00     0.025 A 
ENDBRANCH  11  12
ENDBRANCH   9  11
ENDBRANCH   8   9
ENDBRANCH   6   8
ENDBRANCH   3   6
ENDBRANCH   1   2
BRANCH   1  19
ATOM     19  C   UNL A   1      32.875  28.734  25.097  1.00  0.00     0.042 C 
BRANCH  19  20
ATOM     20  C   UNL A   1      33.963  29.161  26.053  1.00  0.00     0.118 C 
BRANCH  20  21
ATOM     21  N   UNL A   1      33.705  30.450  26.680  1.00  0.00    -0.352 N 
ATOM     22  C   UNL A   1      34.370  31.102  27.695  1.00  0.00     0.251 C 
ATOM     23  H   UNL A   1      32.928  30.934  26.321  1.00  0.00     0.163 HD
ATOM     24  O   UNL A   1      33.902  32.131  28.163  1.00  0.00    -0.269 OA
BRANCH  22  25
ATOM     25  C   UNL A   1      35.631  30.545  28.237  1.00  0.00     0.039 A 
ATOM     26  C   UNL A   1      36.847  30.969  27.694  1.00  0.00     0.014 A 
ATOM     27  C   UNL A   1      35.621  29.621  29.281  1.00  0.00     0.014 A 
ATOM     28  C   UNL A   1      38.047  30.526  28.257  1.00  0.00     0.010 A 
ATOM     29  C   UNL A   1      36.806  29.286  29.920  1.00  0.00     0.010 A 
ATOM     30  C   UNL A   1      38.035  29.716  29.404  1.00  0.00    -0.014 A 
BRANCH  30  31
ATOM     31  C   UNL A   1      39.290  29.287  30.073  1.00  0.00     0.031 A 
ATOM     32  C   UNL A   1      39.769  30.009  31.305  1.00  0.00     0.074 A 
ATOM     33  C   UNL A   1      40.037  28.308  29.527  1.00  0.00     0.049 A 
ATOM     34  N   UNL A   1      40.874  29.845  31.982  1.00  0.00    -0.248 NA
ATOM     35  C   UNL A   1      38.906  31.087  31.820  1.00  0.00     0.031 C 
ATOM     36  C   UNL A   1      39.714  27.578  28.298  1.00  0.00     0.029 A 
ATOM     37  N   UNL A   1      41.233  27.766  29.928  1.00  0.00    -0.354 N 
ATOM     38  C   UNL A   1      40.853  30.812  32.981  1.00  0.00     0.074 A 
ATOM     39  C   UNL A   1      39.658  31.599  32.781  1.00  0.00     0.031 C 
ATOM     40  C   UNL A   1      40.671  26.668  28.062  1.00  0.00     0.029 A 
ATOM     41  C   UNL A   1      41.698  26.776  29.094  1.00  0.00     0.049 A 
ATOM     42  H   UNL A   1      41.713  28.058  30.735  1.00  0.00     0.167 HD
ATOM     43  C   UNL A   1      41.735  31.008  33.990  1.00  0.00     0.037 A 
ATOM     44  C   UNL A   1      42.827  26.043  29.149  1.00  0.00     0.037 A 
ATOM     45  C   UNL A   1      42.904  30.196  34.199  1.00  0.00     0.049 A 
ATOM     46  C   UNL A   1      43.783  26.261  30.289  1.00  0.00     0.074 A 
ATOM     47  C   UNL A   1      43.821  30.257  35.233  1.00  0.00     0.029 A 
ATOM     48  N   UNL A   1      43.323  29.179  33.352  1.00  0.00    -0.354 N 
ATOM     49  N   UNL A   1      43.708  27.127  31.273  1.00  0.00    -0.248 NA
ATOM     50  C   UNL A   1      44.971  25.400  30.333  1.00  0.00     0.031 C 
ATOM     51  C   UNL A   1      44.822  29.312  34.984  1.00  0.00     0.029 A 
ATOM     52  C   UNL A   1      44.499  28.622  33.825  1.00  0.00     0.049 A 
ATOM     53  H   UNL A   1      42.852  28.895  32.535  1.00  0.00     0.167 HD
ATOM     54  C   UNL A   1      44.826  26.899  32.066  1.00  0.00     0.074 A 
ATOM     55  C   UNL A   1      45.555  25.806  31.453  1.00  0.00     0.031 C 
ATOM     56  C   UNL A   1      45.214  27.536  33.200  1.00  0.00     0.037 A 
BRANCH  43  57
ATOM     57  C   UNL A   1      41.463  32.147  34.937  1.00  0.00     0.058 A 
ATOM     58  C   UNL A   1      40.649  31.992  36.073  1.00  0.00     0.135 A 
ATOM     59  C   UNL A   1      42.026  33.413  34.708  1.00  0.00     0.135 A 
ATOM     60  F   UNL A   1      40.072  30.809  36.335  1.00  0.00    -0.206 F 
ATOM     61  C   UNL A   1      40.364  33.061  36.916  1.00  0.00     0.059 A 
ATOM     62  C   UNL A   1      41.781  34.488  35.559  1.00  0.00     0.059 A 
ATOM     63  F   UNL A   1      42.814  33.620  33.642  1.00  0.00    -0.206 F 
ATOM     64  C   UNL A   1      40.931  34.307  36.647  1.00  0.00     0.060 A 
BRANCH  64  65
ATOM     65  S   UNL A   1      40.533  35.689  37.739  1.00  0.00     0.124 S 
ATOM     66  O   UNL A   1      41.840  35.990  38.314  1.00  0.00    -0.237 OA
ATOM     67  O   UNL A   1      40.006  36.681  36.808  1.00  0.00    -0.237 OA
ATOM     68  O   UNL A   1      39.557  35.120  38.663  1.00  0.00    -0.744 OA
ENDBRANCH  64  65
ENDBRANCH  43  57
BRANCH  44  69
ATOM     69  C   UNL A   1      43.088  25.018  28.103  1.00  0.00     0.058 A 
ATOM     70  C   UNL A   1      43.788  25.343  26.933  1.00  0.00     0.135 A 
ATOM     71  C   UNL A   1      42.689  23.683  28.277  1.00  0.00     0.135 A 
ATOM     72  F   UNL A   1      44.185  26.606  26.718  1.00  0.00    -0.206 F 
ATOM     73  C   UNL A   1      44.085  24.382  25.970  1.00  0.00     0.059 A 
ATOM     74  C   UNL A   1      42.994  22.700  27.341  1.00  0.00     0.059 A 
ATOM     75  F   UNL A   1      42.030  23.317  29.387  1.00  0.00    -0.206 F 
ATOM     76  C   UNL A   1      43.691  23.061  26.188  1.00  0.00     0.060 A 
BRANCH  76  77
ATOM     77  S   UNL A   1      44.149  21.810  24.969  1.00  0.00     0.124 S 
ATOM     78  O   UNL A   1      43.849  22.493  23.717  1.00  0.00    -0.237 OA
ATOM     79  O   UNL A   1      45.564  21.602  25.262  1.00  0.00    -0.237 OA
ATOM     80  O   UNL A   1      43.278  20.685  25.298  1.00  0.00    -0.744 OA
ENDBRANCH  76  77
ENDBRANCH  44  69
BRANCH  56  81
ATOM     81  C   UNL A   1      46.469  27.052  33.871  1.00  0.00     0.058 A 
ATOM     82  C   UNL A   1      47.722  27.621  33.593  1.00  0.00     0.135 A 
ATOM     83  C   UNL A   1      46.409  26.045  34.849  1.00  0.00     0.135 A 
ATOM     84  F   UNL A   1      47.837  28.581  32.663  1.00  0.00    -0.206 F 
ATOM     85  C   UNL A   1      48.875  27.192  34.245  1.00  0.00     0.059 A 
ATOM     86  C   UNL A   1      47.543  25.622  35.535  1.00  0.00     0.059 A 
ATOM     87  F   UNL A   1      45.233  25.476  35.162  1.00  0.00    -0.206 F 
ATOM     88  C   UNL A   1      48.774  26.194  35.217  1.00  0.00     0.060 A 
BRANCH  88  89
ATOM     89  S   UNL A   1      50.271  25.673  36.079  1.00  0.00     0.124 S 
ATOM     90  O   UNL A   1      51.289  26.478  35.413  1.00  0.00    -0.237 OA
ATOM     91  O   UNL A   1      49.978  26.037  37.462  1.00  0.00    -0.237 OA
ATOM     92  O   UNL A   1      50.334  24.238  35.815  1.00  0.00    -0.744 OA
ENDBRANCH  88  89
ENDBRANCH  56  81
ENDBRANCH  30  31
ENDBRANCH  22  25
ENDBRANCH  20  21
ENDBRANCH  19  20
ENDBRANCH   1  19
TORSDOF 17
ENDMDL
MODEL 2
REMARK VINA RESULT:     -10.3      5.015      6.544
REMARK SMILES Cc1cccc(C[S@@](=O)C[C@H](C)C(=O)NCCCNC(=O)c2ccc(-c3c4nc(c(-c5c(F)cc(S(=O)(=O)[O-])cc5F)c5ccc([nH]5)c(-c5c(F)cc(S(=O)(=O)[O-])cc5F)c5nc(c(-c6c(F)cc(S(=O)(=O)[O-])cc6F)c6ccc3[nH]6)C=C5)C=C4)cc2)n1
REMARK SMILES IDX 16 1 15 2 13 3 14 4 11 6 12 7 10 8 8 9 9 10 7 11 6 12 1 13
REMARK SMILES IDX 2 14 3 15 88 16 4 17 5 18 17 19 18 20 19 21 20 22 21 24
REMARK SMILES IDX 22 25 23 26 87 27 24 28 86 29 25 30 26 31 27 32 80 33 28 34
REMARK SMILES IDX 85 35 79 36 81 37 29 38 84 39 78 40 77 41 30 43 64 44 43 45
REMARK SMILES IDX 63 46 44 47 47 48 62 49 82 50 45 51 46 52 61 54 83 55 48 56
REMARK SMILES IDX 31 57 32 58 41 59 33 60 34 61 40 62 42 63 35 64 36 65 37 66
REMARK SMILES IDX 38 67 39 68 65 69 66 70 75 71 67 72 68 73 74 74 76 75 69 76
REMARK SMILES IDX 70 77 71 78 72 79 73 80 49 81 50 82 59 83 51 84 52 85 58 86
REMARK SMILES IDX 60 87 53 88 54 89 55 90 56 91 57 92
REMARK H PARENT 15 5 19 23 81 42 47 53
REMARK Flexibility Score: inf
ROOT
ATOM      1  C   UNL A   1      33.671  29.958  26.861  1.00  0.00     0.117 C 
ENDROOT
BRANCH   1   2
ATOM      2  N   UNL A   1      32.503  29.422  27.507  1.00  0.00    -0.356 N 
ATOM      3  C   UNL A   1      31.910  28.229  27.226  1.00  0.00     0.223 C 
ATOM      4  O   UNL A   1      31.050  27.808  28.004  1.00  0.00    -0.275 OA
ATOM      5  H   UNL A   1      32.095  29.968  28.217  1.00  0.00     0.163 HD
BRANCH   3   6
ATOM      6  C   UNL A   1      32.243  27.452  25.943  1.00  0.00     0.088 C 
ATOM      7  C   UNL A   1      33.578  26.738  26.095  1.00  0.00     0.019 C 
BRANCH   6   8
ATOM      8  C   UNL A   1      31.042  26.800  25.233  1.00  0.00     0.118 C 
BRANCH   8   9
ATOM      9  S   UNL A   1      30.834  26.560  23.451  1.00  0.00     0.028 S 
ATOM     10  O   UNL A   1      31.866  25.673  22.834  1.00  0.00    -0.259 OA
BRANCH   9  11
ATOM     11  C   UNL A   1      30.913  28.227  22.764  1.00  0.00     0.161 C 
BRANCH  11  12
ATOM     12  C   UNL A   1      29.624  28.939  23.039  1.00  0.00     0.053 A 
ATOM     13  C   UNL A   1      28.787  32.499  23.247  1.00  0.00     0.067 C 
ATOM     14  C   UNL A   1      28.591  31.017  23.217  1.00  0.00     0.038 A 
ATOM     15  C   UNL A   1      27.335  30.429  23.240  1.00  0.00     0.023 A 
ATOM     16  N   UNL A   1      29.719  30.287  23.122  1.00  0.00    -0.257 NA
ATOM     17  C   UNL A   1      27.246  29.040  23.191  1.00  0.00     0.004 A 
ATOM     18  C   UNL A   1      28.405  28.278  23.098  1.00  0.00     0.025 A 
ENDBRANCH  11  12
ENDBRANCH   9  11
ENDBRANCH   8   9
ENDBRANCH   6   8
ENDBRANCH   3   6
ENDBRANCH   1   2
BRANCH   1  19
ATOM     19  C   UNL A   1      34.966  29.862  27.627  1.00  0.00     0.042 C 
BRANCH  19  20
ATOM     20  C   UNL A   1      35.451  31.179  28.186  1.00  0.00     0.118 C 
BRANCH  20  21
ATOM     21  N   UNL A   1      35.425  31.231  29.641  1.00  0.00    -0.352 N 
ATOM     22  C   UNL A   1      36.333  30.774  30.571  1.00  0.00     0.251 C 
ATOM     23  H   UNL A   1      34.628  31.663  30.023  1.00  0.00     0.163 HD
ATOM     24  O   UNL A   1      36.050  30.805  31.760  1.00  0.00    -0.269 OA
BRANCH  22  25
ATOM     25  C   UNL A   1      37.634  30.220  30.131  1.00  0.00     0.039 A 
ATOM     26  C   UNL A   1      37.993  30.320  28.784  1.00  0.00     0.014 A 
ATOM     27  C   UNL A   1      38.504  29.616  31.038  1.00  0.00     0.014 A 
ATOM     28  C   UNL A   1      39.256  29.888  28.371  1.00  0.00     0.010 A 
ATOM     29  C   UNL A   1      39.802  29.309  30.653  1.00  0.00     0.010 A 
ATOM     30  C   UNL A   1      40.188  29.421  29.312  1.00  0.00    -0.014 A 
BRANCH  30  31
ATOM     31  C   UNL A   1      41.564  29.023  28.920  1.00  0.00     0.031 A 
ATOM     32  C   UNL A   1      42.662  30.054  28.885  1.00  0.00     0.074 A 
ATOM     33  C   UNL A   1      41.806  27.760  28.517  1.00  0.00     0.049 A 
ATOM     34  N   UNL A   1      43.901  29.928  28.491  1.00  0.00    -0.248 NA
ATOM     35  C   UNL A   1      42.306  31.417  29.313  1.00  0.00     0.031 C 
ATOM     36  C   UNL A   1      40.811  26.688  28.442  1.00  0.00     0.029 A 
ATOM     37  N   UNL A   1      42.964  27.167  28.080  1.00  0.00    -0.354 N 
ATOM     38  C   UNL A   1      44.463  31.196  28.597  1.00  0.00     0.074 A 
ATOM     39  C   UNL A   1      43.412  32.088  29.030  1.00  0.00     0.031 C 
ATOM     40  C   UNL A   1      41.405  25.564  28.015  1.00  0.00     0.029 A 
ATOM     41  C   UNL A   1      42.812  25.842  27.743  1.00  0.00     0.049 A 
ATOM     42  H   UNL A   1      43.822  27.644  28.015  1.00  0.00     0.167 HD
ATOM     43  C   UNL A   1      45.745  31.576  28.381  1.00  0.00     0.037 A 
ATOM     44  C   UNL A   1      43.703  24.954  27.261  1.00  0.00     0.037 A 
ATOM     45  C   UNL A   1      46.791  30.672  27.983  1.00  0.00     0.049 A 
ATOM     46  C   UNL A   1      45.126  25.390  27.047  1.00  0.00     0.074 A 
ATOM     47  C   UNL A   1      48.138  30.936  27.814  1.00  0.00     0.029 A 
ATOM     48  N   UNL A   1      46.605  29.329  27.685  1.00  0.00    -0.354 N 
ATOM     49  N   UNL A   1      45.660  26.575  27.230  1.00  0.00    -0.248 NA
ATOM     50  C   UNL A   1      46.069  24.371  26.573  1.00  0.00     0.031 C 
ATOM     51  C   UNL A   1      48.758  29.766  27.363  1.00  0.00     0.029 A 
ATOM     52  C   UNL A   1      47.808  28.757  27.306  1.00  0.00     0.049 A 
ATOM     53  H   UNL A   1      45.744  28.853  27.735  1.00  0.00     0.167 HD
ATOM     54  C   UNL A   1      47.007  26.439  26.915  1.00  0.00     0.074 A 
ATOM     55  C   UNL A   1      47.207  25.052  26.541  1.00  0.00     0.031 C 
ATOM     56  C   UNL A   1      47.989  27.375  26.934  1.00  0.00     0.037 A 
BRANCH  43  57
ATOM     57  C   UNL A   1      46.077  33.033  28.570  1.00  0.00     0.058 A 
ATOM     58  C   UNL A   1      46.016  33.953  27.510  1.00  0.00     0.135 A 
ATOM     59  C   UNL A   1      46.459  33.518  29.832  1.00  0.00     0.135 A 
ATOM     60  F   UNL A   1      45.670  33.544  26.279  1.00  0.00    -0.206 F 
ATOM     61  C   UNL A   1      46.370  35.288  27.681  1.00  0.00     0.059 A 
ATOM     62  C   UNL A   1      46.784  34.857  30.033  1.00  0.00     0.059 A 
ATOM     63  F   UNL A   1      46.532  32.687  30.882  1.00  0.00    -0.206 F 
ATOM     64  C   UNL A   1      46.758  35.729  28.947  1.00  0.00     0.060 A 
BRANCH  64  65
ATOM     65  S   UNL A   1      47.235  37.459  29.147  1.00  0.00     0.124 S 
ATOM     66  O   UNL A   1      48.233  37.363  30.208  1.00  0.00    -0.237 OA
ATOM     67  O   UNL A   1      47.749  37.796  27.823  1.00  0.00    -0.237 OA
ATOM     68  O   UNL A   1      45.986  38.114  29.518  1.00  0.00    -0.744 OA
ENDBRANCH  64  65
ENDBRANCH  43  57
BRANCH  44  69
ATOM     69  C   UNL A   1      43.269  23.559  26.979  1.00  0.00     0.058 A 
ATOM     70  C   UNL A   1      43.075  23.115  25.663  1.00  0.00     0.135 A 
ATOM     71  C   UNL A   1      43.091  22.629  28.016  1.00  0.00     0.135 A 
ATOM     72  F   UNL A   1      43.227  23.968  24.639  1.00  0.00    -0.206 F 
ATOM     73  C   UNL A   1      42.720  21.799  25.383  1.00  0.00     0.059 A 
ATOM     74  C   UNL A   1      42.760  21.303  27.760  1.00  0.00     0.059 A 
ATOM     75  F   UNL A   1      43.280  23.000  29.291  1.00  0.00    -0.206 F 
ATOM     76  C   UNL A   1      42.573  20.897  26.438  1.00  0.00     0.060 A 
BRANCH  76  77
ATOM     77  S   UNL A   1      42.189  19.175  26.057  1.00  0.00     0.124 S 
ATOM     78  O   UNL A   1      43.045  18.930  24.903  1.00  0.00    -0.237 OA
ATOM     79  O   UNL A   1      42.570  18.496  27.292  1.00  0.00    -0.237 OA
ATOM     80  O   UNL A   1      40.755  19.203  25.783  1.00  0.00    -0.744 OA
ENDBRANCH  76  77
ENDBRANCH  44  69
BRANCH  56  81
ATOM     81  C   UNL A   1      49.377  26.930  26.566  1.00  0.00     0.058 A 
ATOM     82  C   UNL A   1      49.847  26.989  25.245  1.00  0.00     0.135 A 
ATOM     83  C   UNL A   1      50.269  26.493  27.561  1.00  0.00     0.135 A 
ATOM     84  F   UNL A   1      49.035  27.393  24.256  1.00  0.00    -0.206 F 
ATOM     85  C   UNL A   1      51.146  26.609  24.918  1.00  0.00     0.059 A 
ATOM     86  C   UNL A   1      51.581  26.138  27.262  1.00  0.00     0.059 A 
ATOM     87  F   UNL A   1      49.874  26.429  28.842  1.00  0.00    -0.206 F 
ATOM     88  C   UNL A   1      52.006  26.188  25.935  1.00  0.00     0.060 A 
BRANCH  88  89
ATOM     89  S   UNL A   1      53.697  25.732  25.502  1.00  0.00     0.124 S 
ATOM     90  O   UNL A   1      53.512  25.130  24.187  1.00  0.00    -0.237 OA
ATOM     91  O   UNL A   1      54.382  27.022  25.519  1.00  0.00    -0.237 OA
ATOM     92  O   UNL A   1      54.085  24.811  26.567  1.00  0.00    -0.744 OA
ENDBRANCH  88  89
ENDBRANCH  56  81
ENDBRANCH  30  31
ENDBRANCH  22  25
ENDBRANCH  20  21
ENDBRANCH  19  20
ENDBRANCH   1  19
TORSDOF 17
ENDMDL
MODEL 3
REMARK VINA RESULT:     -10.3      2.621      3.317
REMARK SMILES Cc1cccc(C[S@@](=O)C[C@H](C)C(=O)NCCCNC(=O)c2ccc(-c3c4nc(c(-c5c(F)cc(S(=O)(=O)[O-])cc5F)c5ccc([nH]5)c(-c5c(F)cc(S(=O)(=O)[O-])cc5F)c5nc(c(-c6c(F)cc(S(=O)(=O)[O-])cc6F)c6ccc3[nH]6)C=C5)C=C4)cc2)n1
REMARK SMILES IDX 16 1 15 2 13 3 14 4 11 6 12 7 10 8 8 9 9 10 7 11 6 12 1 13
REMARK SMILES IDX 2 14 3 15 88 16 4 17 5 18 17 19 18 20 19 21 20 22 21 24
REMARK SMILES IDX 22 25 23 26 87 27 24 28 86 29 25 30 26 31 27 32 80 33 28 34
REMARK SMILES IDX 85 35 79 36 81 37 29 38 84 39 78 40 77 41 30 43 64 44 43 45
REMARK SMILES IDX 63 46 44 47 47 48 62 49 82 50 45 51 46 52 61 54 83 55 48 56
REMARK SMILES IDX 31 57 32 58 41 59 33 60 34 61 40 62 42 63 35 64 36 65 37 66
REMARK SMILES IDX 38 67 39 68 65 69 66 70 75 71 67 72 68 73 74 74 76 75 69 76
REMARK SMILES IDX 70 77 71 78 72 79 73 80 49 81 50 82 59 83 51 84 52 85 58 86
REMARK SMILES IDX 60 87 53 88 54 89 55 90 56 91 57 92
REMARK H PARENT 15 5 19 23 81 42 47 53
REMARK Flexibility Score: inf
ROOT
ATOM      1  C   UNL A   1      31.680  28.461  25.634  1.00  0.00     0.117 C 
ENDROOT
BRANCH   1   2
ATOM      2  N   UNL A   1      32.540  28.710  24.508  1.00  0.00    -0.356 N 
ATOM      3  C   UNL A   1      32.203  28.564  23.197  1.00  0.00     0.223 C 
ATOM      4  O   UNL A   1      32.970  29.018  22.344  1.00  0.00    -0.275 OA
ATOM      5  H   UNL A   1      33.456  29.013  24.703  1.00  0.00     0.163 HD
BRANCH   3   6
ATOM      6  C   UNL A   1      30.941  27.796  22.776  1.00  0.00     0.088 C 
ATOM      7  C   UNL A   1      29.840  28.771  22.387  1.00  0.00     0.019 C 
BRANCH   6   8
ATOM      8  C   UNL A   1      31.188  26.489  22.000  1.00  0.00     0.118 C 
BRANCH   8   9
ATOM      9  S   UNL A   1      32.790  25.736  21.624  1.00  0.00     0.028 S 
ATOM     10  O   UNL A   1      33.098  25.661  20.164  1.00  0.00    -0.259 OA
BRANCH   9  11
ATOM     11  C   UNL A   1      32.692  24.089  22.354  1.00  0.00     0.161 C 
BRANCH  11  12
ATOM     12  C   UNL A   1      33.449  24.072  23.647  1.00  0.00     0.053 A 
ATOM     13  C   UNL A   1      35.073  21.362  25.500  1.00  0.00     0.067 C 
ATOM     14  C   UNL A   1      34.649  22.750  25.139  1.00  0.00     0.038 A 
ATOM     15  C   UNL A   1      35.094  23.869  25.827  1.00  0.00     0.023 A 
ATOM     16  N   UNL A   1      33.838  22.846  24.069  1.00  0.00    -0.257 NA
ATOM     17  C   UNL A   1      34.661  25.125  25.410  1.00  0.00     0.004 A 
ATOM     18  C   UNL A   1      33.819  25.234  24.309  1.00  0.00     0.025 A 
ENDBRANCH  11  12
ENDBRANCH   9  11
ENDBRANCH   8   9
ENDBRANCH   6   8
ENDBRANCH   3   6
ENDBRANCH   1   2
BRANCH   1  19
ATOM     19  C   UNL A   1      32.320  27.813  26.836  1.00  0.00     0.042 C 
BRANCH  19  20
ATOM     20  C   UNL A   1      33.673  28.379  27.196  1.00  0.00     0.118 C 
BRANCH  20  21
ATOM     21  N   UNL A   1      33.624  29.781  27.589  1.00  0.00    -0.352 N 
ATOM     22  C   UNL A   1      34.574  30.577  28.190  1.00  0.00     0.251 C 
ATOM     23  H   UNL A   1      32.773  30.233  27.394  1.00  0.00     0.163 HD
ATOM     24  O   UNL A   1      34.276  31.706  28.555  1.00  0.00    -0.269 OA
BRANCH  22  25
ATOM     25  C   UNL A   1      35.942  30.058  28.421  1.00  0.00     0.039 A 
ATOM     26  C   UNL A   1      36.883  30.147  27.392  1.00  0.00     0.014 A 
ATOM     27  C   UNL A   1      36.303  29.497  29.646  1.00  0.00     0.014 A 
ATOM     28  C   UNL A   1      38.202  29.749  27.625  1.00  0.00     0.010 A 
ATOM     29  C   UNL A   1      37.637  29.226  29.917  1.00  0.00     0.010 A 
ATOM     30  C   UNL A   1      38.600  29.329  28.904  1.00  0.00    -0.014 A 
BRANCH  30  31
ATOM     31  C   UNL A   1      40.008  28.969  29.208  1.00  0.00     0.031 A 
ATOM     32  C   UNL A   1      40.918  29.980  29.853  1.00  0.00     0.074 A 
ATOM     33  C   UNL A   1      40.489  27.768  28.829  1.00  0.00     0.049 A 
ATOM     34  N   UNL A   1      42.195  29.893  30.120  1.00  0.00    -0.248 NA
ATOM     35  C   UNL A   1      40.321  31.279  30.210  1.00  0.00     0.031 C 
ATOM     36  C   UNL A   1      39.724  26.729  28.135  1.00  0.00     0.029 A 
ATOM     37  N   UNL A   1      41.742  27.224  28.961  1.00  0.00    -0.354 N 
ATOM     38  C   UNL A   1      42.557  31.127  30.648  1.00  0.00     0.074 A 
ATOM     39  C   UNL A   1      41.382  31.967  30.602  1.00  0.00     0.031 C 
ATOM     40  C   UNL A   1      40.515  25.664  27.928  1.00  0.00     0.029 A 
ATOM     41  C   UNL A   1      41.852  25.959  28.433  1.00  0.00     0.049 A 
ATOM     42  H   UNL A   1      42.491  27.694  29.392  1.00  0.00     0.167 HD
ATOM     43  C   UNL A   1      43.753  31.516  31.150  1.00  0.00     0.037 A 
ATOM     44  C   UNL A   1      42.913  25.132  28.356  1.00  0.00     0.037 A 
ATOM     45  C   UNL A   1      44.907  30.661  31.221  1.00  0.00     0.049 A 
ATOM     46  C   UNL A   1      44.227  25.574  28.939  1.00  0.00     0.074 A 
ATOM     47  C   UNL A   1      46.143  30.927  31.782  1.00  0.00     0.029 A 
ATOM     48  N   UNL A   1      44.970  29.372  30.708  1.00  0.00    -0.354 N 
ATOM     49  N   UNL A   1      44.532  26.717  29.508  1.00  0.00    -0.248 NA
ATOM     50  C   UNL A   1      45.337  24.615  28.879  1.00  0.00     0.031 C 
ATOM     51  C   UNL A   1      46.970  29.820  31.562  1.00  0.00     0.029 A 
ATOM     52  C   UNL A   1      46.232  28.840  30.914  1.00  0.00     0.049 A 
ATOM     53  H   UNL A   1      44.226  28.905  30.262  1.00  0.00     0.167 HD
ATOM     54  C   UNL A   1      45.862  26.606  29.895  1.00  0.00     0.074 A 
ATOM     55  C   UNL A   1      46.299  25.280  29.504  1.00  0.00     0.031 C 
ATOM     56  C   UNL A   1      46.651  27.518  30.517  1.00  0.00     0.037 A 
BRANCH  43  57
ATOM     57  C   UNL A   1      43.865  32.931  31.657  1.00  0.00     0.058 A 
ATOM     58  C   UNL A   1      44.263  33.990  30.823  1.00  0.00     0.135 A 
ATOM     59  C   UNL A   1      43.567  33.233  32.996  1.00  0.00     0.135 A 
ATOM     60  F   UNL A   1      44.574  33.759  29.538  1.00  0.00    -0.206 F 
ATOM     61  C   UNL A   1      44.410  35.285  31.310  1.00  0.00     0.059 A 
ATOM     62  C   UNL A   1      43.674  34.528  33.495  1.00  0.00     0.059 A 
ATOM     63  F   UNL A   1      43.179  32.263  33.837  1.00  0.00    -0.206 F 
ATOM     64  C   UNL A   1      44.118  35.543  32.650  1.00  0.00     0.060 A 
BRANCH  64  65
ATOM     65  S   UNL A   1      44.335  37.224  33.271  1.00  0.00     0.124 S 
ATOM     66  O   UNL A   1      44.659  37.946  32.045  1.00  0.00    -0.237 OA
ATOM     67  O   UNL A   1      43.028  37.514  33.851  1.00  0.00    -0.237 OA
ATOM     68  O   UNL A   1      45.427  37.093  34.230  1.00  0.00    -0.744 OA
ENDBRANCH  64  65
ENDBRANCH  43  57
BRANCH  44  69
ATOM     69  C   UNL A   1      42.755  23.793  27.727  1.00  0.00     0.058 A 
ATOM     70  C   UNL A   1      43.025  23.599  26.365  1.00  0.00     0.135 A 
ATOM     71  C   UNL A   1      42.384  22.671  28.486  1.00  0.00     0.135 A 
ATOM     72  F   UNL A   1      43.378  24.641  25.597  1.00  0.00    -0.206 F 
ATOM     73  C   UNL A   1      42.932  22.342  25.775  1.00  0.00     0.059 A 
ATOM     74  C   UNL A   1      42.307  21.401  27.924  1.00  0.00     0.059 A 
ATOM     75  F   UNL A   1      42.130  22.801  29.797  1.00  0.00    -0.206 F 
ATOM     76  C   UNL A   1      42.581  21.247  26.565  1.00  0.00     0.060 A 
BRANCH  76  77
ATOM     77  S   UNL A   1      42.540  19.609  25.805  1.00  0.00     0.124 S 
ATOM     78  O   UNL A   1      41.119  19.455  25.515  1.00  0.00    -0.237 OA
ATOM     79  O   UNL A   1      43.413  19.786  24.650  1.00  0.00    -0.237 OA
ATOM     80  O   UNL A   1      43.066  18.740  26.853  1.00  0.00    -0.744 OA
ENDBRANCH  76  77
ENDBRANCH  44  69
BRANCH  56  81
ATOM     81  C   UNL A   1      48.061  27.109  30.842  1.00  0.00     0.058 A 
ATOM     82  C   UNL A   1      48.391  26.497  32.061  1.00  0.00     0.135 A 
ATOM     83  C   UNL A   1      49.085  27.278  29.895  1.00  0.00     0.135 A 
ATOM     84  F   UNL A   1      47.452  26.317  33.003  1.00  0.00    -0.206 F 
ATOM     85  C   UNL A   1      49.691  26.088  32.340  1.00  0.00     0.059 A 
ATOM     86  C   UNL A   1      50.386  26.849  30.140  1.00  0.00     0.059 A 
ATOM     87  F   UNL A   1      48.821  27.847  28.707  1.00  0.00    -0.206 F 
ATOM     88  C   UNL A   1      50.682  26.266  31.370  1.00  0.00     0.060 A 
BRANCH  88  89
ATOM     89  S   UNL A   1      52.356  25.699  31.732  1.00  0.00     0.124 S 
ATOM     90  O   UNL A   1      53.066  26.084  30.517  1.00  0.00    -0.237 OA
ATOM     91  O   UNL A   1      52.691  26.461  32.931  1.00  0.00    -0.237 OA
ATOM     92  O   UNL A   1      52.192  24.262  31.935  1.00  0.00    -0.744 OA
ENDBRANCH  88  89
ENDBRANCH  56  81
ENDBRANCH  30  31
ENDBRANCH  22  25
ENDBRANCH  20  21
ENDBRANCH  19  20
ENDBRANCH   1  19
TORSDOF 17
ENDMDL
