MODEL 1
REMARK VINA RESULT:     -14.2      0.000      0.000
REMARK SMILES Cc1cccc(O[C@H]2CC[C@@]([NH2+]C(C)C)(C(=O)NCCCNC(=O)c3ccc(-c4c5nc(c(-c6c(F)cc(S(=O)(=O)[O-])cc6F)c6ccc([nH]6)c(-c6c(F)cc(S(=O)(=O)[O-])cc6F)c6nc(c(-c7c(F)cc(S(=O)(=O)[O-])cc7F)c7ccc4[nH]7)C=C6)C=C5)cc3)C2)c1
REMARK SMILES IDX 20 1 19 2 18 3 16 4 17 5 11 7 8 8 9 9 91 10 10 11 7 12 6 13
REMARK SMILES IDX 1 14 2 15 3 16 92 17 4 18 5 19 12 20 13 23 14 24 15 25 21 26
REMARK SMILES IDX 22 27 23 28 24 30 25 31 26 32 90 33 27 34 89 35 28 36 29 37
REMARK SMILES IDX 30 38 83 39 31 40 88 41 82 42 84 43 32 44 87 45 81 46 80 47
REMARK SMILES IDX 33 49 67 50 46 51 66 52 47 53 50 54 65 55 85 56 48 57 49 58
REMARK SMILES IDX 64 60 86 61 51 62 34 63 35 64 44 65 36 66 37 67 43 68 45 69
REMARK SMILES IDX 38 70 39 71 40 72 41 73 42 74 68 75 69 76 78 77 70 78 71 79
REMARK SMILES IDX 77 80 79 81 72 82 73 83 74 84 75 85 76 86 52 87 53 88 62 89
REMARK SMILES IDX 54 90 55 91 61 92 63 93 56 94 57 95 58 96 59 97 60 98
REMARK H PARENT 18 6 12 21 12 22 22 29 84 48 50 59
REMARK Flexibility Score: inf
ROOT
ATOM      1  C   UNL A   1      32.948  29.845  27.238  1.00  0.00     0.042 C 
ENDROOT
BRANCH   1   2
ATOM      2  C   UNL A   1      32.191  29.482  25.968  1.00  0.00     0.118 C 
BRANCH   2   3
ATOM      3  N   UNL A   1      32.956  29.715  24.748  1.00  0.00    -0.351 N 
ATOM      4  C   UNL A   1      33.258  28.874  23.708  1.00  0.00     0.281 C 
ATOM      5  O   UNL A   1      33.773  29.381  22.707  1.00  0.00    -0.268 OA
ATOM      6  H   UNL A   1      33.315  30.627  24.657  1.00  0.00     0.163 HD
BRANCH   4   7
ATOM      7  C   UNL A   1      32.940  27.342  23.781  1.00  0.00     0.179 C 
ATOM      8  C   UNL A   1      30.808  26.696  22.710  1.00  0.00     0.180 C 
ATOM      9  C   UNL A   1      31.929  25.910  22.047  1.00  0.00     0.052 C 
ATOM     10  C   UNL A   1      31.437  27.049  24.061  1.00  0.00     0.124 C 
ATOM     11  C   UNL A   1      33.172  26.723  22.379  1.00  0.00     0.083 C 
BRANCH   8  12
ATOM     12  O   UNL A   1      30.523  27.915  22.027  1.00  0.00    -0.490 OA
BRANCH  12  13
ATOM     13  C   UNL A   1      29.489  28.695  22.459  1.00  0.00     0.119 A 
ATOM     14  C   UNL A   1      28.933  32.469  22.477  1.00  0.00     0.044 C 
ATOM     15  C   UNL A   1      28.710  30.996  22.660  1.00  0.00    -0.047 A 
ATOM     16  C   UNL A   1      27.494  30.527  23.168  1.00  0.00     0.003 A 
ATOM     17  C   UNL A   1      29.696  30.068  22.299  1.00  0.00     0.049 A 
ATOM     18  C   UNL A   1      27.283  29.159  23.335  1.00  0.00     0.004 A 
ATOM     19  C   UNL A   1      28.282  28.244  22.991  1.00  0.00     0.046 A 
ENDBRANCH  12  13
ENDBRANCH   8  12
BRANCH   7  20
ATOM     20  N   UNL A   1      33.795  26.652  24.782  1.00  0.00    -0.332 N 
ATOM     21  H   UNL A   1      33.559  27.030  25.700  1.00  0.00     0.347 HD
ATOM     22  H   UNL A   1      34.753  26.826  24.477  1.00  0.00     0.347 HD
BRANCH  20  23
ATOM     23  C   UNL A   1      33.685  25.190  24.864  1.00  0.00     0.176 C 
ATOM     24  C   UNL A   1      35.033  24.479  24.771  1.00  0.00     0.075 C 
ATOM     25  C   UNL A   1      33.031  24.867  26.212  1.00  0.00     0.075 C 
ENDBRANCH  20  23
ENDBRANCH   7  20
ENDBRANCH   4   7
ENDBRANCH   2   3
ENDBRANCH   1   2
BRANCH   1  26
ATOM     26  C   UNL A   1      34.458  29.721  27.089  1.00  0.00     0.118 C 
BRANCH  26  27
ATOM     27  N   UNL A   1      35.154  30.942  27.483  1.00  0.00    -0.352 N 
ATOM     28  C   UNL A   1      36.367  31.060  28.139  1.00  0.00     0.251 C 
ATOM     29  H   UNL A   1      34.704  31.787  27.253  1.00  0.00     0.163 HD
ATOM     30  O   UNL A   1      36.762  32.104  28.619  1.00  0.00    -0.269 OA
BRANCH  28  31
ATOM     31  C   UNL A   1      37.234  29.866  28.109  1.00  0.00     0.039 A 
ATOM     32  C   UNL A   1      37.281  29.095  29.277  1.00  0.00     0.014 A 
ATOM     33  C   UNL A   1      38.186  29.733  27.105  1.00  0.00     0.014 A 
ATOM     34  C   UNL A   1      38.399  28.307  29.523  1.00  0.00     0.010 A 
ATOM     35  C   UNL A   1      39.333  29.022  27.393  1.00  0.00     0.010 A 
ATOM     36  C   UNL A   1      39.458  28.350  28.621  1.00  0.00    -0.014 A 
BRANCH  36  37
ATOM     37  C   UNL A   1      40.769  27.773  28.890  1.00  0.00     0.031 A 
ATOM     38  C   UNL A   1      41.038  26.370  28.507  1.00  0.00     0.074 A 
ATOM     39  C   UNL A   1      41.756  28.558  29.374  1.00  0.00     0.049 A 
ATOM     40  N   UNL A   1      42.044  25.671  28.904  1.00  0.00    -0.248 NA
ATOM     41  C   UNL A   1      40.122  25.619  27.656  1.00  0.00     0.031 C 
ATOM     42  C   UNL A   1      43.188  28.282  29.366  1.00  0.00     0.029 A 
ATOM     43  N   UNL A   1      41.624  29.702  30.168  1.00  0.00    -0.354 N 
ATOM     44  C   UNL A   1      42.066  24.500  28.175  1.00  0.00     0.074 A 
ATOM     45  C   UNL A   1      40.816  24.495  27.455  1.00  0.00     0.031 C 
ATOM     46  C   UNL A   1      43.784  29.046  30.294  1.00  0.00     0.029 A 
ATOM     47  C   UNL A   1      42.732  29.715  31.039  1.00  0.00     0.049 A 
ATOM     48  H   UNL A   1      40.900  30.367  30.127  1.00  0.00     0.167 HD
ATOM     49  C   UNL A   1      43.202  23.741  28.174  1.00  0.00     0.037 A 
ATOM     50  C   UNL A   1      42.563  29.609  32.391  1.00  0.00     0.037 A 
ATOM     51  C   UNL A   1      44.161  24.250  29.157  1.00  0.00     0.049 A 
ATOM     52  C   UNL A   1      43.195  28.373  32.989  1.00  0.00     0.074 A 
ATOM     53  C   UNL A   1      45.257  25.091  29.052  1.00  0.00     0.029 A 
ATOM     54  N   UNL A   1      43.858  24.169  30.514  1.00  0.00    -0.354 N 
ATOM     55  N   UNL A   1      43.548  27.323  32.296  1.00  0.00    -0.248 NA
ATOM     56  C   UNL A   1      43.484  28.222  34.413  1.00  0.00     0.031 C 
ATOM     57  C   UNL A   1      45.552  25.592  30.346  1.00  0.00     0.029 A 
ATOM     58  C   UNL A   1      44.657  25.032  31.242  1.00  0.00     0.049 A 
ATOM     59  H   UNL A   1      43.170  23.580  30.901  1.00  0.00     0.167 HD
ATOM     60  C   UNL A   1      44.076  26.375  33.134  1.00  0.00     0.074 A 
ATOM     61  C   UNL A   1      44.034  26.995  34.446  1.00  0.00     0.031 C 
ATOM     62  C   UNL A   1      44.504  25.157  32.686  1.00  0.00     0.037 A 
BRANCH  49  63
ATOM     63  C   UNL A   1      43.555  22.746  27.077  1.00  0.00     0.058 A 
ATOM     64  C   UNL A   1      42.842  21.531  26.948  1.00  0.00     0.135 A 
ATOM     65  C   UNL A   1      44.631  22.878  26.175  1.00  0.00     0.135 A 
ATOM     66  F   UNL A   1      41.728  21.295  27.654  1.00  0.00    -0.206 F 
ATOM     67  C   UNL A   1      43.240  20.495  26.097  1.00  0.00     0.059 A 
ATOM     68  C   UNL A   1      45.085  21.835  25.358  1.00  0.00     0.059 A 
ATOM     69  F   UNL A   1      45.256  24.046  25.997  1.00  0.00    -0.206 F 
ATOM     70  C   UNL A   1      44.389  20.638  25.335  1.00  0.00     0.060 A 
BRANCH  70  71
ATOM     71  S   UNL A   1      44.942  19.263  24.307  1.00  0.00     0.124 S 
ATOM     72  O   UNL A   1      46.388  19.289  24.510  1.00  0.00    -0.237 OA
ATOM     73  O   UNL A   1      44.236  18.134  24.902  1.00  0.00    -0.237 OA
ATOM     74  O   UNL A   1      44.500  19.641  22.967  1.00  0.00    -0.744 OA
ENDBRANCH  70  71
ENDBRANCH  49  63
BRANCH  50  75
ATOM     75  C   UNL A   1      41.331  30.291  32.880  1.00  0.00     0.058 A 
ATOM     76  C   UNL A   1      40.231  29.476  33.213  1.00  0.00     0.135 A 
ATOM     77  C   UNL A   1      41.378  31.576  33.439  1.00  0.00     0.135 A 
ATOM     78  F   UNL A   1      40.123  28.247  32.685  1.00  0.00    -0.206 F 
ATOM     79  C   UNL A   1      39.318  29.845  34.195  1.00  0.00     0.059 A 
ATOM     80  C   UNL A   1      40.463  31.971  34.420  1.00  0.00     0.059 A 
ATOM     81  F   UNL A   1      42.395  32.402  33.153  1.00  0.00    -0.206 F 
ATOM     82  C   UNL A   1      39.487  31.065  34.844  1.00  0.00     0.060 A 
BRANCH  82  83
ATOM     83  S   UNL A   1      38.534  31.354  36.355  1.00  0.00     0.124 S 
ATOM     84  O   UNL A   1      38.173  29.997  36.751  1.00  0.00    -0.237 OA
ATOM     85  O   UNL A   1      39.520  32.017  37.209  1.00  0.00    -0.237 OA
ATOM     86  O   UNL A   1      37.432  32.194  35.902  1.00  0.00    -0.744 OA
ENDBRANCH  82  83
ENDBRANCH  50  75
BRANCH  62  87
ATOM     87  C   UNL A   1      44.912  24.001  33.567  1.00  0.00     0.058 A 
ATOM     88  C   UNL A   1      44.042  22.966  33.949  1.00  0.00     0.135 A 
ATOM     89  C   UNL A   1      46.266  23.833  33.945  1.00  0.00     0.135 A 
ATOM     90  F   UNL A   1      42.760  22.953  33.553  1.00  0.00    -0.206 F 
ATOM     91  C   UNL A   1      44.464  21.878  34.715  1.00  0.00     0.059 A 
ATOM     92  C   UNL A   1      46.719  22.730  34.663  1.00  0.00     0.059 A 
ATOM     93  F   UNL A   1      47.200  24.740  33.617  1.00  0.00    -0.206 F 
ATOM     94  C   UNL A   1      45.805  21.768  35.069  1.00  0.00     0.060 A 
BRANCH  94  95
ATOM     95  S   UNL A   1      46.375  20.341  36.010  1.00  0.00     0.124 S 
ATOM     96  O   UNL A   1      47.824  20.500  35.930  1.00  0.00    -0.237 OA
ATOM     97  O   UNL A   1      45.790  20.564  37.329  1.00  0.00    -0.237 OA
ATOM     98  O   UNL A   1      45.819  19.213  35.270  1.00  0.00    -0.744 OA
ENDBRANCH  94  95
ENDBRANCH  62  87
ENDBRANCH  36  37
ENDBRANCH  28  31
ENDBRANCH  26  27
ENDBRANCH   1  26
TORSDOF 17
ENDMDL
MODEL 2
REMARK VINA RESULT:     -14.0      0.892      3.078
REMARK SMILES Cc1cccc(O[C@H]2CC[C@@]([NH2+]C(C)C)(C(=O)NCCCNC(=O)c3ccc(-c4c5nc(c(-c6c(F)cc(S(=O)(=O)[O-])cc6F)c6ccc([nH]6)c(-c6c(F)cc(S(=O)(=O)[O-])cc6F)c6nc(c(-c7c(F)cc(S(=O)(=O)[O-])cc7F)c7ccc4[nH]7)C=C6)C=C5)cc3)C2)c1
REMARK SMILES IDX 20 1 19 2 18 3 16 4 17 5 11 7 8 8 9 9 91 10 10 11 7 12 6 13
REMARK SMILES IDX 1 14 2 15 3 16 92 17 4 18 5 19 12 20 13 23 14 24 15 25 21 26
REMARK SMILES IDX 22 27 23 28 24 30 25 31 26 32 90 33 27 34 89 35 28 36 29 37
REMARK SMILES IDX 30 38 83 39 31 40 88 41 82 42 84 43 32 44 87 45 81 46 80 47
REMARK SMILES IDX 33 49 67 50 46 51 66 52 47 53 50 54 65 55 85 56 48 57 49 58
REMARK SMILES IDX 64 60 86 61 51 62 34 63 35 64 44 65 36 66 37 67 43 68 45 69
REMARK SMILES IDX 38 70 39 71 40 72 41 73 42 74 68 75 69 76 78 77 70 78 71 79
REMARK SMILES IDX 77 80 79 81 72 82 73 83 74 84 75 85 76 86 52 87 53 88 62 89
REMARK SMILES IDX 54 90 55 91 61 92 63 93 56 94 57 95 58 96 59 97 60 98
REMARK H PARENT 18 6 12 21 12 22 22 29 84 48 50 59
REMARK Flexibility Score: inf
ROOT
ATOM      1  C   UNL A   1      32.958  29.968  27.251  1.00  0.00     0.042 C 
ENDROOT
BRANCH   1   2
ATOM      2  C   UNL A   1      32.193  30.157  25.948  1.00  0.00     0.118 C 
BRANCH   2   3
ATOM      3  N   UNL A   1      32.940  29.734  24.768  1.00  0.00    -0.351 N 
ATOM      4  C   UNL A   1      32.539  29.032  23.660  1.00  0.00     0.281 C 
ATOM      5  O   UNL A   1      33.335  28.964  22.720  1.00  0.00    -0.268 OA
ATOM      6  H   UNL A   1      33.889  29.996  24.767  1.00  0.00     0.163 HD
BRANCH   4   7
ATOM      7  C   UNL A   1      31.123  28.367  23.587  1.00  0.00     0.179 C 
ATOM      8  C   UNL A   1      31.163  25.957  23.033  1.00  0.00     0.180 C 
ATOM      9  C   UNL A   1      30.449  26.127  24.366  1.00  0.00     0.052 C 
ATOM     10  C   UNL A   1      30.993  27.349  22.415  1.00  0.00     0.124 C 
ATOM     11  C   UNL A   1      30.924  27.489  24.849  1.00  0.00     0.083 C 
BRANCH   8  12
ATOM     12  O   UNL A   1      32.558  25.715  23.192  1.00  0.00    -0.490 OA
BRANCH  12  13
ATOM     13  C   UNL A   1      32.994  24.434  23.374  1.00  0.00     0.119 A 
ATOM     14  C   UNL A   1      36.480  22.890  23.522  1.00  0.00     0.044 C 
ATOM     15  C   UNL A   1      34.986  23.039  23.550  1.00  0.00    -0.047 A 
ATOM     16  C   UNL A   1      34.174  21.933  23.818  1.00  0.00     0.003 A 
ATOM     17  C   UNL A   1      34.385  24.287  23.341  1.00  0.00     0.049 A 
ATOM     18  C   UNL A   1      32.787  22.071  23.847  1.00  0.00     0.004 A 
ATOM     19  C   UNL A   1      32.197  23.317  23.616  1.00  0.00     0.046 A 
ENDBRANCH  12  13
ENDBRANCH   8  12
BRANCH   7  20
ATOM     20  N   UNL A   1      30.042  29.384  23.508  1.00  0.00    -0.332 N 
ATOM     21  H   UNL A   1      30.486  30.294  23.385  1.00  0.00     0.347 HD
ATOM     22  H   UNL A   1      29.513  29.276  24.374  1.00  0.00     0.347 HD
BRANCH  20  23
ATOM     23  C   UNL A   1      29.051  29.227  22.437  1.00  0.00     0.176 C 
ATOM     24  C   UNL A   1      27.630  29.021  22.958  1.00  0.00     0.075 C 
ATOM     25  C   UNL A   1      29.102  30.504  21.591  1.00  0.00     0.075 C 
ENDBRANCH  20  23
ENDBRANCH   7  20
ENDBRANCH   4   7
ENDBRANCH   2   3
ENDBRANCH   1   2
BRANCH   1  26
ATOM     26  C   UNL A   1      34.464  29.870  27.050  1.00  0.00     0.118 C 
BRANCH  26  27
ATOM     27  N   UNL A   1      35.160  31.076  27.488  1.00  0.00    -0.352 N 
ATOM     28  C   UNL A   1      36.353  31.168  28.181  1.00  0.00     0.251 C 
ATOM     29  H   UNL A   1      34.725  31.929  27.260  1.00  0.00     0.163 HD
ATOM     30  O   UNL A   1      36.744  32.199  28.693  1.00  0.00    -0.269 OA
BRANCH  28  31
ATOM     31  C   UNL A   1      37.209  29.966  28.155  1.00  0.00     0.039 A 
ATOM     32  C   UNL A   1      37.266  29.210  29.331  1.00  0.00     0.014 A 
ATOM     33  C   UNL A   1      38.145  29.811  27.139  1.00  0.00     0.014 A 
ATOM     34  C   UNL A   1      38.380  28.415  29.572  1.00  0.00     0.010 A 
ATOM     35  C   UNL A   1      39.290  29.094  27.419  1.00  0.00     0.010 A 
ATOM     36  C   UNL A   1      39.427  28.436  28.654  1.00  0.00    -0.014 A 
BRANCH  36  37
ATOM     37  C   UNL A   1      40.737  27.851  28.911  1.00  0.00     0.031 A 
ATOM     38  C   UNL A   1      40.991  26.444  28.531  1.00  0.00     0.074 A 
ATOM     39  C   UNL A   1      41.734  28.631  29.381  1.00  0.00     0.049 A 
ATOM     40  N   UNL A   1      41.996  25.739  28.921  1.00  0.00    -0.248 NA
ATOM     41  C   UNL A   1      40.060  25.696  27.694  1.00  0.00     0.031 C 
ATOM     42  C   UNL A   1      43.164  28.343  29.359  1.00  0.00     0.029 A 
ATOM     43  N   UNL A   1      41.619  29.778  30.172  1.00  0.00    -0.354 N 
ATOM     44  C   UNL A   1      42.002  24.565  28.197  1.00  0.00     0.074 A 
ATOM     45  C   UNL A   1      40.743  24.566  27.490  1.00  0.00     0.031 C 
ATOM     46  C   UNL A   1      43.775  29.107  30.278  1.00  0.00     0.029 A 
ATOM     47  C   UNL A   1      42.737  29.788  31.031  1.00  0.00     0.049 A 
ATOM     48  H   UNL A   1      40.900  30.449  30.136  1.00  0.00     0.167 HD
ATOM     49  C   UNL A   1      43.132  23.797  28.186  1.00  0.00     0.037 A 
ATOM     50  C   UNL A   1      42.581  29.688  32.385  1.00  0.00     0.037 A 
ATOM     51  C   UNL A   1      44.104  24.304  29.158  1.00  0.00     0.049 A 
ATOM     52  C   UNL A   1      43.211  28.450  32.982  1.00  0.00     0.074 A 
ATOM     53  C   UNL A   1      45.206  25.137  29.037  1.00  0.00     0.029 A 
ATOM     54  N   UNL A   1      43.816  24.231  30.518  1.00  0.00    -0.354 N 
ATOM     55  N   UNL A   1      43.548  27.395  32.290  1.00  0.00    -0.248 NA
ATOM     56  C   UNL A   1      43.514  28.303  34.403  1.00  0.00     0.031 C 
ATOM     57  C   UNL A   1      45.518  25.641  30.325  1.00  0.00     0.029 A 
ATOM     58  C   UNL A   1      44.629  25.091  31.234  1.00  0.00     0.049 A 
ATOM     59  H   UNL A   1      43.128  23.649  30.915  1.00  0.00     0.167 HD
ATOM     60  C   UNL A   1      44.078  26.446  33.125  1.00  0.00     0.074 A 
ATOM     61  C   UNL A   1      44.055  27.072  34.436  1.00  0.00     0.031 C 
ATOM     62  C   UNL A   1      44.492  25.224  32.678  1.00  0.00     0.037 A 
BRANCH  49  63
ATOM     63  C   UNL A   1      43.466  22.795  27.091  1.00  0.00     0.058 A 
ATOM     64  C   UNL A   1      42.774  21.565  27.003  1.00  0.00     0.135 A 
ATOM     65  C   UNL A   1      44.506  22.937  26.149  1.00  0.00     0.135 A 
ATOM     66  F   UNL A   1      41.691  21.316  27.752  1.00  0.00    -0.206 F 
ATOM     67  C   UNL A   1      43.162  20.525  26.152  1.00  0.00     0.059 A 
ATOM     68  C   UNL A   1      44.951  21.893  25.329  1.00  0.00     0.059 A 
ATOM     69  F   UNL A   1      45.099  24.115  25.932  1.00  0.00    -0.206 F 
ATOM     70  C   UNL A   1      44.280  20.681  25.346  1.00  0.00     0.060 A 
BRANCH  70  71
ATOM     71  S   UNL A   1      44.824  19.305  24.316  1.00  0.00     0.124 S 
ATOM     72  O   UNL A   1      46.269  19.315  24.527  1.00  0.00    -0.237 OA
ATOM     73  O   UNL A   1      44.103  18.181  24.903  1.00  0.00    -0.237 OA
ATOM     74  O   UNL A   1      44.394  19.691  22.975  1.00  0.00    -0.744 OA
ENDBRANCH  70  71
ENDBRANCH  49  63
BRANCH  50  75
ATOM     75  C   UNL A   1      41.360  30.382  32.884  1.00  0.00     0.058 A 
ATOM     76  C   UNL A   1      40.235  29.583  33.169  1.00  0.00     0.135 A 
ATOM     77  C   UNL A   1      41.430  31.641  33.495  1.00  0.00     0.135 A 
ATOM     78  F   UNL A   1      40.104  28.378  32.591  1.00  0.00    -0.206 F 
ATOM     79  C   UNL A   1      39.317  29.934  34.153  1.00  0.00     0.059 A 
ATOM     80  C   UNL A   1      40.511  32.020  34.479  1.00  0.00     0.059 A 
ATOM     81  F   UNL A   1      42.471  32.452  33.256  1.00  0.00    -0.206 F 
ATOM     82  C   UNL A   1      39.507  31.124  34.852  1.00  0.00     0.060 A 
BRANCH  82  83
ATOM     83  S   UNL A   1      38.540  31.376  36.361  1.00  0.00     0.124 S 
ATOM     84  O   UNL A   1      39.496  32.060  37.225  1.00  0.00    -0.237 OA
ATOM     85  O   UNL A   1      37.433  32.199  35.873  1.00  0.00    -0.237 OA
ATOM     86  O   UNL A   1      38.183  30.021  36.762  1.00  0.00    -0.744 OA
ENDBRANCH  82  83
ENDBRANCH  50  75
BRANCH  62  87
ATOM     87  C   UNL A   1      44.901  24.068  33.560  1.00  0.00     0.058 A 
ATOM     88  C   UNL A   1      44.032  23.032  33.941  1.00  0.00     0.135 A 
ATOM     89  C   UNL A   1      46.255  23.903  33.940  1.00  0.00     0.135 A 
ATOM     90  F   UNL A   1      42.751  23.017  33.544  1.00  0.00    -0.206 F 
ATOM     91  C   UNL A   1      44.455  21.944  34.708  1.00  0.00     0.059 A 
ATOM     92  C   UNL A   1      46.709  22.800  34.658  1.00  0.00     0.059 A 
ATOM     93  F   UNL A   1      47.188  24.810  33.613  1.00  0.00    -0.206 F 
ATOM     94  C   UNL A   1      45.797  21.837  35.063  1.00  0.00     0.060 A 
BRANCH  94  95
ATOM     95  S   UNL A   1      46.367  20.411  36.005  1.00  0.00     0.124 S 
ATOM     96  O   UNL A   1      45.807  19.307  35.230  1.00  0.00    -0.237 OA
ATOM     97  O   UNL A   1      47.820  20.543  35.952  1.00  0.00    -0.237 OA
ATOM     98  O   UNL A   1      45.775  20.625  37.322  1.00  0.00    -0.744 OA
ENDBRANCH  94  95
ENDBRANCH  62  87
ENDBRANCH  36  37
ENDBRANCH  28  31
ENDBRANCH  26  27
ENDBRANCH   1  26
TORSDOF 17
ENDMDL
MODEL 3
REMARK VINA RESULT:     -13.2      5.215     11.315
REMARK SMILES Cc1cccc(O[C@H]2CC[C@@]([NH2+]C(C)C)(C(=O)NCCCNC(=O)c3ccc(-c4c5nc(c(-c6c(F)cc(S(=O)(=O)[O-])cc6F)c6ccc([nH]6)c(-c6c(F)cc(S(=O)(=O)[O-])cc6F)c6nc(c(-c7c(F)cc(S(=O)(=O)[O-])cc7F)c7ccc4[nH]7)C=C6)C=C5)cc3)C2)c1
REMARK SMILES IDX 20 1 19 2 18 3 16 4 17 5 11 7 8 8 9 9 91 10 10 11 7 12 6 13
REMARK SMILES IDX 1 14 2 15 3 16 92 17 4 18 5 19 12 20 13 23 14 24 15 25 21 26
REMARK SMILES IDX 22 27 23 28 24 30 25 31 26 32 90 33 27 34 89 35 28 36 29 37
REMARK SMILES IDX 30 38 83 39 31 40 88 41 82 42 84 43 32 44 87 45 81 46 80 47
REMARK SMILES IDX 33 49 67 50 46 51 66 52 47 53 50 54 65 55 85 56 48 57 49 58
REMARK SMILES IDX 64 60 86 61 51 62 34 63 35 64 44 65 36 66 37 67 43 68 45 69
REMARK SMILES IDX 38 70 39 71 40 72 41 73 42 74 68 75 69 76 78 77 70 78 71 79
REMARK SMILES IDX 77 80 79 81 72 82 73 83 74 84 75 85 76 86 52 87 53 88 62 89
REMARK SMILES IDX 54 90 55 91 61 92 63 93 56 94 57 95 58 96 59 97 60 98
REMARK H PARENT 18 6 12 21 12 22 22 29 84 48 50 59
REMARK Flexibility Score: inf
ROOT
ATOM      1  C   UNL A   1      36.833  22.845  26.319  1.00  0.00     0.042 C 
ENDROOT
BRANCH   1   2
ATOM      2  C   UNL A   1      35.609  23.716  26.069  1.00  0.00     0.118 C 
BRANCH   2   3
ATOM      3  N   UNL A   1      35.536  24.240  24.710  1.00  0.00    -0.351 N 
ATOM      4  C   UNL A   1      34.542  24.151  23.770  1.00  0.00     0.281 C 
ATOM      5  O   UNL A   1      34.664  24.843  22.755  1.00  0.00    -0.268 OA
ATOM      6  H   UNL A   1      36.332  24.741  24.420  1.00  0.00     0.163 HD
BRANCH   4   7
ATOM      7  C   UNL A   1      33.296  23.227  23.987  1.00  0.00     0.179 C 
ATOM      8  C   UNL A   1      31.247  24.431  24.668  1.00  0.00     0.180 C 
ATOM      9  C   UNL A   1      30.946  23.668  23.386  1.00  0.00     0.052 C 
ATOM     10  C   UNL A   1      32.440  23.645  25.220  1.00  0.00     0.124 C 
ATOM     11  C   UNL A   1      32.325  23.418  22.794  1.00  0.00     0.083 C 
BRANCH   8  12
ATOM     12  O   UNL A   1      31.678  25.765  24.416  1.00  0.00    -0.490 OA
BRANCH  12  13
ATOM     13  C   UNL A   1      31.856  26.617  25.468  1.00  0.00     0.119 A 
ATOM     14  C   UNL A   1      34.756  28.868  26.506  1.00  0.00     0.044 C 
ATOM     15  C   UNL A   1      33.420  28.184  26.490  1.00  0.00    -0.047 A 
ATOM     16  C   UNL A   1      32.460  28.494  27.458  1.00  0.00     0.003 A 
ATOM     17  C   UNL A   1      33.102  27.251  25.494  1.00  0.00     0.049 A 
ATOM     18  C   UNL A   1      31.217  27.861  27.442  1.00  0.00     0.004 A 
ATOM     19  C   UNL A   1      30.918  26.917  26.455  1.00  0.00     0.046 A 
ENDBRANCH  12  13
ENDBRANCH   8  12
BRANCH   7  20
ATOM     20  N   UNL A   1      33.686  21.796  24.092  1.00  0.00    -0.332 N 
ATOM     21  H   UNL A   1      34.533  21.750  24.659  1.00  0.00     0.347 HD
ATOM     22  H   UNL A   1      33.794  21.480  23.129  1.00  0.00     0.347 HD
BRANCH  20  23
ATOM     23  C   UNL A   1      32.707  20.876  24.685  1.00  0.00     0.176 C 
ATOM     24  C   UNL A   1      32.221  19.805  23.711  1.00  0.00     0.075 C 
ATOM     25  C   UNL A   1      33.394  20.203  25.879  1.00  0.00     0.075 C 
ENDBRANCH  20  23
ENDBRANCH   7  20
ENDBRANCH   4   7
ENDBRANCH   2   3
ENDBRANCH   1   2
BRANCH   1  26
ATOM     26  C   UNL A   1      38.123  23.465  25.799  1.00  0.00     0.118 C 
BRANCH  26  27
ATOM     27  N   UNL A   1      39.283  23.076  26.595  1.00  0.00    -0.352 N 
ATOM     28  C   UNL A   1      40.158  23.895  27.285  1.00  0.00     0.251 C 
ATOM     29  H   UNL A   1      39.463  22.109  26.647  1.00  0.00     0.163 HD
ATOM     30  O   UNL A   1      41.216  23.503  27.736  1.00  0.00    -0.269 OA
BRANCH  28  31
ATOM     31  C   UNL A   1      39.675  25.260  27.569  1.00  0.00     0.039 A 
ATOM     32  C   UNL A   1      40.180  26.286  26.761  1.00  0.00     0.014 A 
ATOM     33  C   UNL A   1      39.033  25.526  28.774  1.00  0.00     0.014 A 
ATOM     34  C   UNL A   1      40.203  27.585  27.252  1.00  0.00     0.010 A 
ATOM     35  C   UNL A   1      39.140  26.798  29.295  1.00  0.00     0.010 A 
ATOM     36  C   UNL A   1      39.767  27.815  28.555  1.00  0.00    -0.014 A 
BRANCH  36  37
ATOM     37  C   UNL A   1      39.973  29.072  29.263  1.00  0.00     0.031 A 
ATOM     38  C   UNL A   1      38.938  30.126  29.188  1.00  0.00     0.074 A 
ATOM     39  C   UNL A   1      41.045  29.212  30.072  1.00  0.00     0.049 A 
ATOM     40  N   UNL A   1      39.099  31.353  29.548  1.00  0.00    -0.248 NA
ATOM     41  C   UNL A   1      37.616  29.865  28.630  1.00  0.00     0.031 C 
ATOM     42  C   UNL A   1      41.236  30.210  31.119  1.00  0.00     0.029 A 
ATOM     43  N   UNL A   1      42.287  28.580  29.961  1.00  0.00    -0.354 N 
ATOM     44  C   UNL A   1      37.866  31.969  29.530  1.00  0.00     0.074 A 
ATOM     45  C   UNL A   1      36.989  31.013  28.897  1.00  0.00     0.031 C 
ATOM     46  C   UNL A   1      42.546  30.313  31.388  1.00  0.00     0.029 A 
ATOM     47  C   UNL A   1      43.251  29.505  30.408  1.00  0.00     0.049 A 
ATOM     48  H   UNL A   1      42.456  27.666  29.635  1.00  0.00     0.167 HD
ATOM     49  C   UNL A   1      37.712  33.165  30.173  1.00  0.00     0.037 A 
ATOM     50  C   UNL A   1      44.206  29.989  29.559  1.00  0.00     0.037 A 
ATOM     51  C   UNL A   1      39.011  33.680  30.615  1.00  0.00     0.049 A 
ATOM     52  C   UNL A   1      44.125  31.482  29.337  1.00  0.00     0.074 A 
ATOM     53  C   UNL A   1      39.681  33.622  31.827  1.00  0.00     0.029 A 
ATOM     54  N   UNL A   1      39.951  34.073  29.665  1.00  0.00    -0.354 N 
ATOM     55  N   UNL A   1      43.070  32.205  29.606  1.00  0.00    -0.248 NA
ATOM     56  C   UNL A   1      45.223  32.280  28.801  1.00  0.00     0.031 C 
ATOM     57  C   UNL A   1      41.052  33.889  31.583  1.00  0.00     0.029 A 
ATOM     58  C   UNL A   1      41.212  34.141  30.231  1.00  0.00     0.049 A 
ATOM     59  H   UNL A   1      39.747  34.273  28.723  1.00  0.00     0.167 HD
ATOM     60  C   UNL A   1      43.314  33.514  29.280  1.00  0.00     0.074 A 
ATOM     61  C   UNL A   1      44.685  33.513  28.800  1.00  0.00     0.031 C 
ATOM     62  C   UNL A   1      42.374  34.495  29.427  1.00  0.00     0.037 A 
BRANCH  49  63
ATOM     63  C   UNL A   1      36.374  33.699  30.663  1.00  0.00     0.058 A 
ATOM     64  C   UNL A   1      35.440  34.249  29.754  1.00  0.00     0.135 A 
ATOM     65  C   UNL A   1      35.976  33.781  32.013  1.00  0.00     0.135 A 
ATOM     66  F   UNL A   1      35.614  34.154  28.428  1.00  0.00    -0.206 F 
ATOM     67  C   UNL A   1      34.287  34.931  30.156  1.00  0.00     0.059 A 
ATOM     68  C   UNL A   1      34.860  34.508  32.445  1.00  0.00     0.059 A 
ATOM     69  F   UNL A   1      36.615  33.106  32.973  1.00  0.00    -0.206 F 
ATOM     70  C   UNL A   1      34.025  35.093  31.508  1.00  0.00     0.060 A 
BRANCH  70  71
ATOM     71  S   UNL A   1      32.583  36.048  32.019  1.00  0.00     0.124 S 
ATOM     72  O   UNL A   1      32.181  36.690  30.770  1.00  0.00    -0.237 OA
ATOM     73  O   UNL A   1      31.690  35.009  32.516  1.00  0.00    -0.237 OA
ATOM     74  O   UNL A   1      33.115  36.953  33.034  1.00  0.00    -0.744 OA
ENDBRANCH  70  71
ENDBRANCH  49  63
BRANCH  50  75
ATOM     75  C   UNL A   1      44.673  28.977  28.569  1.00  0.00     0.058 A 
ATOM     76  C   UNL A   1      44.086  29.008  27.288  1.00  0.00     0.135 A 
ATOM     77  C   UNL A   1      45.921  28.351  28.694  1.00  0.00     0.135 A 
ATOM     78  F   UNL A   1      42.880  29.573  27.117  1.00  0.00    -0.206 F 
ATOM     79  C   UNL A   1      44.782  28.605  26.154  1.00  0.00     0.059 A 
ATOM     80  C   UNL A   1      46.633  27.927  27.568  1.00  0.00     0.059 A 
ATOM     81  F   UNL A   1      46.525  28.280  29.889  1.00  0.00    -0.206 F 
ATOM     82  C   UNL A   1      46.085  28.133  26.300  1.00  0.00     0.060 A 
BRANCH  82  83
ATOM     83  S   UNL A   1      47.094  27.975  24.806  1.00  0.00     0.124 S 
ATOM     84  O   UNL A   1      46.589  29.067  23.981  1.00  0.00    -0.237 OA
ATOM     85  O   UNL A   1      48.445  28.160  25.336  1.00  0.00    -0.237 OA
ATOM     86  O   UNL A   1      46.786  26.631  24.333  1.00  0.00    -0.744 OA
ENDBRANCH  82  83
ENDBRANCH  50  75
BRANCH  62  87
ATOM     87  C   UNL A   1      42.504  35.908  28.913  1.00  0.00     0.058 A 
ATOM     88  C   UNL A   1      43.291  36.895  29.532  1.00  0.00     0.135 A 
ATOM     89  C   UNL A   1      41.930  36.273  27.672  1.00  0.00     0.135 A 
ATOM     90  F   UNL A   1      43.979  36.633  30.654  1.00  0.00    -0.206 F 
ATOM     91  C   UNL A   1      43.440  38.177  28.999  1.00  0.00     0.059 A 
ATOM     92  C   UNL A   1      42.110  37.528  27.095  1.00  0.00     0.059 A 
ATOM     93  F   UNL A   1      41.180  35.411  26.969  1.00  0.00    -0.206 F 
ATOM     94  C   UNL A   1      42.844  38.486  27.780  1.00  0.00     0.060 A 
BRANCH  94  95
ATOM     95  S   UNL A   1      43.073  40.118  27.054  1.00  0.00     0.124 S 
ATOM     96  O   UNL A   1      41.826  40.285  26.313  1.00  0.00    -0.237 OA
ATOM     97  O   UNL A   1      43.229  40.978  28.223  1.00  0.00    -0.237 OA
ATOM     98  O   UNL A   1      44.275  39.954  26.243  1.00  0.00    -0.744 OA
ENDBRANCH  94  95
ENDBRANCH  62  87
ENDBRANCH  36  37
ENDBRANCH  28  31
ENDBRANCH  26  27
ENDBRANCH   1  26
TORSDOF 17
ENDMDL
