MODEL 1
REMARK VINA RESULT:     -11.0      0.000      0.000
REMARK SMILES CC(C)(C[C@@H](O)C(F)(F)F)C(=O)NCCCNC(=O)c1ccc(-c2c3nc(c(-c4c(F)cc(S(=O)(=O)[O-])cc4F)c4ccc([nH]4)c(-c4c(F)cc(S(=O)(=O)[O-])cc4F)c4nc(c(-c5c(F)cc(S(=O)(=O)[O-])cc5F)c5ccc2[nH]5)C=C4)C=C3)cc1
REMARK SMILES IDX 15 1 14 2 13 3 11 4 12 5 2 7 1 8 3 9 4 10 5 11 6 12 7 14
REMARK SMILES IDX 8 15 9 16 10 17 16 18 17 19 18 20 19 22 20 23 21 24 85 25
REMARK SMILES IDX 22 26 84 27 23 28 24 29 25 30 78 31 26 32 83 33 77 34 79 35
REMARK SMILES IDX 27 36 82 37 76 38 75 39 28 41 62 42 41 43 61 44 42 45 45 46
REMARK SMILES IDX 60 47 80 48 43 49 44 50 59 52 81 53 46 54 29 55 30 56 39 57
REMARK SMILES IDX 31 58 32 59 38 60 40 61 33 62 34 63 35 64 36 65 37 66 63 67
REMARK SMILES IDX 64 68 73 69 65 70 66 71 72 72 74 73 67 74 68 75 69 76 70 77
REMARK SMILES IDX 71 78 47 79 48 80 57 81 49 82 50 83 56 84 58 85 51 86 52 87
REMARK SMILES IDX 53 88 54 89 55 90
REMARK H PARENT 13 6 6 13 17 21 79 40 45 51
REMARK Flexibility Score: inf
ROOT
ATOM      1  C   UNL A   1      37.418  23.749  25.398  1.00  0.00     0.042 C 
ENDROOT
BRANCH   1   2
ATOM      2  C   UNL A   1      35.952  24.093  25.642  1.00  0.00     0.117 C 
BRANCH   2   3
ATOM      3  N   UNL A   1      35.086  23.693  24.546  1.00  0.00    -0.356 N 
ATOM      4  C   UNL A   1      34.452  22.532  24.243  1.00  0.00     0.225 C 
ATOM      5  O   UNL A   1      33.897  22.488  23.138  1.00  0.00    -0.275 OA
ATOM      6  H   UNL A   1      34.928  24.409  23.889  1.00  0.00     0.163 HD
BRANCH   4   7
ATOM      7  C   UNL A   1      34.445  21.296  25.165  1.00  0.00     0.046 C 
ATOM      8  C   UNL A   1      34.453  21.778  26.638  1.00  0.00     0.021 C 
ATOM      9  C   UNL A   1      35.750  20.493  24.989  1.00  0.00     0.021 C 
BRANCH   7  10
ATOM     10  C   UNL A   1      33.200  20.400  24.936  1.00  0.00     0.057 C 
BRANCH  10  11
ATOM     11  C   UNL A   1      33.357  18.900  25.276  1.00  0.00     0.220 C 
BRANCH  11  12
ATOM     12  O   UNL A   1      32.653  18.583  26.486  1.00  0.00    -0.384 OA
ATOM     13  H   UNL A   1      32.009  19.281  26.677  1.00  0.00     0.211 HD
ENDBRANCH  11  12
BRANCH  11  14
ATOM     14  C   UNL A   1      32.862  18.036  24.097  1.00  0.00     0.414 C 
ATOM     15  F   UNL A   1      32.760  18.787  22.974  1.00  0.00    -0.168 F 
ATOM     16  F   UNL A   1      33.725  17.032  23.828  1.00  0.00    -0.168 F 
ATOM     17  F   UNL A   1      31.647  17.499  24.341  1.00  0.00    -0.168 F 
ENDBRANCH  11  14
ENDBRANCH  10  11
ENDBRANCH   7  10
ENDBRANCH   4   7
ENDBRANCH   2   3
ENDBRANCH   1   2
BRANCH   1  18
ATOM     18  C   UNL A   1      38.331  23.969  26.599  1.00  0.00     0.118 C 
BRANCH  18  19
ATOM     19  N   UNL A   1      39.744  23.879  26.253  1.00  0.00    -0.352 N 
ATOM     20  C   UNL A   1      40.798  24.701  26.566  1.00  0.00     0.251 C 
ATOM     21  H   UNL A   1      39.983  23.098  25.704  1.00  0.00     0.163 HD
ATOM     22  O   UNL A   1      41.873  24.537  25.987  1.00  0.00    -0.269 OA
BRANCH  20  23
ATOM     23  C   UNL A   1      40.658  25.783  27.566  1.00  0.00     0.039 A 
ATOM     24  C   UNL A   1      39.676  25.665  28.554  1.00  0.00     0.014 A 
ATOM     25  C   UNL A   1      41.453  26.931  27.514  1.00  0.00     0.014 A 
ATOM     26  C   UNL A   1      39.539  26.660  29.528  1.00  0.00     0.010 A 
ATOM     27  C   UNL A   1      41.368  27.884  28.529  1.00  0.00     0.010 A 
ATOM     28  C   UNL A   1      40.411  27.760  29.547  1.00  0.00    -0.014 A 
BRANCH  28  29
ATOM     29  C   UNL A   1      40.348  28.780  30.627  1.00  0.00     0.031 A 
ATOM     30  C   UNL A   1      41.201  28.635  31.860  1.00  0.00     0.074 A 
ATOM     31  C   UNL A   1      39.461  29.791  30.535  1.00  0.00     0.049 A 
ATOM     32  N   UNL A   1      41.216  29.369  32.944  1.00  0.00    -0.248 NA
ATOM     33  C   UNL A   1      42.141  27.502  31.895  1.00  0.00     0.031 C 
ATOM     34  C   UNL A   1      38.533  30.004  29.421  1.00  0.00     0.029 A 
ATOM     35  N   UNL A   1      39.175  30.818  31.401  1.00  0.00    -0.354 N 
ATOM     36  C   UNL A   1      42.139  28.773  33.796  1.00  0.00     0.074 A 
ATOM     37  C   UNL A   1      42.642  27.598  33.119  1.00  0.00     0.031 C 
ATOM     38  C   UNL A   1      37.786  31.092  29.668  1.00  0.00     0.029 A 
ATOM     39  C   UNL A   1      38.154  31.635  30.972  1.00  0.00     0.049 A 
ATOM     40  H   UNL A   1      39.655  30.957  32.249  1.00  0.00     0.167 HD
ATOM     41  C   UNL A   1      42.540  29.179  35.025  1.00  0.00     0.037 A 
ATOM     42  C   UNL A   1      37.564  32.690  31.568  1.00  0.00     0.037 A 
ATOM     43  C   UNL A   1      42.071  30.376  35.672  1.00  0.00     0.049 A 
ATOM     44  C   UNL A   1      38.057  33.139  32.918  1.00  0.00     0.074 A 
ATOM     45  C   UNL A   1      42.496  30.926  36.870  1.00  0.00     0.029 A 
ATOM     46  N   UNL A   1      41.076  31.207  35.182  1.00  0.00    -0.354 N 
ATOM     47  N   UNL A   1      38.999  32.617  33.666  1.00  0.00    -0.248 NA
ATOM     48  C   UNL A   1      37.415  34.325  33.502  1.00  0.00     0.031 C 
ATOM     49  C   UNL A   1      41.724  32.062  37.128  1.00  0.00     0.029 A 
ATOM     50  C   UNL A   1      40.854  32.250  36.066  1.00  0.00     0.049 A 
ATOM     51  H   UNL A   1      40.598  31.076  34.331  1.00  0.00     0.167 HD
ATOM     52  C   UNL A   1      39.078  33.423  34.797  1.00  0.00     0.074 A 
ATOM     53  C   UNL A   1      38.101  34.478  34.626  1.00  0.00     0.031 C 
ATOM     54  C   UNL A   1      39.885  33.300  35.878  1.00  0.00     0.037 A 
BRANCH  41  55
ATOM     55  C   UNL A   1      43.545  28.334  35.759  1.00  0.00     0.058 A 
ATOM     56  C   UNL A   1      44.926  28.532  35.610  1.00  0.00     0.135 A 
ATOM     57  C   UNL A   1      43.118  27.376  36.693  1.00  0.00     0.135 A 
ATOM     58  F   UNL A   1      45.390  29.426  34.721  1.00  0.00    -0.206 F 
ATOM     59  C   UNL A   1      45.849  27.803  36.353  1.00  0.00     0.059 A 
ATOM     60  C   UNL A   1      44.023  26.653  37.465  1.00  0.00     0.059 A 
ATOM     61  F   UNL A   1      41.807  27.145  36.873  1.00  0.00    -0.206 F 
ATOM     62  C   UNL A   1      45.387  26.871  37.284  1.00  0.00     0.060 A 
BRANCH  62  63
ATOM     63  S   UNL A   1      46.599  25.969  38.275  1.00  0.00     0.124 S 
ATOM     64  O   UNL A   1      47.719  25.869  37.345  1.00  0.00    -0.237 OA
ATOM     65  O   UNL A   1      46.797  26.861  39.412  1.00  0.00    -0.237 OA
ATOM     66  O   UNL A   1      45.923  24.712  38.579  1.00  0.00    -0.744 OA
ENDBRANCH  62  63
ENDBRANCH  41  55
BRANCH  42  67
ATOM     67  C   UNL A   1      36.439  33.397  30.899  1.00  0.00     0.058 A 
ATOM     68  C   UNL A   1      36.661  34.232  29.794  1.00  0.00     0.135 A 
ATOM     69  C   UNL A   1      35.120  33.262  31.361  1.00  0.00     0.135 A 
ATOM     70  F   UNL A   1      37.904  34.397  29.317  1.00  0.00    -0.206 F 
ATOM     71  C   UNL A   1      35.622  34.934  29.191  1.00  0.00     0.059 A 
ATOM     72  C   UNL A   1      34.061  33.931  30.756  1.00  0.00     0.059 A 
ATOM     73  F   UNL A   1      34.851  32.459  32.402  1.00  0.00    -0.206 F 
ATOM     74  C   UNL A   1      34.324  34.779  29.682  1.00  0.00     0.060 A 
BRANCH  74  75
ATOM     75  S   UNL A   1      32.979  35.679  28.881  1.00  0.00     0.124 S 
ATOM     76  O   UNL A   1      33.712  36.688  28.124  1.00  0.00    -0.237 OA
ATOM     77  O   UNL A   1      32.334  34.633  28.094  1.00  0.00    -0.237 OA
ATOM     78  O   UNL A   1      32.195  36.179  30.007  1.00  0.00    -0.744 OA
ENDBRANCH  74  75
ENDBRANCH  42  67
BRANCH  54  79
ATOM     79  C   UNL A   1      39.775  34.349  36.950  1.00  0.00     0.058 A 
ATOM     80  C   UNL A   1      38.984  34.154  38.092  1.00  0.00     0.135 A 
ATOM     81  C   UNL A   1      40.512  35.540  36.855  1.00  0.00     0.135 A 
ATOM     82  F   UNL A   1      38.255  33.036  38.228  1.00  0.00    -0.206 F 
ATOM     83  C   UNL A   1      38.912  35.116  39.096  1.00  0.00     0.059 A 
ATOM     84  C   UNL A   1      40.476  36.503  37.859  1.00  0.00     0.059 A 
ATOM     85  F   UNL A   1      41.292  35.771  35.787  1.00  0.00    -0.206 F 
ATOM     86  C   UNL A   1      39.662  36.286  38.971  1.00  0.00     0.060 A 
BRANCH  86  87
ATOM     87  S   UNL A   1      39.586  37.510  40.295  1.00  0.00     0.124 S 
ATOM     88  O   UNL A   1      38.758  38.547  39.690  1.00  0.00    -0.237 OA
ATOM     89  O   UNL A   1      38.968  36.758  41.383  1.00  0.00    -0.237 OA
ATOM     90  O   UNL A   1      40.986  37.868  40.507  1.00  0.00    -0.744 OA
ENDBRANCH  86  87
ENDBRANCH  54  79
ENDBRANCH  28  29
ENDBRANCH  20  23
ENDBRANCH  18  19
ENDBRANCH   1  18
TORSDOF 17
ENDMDL
MODEL 2
REMARK VINA RESULT:     -10.9      4.970     11.635
REMARK SMILES CC(C)(C[C@@H](O)C(F)(F)F)C(=O)NCCCNC(=O)c1ccc(-c2c3nc(c(-c4c(F)cc(S(=O)(=O)[O-])cc4F)c4ccc([nH]4)c(-c4c(F)cc(S(=O)(=O)[O-])cc4F)c4nc(c(-c5c(F)cc(S(=O)(=O)[O-])cc5F)c5ccc2[nH]5)C=C4)C=C3)cc1
REMARK SMILES IDX 15 1 14 2 13 3 11 4 12 5 2 7 1 8 3 9 4 10 5 11 6 12 7 14
REMARK SMILES IDX 8 15 9 16 10 17 16 18 17 19 18 20 19 22 20 23 21 24 85 25
REMARK SMILES IDX 22 26 84 27 23 28 24 29 25 30 78 31 26 32 83 33 77 34 79 35
REMARK SMILES IDX 27 36 82 37 76 38 75 39 28 41 62 42 41 43 61 44 42 45 45 46
REMARK SMILES IDX 60 47 80 48 43 49 44 50 59 52 81 53 46 54 29 55 30 56 39 57
REMARK SMILES IDX 31 58 32 59 38 60 40 61 33 62 34 63 35 64 36 65 37 66 63 67
REMARK SMILES IDX 64 68 73 69 65 70 66 71 72 72 74 73 67 74 68 75 69 76 70 77
REMARK SMILES IDX 71 78 47 79 48 80 57 81 49 82 50 83 56 84 58 85 51 86 52 87
REMARK SMILES IDX 53 88 54 89 55 90
REMARK H PARENT 13 6 6 13 17 21 79 40 45 51
REMARK Flexibility Score: inf
ROOT
ATOM      1  C   UNL A   1      34.002  34.517  28.049  1.00  0.00     0.042 C 
ENDROOT
BRANCH   1   2
ATOM      2  C   UNL A   1      32.855  34.957  28.952  1.00  0.00     0.117 C 
BRANCH   2   3
ATOM      3  N   UNL A   1      33.017  36.312  29.452  1.00  0.00    -0.356 N 
ATOM      4  C   UNL A   1      33.112  36.833  30.701  1.00  0.00     0.225 C 
ATOM      5  O   UNL A   1      33.102  38.069  30.777  1.00  0.00    -0.275 OA
ATOM      6  H   UNL A   1      33.067  36.990  28.739  1.00  0.00     0.163 HD
BRANCH   4   7
ATOM      7  C   UNL A   1      33.176  35.978  31.982  1.00  0.00     0.046 C 
ATOM      8  C   UNL A   1      31.735  35.786  32.521  1.00  0.00     0.021 C 
ATOM      9  C   UNL A   1      33.931  36.736  33.092  1.00  0.00     0.021 C 
BRANCH   7  10
ATOM     10  C   UNL A   1      33.806  34.584  31.727  1.00  0.00     0.057 C 
BRANCH  10  11
ATOM     11  C   UNL A   1      34.413  33.865  32.953  1.00  0.00     0.220 C 
BRANCH  11  12
ATOM     12  O   UNL A   1      33.391  33.177  33.689  1.00  0.00    -0.384 OA
ATOM     13  H   UNL A   1      32.577  33.702  33.678  1.00  0.00     0.211 HD
ENDBRANCH  11  12
BRANCH  11  14
ATOM     14  C   UNL A   1      35.527  32.897  32.502  1.00  0.00     0.414 C 
ATOM     15  F   UNL A   1      36.543  33.585  31.926  1.00  0.00    -0.168 F 
ATOM     16  F   UNL A   1      36.046  32.223  33.551  1.00  0.00    -0.168 F 
ATOM     17  F   UNL A   1      35.079  31.999  31.599  1.00  0.00    -0.168 F 
ENDBRANCH  11  14
ENDBRANCH  10  11
ENDBRANCH   7  10
ENDBRANCH   4   7
ENDBRANCH   2   3
ENDBRANCH   1   2
BRANCH   1  18
ATOM     18  C   UNL A   1      34.640  33.186  28.435  1.00  0.00     0.118 C 
BRANCH  18  19
ATOM     19  N   UNL A   1      34.018  32.051  27.764  1.00  0.00    -0.352 N 
ATOM     20  C   UNL A   1      34.492  30.787  27.517  1.00  0.00     0.251 C 
ATOM     21  H   UNL A   1      33.106  32.218  27.435  1.00  0.00     0.163 HD
ATOM     22  O   UNL A   1      33.866  30.056  26.748  1.00  0.00    -0.269 OA
BRANCH  20  23
ATOM     23  C   UNL A   1      35.741  30.298  28.142  1.00  0.00     0.039 A 
ATOM     24  C   UNL A   1      36.941  30.419  27.434  1.00  0.00     0.014 A 
ATOM     25  C   UNL A   1      35.738  29.683  29.396  1.00  0.00     0.014 A 
ATOM     26  C   UNL A   1      38.141  29.990  28.011  1.00  0.00     0.010 A 
ATOM     27  C   UNL A   1      36.942  29.327  30.002  1.00  0.00     0.010 A 
ATOM     28  C   UNL A   1      38.157  29.475  29.317  1.00  0.00    -0.014 A 
BRANCH  28  29
ATOM     29  C   UNL A   1      39.431  29.103  29.987  1.00  0.00     0.031 A 
ATOM     30  C   UNL A   1      39.946  29.915  31.147  1.00  0.00     0.074 A 
ATOM     31  C   UNL A   1      40.166  28.085  29.497  1.00  0.00     0.049 A 
ATOM     32  N   UNL A   1      41.076  29.801  31.797  1.00  0.00    -0.248 NA
ATOM     33  C   UNL A   1      39.093  31.018  31.624  1.00  0.00     0.031 C 
ATOM     34  C   UNL A   1      39.807  27.263  28.338  1.00  0.00     0.029 A 
ATOM     35  N   UNL A   1      41.380  27.578  29.895  1.00  0.00    -0.354 N 
ATOM     36  C   UNL A   1      41.085  30.829  32.733  1.00  0.00     0.074 A 
ATOM     37  C   UNL A   1      39.861  31.578  32.549  1.00  0.00     0.031 C 
ATOM     38  C   UNL A   1      40.774  26.356  28.122  1.00  0.00     0.029 A 
ATOM     39  C   UNL A   1      41.838  26.553  29.101  1.00  0.00     0.049 A 
ATOM     40  H   UNL A   1      41.875  27.918  30.675  1.00  0.00     0.167 HD
ATOM     41  C   UNL A   1      42.021  31.112  33.670  1.00  0.00     0.037 A 
ATOM     42  C   UNL A   1      42.993  25.859  29.142  1.00  0.00     0.037 A 
ATOM     43  C   UNL A   1      43.214  30.333  33.880  1.00  0.00     0.049 A 
ATOM     44  C   UNL A   1      43.999  26.173  30.218  1.00  0.00     0.074 A 
ATOM     45  C   UNL A   1      44.169  30.478  34.871  1.00  0.00     0.029 A 
ATOM     46  N   UNL A   1      43.616  29.267  33.090  1.00  0.00    -0.354 N 
ATOM     47  N   UNL A   1      43.943  27.089  31.155  1.00  0.00    -0.248 NA
ATOM     48  C   UNL A   1      45.219  25.355  30.250  1.00  0.00     0.031 C 
ATOM     49  C   UNL A   1      45.174  29.532  34.652  1.00  0.00     0.029 A 
ATOM     50  C   UNL A   1      44.820  28.764  33.555  1.00  0.00     0.049 A 
ATOM     51  H   UNL A   1      43.120  28.919  32.314  1.00  0.00     0.167 HD
ATOM     52  C   UNL A   1      45.108  26.941  31.901  1.00  0.00     0.074 A 
ATOM     53  C   UNL A   1      45.841  25.837  31.316  1.00  0.00     0.031 C 
ATOM     54  C   UNL A   1      45.533  27.656  32.971  1.00  0.00     0.037 A 
BRANCH  41  55
ATOM     55  C   UNL A   1      41.802  32.308  34.556  1.00  0.00     0.058 A 
ATOM     56  C   UNL A   1      42.303  33.575  34.222  1.00  0.00     0.135 A 
ATOM     57  C   UNL A   1      41.004  32.201  35.706  1.00  0.00     0.135 A 
ATOM     58  F   UNL A   1      43.084  33.731  33.140  1.00  0.00    -0.206 F 
ATOM     59  C   UNL A   1      42.029  34.693  35.002  1.00  0.00     0.059 A 
ATOM     60  C   UNL A   1      40.696  33.311  36.488  1.00  0.00     0.059 A 
ATOM     61  F   UNL A   1      40.502  31.011  36.072  1.00  0.00    -0.206 F 
ATOM     62  C   UNL A   1      41.217  34.553  36.130  1.00  0.00     0.060 A 
BRANCH  62  63
ATOM     63  S   UNL A   1      40.832  36.024  37.103  1.00  0.00     0.124 S 
ATOM     64  O   UNL A   1      42.118  36.716  37.109  1.00  0.00    -0.237 OA
ATOM     65  O   UNL A   1      39.779  36.653  36.313  1.00  0.00    -0.237 OA
ATOM     66  O   UNL A   1      40.407  35.481  38.389  1.00  0.00    -0.744 OA
ENDBRANCH  62  63
ENDBRANCH  41  55
BRANCH  42  67
ATOM     67  C   UNL A   1      43.268  24.802  28.132  1.00  0.00     0.058 A 
ATOM     68  C   UNL A   1      42.931  23.461  28.374  1.00  0.00     0.135 A 
ATOM     69  C   UNL A   1      43.889  25.109  26.911  1.00  0.00     0.135 A 
ATOM     70  F   UNL A   1      42.341  23.117  29.528  1.00  0.00    -0.206 F 
ATOM     71  C   UNL A   1      43.227  22.459  27.456  1.00  0.00     0.059 A 
ATOM     72  C   UNL A   1      44.169  24.128  25.966  1.00  0.00     0.059 A 
ATOM     73  F   UNL A   1      44.214  26.379  26.622  1.00  0.00    -0.206 F 
ATOM     74  C   UNL A   1      43.851  22.802  26.255  1.00  0.00     0.060 A 
BRANCH  74  75
ATOM     75  S   UNL A   1      44.214  21.497  25.061  1.00  0.00     0.124 S 
ATOM     76  O   UNL A   1      44.120  22.221  23.798  1.00  0.00    -0.237 OA
ATOM     77  O   UNL A   1      45.555  21.079  25.459  1.00  0.00    -0.237 OA
ATOM     78  O   UNL A   1      43.161  20.516  25.307  1.00  0.00    -0.744 OA
ENDBRANCH  74  75
ENDBRANCH  42  67
BRANCH  54  79
ATOM     79  C   UNL A   1      46.834  27.249  33.605  1.00  0.00     0.058 A 
ATOM     80  C   UNL A   1      46.890  26.267  34.605  1.00  0.00     0.135 A 
ATOM     81  C   UNL A   1      48.043  27.812  33.167  1.00  0.00     0.135 A 
ATOM     82  F   UNL A   1      45.761  25.702  35.063  1.00  0.00    -0.206 F 
ATOM     83  C   UNL A   1      48.100  25.871  35.166  1.00  0.00     0.059 A 
ATOM     84  C   UNL A   1      49.267  27.412  33.695  1.00  0.00     0.059 A 
ATOM     85  F   UNL A   1      48.045  28.749  32.205  1.00  0.00    -0.206 F 
ATOM     86  C   UNL A   1      49.284  26.449  34.703  1.00  0.00     0.060 A 
BRANCH  86  87
ATOM     87  S   UNL A   1      50.850  25.903  35.413  1.00  0.00     0.124 S 
ATOM     88  O   UNL A   1      51.813  26.467  34.473  1.00  0.00    -0.237 OA
ATOM     89  O   UNL A   1      50.825  26.515  36.738  1.00  0.00    -0.237 OA
ATOM     90  O   UNL A   1      50.740  24.447  35.400  1.00  0.00    -0.744 OA
ENDBRANCH  86  87
ENDBRANCH  54  79
ENDBRANCH  28  29
ENDBRANCH  20  23
ENDBRANCH  18  19
ENDBRANCH   1  18
TORSDOF 17
ENDMDL
MODEL 3
REMARK VINA RESULT:     -10.9      6.228     11.447
REMARK SMILES CC(C)(C[C@@H](O)C(F)(F)F)C(=O)NCCCNC(=O)c1ccc(-c2c3nc(c(-c4c(F)cc(S(=O)(=O)[O-])cc4F)c4ccc([nH]4)c(-c4c(F)cc(S(=O)(=O)[O-])cc4F)c4nc(c(-c5c(F)cc(S(=O)(=O)[O-])cc5F)c5ccc2[nH]5)C=C4)C=C3)cc1
REMARK SMILES IDX 15 1 14 2 13 3 11 4 12 5 2 7 1 8 3 9 4 10 5 11 6 12 7 14
REMARK SMILES IDX 8 15 9 16 10 17 16 18 17 19 18 20 19 22 20 23 21 24 85 25
REMARK SMILES IDX 22 26 84 27 23 28 24 29 25 30 78 31 26 32 83 33 77 34 79 35
REMARK SMILES IDX 27 36 82 37 76 38 75 39 28 41 62 42 41 43 61 44 42 45 45 46
REMARK SMILES IDX 60 47 80 48 43 49 44 50 59 52 81 53 46 54 29 55 30 56 39 57
REMARK SMILES IDX 31 58 32 59 38 60 40 61 33 62 34 63 35 64 36 65 37 66 63 67
REMARK SMILES IDX 64 68 73 69 65 70 66 71 72 72 74 73 67 74 68 75 69 76 70 77
REMARK SMILES IDX 71 78 47 79 48 80 57 81 49 82 50 83 56 84 58 85 51 86 52 87
REMARK SMILES IDX 53 88 54 89 55 90
REMARK H PARENT 13 6 6 13 17 21 79 40 45 51
REMARK Flexibility Score: inf
ROOT
ATOM      1  C   UNL A   1      32.256  27.527  26.741  1.00  0.00     0.042 C 
ENDROOT
BRANCH   1   2
ATOM      2  C   UNL A   1      32.134  26.827  25.391  1.00  0.00     0.117 C 
BRANCH   2   3
ATOM      3  N   UNL A   1      30.775  26.411  25.090  1.00  0.00    -0.356 N 
ATOM      4  C   UNL A   1      29.785  26.954  24.337  1.00  0.00     0.225 C 
ATOM      5  O   UNL A   1      28.680  26.401  24.411  1.00  0.00    -0.275 OA
ATOM      6  H   UNL A   1      30.520  25.563  25.520  1.00  0.00     0.163 HD
BRANCH   4   7
ATOM      7  C   UNL A   1      29.965  28.216  23.471  1.00  0.00     0.046 C 
ATOM      8  C   UNL A   1      30.829  27.851  22.237  1.00  0.00     0.021 C 
ATOM      9  C   UNL A   1      30.777  29.279  24.240  1.00  0.00     0.021 C 
BRANCH   7  10
ATOM     10  C   UNL A   1      28.609  28.792  22.984  1.00  0.00     0.057 C 
BRANCH  10  11
ATOM     11  C   UNL A   1      28.666  30.125  22.203  1.00  0.00     0.220 C 
BRANCH  11  12
ATOM     12  O   UNL A   1      27.955  30.010  20.961  1.00  0.00    -0.384 OA
ATOM     13  H   UNL A   1      27.595  30.876  20.714  1.00  0.00     0.211 HD
ENDBRANCH  11  12
BRANCH  11  14
ATOM     14  C   UNL A   1      28.100  31.270  23.069  1.00  0.00     0.414 C 
ATOM     15  F   UNL A   1      27.459  32.176  22.290  1.00  0.00    -0.168 F 
ATOM     16  F   UNL A   1      27.202  30.810  23.967  1.00  0.00    -0.168 F 
ATOM     17  F   UNL A   1      29.074  31.924  23.738  1.00  0.00    -0.168 F 
ENDBRANCH  11  14
ENDBRANCH  10  11
ENDBRANCH   7  10
ENDBRANCH   4   7
ENDBRANCH   2   3
ENDBRANCH   1   2
BRANCH   1  18
ATOM     18  C   UNL A   1      33.622  28.151  27.012  1.00  0.00     0.118 C 
BRANCH  18  19
ATOM     19  N   UNL A   1      33.532  29.558  27.380  1.00  0.00    -0.352 N 
ATOM     20  C   UNL A   1      34.420  30.370  28.040  1.00  0.00     0.251 C 
ATOM     21  H   UNL A   1      32.695  30.001  27.109  1.00  0.00     0.163 HD
ATOM     22  O   UNL A   1      34.041  31.477  28.424  1.00  0.00    -0.269 OA
BRANCH  20  23
ATOM     23  C   UNL A   1      35.807  29.932  28.310  1.00  0.00     0.039 A 
ATOM     24  C   UNL A   1      36.743  29.980  27.272  1.00  0.00     0.014 A 
ATOM     25  C   UNL A   1      36.185  29.433  29.559  1.00  0.00     0.014 A 
ATOM     26  C   UNL A   1      38.068  29.597  27.506  1.00  0.00     0.010 A 
ATOM     27  C   UNL A   1      37.521  29.126  29.813  1.00  0.00     0.010 A 
ATOM     28  C   UNL A   1      38.478  29.203  28.791  1.00  0.00    -0.014 A 
BRANCH  28  29
ATOM     29  C   UNL A   1      39.900  28.886  29.086  1.00  0.00     0.031 A 
ATOM     30  C   UNL A   1      40.822  29.950  29.621  1.00  0.00     0.074 A 
ATOM     31  C   UNL A   1      40.381  27.661  28.793  1.00  0.00     0.049 A 
ATOM     32  N   UNL A   1      42.109  29.887  29.851  1.00  0.00    -0.248 NA
ATOM     33  C   UNL A   1      40.229  31.267  29.909  1.00  0.00     0.031 C 
ATOM     34  C   UNL A   1      39.604  26.563  28.212  1.00  0.00     0.029 A 
ATOM     35  N   UNL A   1      41.644  27.135  28.923  1.00  0.00    -0.354 N 
ATOM     36  C   UNL A   1      42.483  31.155  30.280  1.00  0.00     0.074 A 
ATOM     37  C   UNL A   1      41.295  31.979  30.250  1.00  0.00     0.031 C 
ATOM     38  C   UNL A   1      40.403  25.497  28.039  1.00  0.00     0.029 A 
ATOM     39  C   UNL A   1      41.756  25.844  28.462  1.00  0.00     0.049 A 
ATOM     40  H   UNL A   1      42.398  27.637  29.310  1.00  0.00     0.167 HD
ATOM     41  C   UNL A   1      43.704  31.588  30.678  1.00  0.00     0.037 A 
ATOM     42  C   UNL A   1      42.830  25.034  28.370  1.00  0.00     0.037 A 
ATOM     43  C   UNL A   1      44.872  30.750  30.752  1.00  0.00     0.049 A 
ATOM     44  C   UNL A   1      44.166  25.531  28.854  1.00  0.00     0.074 A 
ATOM     45  C   UNL A   1      46.128  31.070  31.240  1.00  0.00     0.029 A 
ATOM     46  N   UNL A   1      44.933  29.432  30.327  1.00  0.00    -0.354 N 
ATOM     47  N   UNL A   1      44.478  26.706  29.346  1.00  0.00    -0.248 NA
ATOM     48  C   UNL A   1      45.294  24.593  28.778  1.00  0.00     0.031 C 
ATOM     49  C   UNL A   1      46.960  29.962  31.066  1.00  0.00     0.029 A 
ATOM     50  C   UNL A   1      46.211  28.934  30.517  1.00  0.00     0.049 A 
ATOM     51  H   UNL A   1      44.179  28.925  29.947  1.00  0.00     0.167 HD
ATOM     52  C   UNL A   1      45.831  26.639  29.661  1.00  0.00     0.074 A 
ATOM     53  C   UNL A   1      46.274  25.303  29.319  1.00  0.00     0.031 C 
ATOM     54  C   UNL A   1      46.635  27.597  30.183  1.00  0.00     0.037 A 
BRANCH  41  55
ATOM     55  C   UNL A   1      43.852  33.031  31.076  1.00  0.00     0.058 A 
ATOM     56  C   UNL A   1      43.672  33.453  32.401  1.00  0.00     0.135 A 
ATOM     57  C   UNL A   1      44.268  33.987  30.134  1.00  0.00     0.135 A 
ATOM     58  F   UNL A   1      43.262  32.584  33.339  1.00  0.00    -0.206 F 
ATOM     59  C   UNL A   1      43.890  34.774  32.779  1.00  0.00     0.059 A 
ATOM     60  C   UNL A   1      44.516  35.308  30.494  1.00  0.00     0.059 A 
ATOM     61  F   UNL A   1      44.452  33.636  28.851  1.00  0.00    -0.206 F 
ATOM     62  C   UNL A   1      44.319  35.693  31.819  1.00  0.00     0.060 A 
BRANCH  62  63
ATOM     63  S   UNL A   1      44.644  37.392  32.338  1.00  0.00     0.124 S 
ATOM     64  O   UNL A   1      43.739  37.529  33.474  1.00  0.00    -0.237 OA
ATOM     65  O   UNL A   1      46.066  37.353  32.662  1.00  0.00    -0.237 OA
ATOM     66  O   UNL A   1      44.295  38.181  31.160  1.00  0.00    -0.744 OA
ENDBRANCH  62  63
ENDBRANCH  41  55
BRANCH  42  67
ATOM     67  C   UNL A   1      42.692  23.670  27.794  1.00  0.00     0.058 A 
ATOM     68  C   UNL A   1      42.696  23.462  26.407  1.00  0.00     0.135 A 
ATOM     69  C   UNL A   1      42.537  22.546  28.622  1.00  0.00     0.135 A 
ATOM     70  F   UNL A   1      42.837  24.505  25.575  1.00  0.00    -0.206 F 
ATOM     71  C   UNL A   1      42.520  22.196  25.858  1.00  0.00     0.059 A 
ATOM     72  C   UNL A   1      42.388  21.266  28.097  1.00  0.00     0.059 A 
ATOM     73  F   UNL A   1      42.546  22.686  29.956  1.00  0.00    -0.206 F 
ATOM     74  C   UNL A   1      42.363  21.103  26.713  1.00  0.00     0.060 A 
BRANCH  74  75
ATOM     75  S   UNL A   1      42.154  19.460  25.993  1.00  0.00     0.124 S 
ATOM     76  O   UNL A   1      42.666  18.606  27.059  1.00  0.00    -0.237 OA
ATOM     77  O   UNL A   1      40.713  19.404  25.765  1.00  0.00    -0.237 OA
ATOM     78  O   UNL A   1      42.970  19.519  24.783  1.00  0.00    -0.744 OA
ENDBRANCH  74  75
ENDBRANCH  42  67
BRANCH  54  79
ATOM     79  C   UNL A   1      48.068  27.230  30.452  1.00  0.00     0.058 A 
ATOM     80  C   UNL A   1      49.072  27.431  29.493  1.00  0.00     0.135 A 
ATOM     81  C   UNL A   1      48.447  26.722  31.705  1.00  0.00     0.135 A 
ATOM     82  F   UNL A   1      48.761  27.908  28.278  1.00  0.00    -0.206 F 
ATOM     83  C   UNL A   1      50.402  27.120  29.760  1.00  0.00     0.059 A 
ATOM     84  C   UNL A   1      49.775  26.430  32.002  1.00  0.00     0.059 A 
ATOM     85  F   UNL A   1      47.526  26.521  32.661  1.00  0.00    -0.206 F 
ATOM     86  C   UNL A   1      50.743  26.621  31.018  1.00  0.00     0.060 A 
BRANCH  86  87
ATOM     87  S   UNL A   1      52.476  26.253  31.363  1.00  0.00     0.124 S 
ATOM     88  O   UNL A   1      52.393  24.885  31.862  1.00  0.00    -0.237 OA
ATOM     89  O   UNL A   1      53.099  26.414  30.053  1.00  0.00    -0.237 OA
ATOM     90  O   UNL A   1      52.846  27.261  32.354  1.00  0.00    -0.744 OA
ENDBRANCH  86  87
ENDBRANCH  54  79
ENDBRANCH  28  29
ENDBRANCH  20  23
ENDBRANCH  18  19
ENDBRANCH   1  18
TORSDOF 17
ENDMDL
