MODEL 1
REMARK VINA RESULT:     -13.6      0.000      0.000
REMARK SMILES Cc1ccc(OCC(=O)NNC(=O)[C@H]2CCCC[C@@H]2C(=O)NCCCNC(=O)c2ccc(-c3c4nc(c(-c5c(F)cc(S(=O)(=O)[O-])cc5F)c5ccc([nH]5)c(-c5c(F)cc(S(=O)(=O)[O-])cc5F)c5nc(c(-c6c(F)cc(S(=O)(=O)[O-])cc6F)c6ccc3[nH]6)C=C5)C=C4)cc2)cc1
REMARK SMILES IDX 23 1 22 2 20 3 21 4 19 6 14 7 15 8 16 9 18 10 17 11 12 12
REMARK SMILES IDX 11 13 13 15 10 16 8 17 9 18 7 20 6 21 5 22 1 23 2 24 3 25
REMARK SMILES IDX 96 26 4 27 95 28 24 29 25 30 26 31 27 32 28 34 29 35 30 36
REMARK SMILES IDX 94 37 31 38 93 39 32 40 33 41 34 42 87 43 35 44 92 45 86 46
REMARK SMILES IDX 88 47 36 48 91 49 85 50 84 51 37 53 71 54 50 55 70 56 51 57
REMARK SMILES IDX 54 58 69 59 89 60 52 61 53 62 68 64 90 65 55 66 38 67 39 68
REMARK SMILES IDX 48 69 40 70 41 71 47 72 49 73 42 74 43 75 44 76 45 77 46 78
REMARK SMILES IDX 72 79 73 80 82 81 74 82 75 83 81 84 83 85 76 86 77 87 78 88
REMARK SMILES IDX 79 89 80 90 56 91 57 92 66 93 58 94 59 95 65 96 67 97 60 98
REMARK SMILES IDX 61 99 62 100 63 101 64 102
REMARK H PARENT 22 5 11 14 10 19 26 33 88 52 54 63
REMARK Flexibility Score: inf
ROOT
ATOM      1  C   UNL A   1      36.239  21.618  26.140  1.00  0.00     0.117 C 
ENDROOT
BRANCH   1   2
ATOM      2  N   UNL A   1      35.463  20.705  25.313  1.00  0.00    -0.356 N 
ATOM      3  C   UNL A   1      34.171  20.617  24.938  1.00  0.00     0.223 C 
ATOM      4  O   UNL A   1      33.881  19.629  24.243  1.00  0.00    -0.275 OA
ATOM      5  H   UNL A   1      36.013  19.979  24.937  1.00  0.00     0.163 HD
BRANCH   3   6
ATOM      6  C   UNL A   1      33.035  21.580  25.308  1.00  0.00     0.091 C 
ATOM      7  C   UNL A   1      32.997  22.703  24.237  1.00  0.00     0.092 C 
ATOM      8  C   UNL A   1      33.998  23.812  24.600  1.00  0.00     0.014 C 
ATOM      9  C   UNL A   1      33.747  24.423  25.975  1.00  0.00     0.001 C 
ATOM     10  C   UNL A   1      32.843  22.144  26.714  1.00  0.00     0.014 C 
ATOM     11  C   UNL A   1      33.668  23.379  27.072  1.00  0.00     0.001 C 
BRANCH   7  12
ATOM     12  C   UNL A   1      31.589  23.258  24.011  1.00  0.00     0.242 C 
ATOM     13  N   UNL A   1      31.292  23.939  22.864  1.00  0.00    -0.267 N 
ATOM     14  H   UNL A   1      30.351  24.191  22.727  1.00  0.00     0.191 HD
ATOM     15  O   UNL A   1      30.684  23.150  24.842  1.00  0.00    -0.273 OA
BRANCH  13  16
ATOM     16  N   UNL A   1      32.191  24.311  21.873  1.00  0.00    -0.265 N 
ATOM     17  C   UNL A   1      32.350  25.616  21.465  1.00  0.00     0.276 C 
ATOM     18  O   UNL A   1      33.242  25.919  20.671  1.00  0.00    -0.269 OA
ATOM     19  H   UNL A   1      32.739  23.612  21.447  1.00  0.00     0.191 HD
BRANCH  17  20
ATOM     20  C   UNL A   1      31.431  26.689  22.069  1.00  0.00     0.331 C 
BRANCH  20  21
ATOM     21  O   UNL A   1      31.139  26.550  23.451  1.00  0.00    -0.484 OA
BRANCH  21  22
ATOM     22  C   UNL A   1      31.974  27.168  24.342  1.00  0.00     0.120 A 
ATOM     23  C   UNL A   1      34.278  29.101  27.442  1.00  0.00     0.044 C 
ATOM     24  C   UNL A   1      33.480  28.427  26.365  1.00  0.00    -0.051 A 
ATOM     25  C   UNL A   1      32.209  27.917  26.642  1.00  0.00     0.007 A 
ATOM     26  C   UNL A   1      33.994  28.292  25.072  1.00  0.00     0.007 A 
ATOM     27  C   UNL A   1      31.462  27.296  25.635  1.00  0.00     0.047 A 
ATOM     28  C   UNL A   1      33.247  27.666  24.068  1.00  0.00     0.047 A 
ENDBRANCH  21  22
ENDBRANCH  20  21
ENDBRANCH  17  20
ENDBRANCH  13  16
ENDBRANCH   7  12
ENDBRANCH   3   6
ENDBRANCH   1   2
BRANCH   1  29
ATOM     29  C   UNL A   1      37.444  22.180  25.395  1.00  0.00     0.042 C 
BRANCH  29  30
ATOM     30  C   UNL A   1      38.054  23.361  26.127  1.00  0.00     0.118 C 
BRANCH  30  31
ATOM     31  N   UNL A   1      39.300  23.076  26.827  1.00  0.00    -0.352 N 
ATOM     32  C   UNL A   1      40.169  24.001  27.394  1.00  0.00     0.251 C 
ATOM     33  H   UNL A   1      39.554  22.127  26.907  1.00  0.00     0.163 HD
ATOM     34  O   UNL A   1      41.293  23.711  27.761  1.00  0.00    -0.269 OA
BRANCH  32  35
ATOM     35  C   UNL A   1      39.613  25.351  27.635  1.00  0.00     0.039 A 
ATOM     36  C   UNL A   1      40.124  26.392  26.850  1.00  0.00     0.014 A 
ATOM     37  C   UNL A   1      38.958  25.602  28.834  1.00  0.00     0.014 A 
ATOM     38  C   UNL A   1      40.168  27.679  27.377  1.00  0.00     0.010 A 
ATOM     39  C   UNL A   1      39.125  26.847  29.404  1.00  0.00     0.010 A 
ATOM     40  C   UNL A   1      39.767  27.877  28.696  1.00  0.00    -0.014 A 
BRANCH  40  41
ATOM     41  C   UNL A   1      40.013  29.101  29.456  1.00  0.00     0.031 A 
ATOM     42  C   UNL A   1      38.985  30.168  29.452  1.00  0.00     0.074 A 
ATOM     43  C   UNL A   1      41.090  29.205  30.267  1.00  0.00     0.049 A 
ATOM     44  N   UNL A   1      39.165  31.359  29.910  1.00  0.00    -0.248 NA
ATOM     45  C   UNL A   1      37.648  29.967  28.897  1.00  0.00     0.031 C 
ATOM     46  C   UNL A   1      41.294  30.172  31.345  1.00  0.00     0.029 A 
ATOM     47  N   UNL A   1      42.330  28.570  30.139  1.00  0.00    -0.354 N 
ATOM     48  C   UNL A   1      37.943  31.986  29.943  1.00  0.00     0.074 A 
ATOM     49  C   UNL A   1      37.026  31.076  29.300  1.00  0.00     0.031 C 
ATOM     50  C   UNL A   1      42.606  30.271  31.600  1.00  0.00     0.029 A 
ATOM     51  C   UNL A   1      43.304  29.486  30.599  1.00  0.00     0.049 A 
ATOM     52  H   UNL A   1      42.492  27.662  29.795  1.00  0.00     0.167 HD
ATOM     53  C   UNL A   1      37.811  33.175  30.591  1.00  0.00     0.037 A 
ATOM     54  C   UNL A   1      44.232  29.988  29.729  1.00  0.00     0.037 A 
ATOM     55  C   UNL A   1      39.095  33.694  31.044  1.00  0.00     0.049 A 
ATOM     56  C   UNL A   1      44.077  31.468  29.427  1.00  0.00     0.074 A 
ATOM     57  C   UNL A   1      39.804  33.663  32.233  1.00  0.00     0.029 A 
ATOM     58  N   UNL A   1      40.001  34.084  30.075  1.00  0.00    -0.354 N 
ATOM     59  N   UNL A   1      43.194  32.255  29.983  1.00  0.00    -0.248 NA
ATOM     60  C   UNL A   1      44.874  32.165  28.415  1.00  0.00     0.031 C 
ATOM     61  C   UNL A   1      41.169  33.975  31.944  1.00  0.00     0.029 A 
ATOM     62  C   UNL A   1      41.278  34.213  30.586  1.00  0.00     0.049 A 
ATOM     63  H   UNL A   1      39.766  34.250  29.134  1.00  0.00     0.167 HD
ATOM     64  C   UNL A   1      43.238  33.486  29.384  1.00  0.00     0.074 A 
ATOM     65  C   UNL A   1      44.325  33.391  28.426  1.00  0.00     0.031 C 
ATOM     66  C   UNL A   1      42.364  34.495  29.663  1.00  0.00     0.037 A 
BRANCH  53  67
ATOM     67  C   UNL A   1      36.464  33.731  30.958  1.00  0.00     0.058 A 
ATOM     68  C   UNL A   1      35.608  34.243  29.966  1.00  0.00     0.135 A 
ATOM     69  C   UNL A   1      35.998  33.849  32.283  1.00  0.00     0.135 A 
ATOM     70  F   UNL A   1      35.914  34.149  28.665  1.00  0.00    -0.206 F 
ATOM     71  C   UNL A   1      34.419  34.907  30.271  1.00  0.00     0.059 A 
ATOM     72  C   UNL A   1      34.847  34.564  32.618  1.00  0.00     0.059 A 
ATOM     73  F   UNL A   1      36.650  33.260  33.298  1.00  0.00    -0.206 F 
ATOM     74  C   UNL A   1      34.062  35.094  31.602  1.00  0.00     0.060 A 
BRANCH  74  75
ATOM     75  S   UNL A   1      32.588  36.062  31.979  1.00  0.00     0.124 S 
ATOM     76  O   UNL A   1      32.268  36.662  30.688  1.00  0.00    -0.237 OA
ATOM     77  O   UNL A   1      31.666  35.032  32.447  1.00  0.00    -0.237 OA
ATOM     78  O   UNL A   1      33.052  37.001  32.997  1.00  0.00    -0.744 OA
ENDBRANCH  74  75
ENDBRANCH  53  67
BRANCH  54  79
ATOM     79  C   UNL A   1      44.738  28.938  28.799  1.00  0.00     0.058 A 
ATOM     80  C   UNL A   1      44.194  28.924  27.498  1.00  0.00     0.135 A 
ATOM     81  C   UNL A   1      45.995  28.347  28.983  1.00  0.00     0.135 A 
ATOM     82  F   UNL A   1      42.978  29.449  27.274  1.00  0.00    -0.206 F 
ATOM     83  C   UNL A   1      44.950  28.543  26.396  1.00  0.00     0.059 A 
ATOM     84  C   UNL A   1      46.764  27.942  27.890  1.00  0.00     0.059 A 
ATOM     85  F   UNL A   1      46.556  28.317  30.200  1.00  0.00    -0.206 F 
ATOM     86  C   UNL A   1      46.264  28.133  26.601  1.00  0.00     0.060 A 
BRANCH  86  87
ATOM     87  S   UNL A   1      47.356  28.065  25.159  1.00  0.00     0.124 S 
ATOM     88  O   UNL A   1      47.376  26.638  24.857  1.00  0.00    -0.237 OA
ATOM     89  O   UNL A   1      46.635  28.903  24.203  1.00  0.00    -0.237 OA
ATOM     90  O   UNL A   1      48.607  28.619  25.665  1.00  0.00    -0.744 OA
ENDBRANCH  86  87
ENDBRANCH  54  79
BRANCH  66  91
ATOM     91  C   UNL A   1      42.478  35.856  29.038  1.00  0.00     0.058 A 
ATOM     92  C   UNL A   1      41.824  36.166  27.835  1.00  0.00     0.135 A 
ATOM     93  C   UNL A   1      43.344  36.842  29.555  1.00  0.00     0.135 A 
ATOM     94  F   UNL A   1      41.013  35.271  27.247  1.00  0.00    -0.206 F 
ATOM     95  C   UNL A   1      41.990  37.396  27.198  1.00  0.00     0.059 A 
ATOM     96  C   UNL A   1      43.561  38.057  28.913  1.00  0.00     0.059 A 
ATOM     97  F   UNL A   1      43.983  36.664  30.720  1.00  0.00    -0.206 F 
ATOM     98  C   UNL A   1      42.860  38.335  27.746  1.00  0.00     0.060 A 
BRANCH  98  99
ATOM     99  S   UNL A   1      43.094  39.921  26.921  1.00  0.00     0.124 S 
ATOM    100  O   UNL A   1      41.895  40.035  26.096  1.00  0.00    -0.237 OA
ATOM    101  O   UNL A   1      43.165  40.830  28.060  1.00  0.00    -0.237 OA
ATOM    102  O   UNL A   1      44.338  39.735  26.182  1.00  0.00    -0.744 OA
ENDBRANCH  98  99
ENDBRANCH  66  91
ENDBRANCH  40  41
ENDBRANCH  32  35
ENDBRANCH  30  31
ENDBRANCH  29  30
ENDBRANCH   1  29
TORSDOF 18
ENDMDL
MODEL 2
REMARK VINA RESULT:     -13.4      1.167      1.840
REMARK SMILES Cc1ccc(OCC(=O)NNC(=O)[C@H]2CCCC[C@@H]2C(=O)NCCCNC(=O)c2ccc(-c3c4nc(c(-c5c(F)cc(S(=O)(=O)[O-])cc5F)c5ccc([nH]5)c(-c5c(F)cc(S(=O)(=O)[O-])cc5F)c5nc(c(-c6c(F)cc(S(=O)(=O)[O-])cc6F)c6ccc3[nH]6)C=C5)C=C4)cc2)cc1
REMARK SMILES IDX 23 1 22 2 20 3 21 4 19 6 14 7 15 8 16 9 18 10 17 11 12 12
REMARK SMILES IDX 11 13 13 15 10 16 8 17 9 18 7 20 6 21 5 22 1 23 2 24 3 25
REMARK SMILES IDX 96 26 4 27 95 28 24 29 25 30 26 31 27 32 28 34 29 35 30 36
REMARK SMILES IDX 94 37 31 38 93 39 32 40 33 41 34 42 87 43 35 44 92 45 86 46
REMARK SMILES IDX 88 47 36 48 91 49 85 50 84 51 37 53 71 54 50 55 70 56 51 57
REMARK SMILES IDX 54 58 69 59 89 60 52 61 53 62 68 64 90 65 55 66 38 67 39 68
REMARK SMILES IDX 48 69 40 70 41 71 47 72 49 73 42 74 43 75 44 76 45 77 46 78
REMARK SMILES IDX 72 79 73 80 82 81 74 82 75 83 81 84 83 85 76 86 77 87 78 88
REMARK SMILES IDX 79 89 80 90 56 91 57 92 66 93 58 94 59 95 65 96 67 97 60 98
REMARK SMILES IDX 61 99 62 100 63 101 64 102
REMARK H PARENT 22 5 11 14 10 19 26 33 88 52 54 63
REMARK Flexibility Score: inf
ROOT
ATOM      1  C   UNL A   1      36.520  21.413  25.923  1.00  0.00     0.117 C 
ENDROOT
BRANCH   1   2
ATOM      2  N   UNL A   1      35.657  20.522  25.161  1.00  0.00    -0.356 N 
ATOM      3  C   UNL A   1      34.337  20.468  24.892  1.00  0.00     0.223 C 
ATOM      4  O   UNL A   1      33.966  19.490  24.222  1.00  0.00    -0.275 OA
ATOM      5  H   UNL A   1      36.155  19.784  24.741  1.00  0.00     0.163 HD
BRANCH   3   6
ATOM      6  C   UNL A   1      33.259  21.458  25.354  1.00  0.00     0.091 C 
ATOM      7  C   UNL A   1      33.071  22.514  24.231  1.00  0.00     0.092 C 
ATOM      8  C   UNL A   1      34.109  23.637  24.384  1.00  0.00     0.014 C 
ATOM      9  C   UNL A   1      34.047  24.333  25.740  1.00  0.00     0.001 C 
ATOM     10  C   UNL A   1      33.259  22.109  26.735  1.00  0.00     0.014 C 
ATOM     11  C   UNL A   1      34.123  23.358  26.900  1.00  0.00     0.001 C 
BRANCH   7  12
ATOM     12  C   UNL A   1      31.644  23.061  24.166  1.00  0.00     0.242 C 
ATOM     13  N   UNL A   1      31.239  23.806  23.093  1.00  0.00    -0.267 N 
ATOM     14  H   UNL A   1      30.287  24.052  23.057  1.00  0.00     0.191 HD
ATOM     15  O   UNL A   1      30.819  22.891  25.067  1.00  0.00    -0.273 OA
BRANCH  13  16
ATOM     16  N   UNL A   1      32.042  24.248  22.051  1.00  0.00    -0.265 N 
ATOM     17  C   UNL A   1      32.441  25.560  21.925  1.00  0.00     0.276 C 
ATOM     18  O   UNL A   1      33.251  25.887  21.056  1.00  0.00    -0.269 OA
ATOM     19  H   UNL A   1      32.339  23.597  21.375  1.00  0.00     0.191 HD
BRANCH  17  20
ATOM     20  C   UNL A   1      31.904  26.589  22.931  1.00  0.00     0.331 C 
BRANCH  20  21
ATOM     21  O   UNL A   1      30.496  26.595  23.121  1.00  0.00    -0.484 OA
BRANCH  21  22
ATOM     22  C   UNL A   1      29.875  27.810  23.221  1.00  0.00     0.120 A 
ATOM     23  C   UNL A   1      27.543  31.440  23.415  1.00  0.00     0.044 C 
ATOM     24  C   UNL A   1      28.354  30.180  23.351  1.00  0.00    -0.051 A 
ATOM     25  C   UNL A   1      27.731  28.951  23.117  1.00  0.00     0.007 A 
ATOM     26  C   UNL A   1      29.740  30.211  23.529  1.00  0.00     0.007 A 
ATOM     27  C   UNL A   1      28.489  27.777  23.049  1.00  0.00     0.047 A 
ATOM     28  C   UNL A   1      30.496  29.035  23.466  1.00  0.00     0.047 A 
ENDBRANCH  21  22
ENDBRANCH  20  21
ENDBRANCH  17  20
ENDBRANCH  13  16
ENDBRANCH   7  12
ENDBRANCH   3   6
ENDBRANCH   1   2
BRANCH   1  29
ATOM     29  C   UNL A   1      37.401  22.267  25.019  1.00  0.00     0.042 C 
BRANCH  29  30
ATOM     30  C   UNL A   1      38.041  23.413  25.781  1.00  0.00     0.118 C 
BRANCH  30  31
ATOM     31  N   UNL A   1      39.174  23.041  26.620  1.00  0.00    -0.352 N 
ATOM     32  C   UNL A   1      40.028  23.903  27.297  1.00  0.00     0.251 C 
ATOM     33  H   UNL A   1      39.353  22.077  26.715  1.00  0.00     0.163 HD
ATOM     34  O   UNL A   1      41.079  23.536  27.790  1.00  0.00    -0.269 OA
BRANCH  32  35
ATOM     35  C   UNL A   1      39.537  25.286  27.488  1.00  0.00     0.039 A 
ATOM     36  C   UNL A   1      40.132  26.280  26.703  1.00  0.00     0.014 A 
ATOM     37  C   UNL A   1      38.854  25.598  28.657  1.00  0.00     0.014 A 
ATOM     38  C   UNL A   1      40.227  27.574  27.204  1.00  0.00     0.010 A 
ATOM     39  C   UNL A   1      39.066  26.845  29.207  1.00  0.00     0.010 A 
ATOM     40  C   UNL A   1      39.789  27.823  28.502  1.00  0.00    -0.014 A 
BRANCH  40  41
ATOM     41  C   UNL A   1      40.073  29.049  29.246  1.00  0.00     0.031 A 
ATOM     42  C   UNL A   1      39.057  30.128  29.267  1.00  0.00     0.074 A 
ATOM     43  C   UNL A   1      41.176  29.147  30.021  1.00  0.00     0.049 A 
ATOM     44  N   UNL A   1      39.265  31.320  29.710  1.00  0.00    -0.248 NA
ATOM     45  C   UNL A   1      37.701  29.938  28.756  1.00  0.00     0.031 C 
ATOM     46  C   UNL A   1      41.425  30.117  31.086  1.00  0.00     0.029 A 
ATOM     47  N   UNL A   1      42.404  28.496  29.858  1.00  0.00    -0.354 N 
ATOM     48  C   UNL A   1      38.052  31.961  29.778  1.00  0.00     0.074 A 
ATOM     49  C   UNL A   1      37.105  31.058  29.170  1.00  0.00     0.031 C 
ATOM     50  C   UNL A   1      42.746  30.203  31.299  1.00  0.00     0.029 A 
ATOM     51  C   UNL A   1      43.403  29.404  30.281  1.00  0.00     0.049 A 
ATOM     52  H   UNL A   1      42.545  27.584  29.516  1.00  0.00     0.167 HD
ATOM     53  C   UNL A   1      37.954  33.156  30.422  1.00  0.00     0.037 A 
ATOM     54  C   UNL A   1      44.309  29.889  29.379  1.00  0.00     0.037 A 
ATOM     55  C   UNL A   1      39.258  33.663  30.830  1.00  0.00     0.049 A 
ATOM     56  C   UNL A   1      44.161  31.369  29.072  1.00  0.00     0.074 A 
ATOM     57  C   UNL A   1      40.004  33.632  31.996  1.00  0.00     0.029 A 
ATOM     58  N   UNL A   1      40.138  34.036  29.830  1.00  0.00    -0.354 N 
ATOM     59  N   UNL A   1      43.305  32.169  29.650  1.00  0.00    -0.248 NA
ATOM     60  C   UNL A   1      44.933  32.050  28.030  1.00  0.00     0.031 C 
ATOM     61  C   UNL A   1      41.362  33.926  31.662  1.00  0.00     0.029 A 
ATOM     62  C   UNL A   1      41.431  34.153  30.300  1.00  0.00     0.049 A 
ATOM     63  H   UNL A   1      39.874  34.198  28.896  1.00  0.00     0.167 HD
ATOM     64  C   UNL A   1      43.343  33.396  29.041  1.00  0.00     0.074 A 
ATOM     65  C   UNL A   1      44.399  33.282  28.050  1.00  0.00     0.031 C 
ATOM     66  C   UNL A   1      42.490  34.417  29.340  1.00  0.00     0.037 A 
BRANCH  53  67
ATOM     67  C   UNL A   1      36.626  33.730  30.827  1.00  0.00     0.058 A 
ATOM     68  C   UNL A   1      35.715  34.181  29.854  1.00  0.00     0.135 A 
ATOM     69  C   UNL A   1      36.231  33.924  32.166  1.00  0.00     0.135 A 
ATOM     70  F   UNL A   1      35.952  34.010  28.546  1.00  0.00    -0.206 F 
ATOM     71  C   UNL A   1      34.542  34.859  30.183  1.00  0.00     0.059 A 
ATOM     72  C   UNL A   1      35.096  34.656  32.520  1.00  0.00     0.059 A 
ATOM     73  F   UNL A   1      36.940  33.398  33.177  1.00  0.00    -0.206 F 
ATOM     74  C   UNL A   1      34.256  35.124  31.518  1.00  0.00     0.060 A 
BRANCH  74  75
ATOM     75  S   UNL A   1      32.798  36.109  31.917  1.00  0.00     0.124 S 
ATOM     76  O   UNL A   1      33.317  37.047  32.908  1.00  0.00    -0.237 OA
ATOM     77  O   UNL A   1      32.459  36.680  30.619  1.00  0.00    -0.237 OA
ATOM     78  O   UNL A   1      31.856  35.122  32.437  1.00  0.00    -0.744 OA
ENDBRANCH  74  75
ENDBRANCH  53  67
BRANCH  54  79
ATOM     79  C   UNL A   1      44.773  28.827  28.441  1.00  0.00     0.058 A 
ATOM     80  C   UNL A   1      44.197  28.819  27.153  1.00  0.00     0.135 A 
ATOM     81  C   UNL A   1      46.023  28.214  28.596  1.00  0.00     0.135 A 
ATOM     82  F   UNL A   1      42.985  29.365  26.956  1.00  0.00    -0.206 F 
ATOM     83  C   UNL A   1      44.919  28.422  26.035  1.00  0.00     0.059 A 
ATOM     84  C   UNL A   1      46.758  27.791  27.486  1.00  0.00     0.059 A 
ATOM     85  F   UNL A   1      46.612  28.177  29.799  1.00  0.00    -0.206 F 
ATOM     86  C   UNL A   1      46.230  27.988  26.209  1.00  0.00     0.060 A 
BRANCH  86  87
ATOM     87  S   UNL A   1      47.286  27.895  24.742  1.00  0.00     0.124 S 
ATOM     88  O   UNL A   1      48.601  28.207  25.291  1.00  0.00    -0.237 OA
ATOM     89  O   UNL A   1      47.089  26.508  24.324  1.00  0.00    -0.237 OA
ATOM     90  O   UNL A   1      46.716  28.906  23.859  1.00  0.00    -0.744 OA
ENDBRANCH  86  87
ENDBRANCH  54  79
BRANCH  66  91
ATOM     91  C   UNL A   1      42.600  35.772  28.703  1.00  0.00     0.058 A 
ATOM     92  C   UNL A   1      43.005  36.897  29.439  1.00  0.00     0.135 A 
ATOM     93  C   UNL A   1      42.180  36.007  27.377  1.00  0.00     0.135 A 
ATOM     94  F   UNL A   1      43.382  36.774  30.723  1.00  0.00    -0.206 F 
ATOM     95  C   UNL A   1      43.029  38.176  28.883  1.00  0.00     0.059 A 
ATOM     96  C   UNL A   1      42.150  37.280  26.817  1.00  0.00     0.059 A 
ATOM     97  F   UNL A   1      41.814  34.997  26.574  1.00  0.00    -0.206 F 
ATOM     98  C   UNL A   1      42.600  38.357  27.572  1.00  0.00     0.060 A 
BRANCH  98  99
ATOM     99  S   UNL A   1      42.611  40.009  26.850  1.00  0.00     0.124 S 
ATOM    100  O   UNL A   1      43.812  39.991  26.021  1.00  0.00    -0.237 OA
ATOM    101  O   UNL A   1      41.344  40.016  26.125  1.00  0.00    -0.237 OA
ATOM    102  O   UNL A   1      42.676  40.884  28.016  1.00  0.00    -0.744 OA
ENDBRANCH  98  99
ENDBRANCH  66  91
ENDBRANCH  40  41
ENDBRANCH  32  35
ENDBRANCH  30  31
ENDBRANCH  29  30
ENDBRANCH   1  29
TORSDOF 18
ENDMDL
MODEL 3
REMARK VINA RESULT:     -13.3      4.637     11.052
REMARK SMILES Cc1ccc(OCC(=O)NNC(=O)[C@H]2CCCC[C@@H]2C(=O)NCCCNC(=O)c2ccc(-c3c4nc(c(-c5c(F)cc(S(=O)(=O)[O-])cc5F)c5ccc([nH]5)c(-c5c(F)cc(S(=O)(=O)[O-])cc5F)c5nc(c(-c6c(F)cc(S(=O)(=O)[O-])cc6F)c6ccc3[nH]6)C=C5)C=C4)cc2)cc1
REMARK SMILES IDX 23 1 22 2 20 3 21 4 19 6 14 7 15 8 16 9 18 10 17 11 12 12
REMARK SMILES IDX 11 13 13 15 10 16 8 17 9 18 7 20 6 21 5 22 1 23 2 24 3 25
REMARK SMILES IDX 96 26 4 27 95 28 24 29 25 30 26 31 27 32 28 34 29 35 30 36
REMARK SMILES IDX 94 37 31 38 93 39 32 40 33 41 34 42 87 43 35 44 92 45 86 46
REMARK SMILES IDX 88 47 36 48 91 49 85 50 84 51 37 53 71 54 50 55 70 56 51 57
REMARK SMILES IDX 54 58 69 59 89 60 52 61 53 62 68 64 90 65 55 66 38 67 39 68
REMARK SMILES IDX 48 69 40 70 41 71 47 72 49 73 42 74 43 75 44 76 45 77 46 78
REMARK SMILES IDX 72 79 73 80 82 81 74 82 75 83 81 84 83 85 76 86 77 87 78 88
REMARK SMILES IDX 79 89 80 90 56 91 57 92 66 93 58 94 59 95 65 96 67 97 60 98
REMARK SMILES IDX 61 99 62 100 63 101 64 102
REMARK H PARENT 22 5 11 14 10 19 26 33 88 52 54 63
REMARK Flexibility Score: inf
ROOT
ATOM      1  C   UNL A   1      32.596  29.639  25.950  1.00  0.00     0.117 C 
ENDROOT
BRANCH   1   2
ATOM      2  N   UNL A   1      31.906  28.439  26.403  1.00  0.00    -0.356 N 
ATOM      3  C   UNL A   1      31.289  27.404  25.799  1.00  0.00     0.223 C 
ATOM      4  O   UNL A   1      30.760  26.577  26.560  1.00  0.00    -0.275 OA
ATOM      5  H   UNL A   1      31.885  28.367  27.385  1.00  0.00     0.163 HD
BRANCH   3   6
ATOM      6  C   UNL A   1      31.147  27.168  24.289  1.00  0.00     0.091 C 
ATOM      7  C   UNL A   1      32.251  26.164  23.859  1.00  0.00     0.092 C 
ATOM      8  C   UNL A   1      33.563  26.914  23.575  1.00  0.00     0.014 C 
ATOM      9  C   UNL A   1      33.421  27.991  22.504  1.00  0.00     0.001 C 
ATOM     10  C   UNL A   1      31.000  28.302  23.277  1.00  0.00     0.014 C 
ATOM     11  C   UNL A   1      32.293  28.960  22.798  1.00  0.00     0.001 C 
BRANCH   7  12
ATOM     12  C   UNL A   1      31.826  25.289  22.678  1.00  0.00     0.242 C 
ATOM     13  N   UNL A   1      31.018  24.206  22.879  1.00  0.00    -0.267 N 
ATOM     14  H   UNL A   1      30.698  23.734  22.076  1.00  0.00     0.191 HD
ATOM     15  O   UNL A   1      32.208  25.490  21.522  1.00  0.00    -0.273 OA
BRANCH  13  16
ATOM     16  N   UNL A   1      30.602  23.707  24.105  1.00  0.00    -0.265 N 
ATOM     17  C   UNL A   1      31.115  22.551  24.650  1.00  0.00     0.276 C 
ATOM     18  O   UNL A   1      30.809  22.208  25.793  1.00  0.00    -0.269 OA
ATOM     19  H   UNL A   1      29.914  24.200  24.607  1.00  0.00     0.191 HD
BRANCH  17  20
ATOM     20  C   UNL A   1      32.123  21.737  23.824  1.00  0.00     0.331 C 
BRANCH  20  21
ATOM     21  O   UNL A   1      33.181  22.475  23.231  1.00  0.00    -0.484 OA
BRANCH  21  22
ATOM     22  C   UNL A   1      34.259  22.782  24.016  1.00  0.00     0.120 A 
ATOM     23  C   UNL A   1      37.902  23.741  26.128  1.00  0.00     0.044 C 
ATOM     24  C   UNL A   1      36.636  23.412  25.396  1.00  0.00    -0.051 A 
ATOM     25  C   UNL A   1      36.624  23.341  24.000  1.00  0.00     0.007 A 
ATOM     26  C   UNL A   1      35.447  23.175  26.093  1.00  0.00     0.007 A 
ATOM     27  C   UNL A   1      35.444  23.025  23.318  1.00  0.00     0.047 A 
ATOM     28  C   UNL A   1      34.266  22.864  25.409  1.00  0.00     0.047 A 
ENDBRANCH  21  22
ENDBRANCH  20  21
ENDBRANCH  17  20
ENDBRANCH  13  16
ENDBRANCH   7  12
ENDBRANCH   3   6
ENDBRANCH   1   2
BRANCH   1  29
ATOM     29  C   UNL A   1      34.104  29.542  26.153  1.00  0.00     0.042 C 
BRANCH  29  30
ATOM     30  C   UNL A   1      34.495  29.833  27.590  1.00  0.00     0.118 C 
BRANCH  30  31
ATOM     31  N   UNL A   1      35.305  31.030  27.779  1.00  0.00    -0.352 N 
ATOM     32  C   UNL A   1      36.582  31.096  28.323  1.00  0.00     0.251 C 
ATOM     33  H   UNL A   1      34.904  31.883  27.492  1.00  0.00     0.163 HD
ATOM     34  O   UNL A   1      37.103  32.144  28.657  1.00  0.00    -0.269 OA
BRANCH  32  35
ATOM     35  C   UNL A   1      37.331  29.821  28.375  1.00  0.00     0.039 A 
ATOM     36  C   UNL A   1      37.501  29.241  29.639  1.00  0.00     0.014 A 
ATOM     37  C   UNL A   1      38.151  29.481  27.307  1.00  0.00     0.014 A 
ATOM     38  C   UNL A   1      38.636  28.476  29.886  1.00  0.00     0.010 A 
ATOM     39  C   UNL A   1      39.337  28.837  27.591  1.00  0.00     0.010 A 
ATOM     40  C   UNL A   1      39.602  28.369  28.890  1.00  0.00    -0.014 A 
BRANCH  40  41
ATOM     41  C   UNL A   1      40.947  27.836  29.101  1.00  0.00     0.031 A 
ATOM     42  C   UNL A   1      41.245  26.449  28.673  1.00  0.00     0.074 A 
ATOM     43  C   UNL A   1      41.944  28.634  29.544  1.00  0.00     0.049 A 
ATOM     44  N   UNL A   1      42.317  25.802  28.981  1.00  0.00    -0.248 NA
ATOM     45  C   UNL A   1      40.319  25.663  27.859  1.00  0.00     0.031 C 
ATOM     46  C   UNL A   1      43.382  28.378  29.465  1.00  0.00     0.029 A 
ATOM     47  N   UNL A   1      41.844  29.769  30.355  1.00  0.00    -0.354 N 
ATOM     48  C   UNL A   1      42.344  24.652  28.231  1.00  0.00     0.074 A 
ATOM     49  C   UNL A   1      41.074  24.609  27.546  1.00  0.00     0.031 C 
ATOM     50  C   UNL A   1      44.010  29.127  30.383  1.00  0.00     0.029 A 
ATOM     51  C   UNL A   1      42.990  29.779  31.183  1.00  0.00     0.049 A 
ATOM     52  H   UNL A   1      41.117  30.432  30.350  1.00  0.00     0.167 HD
ATOM     53  C   UNL A   1      43.473  23.895  28.196  1.00  0.00     0.037 A 
ATOM     54  C   UNL A   1      42.854  29.632  32.536  1.00  0.00     0.037 A 
ATOM     55  C   UNL A   1      44.481  24.376  29.132  1.00  0.00     0.049 A 
ATOM     56  C   UNL A   1      43.398  28.324  33.085  1.00  0.00     0.074 A 
ATOM     57  C   UNL A   1      45.594  25.195  29.043  1.00  0.00     0.029 A 
ATOM     58  N   UNL A   1      44.200  24.269  30.481  1.00  0.00    -0.354 N 
ATOM     59  N   UNL A   1      44.018  27.418  32.377  1.00  0.00    -0.248 NA
ATOM     60  C   UNL A   1      43.222  27.908  34.478  1.00  0.00     0.031 C 
ATOM     61  C   UNL A   1      45.930  25.631  30.362  1.00  0.00     0.029 A 
ATOM     62  C   UNL A   1      45.034  25.060  31.246  1.00  0.00     0.049 A 
ATOM     63  H   UNL A   1      43.491  23.696  30.853  1.00  0.00     0.167 HD
ATOM     64  C   UNL A   1      44.248  26.312  33.152  1.00  0.00     0.074 A 
ATOM     65  C   UNL A   1      43.757  26.676  34.469  1.00  0.00     0.031 C 
ATOM     66  C   UNL A   1      44.779  25.149  32.674  1.00  0.00     0.037 A 
BRANCH  53  67
ATOM     67  C   UNL A   1      43.686  22.838  27.148  1.00  0.00     0.058 A 
ATOM     68  C   UNL A   1      42.935  21.649  27.170  1.00  0.00     0.135 A 
ATOM     69  C   UNL A   1      44.670  22.918  26.142  1.00  0.00     0.135 A 
ATOM     70  F   UNL A   1      41.938  21.471  28.047  1.00  0.00    -0.206 F 
ATOM     71  C   UNL A   1      43.201  20.579  26.316  1.00  0.00     0.059 A 
ATOM     72  C   UNL A   1      44.998  21.838  25.320  1.00  0.00     0.059 A 
ATOM     73  F   UNL A   1      45.341  24.060  25.922  1.00  0.00    -0.206 F 
ATOM     74  C   UNL A   1      44.258  20.667  25.417  1.00  0.00     0.060 A 
BRANCH  74  75
ATOM     75  S   UNL A   1      44.665  19.229  24.408  1.00  0.00     0.124 S 
ATOM     76  O   UNL A   1      44.432  19.720  23.053  1.00  0.00    -0.237 OA
ATOM     77  O   UNL A   1      46.060  18.996  24.767  1.00  0.00    -0.237 OA
ATOM     78  O   UNL A   1      43.719  18.215  24.867  1.00  0.00    -0.744 OA
ENDBRANCH  74  75
ENDBRANCH  53  67
BRANCH  54  79
ATOM     79  C   UNL A   1      41.688  30.400  33.058  1.00  0.00     0.058 A 
ATOM     80  C   UNL A   1      41.857  31.793  33.204  1.00  0.00     0.135 A 
ATOM     81  C   UNL A   1      40.380  29.916  32.928  1.00  0.00     0.135 A 
ATOM     82  F   UNL A   1      43.088  32.307  33.364  1.00  0.00    -0.206 F 
ATOM     83  C   UNL A   1      40.804  32.679  33.010  1.00  0.00     0.059 A 
ATOM     84  C   UNL A   1      39.305  30.789  32.749  1.00  0.00     0.059 A 
ATOM     85  F   UNL A   1      40.156  28.600  32.802  1.00  0.00    -0.206 F 
ATOM     86  C   UNL A   1      39.550  32.163  32.700  1.00  0.00     0.060 A 
BRANCH  86  87
ATOM     87  S   UNL A   1      38.315  33.303  32.028  1.00  0.00     0.124 S 
ATOM     88  O   UNL A   1      38.169  34.269  33.111  1.00  0.00    -0.237 OA
ATOM     89  O   UNL A   1      38.992  33.797  30.829  1.00  0.00    -0.237 OA
ATOM     90  O   UNL A   1      37.163  32.442  31.791  1.00  0.00    -0.744 OA
ENDBRANCH  86  87
ENDBRANCH  54  79
BRANCH  66  91
ATOM     91  C   UNL A   1      45.081  23.977  33.561  1.00  0.00     0.058 A 
ATOM     92  C   UNL A   1      46.327  23.838  34.192  1.00  0.00     0.135 A 
ATOM     93  C   UNL A   1      44.182  22.898  33.700  1.00  0.00     0.135 A 
ATOM     94  F   UNL A   1      47.261  24.797  34.079  1.00  0.00    -0.206 F 
ATOM     95  C   UNL A   1      46.652  22.712  34.950  1.00  0.00     0.059 A 
ATOM     96  C   UNL A   1      44.503  21.746  34.411  1.00  0.00     0.059 A 
ATOM     97  F   UNL A   1      42.950  22.947  33.174  1.00  0.00    -0.206 F 
ATOM     98  C   UNL A   1      45.733  21.672  35.053  1.00  0.00     0.060 A 
BRANCH  98  99
ATOM     99  S   UNL A   1      46.150  20.205  36.015  1.00  0.00     0.124 S 
ATOM    100  O   UNL A   1      45.810  20.605  37.377  1.00  0.00    -0.237 OA
ATOM    101  O   UNL A   1      45.274  19.206  35.413  1.00  0.00    -0.237 OA
ATOM    102  O   UNL A   1      47.577  20.031  35.759  1.00  0.00    -0.744 OA
ENDBRANCH  98  99
ENDBRANCH  66  91
ENDBRANCH  40  41
ENDBRANCH  32  35
ENDBRANCH  30  31
ENDBRANCH  29  30
ENDBRANCH   1  29
TORSDOF 18
ENDMDL
