MODEL 1
REMARK VINA RESULT:     -11.7      0.000      0.000
REMARK SMILES O=C(C[C@@H]1CN(c2nc3ccccc3s2)CCO1)NCCCNC(=O)c1ccc(-c2c3nc(c(-c4c(F)cc(S(=O)(=O)[O-])cc4F)c4ccc([nH]4)c(-c4c(F)cc(S(=O)(=O)[O-])cc4F)c4nc(c(-c5c(F)cc(S(=O)(=O)[O-])cc5F)c5ccc2[nH]5)C=C4)C=C3)cc1
REMARK SMILES IDX 21 1 20 2 19 3 1 4 2 5 3 7 4 8 5 9 18 10 6 11 17 12 16 13
REMARK SMILES IDX 7 14 8 15 15 16 9 17 14 18 10 19 13 20 11 21 12 22 22 23
REMARK SMILES IDX 23 24 24 25 25 27 26 28 27 29 91 30 28 31 90 32 29 33 30 34
REMARK SMILES IDX 31 35 84 36 32 37 89 38 83 39 85 40 33 41 88 42 82 43 81 44
REMARK SMILES IDX 34 46 68 47 47 48 67 49 48 50 51 51 66 52 86 53 49 54 50 55
REMARK SMILES IDX 65 57 87 58 52 59 35 60 36 61 45 62 37 63 38 64 44 65 46 66
REMARK SMILES IDX 39 67 40 68 41 69 42 70 43 71 69 72 70 73 79 74 71 75 72 76
REMARK SMILES IDX 78 77 80 78 73 79 74 80 75 81 76 82 77 83 53 84 54 85 63 86
REMARK SMILES IDX 55 87 56 88 62 89 64 90 57 91 58 92 59 93 60 94 61 95
REMARK H PARENT 19 6 23 26 85 45 51 56
REMARK Flexibility Score: inf
ROOT
ATOM      1  C   UNL A   1      35.309  32.415  28.638  1.00  0.00     0.042 C 
ENDROOT
BRANCH   1   2
ATOM      2  C   UNL A   1      35.072  33.556  27.657  1.00  0.00     0.117 C 
BRANCH   2   3
ATOM      3  N   UNL A   1      34.567  34.759  28.286  1.00  0.00    -0.356 N 
ATOM      4  O   UNL A   1      32.355  34.217  28.072  1.00  0.00    -0.275 OA
ATOM      5  C   UNL A   1      33.228  34.959  28.519  1.00  0.00     0.222 C 
ATOM      6  H   UNL A   1      35.206  35.458  28.556  1.00  0.00     0.163 HD
BRANCH   5   7
ATOM      7  C   UNL A   1      32.858  36.216  29.285  1.00  0.00     0.133 C 
BRANCH   7   8
ATOM      8  C   UNL A   1      33.655  36.539  30.554  1.00  0.00     0.147 C 
ATOM      9  C   UNL A   1      33.872  35.270  31.411  1.00  0.00     0.151 C 
ATOM     10  O   UNL A   1      33.014  37.584  31.315  1.00  0.00    -0.374 OA
ATOM     11  N   UNL A   1      34.555  35.639  32.646  1.00  0.00    -0.343 N 
ATOM     12  C   UNL A   1      33.754  37.915  32.504  1.00  0.00     0.182 C 
ATOM     13  C   UNL A   1      33.918  36.695  33.423  1.00  0.00     0.147 C 
BRANCH  11  14
ATOM     14  C   UNL A   1      35.602  34.948  33.149  1.00  0.00     0.186 A 
ATOM     15  N   UNL A   1      36.824  35.026  32.675  1.00  0.00    -0.220 NA
ATOM     16  S   UNL A   1      35.396  33.788  34.414  1.00  0.00    -0.097 S 
ATOM     17  C   UNL A   1      37.674  34.190  33.376  1.00  0.00     0.084 A 
ATOM     18  C   UNL A   1      37.061  33.383  34.333  1.00  0.00     0.056 A 
ATOM     19  C   UNL A   1      39.069  34.083  33.197  1.00  0.00     0.030 A 
ATOM     20  C   UNL A   1      37.777  32.428  35.075  1.00  0.00     0.021 A 
ATOM     21  C   UNL A   1      39.798  33.158  33.952  1.00  0.00     0.002 A 
ATOM     22  C   UNL A   1      39.155  32.331  34.868  1.00  0.00     0.002 A 
ENDBRANCH  11  14
ENDBRANCH   7   8
ENDBRANCH   5   7
ENDBRANCH   2   3
ENDBRANCH   1   2
BRANCH   1  23
ATOM     23  C   UNL A   1      36.100  32.789  29.889  1.00  0.00     0.118 C 
BRANCH  23  24
ATOM     24  N   UNL A   1      35.935  31.846  30.986  1.00  0.00    -0.352 N 
ATOM     25  C   UNL A   1      36.725  30.801  31.394  1.00  0.00     0.251 C 
ATOM     26  H   UNL A   1      35.122  31.981  31.524  1.00  0.00     0.163 HD
ATOM     27  O   UNL A   1      36.316  30.071  32.299  1.00  0.00    -0.269 OA
BRANCH  25  28
ATOM     28  C   UNL A   1      38.034  30.514  30.757  1.00  0.00     0.039 A 
ATOM     29  C   UNL A   1      39.162  30.418  31.579  1.00  0.00     0.014 A 
ATOM     30  C   UNL A   1      38.179  30.377  29.375  1.00  0.00     0.014 A 
ATOM     31  C   UNL A   1      40.412  30.128  31.026  1.00  0.00     0.010 A 
ATOM     32  C   UNL A   1      39.415  30.015  28.830  1.00  0.00     0.010 A 
ATOM     33  C   UNL A   1      40.546  29.888  29.648  1.00  0.00    -0.014 A 
BRANCH  33  34
ATOM     34  C   UNL A   1      41.860  29.483  29.075  1.00  0.00     0.031 A 
ATOM     35  C   UNL A   1      42.993  30.468  28.960  1.00  0.00     0.074 A 
ATOM     36  C   UNL A   1      42.023  28.222  28.627  1.00  0.00     0.049 A 
ATOM     37  N   UNL A   1      44.209  30.278  28.511  1.00  0.00    -0.248 NA
ATOM     38  C   UNL A   1      42.721  31.852  29.381  1.00  0.00     0.031 C 
ATOM     39  C   UNL A   1      40.984  27.188  28.616  1.00  0.00     0.029 A 
ATOM     40  N   UNL A   1      43.120  27.591  28.098  1.00  0.00    -0.354 N 
ATOM     41  C   UNL A   1      44.843  31.514  28.588  1.00  0.00     0.074 A 
ATOM     42  C   UNL A   1      43.859  32.458  29.076  1.00  0.00     0.031 C 
ATOM     43  C   UNL A   1      41.504  26.046  28.140  1.00  0.00     0.029 A 
ATOM     44  C   UNL A   1      42.902  26.269  27.787  1.00  0.00     0.049 A 
ATOM     45  H   UNL A   1      43.984  28.043  27.953  1.00  0.00     0.167 HD
ATOM     46  C   UNL A   1      46.130  31.828  28.302  1.00  0.00     0.037 A 
ATOM     47  C   UNL A   1      43.736  25.337  27.286  1.00  0.00     0.037 A 
ATOM     48  C   UNL A   1      47.113  30.883  27.836  1.00  0.00     0.049 A 
ATOM     49  C   UNL A   1      45.169  25.701  27.014  1.00  0.00     0.074 A 
ATOM     50  C   UNL A   1      48.456  31.094  27.574  1.00  0.00     0.029 A 
ATOM     51  N   UNL A   1      46.862  29.546  27.564  1.00  0.00    -0.354 N 
ATOM     52  N   UNL A   1      45.769  26.858  27.161  1.00  0.00    -0.248 NA
ATOM     53  C   UNL A   1      46.044  24.627  26.524  1.00  0.00     0.031 C 
ATOM     54  C   UNL A   1      49.008  29.894  27.109  1.00  0.00     0.029 A 
ATOM     55  C   UNL A   1      48.020  28.923  27.125  1.00  0.00     0.049 A 
ATOM     56  H   UNL A   1      45.988  29.103  27.668  1.00  0.00     0.167 HD
ATOM     57  C   UNL A   1      47.097  26.645  26.807  1.00  0.00     0.074 A 
ATOM     58  C   UNL A   1      47.215  25.244  26.456  1.00  0.00     0.031 C 
ATOM     59  C   UNL A   1      48.125  27.529  26.774  1.00  0.00     0.037 A 
BRANCH  46  60
ATOM     60  C   UNL A   1      46.556  33.259  28.497  1.00  0.00     0.058 A 
ATOM     61  C   UNL A   1      46.475  34.200  27.456  1.00  0.00     0.135 A 
ATOM     62  C   UNL A   1      47.018  33.707  29.745  1.00  0.00     0.135 A 
ATOM     63  F   UNL A   1      46.052  33.825  26.238  1.00  0.00    -0.206 F 
ATOM     64  C   UNL A   1      46.864  35.523  27.637  1.00  0.00     0.059 A 
ATOM     65  C   UNL A   1      47.387  35.033  29.956  1.00  0.00     0.059 A 
ATOM     66  F   UNL A   1      47.115  32.854  30.776  1.00  0.00    -0.206 F 
ATOM     67  C   UNL A   1      47.321  35.931  28.890  1.00  0.00     0.060 A 
BRANCH  67  68
ATOM     68  S   UNL A   1      47.821  37.651  29.111  1.00  0.00     0.124 S 
ATOM     69  O   UNL A   1      46.553  38.349  28.914  1.00  0.00    -0.237 OA
ATOM     70  O   UNL A   1      48.336  37.655  30.478  1.00  0.00    -0.237 OA
ATOM     71  O   UNL A   1      48.819  37.855  28.069  1.00  0.00    -0.744 OA
ENDBRANCH  67  68
ENDBRANCH  46  60
BRANCH  47  72
ATOM     72  C   UNL A   1      43.244  23.952  27.053  1.00  0.00     0.058 A 
ATOM     73  C   UNL A   1      43.156  23.031  28.107  1.00  0.00     0.135 A 
ATOM     74  C   UNL A   1      42.842  23.527  25.778  1.00  0.00     0.135 A 
ATOM     75  F   UNL A   1      43.534  23.390  29.344  1.00  0.00    -0.206 F 
ATOM     76  C   UNL A   1      42.703  21.732  27.904  1.00  0.00     0.059 A 
ATOM     77  C   UNL A   1      42.362  22.241  25.554  1.00  0.00     0.059 A 
ATOM     78  F   UNL A   1      42.889  24.378  24.740  1.00  0.00    -0.206 F 
ATOM     79  C   UNL A   1      42.307  21.347  26.623  1.00  0.00     0.060 A 
BRANCH  79  80
ATOM     80  S   UNL A   1      41.673  19.673  26.377  1.00  0.00     0.124 S 
ATOM     81  O   UNL A   1      42.482  19.215  25.254  1.00  0.00    -0.237 OA
ATOM     82  O   UNL A   1      41.956  19.046  27.665  1.00  0.00    -0.237 OA
ATOM     83  O   UNL A   1      40.258  19.890  26.092  1.00  0.00    -0.744 OA
ENDBRANCH  79  80
ENDBRANCH  47  72
BRANCH  59  84
ATOM     84  C   UNL A   1      49.473  26.994  26.373  1.00  0.00     0.058 A 
ATOM     85  C   UNL A   1      49.916  27.028  25.042  1.00  0.00     0.135 A 
ATOM     86  C   UNL A   1      50.332  26.438  27.336  1.00  0.00     0.135 A 
ATOM     87  F   UNL A   1      49.134  27.545  24.082  1.00  0.00    -0.206 F 
ATOM     88  C   UNL A   1      51.143  26.486  24.670  1.00  0.00     0.059 A 
ATOM     89  C   UNL A   1      51.575  25.918  26.992  1.00  0.00     0.059 A 
ATOM     90  F   UNL A   1      49.964  26.395  28.627  1.00  0.00    -0.206 F 
ATOM     91  C   UNL A   1      51.962  25.925  25.652  1.00  0.00     0.060 A 
BRANCH  91  92
ATOM     92  S   UNL A   1      53.545  25.210  25.159  1.00  0.00     0.124 S 
ATOM     93  O   UNL A   1      53.291  23.785  25.340  1.00  0.00    -0.237 OA
ATOM     94  O   UNL A   1      53.677  25.660  23.776  1.00  0.00    -0.237 OA
ATOM     95  O   UNL A   1      54.492  25.806  26.098  1.00  0.00    -0.744 OA
ENDBRANCH  91  92
ENDBRANCH  59  84
ENDBRANCH  33  34
ENDBRANCH  25  28
ENDBRANCH  23  24
ENDBRANCH   1  23
TORSDOF 15
ENDMDL
MODEL 2
REMARK VINA RESULT:     -11.5      6.428     13.563
REMARK SMILES O=C(C[C@@H]1CN(c2nc3ccccc3s2)CCO1)NCCCNC(=O)c1ccc(-c2c3nc(c(-c4c(F)cc(S(=O)(=O)[O-])cc4F)c4ccc([nH]4)c(-c4c(F)cc(S(=O)(=O)[O-])cc4F)c4nc(c(-c5c(F)cc(S(=O)(=O)[O-])cc5F)c5ccc2[nH]5)C=C4)C=C3)cc1
REMARK SMILES IDX 21 1 20 2 19 3 1 4 2 5 3 7 4 8 5 9 18 10 6 11 17 12 16 13
REMARK SMILES IDX 7 14 8 15 15 16 9 17 14 18 10 19 13 20 11 21 12 22 22 23
REMARK SMILES IDX 23 24 24 25 25 27 26 28 27 29 91 30 28 31 90 32 29 33 30 34
REMARK SMILES IDX 31 35 84 36 32 37 89 38 83 39 85 40 33 41 88 42 82 43 81 44
REMARK SMILES IDX 34 46 68 47 47 48 67 49 48 50 51 51 66 52 86 53 49 54 50 55
REMARK SMILES IDX 65 57 87 58 52 59 35 60 36 61 45 62 37 63 38 64 44 65 46 66
REMARK SMILES IDX 39 67 40 68 41 69 42 70 43 71 69 72 70 73 79 74 71 75 72 76
REMARK SMILES IDX 78 77 80 78 73 79 74 80 75 81 76 82 77 83 53 84 54 85 63 86
REMARK SMILES IDX 55 87 56 88 62 89 64 90 57 91 58 92 59 93 60 94 61 95
REMARK H PARENT 19 6 23 26 85 45 51 56
REMARK Flexibility Score: inf
ROOT
ATOM      1  C   UNL A   1      40.391  22.549  27.550  1.00  0.00     0.042 C 
ENDROOT
BRANCH   1   2
ATOM      2  C   UNL A   1      39.877  21.525  26.546  1.00  0.00     0.117 C 
BRANCH   2   3
ATOM      3  N   UNL A   1      38.871  22.055  25.648  1.00  0.00    -0.356 N 
ATOM      4  O   UNL A   1      38.118  20.020  24.923  1.00  0.00    -0.275 OA
ATOM      5  C   UNL A   1      38.003  21.244  24.958  1.00  0.00     0.222 C 
ATOM      6  H   UNL A   1      38.807  23.030  25.530  1.00  0.00     0.163 HD
BRANCH   5   7
ATOM      7  C   UNL A   1      36.932  21.944  24.141  1.00  0.00     0.133 C 
BRANCH   7   8
ATOM      8  C   UNL A   1      35.570  22.179  24.804  1.00  0.00     0.147 C 
ATOM      9  C   UNL A   1      35.200  23.682  24.796  1.00  0.00     0.151 C 
ATOM     10  O   UNL A   1      35.544  21.638  26.141  1.00  0.00    -0.374 OA
ATOM     11  N   UNL A   1      33.944  23.867  25.512  1.00  0.00    -0.343 N 
ATOM     12  C   UNL A   1      34.268  21.833  26.776  1.00  0.00     0.182 C 
ATOM     13  C   UNL A   1      33.905  23.324  26.864  1.00  0.00     0.147 C 
BRANCH  11  14
ATOM     14  C   UNL A   1      32.935  24.640  25.050  1.00  0.00     0.186 A 
ATOM     15  N   UNL A   1      33.054  25.924  24.803  1.00  0.00    -0.220 NA
ATOM     16  S   UNL A   1      31.336  24.016  24.852  1.00  0.00    -0.097 S 
ATOM     17  C   UNL A   1      31.851  26.450  24.364  1.00  0.00     0.084 A 
ATOM     18  C   UNL A   1      30.773  25.567  24.382  1.00  0.00     0.056 A 
ATOM     19  C   UNL A   1      31.633  27.773  23.927  1.00  0.00     0.030 A 
ATOM     20  C   UNL A   1      29.472  25.970  24.038  1.00  0.00     0.021 A 
ATOM     21  C   UNL A   1      30.348  28.178  23.551  1.00  0.00     0.002 A 
ATOM     22  C   UNL A   1      29.279  27.291  23.622  1.00  0.00     0.002 A 
ENDBRANCH  11  14
ENDBRANCH   7   8
ENDBRANCH   5   7
ENDBRANCH   2   3
ENDBRANCH   1   2
BRANCH   1  23
ATOM     23  C   UNL A   1      41.783  23.104  27.255  1.00  0.00     0.118 C 
BRANCH  23  24
ATOM     24  N   UNL A   1      41.814  24.034  26.135  1.00  0.00    -0.352 N 
ATOM     25  C   UNL A   1      41.613  25.390  26.092  1.00  0.00     0.251 C 
ATOM     26  H   UNL A   1      42.012  23.619  25.264  1.00  0.00     0.163 HD
ATOM     27  O   UNL A   1      41.588  25.947  24.993  1.00  0.00    -0.269 OA
BRANCH  25  28
ATOM     28  C   UNL A   1      41.399  26.189  27.323  1.00  0.00     0.039 A 
ATOM     29  C   UNL A   1      42.376  27.124  27.683  1.00  0.00     0.014 A 
ATOM     30  C   UNL A   1      40.284  26.011  28.146  1.00  0.00     0.014 A 
ATOM     31  C   UNL A   1      42.206  27.915  28.822  1.00  0.00     0.010 A 
ATOM     32  C   UNL A   1      40.079  26.852  29.244  1.00  0.00     0.010 A 
ATOM     33  C   UNL A   1      41.039  27.812  29.596  1.00  0.00    -0.014 A 
BRANCH  33  34
ATOM     34  C   UNL A   1      40.816  28.722  30.754  1.00  0.00     0.031 A 
ATOM     35  C   UNL A   1      41.654  28.613  32.000  1.00  0.00     0.074 A 
ATOM     36  C   UNL A   1      39.828  29.638  30.692  1.00  0.00     0.049 A 
ATOM     37  N   UNL A   1      41.612  29.340  33.089  1.00  0.00    -0.248 NA
ATOM     38  C   UNL A   1      42.652  27.533  32.042  1.00  0.00     0.031 C 
ATOM     39  C   UNL A   1      38.899  29.803  29.570  1.00  0.00     0.029 A 
ATOM     40  N   UNL A   1      39.441  30.605  31.585  1.00  0.00    -0.354 N 
ATOM     41  C   UNL A   1      42.569  28.804  33.944  1.00  0.00     0.074 A 
ATOM     42  C   UNL A   1      43.137  27.656  33.269  1.00  0.00     0.031 C 
ATOM     43  C   UNL A   1      38.075  30.832  29.828  1.00  0.00     0.029 A 
ATOM     44  C   UNL A   1      38.397  31.383  31.140  1.00  0.00     0.049 A 
ATOM     45  H   UNL A   1      39.870  30.731  32.463  1.00  0.00     0.167 HD
ATOM     46  C   UNL A   1      42.956  29.240  35.168  1.00  0.00     0.037 A 
ATOM     47  C   UNL A   1      37.776  32.430  31.718  1.00  0.00     0.037 A 
ATOM     48  C   UNL A   1      42.404  30.396  35.830  1.00  0.00     0.049 A 
ATOM     49  C   UNL A   1      38.249  32.919  33.058  1.00  0.00     0.074 A 
ATOM     50  C   UNL A   1      42.769  30.950  37.046  1.00  0.00     0.029 A 
ATOM     51  N   UNL A   1      41.369  31.176  35.334  1.00  0.00    -0.354 N 
ATOM     52  N   UNL A   1      39.204  32.442  33.820  1.00  0.00    -0.248 NA
ATOM     53  C   UNL A   1      37.571  34.100  33.610  1.00  0.00     0.031 C 
ATOM     54  C   UNL A   1      41.933  32.043  37.301  1.00  0.00     0.029 A 
ATOM     55  C   UNL A   1      41.075  32.198  36.223  1.00  0.00     0.049 A 
ATOM     56  H   UNL A   1      40.910  31.026  34.475  1.00  0.00     0.167 HD
ATOM     57  C   UNL A   1      39.259  33.280  34.929  1.00  0.00     0.074 A 
ATOM     58  C   UNL A   1      38.253  34.303  34.728  1.00  0.00     0.031 C 
ATOM     59  C   UNL A   1      40.069  33.209  36.015  1.00  0.00     0.037 A 
BRANCH  46  60
ATOM     60  C   UNL A   1      44.041  28.469  35.871  1.00  0.00     0.058 A 
ATOM     61  C   UNL A   1      45.399  28.776  35.688  1.00  0.00     0.135 A 
ATOM     62  C   UNL A   1      43.721  27.434  36.765  1.00  0.00     0.135 A 
ATOM     63  F   UNL A   1      45.764  29.747  34.835  1.00  0.00    -0.206 F 
ATOM     64  C   UNL A   1      46.402  28.066  36.341  1.00  0.00     0.059 A 
ATOM     65  C   UNL A   1      44.707  26.729  37.450  1.00  0.00     0.059 A 
ATOM     66  F   UNL A   1      42.441  27.098  36.981  1.00  0.00    -0.206 F 
ATOM     67  C   UNL A   1      46.047  27.042  37.219  1.00  0.00     0.060 A 
BRANCH  67  68
ATOM     68  S   UNL A   1      47.358  26.131  38.061  1.00  0.00     0.124 S 
ATOM     69  O   UNL A   1      48.538  26.573  37.323  1.00  0.00    -0.237 OA
ATOM     70  O   UNL A   1      47.250  26.623  39.432  1.00  0.00    -0.237 OA
ATOM     71  O   UNL A   1      46.983  24.736  37.869  1.00  0.00    -0.744 OA
ENDBRANCH  67  68
ENDBRANCH  46  60
BRANCH  47  72
ATOM     72  C   UNL A   1      36.665  33.116  31.005  1.00  0.00     0.058 A 
ATOM     73  C   UNL A   1      35.332  32.934  31.402  1.00  0.00     0.135 A 
ATOM     74  C   UNL A   1      36.914  33.972  29.922  1.00  0.00     0.135 A 
ATOM     75  F   UNL A   1      35.044  32.120  32.429  1.00  0.00    -0.206 F 
ATOM     76  C   UNL A   1      34.282  33.563  30.741  1.00  0.00     0.059 A 
ATOM     77  C   UNL A   1      35.883  34.633  29.261  1.00  0.00     0.059 A 
ATOM     78  F   UNL A   1      38.174  34.193  29.515  1.00  0.00    -0.206 F 
ATOM     79  C   UNL A   1      34.569  34.413  29.672  1.00  0.00     0.060 A 
BRANCH  79  80
ATOM     80  S   UNL A   1      33.204  35.265  28.852  1.00  0.00     0.124 S 
ATOM     81  O   UNL A   1      32.416  35.723  29.990  1.00  0.00    -0.237 OA
ATOM     82  O   UNL A   1      33.899  36.304  28.098  1.00  0.00    -0.237 OA
ATOM     83  O   UNL A   1      32.594  34.216  28.041  1.00  0.00    -0.744 OA
ENDBRANCH  79  80
ENDBRANCH  47  72
BRANCH  59  84
ATOM     84  C   UNL A   1      39.917  34.288  37.052  1.00  0.00     0.058 A 
ATOM     85  C   UNL A   1      39.065  34.137  38.157  1.00  0.00     0.135 A 
ATOM     86  C   UNL A   1      40.632  35.491  36.936  1.00  0.00     0.135 A 
ATOM     87  F   UNL A   1      38.354  33.009  38.314  1.00  0.00    -0.206 F 
ATOM     88  C   UNL A   1      38.890  35.158  39.086  1.00  0.00     0.059 A 
ATOM     89  C   UNL A   1      40.496  36.515  37.869  1.00  0.00     0.059 A 
ATOM     90  F   UNL A   1      41.473  35.683  35.907  1.00  0.00    -0.206 F 
ATOM     91  C   UNL A   1      39.605  36.348  38.928  1.00  0.00     0.060 A 
BRANCH  91  92
ATOM     92  S   UNL A   1      39.361  37.675  40.128  1.00  0.00     0.124 S 
ATOM     93  O   UNL A   1      39.083  36.920  41.345  1.00  0.00    -0.237 OA
ATOM     94  O   UNL A   1      40.643  38.372  40.093  1.00  0.00    -0.237 OA
ATOM     95  O   UNL A   1      38.234  38.423  39.580  1.00  0.00    -0.744 OA
ENDBRANCH  91  92
ENDBRANCH  59  84
ENDBRANCH  33  34
ENDBRANCH  25  28
ENDBRANCH  23  24
ENDBRANCH   1  23
TORSDOF 15
ENDMDL
MODEL 3
REMARK VINA RESULT:     -11.5      5.607     14.508
REMARK SMILES O=C(C[C@@H]1CN(c2nc3ccccc3s2)CCO1)NCCCNC(=O)c1ccc(-c2c3nc(c(-c4c(F)cc(S(=O)(=O)[O-])cc4F)c4ccc([nH]4)c(-c4c(F)cc(S(=O)(=O)[O-])cc4F)c4nc(c(-c5c(F)cc(S(=O)(=O)[O-])cc5F)c5ccc2[nH]5)C=C4)C=C3)cc1
REMARK SMILES IDX 21 1 20 2 19 3 1 4 2 5 3 7 4 8 5 9 18 10 6 11 17 12 16 13
REMARK SMILES IDX 7 14 8 15 15 16 9 17 14 18 10 19 13 20 11 21 12 22 22 23
REMARK SMILES IDX 23 24 24 25 25 27 26 28 27 29 91 30 28 31 90 32 29 33 30 34
REMARK SMILES IDX 31 35 84 36 32 37 89 38 83 39 85 40 33 41 88 42 82 43 81 44
REMARK SMILES IDX 34 46 68 47 47 48 67 49 48 50 51 51 66 52 86 53 49 54 50 55
REMARK SMILES IDX 65 57 87 58 52 59 35 60 36 61 45 62 37 63 38 64 44 65 46 66
REMARK SMILES IDX 39 67 40 68 41 69 42 70 43 71 69 72 70 73 79 74 71 75 72 76
REMARK SMILES IDX 78 77 80 78 73 79 74 80 75 81 76 82 77 83 53 84 54 85 63 86
REMARK SMILES IDX 55 87 56 88 62 89 64 90 57 91 58 92 59 93 60 94 61 95
REMARK H PARENT 19 6 23 26 85 45 51 56
REMARK Flexibility Score: inf
ROOT
ATOM      1  C   UNL A   1      41.124  22.404  27.776  1.00  0.00     0.042 C 
ENDROOT
BRANCH   1   2
ATOM      2  C   UNL A   1      40.755  20.928  27.851  1.00  0.00     0.117 C 
BRANCH   2   3
ATOM      3  N   UNL A   1      41.806  20.048  27.382  1.00  0.00    -0.356 N 
ATOM      4  O   UNL A   1      40.563  19.066  25.732  1.00  0.00    -0.275 OA
ATOM      5  C   UNL A   1      41.647  19.232  26.289  1.00  0.00     0.222 C 
ATOM      6  H   UNL A   1      42.665  20.036  27.864  1.00  0.00     0.163 HD
BRANCH   5   7
ATOM      7  C   UNL A   1      42.870  18.448  25.850  1.00  0.00     0.133 C 
BRANCH   7   8
ATOM      8  C   UNL A   1      44.210  19.191  25.790  1.00  0.00     0.147 C 
ATOM      9  C   UNL A   1      44.139  20.387  24.810  1.00  0.00     0.151 C 
ATOM     10  O   UNL A   1      45.285  18.293  25.445  1.00  0.00    -0.374 OA
ATOM     11  N   UNL A   1      45.454  21.008  24.719  1.00  0.00    -0.343 N 
ATOM     12  C   UNL A   1      46.556  18.966  25.398  1.00  0.00     0.182 C 
ATOM     13  C   UNL A   1      46.549  20.110  24.372  1.00  0.00     0.147 C 
BRANCH  11  14
ATOM     14  C   UNL A   1      45.648  22.345  24.768  1.00  0.00     0.186 A 
ATOM     15  N   UNL A   1      46.833  22.911  24.760  1.00  0.00    -0.220 NA
ATOM     16  S   UNL A   1      44.329  23.443  24.968  1.00  0.00    -0.097 S 
ATOM     17  C   UNL A   1      46.717  24.288  24.842  1.00  0.00     0.084 A 
ATOM     18  C   UNL A   1      45.420  24.766  25.023  1.00  0.00     0.056 A 
ATOM     19  C   UNL A   1      47.775  25.216  24.772  1.00  0.00     0.030 A 
ATOM     20  C   UNL A   1      45.146  26.133  25.200  1.00  0.00     0.021 A 
ATOM     21  C   UNL A   1      47.512  26.583  24.915  1.00  0.00     0.002 A 
ATOM     22  C   UNL A   1      46.214  27.032  25.142  1.00  0.00     0.002 A 
ENDBRANCH  11  14
ENDBRANCH   7   8
ENDBRANCH   5   7
ENDBRANCH   2   3
ENDBRANCH   1   2
BRANCH   1  23
ATOM     23  C   UNL A   1      40.152  23.276  26.984  1.00  0.00     0.118 C 
BRANCH  23  24
ATOM     24  N   UNL A   1      40.804  24.127  25.998  1.00  0.00    -0.352 N 
ATOM     25  C   UNL A   1      41.169  25.448  26.056  1.00  0.00     0.251 C 
ATOM     26  H   UNL A   1      41.019  23.678  25.148  1.00  0.00     0.163 HD
ATOM     27  O   UNL A   1      41.619  25.980  25.040  1.00  0.00    -0.269 OA
BRANCH  25  28
ATOM     28  C   UNL A   1      41.008  26.250  27.293  1.00  0.00     0.039 A 
ATOM     29  C   UNL A   1      41.909  27.295  27.526  1.00  0.00     0.014 A 
ATOM     30  C   UNL A   1      40.019  25.974  28.240  1.00  0.00     0.014 A 
ATOM     31  C   UNL A   1      41.782  28.091  28.667  1.00  0.00     0.010 A 
ATOM     32  C   UNL A   1      39.847  26.815  29.344  1.00  0.00     0.010 A 
ATOM     33  C   UNL A   1      40.728  27.882  29.571  1.00  0.00    -0.014 A 
BRANCH  33  34
ATOM     34  C   UNL A   1      40.537  28.792  30.735  1.00  0.00     0.031 A 
ATOM     35  C   UNL A   1      41.382  28.657  31.974  1.00  0.00     0.074 A 
ATOM     36  C   UNL A   1      39.572  29.734  30.684  1.00  0.00     0.049 A 
ATOM     37  N   UNL A   1      41.368  29.379  33.066  1.00  0.00    -0.248 NA
ATOM     38  C   UNL A   1      42.353  27.551  32.002  1.00  0.00     0.031 C 
ATOM     39  C   UNL A   1      38.639  29.927  29.572  1.00  0.00     0.029 A 
ATOM     40  N   UNL A   1      39.217  30.706  31.585  1.00  0.00    -0.354 N 
ATOM     41  C   UNL A   1      42.317  28.816  33.911  1.00  0.00     0.074 A 
ATOM     42  C   UNL A   1      42.851  27.657  33.226  1.00  0.00     0.031 C 
ATOM     43  C   UNL A   1      37.843  30.975  29.841  1.00  0.00     0.029 A 
ATOM     44  C   UNL A   1      38.190  31.511  31.153  1.00  0.00     0.049 A 
ATOM     45  H   UNL A   1      39.656  30.816  32.460  1.00  0.00     0.167 HD
ATOM     46  C   UNL A   1      42.725  29.236  35.134  1.00  0.00     0.037 A 
ATOM     47  C   UNL A   1      37.599  32.571  31.740  1.00  0.00     0.037 A 
ATOM     48  C   UNL A   1      42.207  30.402  35.805  1.00  0.00     0.049 A 
ATOM     49  C   UNL A   1      38.096  33.041  33.079  1.00  0.00     0.074 A 
ATOM     50  C   UNL A   1      42.597  30.941  37.020  1.00  0.00     0.029 A 
ATOM     51  N   UNL A   1      41.189  31.211  35.321  1.00  0.00    -0.354 N 
ATOM     52  N   UNL A   1      39.044  32.538  33.831  1.00  0.00    -0.248 NA
ATOM     53  C   UNL A   1      37.452  34.237  33.641  1.00  0.00     0.031 C 
ATOM     54  C   UNL A   1      41.790  32.054  37.287  1.00  0.00     0.029 A 
ATOM     55  C   UNL A   1      40.928  32.236  36.217  1.00  0.00     0.049 A 
ATOM     56  H   UNL A   1      40.720  31.076  34.466  1.00  0.00     0.167 HD
ATOM     57  C   UNL A   1      39.129  33.369  34.943  1.00  0.00     0.074 A 
ATOM     58  C   UNL A   1      38.147  34.418  34.754  1.00  0.00     0.031 C 
ATOM     59  C   UNL A   1      39.946  33.272  36.021  1.00  0.00     0.037 A 
BRANCH  46  60
ATOM     60  C   UNL A   1      43.796  28.435  35.824  1.00  0.00     0.058 A 
ATOM     61  C   UNL A   1      43.479  27.385  36.702  1.00  0.00     0.135 A 
ATOM     62  C   UNL A   1      45.155  28.693  35.580  1.00  0.00     0.135 A 
ATOM     63  F   UNL A   1      42.197  27.102  36.982  1.00  0.00    -0.206 F 
ATOM     64  C   UNL A   1      44.469  26.641  37.337  1.00  0.00     0.059 A 
ATOM     65  C   UNL A   1      46.161  27.943  36.183  1.00  0.00     0.059 A 
ATOM     66  F   UNL A   1      45.517  29.681  34.749  1.00  0.00    -0.206 F 
ATOM     67  C   UNL A   1      45.808  26.929  37.073  1.00  0.00     0.060 A 
BRANCH  67  68
ATOM     68  S   UNL A   1      47.082  25.954  37.901  1.00  0.00     0.124 S 
ATOM     69  O   UNL A   1      47.515  25.068  36.824  1.00  0.00    -0.237 OA
ATOM     70  O   UNL A   1      48.046  26.975  38.304  1.00  0.00    -0.237 OA
ATOM     71  O   UNL A   1      46.364  25.310  38.994  1.00  0.00    -0.744 OA
ENDBRANCH  67  68
ENDBRANCH  46  60
BRANCH  47  72
ATOM     72  C   UNL A   1      36.500  33.288  31.039  1.00  0.00     0.058 A 
ATOM     73  C   UNL A   1      36.764  34.103  29.928  1.00  0.00     0.135 A 
ATOM     74  C   UNL A   1      35.167  33.164  31.458  1.00  0.00     0.135 A 
ATOM     75  F   UNL A   1      38.025  34.256  29.494  1.00  0.00    -0.206 F 
ATOM     76  C   UNL A   1      35.748  34.784  29.266  1.00  0.00     0.059 A 
ATOM     77  C   UNL A   1      34.131  33.815  30.796  1.00  0.00     0.059 A 
ATOM     78  F   UNL A   1      34.861  32.381  32.504  1.00  0.00    -0.206 F 
ATOM     79  C   UNL A   1      34.433  34.632  29.707  1.00  0.00     0.060 A 
BRANCH  79  80
ATOM     80  S   UNL A   1      33.114  35.481  28.812  1.00  0.00     0.124 S 
ATOM     81  O   UNL A   1      32.519  34.384  28.057  1.00  0.00    -0.237 OA
ATOM     82  O   UNL A   1      32.303  36.021  29.899  1.00  0.00    -0.237 OA
ATOM     83  O   UNL A   1      33.833  36.476  28.022  1.00  0.00    -0.744 OA
ENDBRANCH  79  80
ENDBRANCH  47  72
BRANCH  59  84
ATOM     84  C   UNL A   1      39.829  34.350  37.065  1.00  0.00     0.058 A 
ATOM     85  C   UNL A   1      40.495  35.579  36.937  1.00  0.00     0.135 A 
ATOM     86  C   UNL A   1      39.040  34.149  38.209  1.00  0.00     0.135 A 
ATOM     87  F   UNL A   1      41.265  35.822  35.864  1.00  0.00    -0.206 F 
ATOM     88  C   UNL A   1      40.422  36.552  37.929  1.00  0.00     0.059 A 
ATOM     89  C   UNL A   1      38.929  35.119  39.200  1.00  0.00     0.059 A 
ATOM     90  F   UNL A   1      38.369  32.997  38.375  1.00  0.00    -0.206 F 
ATOM     91  C   UNL A   1      39.643  36.309  39.061  1.00  0.00     0.060 A 
BRANCH  91  92
ATOM     92  S   UNL A   1      39.566  37.570  40.351  1.00  0.00     0.124 S 
ATOM     93  O   UNL A   1      38.751  38.595  39.710  1.00  0.00    -0.237 OA
ATOM     94  O   UNL A   1      38.933  36.854  41.455  1.00  0.00    -0.237 OA
ATOM     95  O   UNL A   1      40.967  37.921  40.564  1.00  0.00    -0.744 OA
ENDBRANCH  91  92
ENDBRANCH  59  84
ENDBRANCH  33  34
ENDBRANCH  25  28
ENDBRANCH  23  24
ENDBRANCH   1  23
TORSDOF 15
ENDMDL
