MODEL 1
REMARK VINA RESULT:     -12.9      0.000      0.000
REMARK SMILES Cc1nn(C)c2nc(C3CC3)c(Cl)c(C(=O)NCCCNC(=O)c3ccc(-c4c5nc(c(-c6c(F)cc(S(=O)(=O)[O-])cc6F)c6ccc([nH]6)c(-c6c(F)cc(S(=O)(=O)[O-])cc6F)c6nc(c(-c7c(F)cc(S(=O)(=O)[O-])cc7F)c7ccc4[nH]7)C=C6)C=C5)cc3)c12
REMARK SMILES IDX 20 1 19 2 18 3 17 4 15 5 16 6 14 8 1 9 2 10 3 11 90 12 4 13
REMARK SMILES IDX 6 14 5 15 7 16 12 17 8 18 13 19 9 20 10 21 11 22 21 23 22 24
REMARK SMILES IDX 23 26 24 27 25 28 89 29 26 30 88 31 27 32 28 33 29 34 82 35
REMARK SMILES IDX 30 36 87 37 81 38 83 39 31 40 86 41 80 42 79 43 32 45 66 46
REMARK SMILES IDX 45 47 65 48 46 49 49 50 64 51 84 52 47 53 48 54 63 56 85 57
REMARK SMILES IDX 50 58 33 59 34 60 43 61 35 62 36 63 42 64 44 65 37 66 38 67
REMARK SMILES IDX 39 68 40 69 41 70 67 71 68 72 77 73 69 74 70 75 76 76 78 77
REMARK SMILES IDX 71 78 72 79 73 80 74 81 75 82 51 83 52 84 61 85 53 86 54 87
REMARK SMILES IDX 60 88 62 89 55 90 56 91 57 92 58 93 59 94
REMARK H PARENT 17 7 21 25 83 44 49 55
REMARK Flexibility Score: inf
ROOT
ATOM      1  C   UNL A   1      37.692  22.317  25.182  1.00  0.00     0.118 C 
ENDROOT
BRANCH   1   2
ATOM      2  C   UNL A   1      36.381  22.721  25.874  1.00  0.00     0.042 C 
BRANCH   2   3
ATOM      3  C   UNL A   1      35.776  24.075  25.486  1.00  0.00     0.118 C 
BRANCH   3   4
ATOM      4  N   UNL A   1      35.249  24.177  24.130  1.00  0.00    -0.352 N 
ATOM      5  C   UNL A   1      34.025  24.571  23.616  1.00  0.00     0.253 C 
ATOM      6  O   UNL A   1      33.948  24.640  22.391  1.00  0.00    -0.269 OA
ATOM      7  H   UNL A   1      35.896  23.910  23.438  1.00  0.00     0.163 HD
BRANCH   5   8
ATOM      8  C   UNL A   1      32.802  24.812  24.436  1.00  0.00     0.073 A 
ATOM      9  C   UNL A   1      32.605  21.341  23.994  1.00  0.00     0.069 C 
ATOM     10  C   UNL A   1      31.963  22.304  24.927  1.00  0.00     0.070 A 
ATOM     11  N   UNL A   1      31.037  21.816  25.770  1.00  0.00    -0.176 NA
ATOM     12  C   UNL A   1      32.087  23.733  25.020  1.00  0.00     0.056 A 
ATOM     13  N   UNL A   1      30.549  22.904  26.381  1.00  0.00    -0.250 N 
ATOM     14  C   UNL A   1      31.139  24.068  25.978  1.00  0.00     0.158 A 
ATOM     15  C   UNL A   1      29.433  22.784  27.288  1.00  0.00     0.176 C 
ATOM     16  N   UNL A   1      30.841  25.292  26.442  1.00  0.00    -0.231 NA
ATOM     17  C   UNL A   1      32.253  26.087  24.663  1.00  0.00     0.076 A 
ATOM     18  C   UNL A   1      31.410  26.321  25.767  1.00  0.00     0.065 A 
ATOM     19  Cl  UNL A   1      32.310  27.250  23.365  1.00  0.00    -0.081 Cl
BRANCH  18  20
ATOM     20  C   UNL A   1      31.148  27.674  26.431  1.00  0.00     0.040 C 
ATOM     21  C   UNL A   1      31.872  28.075  27.698  1.00  0.00     0.011 C 
ATOM     22  C   UNL A   1      32.051  28.874  26.435  1.00  0.00     0.011 C 
ENDBRANCH  18  20
ENDBRANCH   5   8
ENDBRANCH   3   4
ENDBRANCH   2   3
ENDBRANCH   1   2
BRANCH   1  23
ATOM     23  N   UNL A   1      38.576  21.571  26.063  1.00  0.00    -0.352 N 
ATOM     24  C   UNL A   1      39.700  21.925  26.768  1.00  0.00     0.251 C 
ATOM     25  H   UNL A   1      38.319  20.628  26.176  1.00  0.00     0.163 HD
ATOM     26  O   UNL A   1      40.392  21.009  27.216  1.00  0.00    -0.269 OA
BRANCH  24  27
ATOM     27  C   UNL A   1      40.116  23.329  27.022  1.00  0.00     0.039 A 
ATOM     28  C   UNL A   1      41.391  23.713  26.577  1.00  0.00     0.014 A 
ATOM     29  C   UNL A   1      39.374  24.222  27.800  1.00  0.00     0.014 A 
ATOM     30  C   UNL A   1      41.901  24.981  26.870  1.00  0.00     0.010 A 
ATOM     31  C   UNL A   1      39.882  25.499  28.085  1.00  0.00     0.010 A 
ATOM     32  C   UNL A   1      41.143  25.894  27.612  1.00  0.00    -0.014 A 
BRANCH  32  33
ATOM     33  C   UNL A   1      41.658  27.276  27.750  1.00  0.00     0.031 A 
ATOM     34  C   UNL A   1      40.621  28.351  27.727  1.00  0.00     0.074 A 
ATOM     35  C   UNL A   1      42.847  27.564  28.327  1.00  0.00     0.049 A 
ATOM     36  N   UNL A   1      39.898  28.645  28.767  1.00  0.00    -0.248 NA
ATOM     37  C   UNL A   1      40.166  28.987  26.492  1.00  0.00     0.031 C 
ATOM     38  C   UNL A   1      43.426  26.775  29.421  1.00  0.00     0.029 A 
ATOM     39  N   UNL A   1      43.638  28.690  28.266  1.00  0.00    -0.354 N 
ATOM     40  C   UNL A   1      38.880  29.477  28.341  1.00  0.00     0.074 A 
ATOM     41  C   UNL A   1      39.085  29.661  26.921  1.00  0.00     0.031 C 
ATOM     42  C   UNL A   1      44.363  27.522  30.043  1.00  0.00     0.029 A 
ATOM     43  C   UNL A   1      44.570  28.765  29.302  1.00  0.00     0.049 A 
ATOM     44  H   UNL A   1      43.554  29.374  27.562  1.00  0.00     0.167 HD
ATOM     45  C   UNL A   1      37.935  29.975  29.182  1.00  0.00     0.037 A 
ATOM     46  C   UNL A   1      45.036  29.920  29.860  1.00  0.00     0.037 A 
ATOM     47  C   UNL A   1      38.094  29.631  30.564  1.00  0.00     0.049 A 
ATOM     48  C   UNL A   1      43.792  30.421  30.554  1.00  0.00     0.074 A 
ATOM     49  C   UNL A   1      37.629  28.675  31.442  1.00  0.00     0.029 A 
ATOM     50  N   UNL A   1      38.986  30.373  31.305  1.00  0.00    -0.354 N 
ATOM     51  N   UNL A   1      43.319  29.989  31.693  1.00  0.00    -0.248 NA
ATOM     52  C   UNL A   1      42.840  31.192  29.751  1.00  0.00     0.031 C 
ATOM     53  C   UNL A   1      38.609  28.609  32.485  1.00  0.00     0.029 A 
ATOM     54  C   UNL A   1      39.626  29.501  32.149  1.00  0.00     0.049 A 
ATOM     55  H   UNL A   1      39.136  31.343  31.240  1.00  0.00     0.167 HD
ATOM     56  C   UNL A   1      41.939  30.198  31.625  1.00  0.00     0.074 A 
ATOM     57  C   UNL A   1      41.715  30.952  30.409  1.00  0.00     0.031 C 
ATOM     58  C   UNL A   1      41.036  29.603  32.457  1.00  0.00     0.037 A 
BRANCH  45  59
ATOM     59  C   UNL A   1      36.921  30.977  28.800  1.00  0.00     0.058 A 
ATOM     60  C   UNL A   1      37.262  32.334  28.913  1.00  0.00     0.135 A 
ATOM     61  C   UNL A   1      35.585  30.647  28.546  1.00  0.00     0.135 A 
ATOM     62  F   UNL A   1      38.533  32.687  29.167  1.00  0.00    -0.206 F 
ATOM     63  C   UNL A   1      36.304  33.333  28.832  1.00  0.00     0.059 A 
ATOM     64  C   UNL A   1      34.606  31.634  28.453  1.00  0.00     0.059 A 
ATOM     65  F   UNL A   1      35.214  29.361  28.438  1.00  0.00    -0.206 F 
ATOM     66  C   UNL A   1      34.973  32.972  28.623  1.00  0.00     0.060 A 
BRANCH  66  67
ATOM     67  S   UNL A   1      33.735  34.285  28.630  1.00  0.00     0.124 S 
ATOM     68  O   UNL A   1      33.423  34.396  30.051  1.00  0.00    -0.237 OA
ATOM     69  O   UNL A   1      34.478  35.400  28.052  1.00  0.00    -0.237 OA
ATOM     70  O   UNL A   1      32.666  33.748  27.793  1.00  0.00    -0.744 OA
ENDBRANCH  66  67
ENDBRANCH  45  59
BRANCH  46  71
ATOM     71  C   UNL A   1      45.880  30.788  28.970  1.00  0.00     0.058 A 
ATOM     72  C   UNL A   1      46.277  32.057  29.444  1.00  0.00     0.135 A 
ATOM     73  C   UNL A   1      46.324  30.454  27.680  1.00  0.00     0.135 A 
ATOM     74  F   UNL A   1      45.782  32.534  30.599  1.00  0.00    -0.206 F 
ATOM     75  C   UNL A   1      47.194  32.857  28.767  1.00  0.00     0.059 A 
ATOM     76  C   UNL A   1      47.265  31.224  26.991  1.00  0.00     0.059 A 
ATOM     77  F   UNL A   1      45.877  29.354  27.059  1.00  0.00    -0.206 F 
ATOM     78  C   UNL A   1      47.726  32.404  27.565  1.00  0.00     0.060 A 
BRANCH  78  79
ATOM     79  S   UNL A   1      49.074  33.338  26.813  1.00  0.00     0.124 S 
ATOM     80  O   UNL A   1      49.131  34.526  27.662  1.00  0.00    -0.237 OA
ATOM     81  O   UNL A   1      50.193  32.406  26.953  1.00  0.00    -0.237 OA
ATOM     82  O   UNL A   1      48.618  33.559  25.450  1.00  0.00    -0.744 OA
ENDBRANCH  78  79
ENDBRANCH  46  71
BRANCH  58  83
ATOM     83  C   UNL A   1      41.600  28.846  33.614  1.00  0.00     0.058 A 
ATOM     84  C   UNL A   1      41.494  29.365  34.912  1.00  0.00     0.135 A 
ATOM     85  C   UNL A   1      42.174  27.573  33.462  1.00  0.00     0.135 A 
ATOM     86  F   UNL A   1      40.946  30.574  35.116  1.00  0.00    -0.206 F 
ATOM     87  C   UNL A   1      41.899  28.631  36.022  1.00  0.00     0.059 A 
ATOM     88  C   UNL A   1      42.564  26.811  34.561  1.00  0.00     0.059 A 
ATOM     89  F   UNL A   1      42.323  27.029  32.243  1.00  0.00    -0.206 F 
ATOM     90  C   UNL A   1      42.412  27.346  35.839  1.00  0.00     0.060 A 
BRANCH  90  91
ATOM     91  S   UNL A   1      42.796  26.357  37.299  1.00  0.00     0.124 S 
ATOM     92  O   UNL A   1      43.744  27.210  38.008  1.00  0.00    -0.237 OA
ATOM     93  O   UNL A   1      41.486  26.209  37.925  1.00  0.00    -0.237 OA
ATOM     94  O   UNL A   1      43.355  25.127  36.744  1.00  0.00    -0.744 OA
ENDBRANCH  90  91
ENDBRANCH  58  83
ENDBRANCH  32  33
ENDBRANCH  24  27
ENDBRANCH   1  23
TORSDOF 14
ENDMDL
MODEL 2
REMARK VINA RESULT:     -12.7      1.727      2.819
REMARK SMILES Cc1nn(C)c2nc(C3CC3)c(Cl)c(C(=O)NCCCNC(=O)c3ccc(-c4c5nc(c(-c6c(F)cc(S(=O)(=O)[O-])cc6F)c6ccc([nH]6)c(-c6c(F)cc(S(=O)(=O)[O-])cc6F)c6nc(c(-c7c(F)cc(S(=O)(=O)[O-])cc7F)c7ccc4[nH]7)C=C6)C=C5)cc3)c12
REMARK SMILES IDX 20 1 19 2 18 3 17 4 15 5 16 6 14 8 1 9 2 10 3 11 90 12 4 13
REMARK SMILES IDX 6 14 5 15 7 16 12 17 8 18 13 19 9 20 10 21 11 22 21 23 22 24
REMARK SMILES IDX 23 26 24 27 25 28 89 29 26 30 88 31 27 32 28 33 29 34 82 35
REMARK SMILES IDX 30 36 87 37 81 38 83 39 31 40 86 41 80 42 79 43 32 45 66 46
REMARK SMILES IDX 45 47 65 48 46 49 49 50 64 51 84 52 47 53 48 54 63 56 85 57
REMARK SMILES IDX 50 58 33 59 34 60 43 61 35 62 36 63 42 64 44 65 37 66 38 67
REMARK SMILES IDX 39 68 40 69 41 70 67 71 68 72 77 73 69 74 70 75 76 76 78 77
REMARK SMILES IDX 71 78 72 79 73 80 74 81 75 82 51 83 52 84 61 85 53 86 54 87
REMARK SMILES IDX 60 88 62 89 55 90 56 91 57 92 58 93 59 94
REMARK H PARENT 17 7 21 25 83 44 49 55
REMARK Flexibility Score: inf
ROOT
ATOM      1  C   UNL A   1      39.381  21.742  25.729  1.00  0.00     0.118 C 
ENDROOT
BRANCH   1   2
ATOM      2  C   UNL A   1      38.223  22.437  26.460  1.00  0.00     0.042 C 
BRANCH   2   3
ATOM      3  C   UNL A   1      37.562  23.624  25.749  1.00  0.00     0.118 C 
BRANCH   3   4
ATOM      4  N   UNL A   1      37.178  23.405  24.359  1.00  0.00    -0.352 N 
ATOM      5  C   UNL A   1      36.029  22.914  23.760  1.00  0.00     0.253 C 
ATOM      6  O   UNL A   1      35.996  22.962  22.532  1.00  0.00    -0.269 OA
ATOM      7  H   UNL A   1      37.877  23.657  23.715  1.00  0.00     0.163 HD
BRANCH   5   8
ATOM      8  C   UNL A   1      34.908  22.258  24.492  1.00  0.00     0.073 A 
ATOM      9  C   UNL A   1      34.384  25.607  25.383  1.00  0.00     0.069 C 
ATOM     10  C   UNL A   1      33.549  24.378  25.435  1.00  0.00     0.070 A 
ATOM     11  N   UNL A   1      32.334  24.487  26.004  1.00  0.00    -0.176 NA
ATOM     12  C   UNL A   1      33.859  23.024  25.066  1.00  0.00     0.056 A 
ATOM     13  N   UNL A   1      31.874  23.228  26.029  1.00  0.00    -0.250 N 
ATOM     14  C   UNL A   1      32.735  22.321  25.481  1.00  0.00     0.158 A 
ATOM     15  C   UNL A   1      30.626  22.928  26.685  1.00  0.00     0.176 C 
ATOM     16  N   UNL A   1      32.510  21.002  25.374  1.00  0.00    -0.231 NA
ATOM     17  C   UNL A   1      34.817  20.870  24.700  1.00  0.00     0.076 A 
ATOM     18  C   UNL A   1      33.575  20.263  24.976  1.00  0.00     0.065 A 
ATOM     19  Cl  UNL A   1      36.289  19.984  24.996  1.00  0.00    -0.081 Cl
BRANCH  18  20
ATOM     20  C   UNL A   1      33.215  18.796  24.735  1.00  0.00     0.040 C 
ATOM     21  C   UNL A   1      32.556  18.356  23.446  1.00  0.00     0.011 C 
ATOM     22  C   UNL A   1      33.913  17.827  23.825  1.00  0.00     0.011 C 
ENDBRANCH  18  20
ENDBRANCH   5   8
ENDBRANCH   3   4
ENDBRANCH   2   3
ENDBRANCH   1   2
BRANCH   1  23
ATOM     23  N   UNL A   1      40.318  21.115  26.648  1.00  0.00    -0.352 N 
ATOM     24  C   UNL A   1      41.479  21.553  27.234  1.00  0.00     0.251 C 
ATOM     25  H   UNL A   1      40.072  20.195  26.897  1.00  0.00     0.163 HD
ATOM     26  O   UNL A   1      42.200  20.702  27.757  1.00  0.00    -0.269 OA
BRANCH  24  27
ATOM     27  C   UNL A   1      41.903  22.977  27.278  1.00  0.00     0.039 A 
ATOM     28  C   UNL A   1      41.322  23.792  28.263  1.00  0.00     0.014 A 
ATOM     29  C   UNL A   1      42.722  23.566  26.311  1.00  0.00     0.014 A 
ATOM     30  C   UNL A   1      41.585  25.164  28.306  1.00  0.00     0.010 A 
ATOM     31  C   UNL A   1      42.994  24.942  26.361  1.00  0.00     0.010 A 
ATOM     32  C   UNL A   1      42.439  25.750  27.365  1.00  0.00    -0.014 A 
BRANCH  32  33
ATOM     33  C   UNL A   1      42.814  27.170  27.556  1.00  0.00     0.031 A 
ATOM     34  C   UNL A   1      41.679  28.141  27.527  1.00  0.00     0.074 A 
ATOM     35  C   UNL A   1      43.951  27.554  28.179  1.00  0.00     0.049 A 
ATOM     36  N   UNL A   1      40.899  28.334  28.550  1.00  0.00    -0.248 NA
ATOM     37  C   UNL A   1      41.202  28.766  26.295  1.00  0.00     0.031 C 
ATOM     38  C   UNL A   1      44.570  26.793  29.271  1.00  0.00     0.029 A 
ATOM     39  N   UNL A   1      44.631  28.752  28.174  1.00  0.00    -0.354 N 
ATOM     40  C   UNL A   1      39.819  29.077  28.113  1.00  0.00     0.074 A 
ATOM     41  C   UNL A   1      40.048  29.320  26.705  1.00  0.00     0.031 C 
ATOM     42  C   UNL A   1      45.411  27.608  29.943  1.00  0.00     0.029 A 
ATOM     43  C   UNL A   1      45.519  28.886  29.242  1.00  0.00     0.049 A 
ATOM     44  H   UNL A   1      44.503  29.445  27.486  1.00  0.00     0.167 HD
ATOM     45  C   UNL A   1      38.805  29.456  28.934  1.00  0.00     0.037 A 
ATOM     46  C   UNL A   1      45.854  30.063  29.846  1.00  0.00     0.037 A 
ATOM     47  C   UNL A   1      38.955  29.089  30.312  1.00  0.00     0.049 A 
ATOM     48  C   UNL A   1      44.547  30.422  30.510  1.00  0.00     0.074 A 
ATOM     49  C   UNL A   1      38.558  28.067  31.148  1.00  0.00     0.029 A 
ATOM     50  N   UNL A   1      39.748  29.891  31.101  1.00  0.00    -0.354 N 
ATOM     51  N   UNL A   1      44.083  29.913  31.622  1.00  0.00    -0.248 NA
ATOM     52  C   UNL A   1      43.550  31.121  29.697  1.00  0.00     0.031 C 
ATOM     53  C   UNL A   1      39.508  28.065  32.220  1.00  0.00     0.029 A 
ATOM     54  C   UNL A   1      40.443  29.060  31.942  1.00  0.00     0.049 A 
ATOM     55  H   UNL A   1      39.805  30.873  31.066  1.00  0.00     0.167 HD
ATOM     56  C   UNL A   1      42.693  29.991  31.514  1.00  0.00     0.074 A 
ATOM     57  C   UNL A   1      42.434  30.756  30.311  1.00  0.00     0.031 C 
ATOM     58  C   UNL A   1      41.827  29.287  32.300  1.00  0.00     0.037 A 
BRANCH  45  59
ATOM     59  C   UNL A   1      37.711  30.368  28.546  1.00  0.00     0.058 A 
ATOM     60  C   UNL A   1      37.844  31.729  28.861  1.00  0.00     0.135 A 
ATOM     61  C   UNL A   1      36.472  29.912  28.084  1.00  0.00     0.135 A 
ATOM     62  F   UNL A   1      39.017  32.198  29.318  1.00  0.00    -0.206 F 
ATOM     63  C   UNL A   1      36.772  32.603  28.776  1.00  0.00     0.059 A 
ATOM     64  C   UNL A   1      35.381  30.773  27.981  1.00  0.00     0.059 A 
ATOM     65  F   UNL A   1      36.298  28.616  27.776  1.00  0.00    -0.206 F 
ATOM     66  C   UNL A   1      35.537  32.111  28.355  1.00  0.00     0.060 A 
BRANCH  66  67
ATOM     67  S   UNL A   1      34.134  33.248  28.356  1.00  0.00     0.124 S 
ATOM     68  O   UNL A   1      33.929  33.469  29.783  1.00  0.00    -0.237 OA
ATOM     69  O   UNL A   1      34.667  34.380  27.606  1.00  0.00    -0.237 OA
ATOM     70  O   UNL A   1      33.083  32.492  27.681  1.00  0.00    -0.744 OA
ENDBRANCH  66  67
ENDBRANCH  45  59
BRANCH  46  71
ATOM     71  C   UNL A   1      46.637  31.034  29.007  1.00  0.00     0.058 A 
ATOM     72  C   UNL A   1      47.872  31.509  29.499  1.00  0.00     0.135 A 
ATOM     73  C   UNL A   1      46.252  31.529  27.750  1.00  0.00     0.135 A 
ATOM     74  F   UNL A   1      48.259  31.217  30.752  1.00  0.00    -0.206 F 
ATOM     75  C   UNL A   1      48.744  32.272  28.727  1.00  0.00     0.059 A 
ATOM     76  C   UNL A   1      47.118  32.272  26.943  1.00  0.00     0.059 A 
ATOM     77  F   UNL A   1      45.031  31.283  27.255  1.00  0.00    -0.206 F 
ATOM     78  C   UNL A   1      48.379  32.602  27.426  1.00  0.00     0.060 A 
BRANCH  78  79
ATOM     79  S   UNL A   1      49.604  33.393  26.362  1.00  0.00     0.124 S 
ATOM     80  O   UNL A   1      50.303  34.267  27.302  1.00  0.00    -0.237 OA
ATOM     81  O   UNL A   1      50.366  32.241  25.883  1.00  0.00    -0.237 OA
ATOM     82  O   UNL A   1      48.798  34.066  25.356  1.00  0.00    -0.744 OA
ENDBRANCH  78  79
ENDBRANCH  46  71
BRANCH  58  83
ATOM     83  C   UNL A   1      42.426  28.555  33.454  1.00  0.00     0.058 A 
ATOM     84  C   UNL A   1      42.344  29.092  34.746  1.00  0.00     0.135 A 
ATOM     85  C   UNL A   1      43.010  27.285  33.308  1.00  0.00     0.135 A 
ATOM     86  F   UNL A   1      41.788  30.298  34.945  1.00  0.00    -0.206 F 
ATOM     87  C   UNL A   1      42.784  28.380  35.857  1.00  0.00     0.059 A 
ATOM     88  C   UNL A   1      43.434  26.545  34.409  1.00  0.00     0.059 A 
ATOM     89  F   UNL A   1      43.136  26.724  32.094  1.00  0.00    -0.206 F 
ATOM     90  C   UNL A   1      43.307  27.098  35.682  1.00  0.00     0.060 A 
BRANCH  90  91
ATOM     91  S   UNL A   1      43.735  26.136  37.148  1.00  0.00     0.124 S 
ATOM     92  O   UNL A   1      44.994  26.747  37.560  1.00  0.00    -0.237 OA
ATOM     93  O   UNL A   1      42.594  26.382  38.024  1.00  0.00    -0.237 OA
ATOM     94  O   UNL A   1      43.839  24.768  36.643  1.00  0.00    -0.744 OA
ENDBRANCH  90  91
ENDBRANCH  58  83
ENDBRANCH  32  33
ENDBRANCH  24  27
ENDBRANCH   1  23
TORSDOF 14
ENDMDL
MODEL 3
REMARK VINA RESULT:     -12.3      0.870      1.587
REMARK SMILES Cc1nn(C)c2nc(C3CC3)c(Cl)c(C(=O)NCCCNC(=O)c3ccc(-c4c5nc(c(-c6c(F)cc(S(=O)(=O)[O-])cc6F)c6ccc([nH]6)c(-c6c(F)cc(S(=O)(=O)[O-])cc6F)c6nc(c(-c7c(F)cc(S(=O)(=O)[O-])cc7F)c7ccc4[nH]7)C=C6)C=C5)cc3)c12
REMARK SMILES IDX 20 1 19 2 18 3 17 4 15 5 16 6 14 8 1 9 2 10 3 11 90 12 4 13
REMARK SMILES IDX 6 14 5 15 7 16 12 17 8 18 13 19 9 20 10 21 11 22 21 23 22 24
REMARK SMILES IDX 23 26 24 27 25 28 89 29 26 30 88 31 27 32 28 33 29 34 82 35
REMARK SMILES IDX 30 36 87 37 81 38 83 39 31 40 86 41 80 42 79 43 32 45 66 46
REMARK SMILES IDX 45 47 65 48 46 49 49 50 64 51 84 52 47 53 48 54 63 56 85 57
REMARK SMILES IDX 50 58 33 59 34 60 43 61 35 62 36 63 42 64 44 65 37 66 38 67
REMARK SMILES IDX 39 68 40 69 41 70 67 71 68 72 77 73 69 74 70 75 76 76 78 77
REMARK SMILES IDX 71 78 72 79 73 80 74 81 75 82 51 83 52 84 61 85 53 86 54 87
REMARK SMILES IDX 60 88 62 89 55 90 56 91 57 92 58 93 59 94
REMARK H PARENT 17 7 21 25 83 44 49 55
REMARK Flexibility Score: inf
ROOT
ATOM      1  C   UNL A   1      38.163  22.401  25.530  1.00  0.00     0.118 C 
ENDROOT
BRANCH   1   2
ATOM      2  C   UNL A   1      36.676  22.315  25.909  1.00  0.00     0.042 C 
BRANCH   2   3
ATOM      3  C   UNL A   1      35.839  23.588  25.741  1.00  0.00     0.118 C 
BRANCH   3   4
ATOM      4  N   UNL A   1      35.401  23.891  24.384  1.00  0.00    -0.352 N 
ATOM      5  C   UNL A   1      34.244  24.451  23.865  1.00  0.00     0.253 C 
ATOM      6  O   UNL A   1      34.243  24.667  22.654  1.00  0.00    -0.269 OA
ATOM      7  H   UNL A   1      36.060  23.649  23.695  1.00  0.00     0.163 HD
BRANCH   5   8
ATOM      8  C   UNL A   1      33.002  24.705  24.650  1.00  0.00     0.073 A 
ATOM      9  C   UNL A   1      32.662  21.278  24.003  1.00  0.00     0.069 C 
ATOM     10  C   UNL A   1      32.029  22.218  24.964  1.00  0.00     0.070 A 
ATOM     11  N   UNL A   1      31.047  21.729  25.742  1.00  0.00    -0.176 NA
ATOM     12  C   UNL A   1      32.214  23.631  25.144  1.00  0.00     0.056 A 
ATOM     13  N   UNL A   1      30.585  22.803  26.396  1.00  0.00    -0.250 N 
ATOM     14  C   UNL A   1      31.244  23.958  26.083  1.00  0.00     0.158 A 
ATOM     15  C   UNL A   1      29.429  22.688  27.251  1.00  0.00     0.176 C 
ATOM     16  N   UNL A   1      30.985  25.167  26.604  1.00  0.00    -0.231 NA
ATOM     17  C   UNL A   1      32.503  25.990  24.929  1.00  0.00     0.076 A 
ATOM     18  C   UNL A   1      31.628  26.203  26.012  1.00  0.00     0.065 A 
ATOM     19  Cl  UNL A   1      32.667  27.220  23.703  1.00  0.00    -0.081 Cl
BRANCH  18  20
ATOM     20  C   UNL A   1      31.402  27.529  26.742  1.00  0.00     0.040 C 
ATOM     21  C   UNL A   1      32.525  28.203  27.500  1.00  0.00     0.011 C 
ATOM     22  C   UNL A   1      31.882  28.889  26.325  1.00  0.00     0.011 C 
ENDBRANCH  18  20
ENDBRANCH   5   8
ENDBRANCH   3   4
ENDBRANCH   2   3
ENDBRANCH   1   2
BRANCH   1  23
ATOM     23  N   UNL A   1      39.019  21.720  26.490  1.00  0.00    -0.352 N 
ATOM     24  C   UNL A   1      40.147  22.109  27.167  1.00  0.00     0.251 C 
ATOM     25  H   UNL A   1      38.734  20.801  26.692  1.00  0.00     0.163 HD
ATOM     26  O   UNL A   1      40.809  21.223  27.711  1.00  0.00    -0.269 OA
BRANCH  24  27
ATOM     27  C   UNL A   1      40.602  23.519  27.287  1.00  0.00     0.039 A 
ATOM     28  C   UNL A   1      39.837  24.376  28.095  1.00  0.00     0.014 A 
ATOM     29  C   UNL A   1      41.646  24.057  26.530  1.00  0.00     0.014 A 
ATOM     30  C   UNL A   1      40.134  25.740  28.176  1.00  0.00     0.010 A 
ATOM     31  C   UNL A   1      41.950  25.425  26.620  1.00  0.00     0.010 A 
ATOM     32  C   UNL A   1      41.206  26.275  27.452  1.00  0.00    -0.014 A 
BRANCH  32  33
ATOM     33  C   UNL A   1      41.579  27.686  27.703  1.00  0.00     0.031 A 
ATOM     34  C   UNL A   1      40.433  28.627  27.883  1.00  0.00     0.074 A 
ATOM     35  C   UNL A   1      42.777  28.051  28.212  1.00  0.00     0.049 A 
ATOM     36  N   UNL A   1      39.780  28.726  29.004  1.00  0.00    -0.248 NA
ATOM     37  C   UNL A   1      39.799  29.329  26.768  1.00  0.00     0.031 C 
ATOM     38  C   UNL A   1      43.536  27.229  29.162  1.00  0.00     0.029 A 
ATOM     39  N   UNL A   1      43.432  29.264  28.216  1.00  0.00    -0.354 N 
ATOM     40  C   UNL A   1      38.643  29.471  28.757  1.00  0.00     0.074 A 
ATOM     41  C   UNL A   1      38.696  29.823  27.354  1.00  0.00     0.031 C 
ATOM     42  C   UNL A   1      44.439  28.014  29.787  1.00  0.00     0.029 A 
ATOM     43  C   UNL A   1      44.441  29.342  29.177  1.00  0.00     0.049 A 
ATOM     44  H   UNL A   1      43.210  30.001  27.602  1.00  0.00     0.167 HD
ATOM     45  C   UNL A   1      37.731  29.765  29.721  1.00  0.00     0.037 A 
ATOM     46  C   UNL A   1      44.828  30.480  29.822  1.00  0.00     0.037 A 
ATOM     47  C   UNL A   1      38.053  29.303  31.039  1.00  0.00     0.049 A 
ATOM     48  C   UNL A   1      43.606  30.756  30.664  1.00  0.00     0.074 A 
ATOM     49  C   UNL A   1      37.777  28.213  31.837  1.00  0.00     0.029 A 
ATOM     50  N   UNL A   1      38.923  30.064  31.785  1.00  0.00    -0.354 N 
ATOM     51  N   UNL A   1      43.289  30.157  31.782  1.00  0.00    -0.248 NA
ATOM     52  C   UNL A   1      42.506  31.488  30.032  1.00  0.00     0.031 C 
ATOM     53  C   UNL A   1      38.850  28.157  32.785  1.00  0.00     0.029 A 
ATOM     54  C   UNL A   1      39.729  29.192  32.472  1.00  0.00     0.049 A 
ATOM     55  H   UNL A   1      38.960  31.047  31.818  1.00  0.00     0.167 HD
ATOM     56  C   UNL A   1      41.895  30.208  31.848  1.00  0.00     0.074 A 
ATOM     57  C   UNL A   1      41.479  31.051  30.745  1.00  0.00     0.031 C 
ATOM     58  C   UNL A   1      41.142  29.427  32.677  1.00  0.00     0.037 A 
BRANCH  45  59
ATOM     59  C   UNL A   1      36.583  30.675  29.536  1.00  0.00     0.058 A 
ATOM     60  C   UNL A   1      35.603  30.317  28.598  1.00  0.00     0.135 A 
ATOM     61  C   UNL A   1      36.540  31.961  30.084  1.00  0.00     0.135 A 
ATOM     62  F   UNL A   1      35.621  29.093  28.044  1.00  0.00    -0.206 F 
ATOM     63  C   UNL A   1      34.642  31.221  28.170  1.00  0.00     0.059 A 
ATOM     64  C   UNL A   1      35.578  32.885  29.677  1.00  0.00     0.059 A 
ATOM     65  F   UNL A   1      37.462  32.348  30.981  1.00  0.00    -0.206 F 
ATOM     66  C   UNL A   1      34.651  32.511  28.700  1.00  0.00     0.060 A 
BRANCH  66  67
ATOM     67  S   UNL A   1      33.456  33.696  28.047  1.00  0.00     0.124 S 
ATOM     68  O   UNL A   1      32.905  34.270  29.270  1.00  0.00    -0.237 OA
ATOM     69  O   UNL A   1      34.310  34.578  27.258  1.00  0.00    -0.237 OA
ATOM     70  O   UNL A   1      32.538  32.863  27.276  1.00  0.00    -0.744 OA
ENDBRANCH  66  67
ENDBRANCH  45  59
BRANCH  46  71
ATOM     71  C   UNL A   1      45.487  31.528  28.971  1.00  0.00     0.058 A 
ATOM     72  C   UNL A   1      46.178  31.118  27.810  1.00  0.00     0.135 A 
ATOM     73  C   UNL A   1      45.485  32.911  29.222  1.00  0.00     0.135 A 
ATOM     74  F   UNL A   1      46.369  29.812  27.561  1.00  0.00    -0.206 F 
ATOM     75  C   UNL A   1      46.672  32.022  26.873  1.00  0.00     0.059 A 
ATOM     76  C   UNL A   1      45.948  33.840  28.287  1.00  0.00     0.059 A 
ATOM     77  F   UNL A   1      45.008  33.402  30.374  1.00  0.00    -0.206 F 
ATOM     78  C   UNL A   1      46.501  33.385  27.095  1.00  0.00     0.060 A 
BRANCH  78  79
ATOM     79  S   UNL A   1      46.940  34.535  25.775  1.00  0.00     0.124 S 
ATOM     80  O   UNL A   1      46.934  35.817  26.476  1.00  0.00    -0.237 OA
ATOM     81  O   UNL A   1      48.257  34.037  25.377  1.00  0.00    -0.237 OA
ATOM     82  O   UNL A   1      45.884  34.348  24.794  1.00  0.00    -0.744 OA
ENDBRANCH  78  79
ENDBRANCH  46  71
BRANCH  58  83
ATOM     83  C   UNL A   1      41.889  28.628  33.692  1.00  0.00     0.058 A 
ATOM     84  C   UNL A   1      41.867  29.010  35.041  1.00  0.00     0.135 A 
ATOM     85  C   UNL A   1      42.559  27.440  33.358  1.00  0.00     0.135 A 
ATOM     86  F   UNL A   1      41.233  30.132  35.418  1.00  0.00    -0.206 F 
ATOM     87  C   UNL A   1      42.450  28.221  36.027  1.00  0.00     0.059 A 
ATOM     88  C   UNL A   1      43.128  26.623  34.332  1.00  0.00     0.059 A 
ATOM     89  F   UNL A   1      42.633  27.030  32.081  1.00  0.00    -0.206 F 
ATOM     90  C   UNL A   1      43.059  27.019  35.667  1.00  0.00     0.060 A 
BRANCH  90  91
ATOM     91  S   UNL A   1      43.679  25.942  36.976  1.00  0.00     0.124 S 
ATOM     92  O   UNL A   1      43.508  26.772  38.164  1.00  0.00    -0.237 OA
ATOM     93  O   UNL A   1      42.790  24.789  36.876  1.00  0.00    -0.237 OA
ATOM     94  O   UNL A   1      45.064  25.687  36.585  1.00  0.00    -0.744 OA
ENDBRANCH  90  91
ENDBRANCH  58  83
ENDBRANCH  32  33
ENDBRANCH  24  27
ENDBRANCH   1  23
TORSDOF 14
ENDMDL
