MODEL 1
REMARK VINA RESULT:     -12.0      0.000      0.000
REMARK SMILES Cc1cc(C(=O)NCCCNC(=O)c2ccc(-c3c4nc(c(-c5c(F)cc(S(=O)(=O)[O-])cc5F)c5ccc([nH]5)c(-c5c(F)cc(S(=O)(=O)[O-])cc5F)c5nc(c(-c6c(F)cc(S(=O)(=O)[O-])cc6F)c6ccc3[nH]6)C=C5)C=C4)cc2)c(C)n1[C@@H]1C[N@H+]2CC[C@@H]1CC2
REMARK SMILES IDX 10 1 9 2 8 3 7 4 5 5 6 6 4 8 1 9 2 10 3 11 82 12 80 13 81 14
REMARK SMILES IDX 83 15 84 16 88 17 85 18 89 19 87 20 90 21 86 22 11 24 12 25
REMARK SMILES IDX 13 27 14 28 15 29 79 30 16 31 78 32 17 33 18 34 19 35 72 36
REMARK SMILES IDX 20 37 77 38 71 39 73 40 21 41 76 42 70 43 69 44 22 46 56 47
REMARK SMILES IDX 35 48 55 49 36 50 39 51 54 52 74 53 37 54 38 55 53 57 75 58
REMARK SMILES IDX 40 59 23 60 24 61 33 62 25 63 26 64 32 65 34 66 27 67 28 68
REMARK SMILES IDX 29 69 30 70 31 71 57 72 58 73 67 74 59 75 60 76 66 77 68 78
REMARK SMILES IDX 61 79 62 80 63 81 64 82 65 83 41 84 42 85 51 86 43 87 44 88
REMARK SMILES IDX 50 89 52 90 45 91 46 92 47 93 48 94 49 95
REMARK H PARENT 7 7 85 23 11 26 73 45 39 56
REMARK Flexibility Score: inf
ROOT
ATOM      1  C   UNL A   1      33.927  29.963  27.487  1.00  0.00     0.118 C 
ENDROOT
BRANCH   1   2
ATOM      2  C   UNL A   1      33.256  29.840  26.098  1.00  0.00     0.042 C 
BRANCH   2   3
ATOM      3  C   UNL A   1      31.737  30.072  26.077  1.00  0.00     0.118 C 
BRANCH   3   4
ATOM      4  N   UNL A   1      31.177  30.020  24.738  1.00  0.00    -0.352 N 
ATOM      5  C   UNL A   1      31.043  29.061  23.764  1.00  0.00     0.253 C 
ATOM      6  O   UNL A   1      30.537  29.458  22.711  1.00  0.00    -0.269 OA
ATOM      7  H   UNL A   1      30.800  30.886  24.460  1.00  0.00     0.163 HD
BRANCH   5   8
ATOM      8  C   UNL A   1      31.417  27.647  23.952  1.00  0.00     0.060 A 
ATOM      9  C   UNL A   1      30.729  24.033  24.168  1.00  0.00     0.064 C 
ATOM     10  C   UNL A   1      31.355  25.382  24.159  1.00  0.00     0.016 A 
ATOM     11  C   UNL A   1      30.659  26.550  24.404  1.00  0.00     0.037 A 
ATOM     12  N   UNL A   1      32.670  25.729  23.887  1.00  0.00    -0.339 N 
ATOM     13  C   UNL A   1      32.685  27.113  23.656  1.00  0.00     0.028 A 
ATOM     14  C   UNL A   1      33.866  27.893  23.147  1.00  0.00     0.065 C 
BRANCH  12  15
ATOM     15  C   UNL A   1      33.858  24.862  23.861  1.00  0.00     0.145 C 
ATOM     16  C   UNL A   1      33.724  23.466  23.203  1.00  0.00     0.288 C 
ATOM     17  C   UNL A   1      34.609  24.699  25.216  1.00  0.00     0.029 C 
ATOM     18  N   UNL A   1      34.312  22.382  24.044  1.00  0.00    -0.333 N 
ATOM     19  C   UNL A   1      35.975  24.037  24.908  1.00  0.00     0.067 C 
ATOM     20  C   UNL A   1      33.881  23.703  26.127  1.00  0.00     0.067 C 
ATOM     21  C   UNL A   1      35.751  22.664  24.246  1.00  0.00     0.262 C 
ATOM     22  C   UNL A   1      33.659  22.380  25.372  1.00  0.00     0.262 C 
ATOM     23  H   UNL A   1      34.179  21.484  23.580  1.00  0.00     0.348 HD
ENDBRANCH  12  15
ENDBRANCH   5   8
ENDBRANCH   3   4
ENDBRANCH   2   3
ENDBRANCH   1   2
BRANCH   1  24
ATOM     24  N   UNL A   1      33.879  31.291  28.063  1.00  0.00    -0.352 N 
ATOM     25  C   UNL A   1      34.766  31.891  28.944  1.00  0.00     0.251 C 
ATOM     26  H   UNL A   1      33.111  31.843  27.792  1.00  0.00     0.163 HD
ATOM     27  O   UNL A   1      34.467  33.012  29.356  1.00  0.00    -0.269 OA
BRANCH  25  28
ATOM     28  C   UNL A   1      35.980  31.183  29.502  1.00  0.00     0.039 A 
ATOM     29  C   UNL A   1      37.144  31.213  28.749  1.00  0.00     0.014 A 
ATOM     30  C   UNL A   1      35.977  30.292  30.592  1.00  0.00     0.014 A 
ATOM     31  C   UNL A   1      38.282  30.429  29.114  1.00  0.00     0.010 A 
ATOM     32  C   UNL A   1      37.116  29.424  30.908  1.00  0.00     0.010 A 
ATOM     33  C   UNL A   1      38.322  29.450  30.175  1.00  0.00    -0.014 A 
BRANCH  33  34
ATOM     34  C   UNL A   1      39.389  28.233  29.974  1.00  0.00     0.031 A 
ATOM     35  C   UNL A   1      40.128  28.276  31.275  1.00  0.00     0.074 A 
ATOM     36  C   UNL A   1      39.870  27.285  29.059  1.00  0.00     0.049 A 
ATOM     37  N   UNL A   1      40.699  29.384  31.668  1.00  0.00    -0.248 NA
ATOM     38  C   UNL A   1      39.881  27.307  32.347  1.00  0.00     0.031 C 
ATOM     39  C   UNL A   1      39.501  27.119  27.641  1.00  0.00     0.029 A 
ATOM     40  N   UNL A   1      40.825  26.210  29.168  1.00  0.00    -0.354 N 
ATOM     41  C   UNL A   1      41.166  29.145  32.935  1.00  0.00     0.074 A 
ATOM     42  C   UNL A   1      40.411  27.978  33.376  1.00  0.00     0.031 C 
ATOM     43  C   UNL A   1      40.066  26.003  27.084  1.00  0.00     0.029 A 
ATOM     44  C   UNL A   1      40.938  25.304  28.031  1.00  0.00     0.049 A 
ATOM     45  H   UNL A   1      41.378  26.094  29.976  1.00  0.00     0.167 HD
ATOM     46  C   UNL A   1      42.492  29.394  33.130  1.00  0.00     0.037 A 
ATOM     47  C   UNL A   1      41.717  24.152  27.826  1.00  0.00     0.037 A 
ATOM     48  C   UNL A   1      43.278  28.190  33.066  1.00  0.00     0.049 A 
ATOM     49  C   UNL A   1      42.847  24.274  28.755  1.00  0.00     0.074 A 
ATOM     50  C   UNL A   1      43.105  26.922  33.585  1.00  0.00     0.029 A 
ATOM     51  N   UNL A   1      44.136  28.066  31.992  1.00  0.00    -0.354 N 
ATOM     52  N   UNL A   1      43.845  25.068  28.524  1.00  0.00    -0.248 NA
ATOM     53  C   UNL A   1      42.959  23.445  29.950  1.00  0.00     0.031 C 
ATOM     54  C   UNL A   1      43.379  26.064  32.499  1.00  0.00     0.029 A 
ATOM     55  C   UNL A   1      44.088  26.768  31.533  1.00  0.00     0.049 A 
ATOM     56  H   UNL A   1      44.691  28.786  31.615  1.00  0.00     0.167 HD
ATOM     57  C   UNL A   1      44.399  25.218  29.754  1.00  0.00     0.074 A 
ATOM     58  C   UNL A   1      44.027  24.027  30.497  1.00  0.00     0.031 C 
ATOM     59  C   UNL A   1      44.547  26.491  30.196  1.00  0.00     0.037 A 
BRANCH  46  60
ATOM     60  C   UNL A   1      42.985  30.718  32.618  1.00  0.00     0.058 A 
ATOM     61  C   UNL A   1      43.322  31.711  33.543  1.00  0.00     0.135 A 
ATOM     62  C   UNL A   1      43.103  31.040  31.248  1.00  0.00     0.135 A 
ATOM     63  F   UNL A   1      43.277  31.449  34.860  1.00  0.00    -0.206 F 
ATOM     64  C   UNL A   1      43.722  32.979  33.132  1.00  0.00     0.059 A 
ATOM     65  C   UNL A   1      43.451  32.314  30.815  1.00  0.00     0.059 A 
ATOM     66  F   UNL A   1      42.926  30.099  30.306  1.00  0.00    -0.206 F 
ATOM     67  C   UNL A   1      43.766  33.277  31.768  1.00  0.00     0.060 A 
BRANCH  67  68
ATOM     68  S   UNL A   1      44.233  34.944  31.257  1.00  0.00     0.124 S 
ATOM     69  O   UNL A   1      45.087  34.679  30.093  1.00  0.00    -0.237 OA
ATOM     70  O   UNL A   1      42.924  35.524  30.935  1.00  0.00    -0.237 OA
ATOM     71  O   UNL A   1      44.914  35.487  32.407  1.00  0.00    -0.744 OA
ENDBRANCH  67  68
ENDBRANCH  46  60
BRANCH  47  72
ATOM     72  C   UNL A   1      41.973  22.880  26.920  1.00  0.00     0.058 A 
ATOM     73  C   UNL A   1      42.937  22.908  25.843  1.00  0.00     0.135 A 
ATOM     74  C   UNL A   1      41.641  21.570  27.300  1.00  0.00     0.135 A 
ATOM     75  F   UNL A   1      43.350  24.067  25.309  1.00  0.00    -0.206 F 
ATOM     76  C   UNL A   1      43.594  21.779  25.307  1.00  0.00     0.059 A 
ATOM     77  C   UNL A   1      42.272  20.410  26.749  1.00  0.00     0.059 A 
ATOM     78  F   UNL A   1      40.757  21.369  28.288  1.00  0.00    -0.206 F 
ATOM     79  C   UNL A   1      43.282  20.524  25.790  1.00  0.00     0.060 A 
BRANCH  79  80
ATOM     80  S   UNL A   1      44.299  19.102  25.255  1.00  0.00     0.124 S 
ATOM     81  O   UNL A   1      43.906  18.054  26.191  1.00  0.00    -0.237 OA
ATOM     82  O   UNL A   1      43.863  18.906  23.874  1.00  0.00    -0.237 OA
ATOM     83  O   UNL A   1      45.667  19.590  25.401  1.00  0.00    -0.744 OA
ENDBRANCH  79  80
ENDBRANCH  47  72
BRANCH  59  84
ATOM     84  C   UNL A   1      45.004  27.529  29.182  1.00  0.00     0.058 A 
ATOM     85  C   UNL A   1      44.189  28.227  28.260  1.00  0.00     0.135 A 
ATOM     86  C   UNL A   1      46.383  27.779  29.092  1.00  0.00     0.135 A 
ATOM     87  F   UNL A   1      42.850  28.165  28.309  1.00  0.00    -0.206 F 
ATOM     88  C   UNL A   1      44.723  29.037  27.255  1.00  0.00     0.059 A 
ATOM     89  C   UNL A   1      46.934  28.627  28.131  1.00  0.00     0.059 A 
ATOM     90  F   UNL A   1      47.222  27.187  29.957  1.00  0.00    -0.206 F 
ATOM     91  C   UNL A   1      46.100  29.220  27.188  1.00  0.00     0.060 A 
BRANCH  91  92
ATOM     92  S   UNL A   1      46.784  30.244  25.867  1.00  0.00     0.124 S 
ATOM     93  O   UNL A   1      46.730  29.336  24.724  1.00  0.00    -0.237 OA
ATOM     94  O   UNL A   1      45.857  31.369  25.818  1.00  0.00    -0.237 OA
ATOM     95  O   UNL A   1      48.129  30.555  26.344  1.00  0.00    -0.744 OA
ENDBRANCH  91  92
ENDBRANCH  59  84
ENDBRANCH  33  34
ENDBRANCH  25  28
ENDBRANCH   1  24
TORSDOF 14
ENDMDL
MODEL 2
REMARK VINA RESULT:     -12.0      4.196      9.344
REMARK SMILES Cc1cc(C(=O)NCCCNC(=O)c2ccc(-c3c4nc(c(-c5c(F)cc(S(=O)(=O)[O-])cc5F)c5ccc([nH]5)c(-c5c(F)cc(S(=O)(=O)[O-])cc5F)c5nc(c(-c6c(F)cc(S(=O)(=O)[O-])cc6F)c6ccc3[nH]6)C=C5)C=C4)cc2)c(C)n1[C@@H]1C[N@H+]2CC[C@@H]1CC2
REMARK SMILES IDX 10 1 9 2 8 3 7 4 5 5 6 6 4 8 1 9 2 10 3 11 82 12 80 13 81 14
REMARK SMILES IDX 83 15 84 16 88 17 85 18 89 19 87 20 90 21 86 22 11 24 12 25
REMARK SMILES IDX 13 27 14 28 15 29 79 30 16 31 78 32 17 33 18 34 19 35 72 36
REMARK SMILES IDX 20 37 77 38 71 39 73 40 21 41 76 42 70 43 69 44 22 46 56 47
REMARK SMILES IDX 35 48 55 49 36 50 39 51 54 52 74 53 37 54 38 55 53 57 75 58
REMARK SMILES IDX 40 59 23 60 24 61 33 62 25 63 26 64 32 65 34 66 27 67 28 68
REMARK SMILES IDX 29 69 30 70 31 71 57 72 58 73 67 74 59 75 60 76 66 77 68 78
REMARK SMILES IDX 61 79 62 80 63 81 64 82 65 83 41 84 42 85 51 86 43 87 44 88
REMARK SMILES IDX 50 89 52 90 45 91 46 92 47 93 48 94 49 95
REMARK H PARENT 7 7 85 23 11 26 73 45 39 56
REMARK Flexibility Score: inf
ROOT
ATOM      1  C   UNL A   1      39.390  21.574  26.147  1.00  0.00     0.118 C 
ENDROOT
BRANCH   1   2
ATOM      2  C   UNL A   1      38.242  21.068  25.242  1.00  0.00     0.042 C 
BRANCH   2   3
ATOM      3  C   UNL A   1      36.845  21.612  25.582  1.00  0.00     0.118 C 
BRANCH   3   4
ATOM      4  N   UNL A   1      35.792  20.634  25.370  1.00  0.00    -0.352 N 
ATOM      5  C   UNL A   1      34.444  20.681  25.112  1.00  0.00     0.253 C 
ATOM      6  O   UNL A   1      33.889  19.581  25.052  1.00  0.00    -0.269 OA
ATOM      7  H   UNL A   1      36.127  19.710  25.425  1.00  0.00     0.163 HD
BRANCH   5   8
ATOM      8  C   UNL A   1      33.702  21.932  24.867  1.00  0.00     0.060 A 
ATOM      9  C   UNL A   1      31.163  24.009  23.188  1.00  0.00     0.064 C 
ATOM     10  C   UNL A   1      32.262  23.489  24.044  1.00  0.00     0.016 A 
ATOM     11  C   UNL A   1      33.034  22.392  23.716  1.00  0.00     0.037 A 
ATOM     12  N   UNL A   1      32.689  23.946  25.283  1.00  0.00    -0.339 N 
ATOM     13  C   UNL A   1      33.493  22.935  25.832  1.00  0.00     0.028 A 
ATOM     14  C   UNL A   1      34.022  22.919  27.240  1.00  0.00     0.065 C 
BRANCH  12  15
ATOM     15  C   UNL A   1      32.410  25.237  25.927  1.00  0.00     0.145 C 
ATOM     16  C   UNL A   1      30.987  25.832  25.776  1.00  0.00     0.288 C 
ATOM     17  C   UNL A   1      33.447  26.368  25.660  1.00  0.00     0.029 C 
ATOM     18  N   UNL A   1      31.010  27.275  25.401  1.00  0.00    -0.333 N 
ATOM     19  C   UNL A   1      33.154  27.509  26.666  1.00  0.00     0.067 C 
ATOM     20  C   UNL A   1      33.230  26.993  24.277  1.00  0.00     0.067 C 
ATOM     21  C   UNL A   1      31.720  28.031  26.457  1.00  0.00     0.262 C 
ATOM     22  C   UNL A   1      31.765  27.444  24.139  1.00  0.00     0.262 C 
ATOM     23  H   UNL A   1      30.054  27.612  25.292  1.00  0.00     0.348 HD
ENDBRANCH  12  15
ENDBRANCH   5   8
ENDBRANCH   3   4
ENDBRANCH   2   3
ENDBRANCH   1   2
BRANCH   1  24
ATOM     24  N   UNL A   1      40.577  20.744  26.134  1.00  0.00    -0.352 N 
ATOM     25  C   UNL A   1      41.860  21.051  26.561  1.00  0.00     0.251 C 
ATOM     26  H   UNL A   1      40.456  19.837  25.770  1.00  0.00     0.163 HD
ATOM     27  O   UNL A   1      42.727  20.197  26.375  1.00  0.00    -0.269 OA
BRANCH  25  28
ATOM     28  C   UNL A   1      42.244  22.408  27.108  1.00  0.00     0.039 A 
ATOM     29  C   UNL A   1      41.933  22.677  28.433  1.00  0.00     0.014 A 
ATOM     30  C   UNL A   1      42.665  23.509  26.339  1.00  0.00     0.014 A 
ATOM     31  C   UNL A   1      42.102  23.988  28.979  1.00  0.00     0.010 A 
ATOM     32  C   UNL A   1      42.750  24.868  26.884  1.00  0.00     0.010 A 
ATOM     33  C   UNL A   1      42.463  25.170  28.233  1.00  0.00    -0.014 A 
BRANCH  33  34
ATOM     34  C   UNL A   1      41.926  26.584  28.843  1.00  0.00     0.031 A 
ATOM     35  C   UNL A   1      43.206  27.348  28.976  1.00  0.00     0.074 A 
ATOM     36  C   UNL A   1      40.790  27.256  29.318  1.00  0.00     0.049 A 
ATOM     37  N   UNL A   1      44.199  26.850  29.664  1.00  0.00    -0.248 NA
ATOM     38  C   UNL A   1      43.591  28.399  28.028  1.00  0.00     0.031 C 
ATOM     39  C   UNL A   1      39.430  26.721  29.511  1.00  0.00     0.029 A 
ATOM     40  N   UNL A   1      40.562  28.611  29.755  1.00  0.00    -0.354 N 
ATOM     41  C   UNL A   1      45.255  27.706  29.487  1.00  0.00     0.074 A 
ATOM     42  C   UNL A   1      44.902  28.461  28.289  1.00  0.00     0.031 C 
ATOM     43  C   UNL A   1      38.533  27.694  29.863  1.00  0.00     0.029 A 
ATOM     44  C   UNL A   1      39.181  29.001  30.015  1.00  0.00     0.049 A 
ATOM     45  H   UNL A   1      41.306  29.245  29.872  1.00  0.00     0.167 HD
ATOM     46  C   UNL A   1      45.822  28.187  30.630  1.00  0.00     0.037 A 
ATOM     47  C   UNL A   1      38.610  30.226  30.399  1.00  0.00     0.037 A 
ATOM     48  C   UNL A   1      45.347  29.508  30.948  1.00  0.00     0.049 A 
ATOM     49  C   UNL A   1      39.696  30.978  31.042  1.00  0.00     0.074 A 
ATOM     50  C   UNL A   1      45.133  30.642  30.188  1.00  0.00     0.029 A 
ATOM     51  N   UNL A   1      44.558  29.629  32.073  1.00  0.00    -0.354 N 
ATOM     52  N   UNL A   1      40.098  30.713  32.246  1.00  0.00    -0.248 NA
ATOM     53  C   UNL A   1      40.329  32.124  30.398  1.00  0.00     0.031 C 
ATOM     54  C   UNL A   1      43.853  31.085  30.583  1.00  0.00     0.029 A 
ATOM     55  C   UNL A   1      43.527  30.501  31.800  1.00  0.00     0.049 A 
ATOM     56  H   UNL A   1      44.705  29.168  32.930  1.00  0.00     0.167 HD
ATOM     57  C   UNL A   1      41.330  31.280  32.281  1.00  0.00     0.074 A 
ATOM     58  C   UNL A   1      41.302  32.338  31.287  1.00  0.00     0.031 C 
ATOM     59  C   UNL A   1      42.355  30.469  32.639  1.00  0.00     0.037 A 
BRANCH  46  60
ATOM     60  C   UNL A   1      46.136  27.158  31.679  1.00  0.00     0.058 A 
ATOM     61  C   UNL A   1      47.473  26.945  32.028  1.00  0.00     0.135 A 
ATOM     62  C   UNL A   1      45.162  26.364  32.322  1.00  0.00     0.135 A 
ATOM     63  F   UNL A   1      48.441  27.703  31.487  1.00  0.00    -0.206 F 
ATOM     64  C   UNL A   1      47.834  25.962  32.945  1.00  0.00     0.059 A 
ATOM     65  C   UNL A   1      45.503  25.343  33.201  1.00  0.00     0.059 A 
ATOM     66  F   UNL A   1      43.853  26.602  32.137  1.00  0.00    -0.206 F 
ATOM     67  C   UNL A   1      46.846  25.154  33.512  1.00  0.00     0.060 A 
BRANCH  67  68
ATOM     68  S   UNL A   1      47.340  23.848  34.655  1.00  0.00     0.124 S 
ATOM     69  O   UNL A   1      48.727  23.592  34.247  1.00  0.00    -0.237 OA
ATOM     70  O   UNL A   1      47.200  24.529  35.948  1.00  0.00    -0.237 OA
ATOM     71  O   UNL A   1      46.414  22.775  34.388  1.00  0.00    -0.744 OA
ENDBRANCH  67  68
ENDBRANCH  46  60
BRANCH  47  72
ATOM     72  C   UNL A   1      37.277  31.061  30.574  1.00  0.00     0.058 A 
ATOM     73  C   UNL A   1      36.512  31.003  31.799  1.00  0.00     0.135 A 
ATOM     74  C   UNL A   1      36.951  32.184  29.797  1.00  0.00     0.135 A 
ATOM     75  F   UNL A   1      36.647  29.981  32.657  1.00  0.00    -0.206 F 
ATOM     76  C   UNL A   1      35.633  32.007  32.261  1.00  0.00     0.059 A 
ATOM     77  C   UNL A   1      36.040  33.200  30.232  1.00  0.00     0.059 A 
ATOM     78  F   UNL A   1      37.573  32.386  28.628  1.00  0.00    -0.206 F 
ATOM     79  C   UNL A   1      35.425  33.130  31.485  1.00  0.00     0.060 A 
BRANCH  79  80
ATOM     80  S   UNL A   1      34.473  34.520  32.193  1.00  0.00     0.124 S 
ATOM     81  O   UNL A   1      33.550  33.850  33.103  1.00  0.00    -0.237 OA
ATOM     82  O   UNL A   1      35.514  35.321  32.833  1.00  0.00    -0.237 OA
ATOM     83  O   UNL A   1      33.857  35.140  31.023  1.00  0.00    -0.744 OA
ENDBRANCH  79  80
ENDBRANCH  47  72
BRANCH  59  84
ATOM     84  C   UNL A   1      42.097  29.481  33.766  1.00  0.00     0.058 A 
ATOM     85  C   UNL A   1      42.231  29.726  35.153  1.00  0.00     0.135 A 
ATOM     86  C   UNL A   1      41.760  28.166  33.406  1.00  0.00     0.135 A 
ATOM     87  F   UNL A   1      42.441  30.958  35.638  1.00  0.00    -0.206 F 
ATOM     88  C   UNL A   1      42.135  28.707  36.104  1.00  0.00     0.059 A 
ATOM     89  C   UNL A   1      41.604  27.145  34.343  1.00  0.00     0.059 A 
ATOM     90  F   UNL A   1      41.575  27.859  32.112  1.00  0.00    -0.206 F 
ATOM     91  C   UNL A   1      41.835  27.414  35.688  1.00  0.00     0.060 A 
BRANCH  91  92
ATOM     92  S   UNL A   1      41.743  26.097  36.921  1.00  0.00     0.124 S 
ATOM     93  O   UNL A   1      40.414  26.311  37.491  1.00  0.00    -0.237 OA
ATOM     94  O   UNL A   1      41.891  24.890  36.115  1.00  0.00    -0.237 OA
ATOM     95  O   UNL A   1      42.854  26.397  37.820  1.00  0.00    -0.744 OA
ENDBRANCH  91  92
ENDBRANCH  59  84
ENDBRANCH  33  34
ENDBRANCH  25  28
ENDBRANCH   1  24
TORSDOF 14
ENDMDL
MODEL 3
REMARK VINA RESULT:     -12.0      0.850      1.499
REMARK SMILES Cc1cc(C(=O)NCCCNC(=O)c2ccc(-c3c4nc(c(-c5c(F)cc(S(=O)(=O)[O-])cc5F)c5ccc([nH]5)c(-c5c(F)cc(S(=O)(=O)[O-])cc5F)c5nc(c(-c6c(F)cc(S(=O)(=O)[O-])cc6F)c6ccc3[nH]6)C=C5)C=C4)cc2)c(C)n1[C@@H]1C[N@H+]2CC[C@@H]1CC2
REMARK SMILES IDX 10 1 9 2 8 3 7 4 5 5 6 6 4 8 1 9 2 10 3 11 82 12 80 13 81 14
REMARK SMILES IDX 83 15 84 16 88 17 85 18 89 19 87 20 90 21 86 22 11 24 12 25
REMARK SMILES IDX 13 27 14 28 15 29 79 30 16 31 78 32 17 33 18 34 19 35 72 36
REMARK SMILES IDX 20 37 77 38 71 39 73 40 21 41 76 42 70 43 69 44 22 46 56 47
REMARK SMILES IDX 35 48 55 49 36 50 39 51 54 52 74 53 37 54 38 55 53 57 75 58
REMARK SMILES IDX 40 59 23 60 24 61 33 62 25 63 26 64 32 65 34 66 27 67 28 68
REMARK SMILES IDX 29 69 30 70 31 71 57 72 58 73 67 74 59 75 60 76 66 77 68 78
REMARK SMILES IDX 61 79 62 80 63 81 64 82 65 83 41 84 42 85 51 86 43 87 44 88
REMARK SMILES IDX 50 89 52 90 45 91 46 92 47 93 48 94 49 95
REMARK H PARENT 7 7 85 23 11 26 73 45 39 56
REMARK Flexibility Score: inf
ROOT
ATOM      1  C   UNL A   1      34.029  30.091  27.339  1.00  0.00     0.118 C 
ENDROOT
BRANCH   1   2
ATOM      2  C   UNL A   1      33.309  29.971  25.975  1.00  0.00     0.042 C 
BRANCH   2   3
ATOM      3  C   UNL A   1      31.775  30.040  26.030  1.00  0.00     0.118 C 
BRANCH   3   4
ATOM      4  N   UNL A   1      31.161  30.010  24.713  1.00  0.00    -0.352 N 
ATOM      5  C   UNL A   1      30.984  29.066  23.732  1.00  0.00     0.253 C 
ATOM      6  O   UNL A   1      30.438  29.481  22.706  1.00  0.00    -0.269 OA
ATOM      7  H   UNL A   1      30.777  30.881  24.463  1.00  0.00     0.163 HD
BRANCH   5   8
ATOM      8  C   UNL A   1      31.360  27.648  23.884  1.00  0.00     0.060 A 
ATOM      9  C   UNL A   1      30.680  24.028  23.983  1.00  0.00     0.064 C 
ATOM     10  C   UNL A   1      31.301  25.378  24.023  1.00  0.00     0.016 A 
ATOM     11  C   UNL A   1      30.598  26.536  24.292  1.00  0.00     0.037 A 
ATOM     12  N   UNL A   1      32.620  25.736  23.781  1.00  0.00    -0.339 N 
ATOM     13  C   UNL A   1      32.634  27.126  23.591  1.00  0.00     0.028 A 
ATOM     14  C   UNL A   1      33.820  27.924  23.124  1.00  0.00     0.065 C 
BRANCH  12  15
ATOM     15  C   UNL A   1      33.810  24.874  23.749  1.00  0.00     0.145 C 
ATOM     16  C   UNL A   1      33.690  23.496  23.050  1.00  0.00     0.288 C 
ATOM     17  C   UNL A   1      34.543  24.675  25.109  1.00  0.00     0.029 C 
ATOM     18  N   UNL A   1      34.270  22.391  23.869  1.00  0.00    -0.333 N 
ATOM     19  C   UNL A   1      35.916  24.026  24.802  1.00  0.00     0.067 C 
ATOM     20  C   UNL A   1      33.806  23.652  25.982  1.00  0.00     0.067 C 
ATOM     21  C   UNL A   1      35.705  22.671  24.099  1.00  0.00     0.262 C 
ATOM     22  C   UNL A   1      33.598  22.350  25.187  1.00  0.00     0.262 C 
ATOM     23  H   UNL A   1      34.146  21.505  23.378  1.00  0.00     0.348 HD
ENDBRANCH  12  15
ENDBRANCH   5   8
ENDBRANCH   3   4
ENDBRANCH   2   3
ENDBRANCH   1   2
BRANCH   1  24
ATOM     24  N   UNL A   1      33.857  31.369  27.999  1.00  0.00    -0.352 N 
ATOM     25  C   UNL A   1      34.678  31.986  28.930  1.00  0.00     0.251 C 
ATOM     26  H   UNL A   1      33.044  31.867  27.753  1.00  0.00     0.163 HD
ATOM     27  O   UNL A   1      34.276  33.047  29.408  1.00  0.00    -0.269 OA
BRANCH  25  28
ATOM     28  C   UNL A   1      35.946  31.355  29.458  1.00  0.00     0.039 A 
ATOM     29  C   UNL A   1      37.101  31.504  28.705  1.00  0.00     0.014 A 
ATOM     30  C   UNL A   1      36.017  30.425  30.513  1.00  0.00     0.014 A 
ATOM     31  C   UNL A   1      38.298  30.797  29.038  1.00  0.00     0.010 A 
ATOM     32  C   UNL A   1      37.222  29.637  30.794  1.00  0.00     0.010 A 
ATOM     33  C   UNL A   1      38.418  29.784  30.060  1.00  0.00    -0.014 A 
BRANCH  33  34
ATOM     34  C   UNL A   1      39.577  28.663  29.811  1.00  0.00     0.031 A 
ATOM     35  C   UNL A   1      40.293  28.687  31.126  1.00  0.00     0.074 A 
ATOM     36  C   UNL A   1      40.139  27.806  28.854  1.00  0.00     0.049 A 
ATOM     37  N   UNL A   1      40.774  29.810  31.589  1.00  0.00    -0.248 NA
ATOM     38  C   UNL A   1      40.104  27.643  32.138  1.00  0.00     0.031 C 
ATOM     39  C   UNL A   1      39.802  27.694  27.423  1.00  0.00     0.029 A 
ATOM     40  N   UNL A   1      41.171  26.801  28.920  1.00  0.00    -0.354 N 
ATOM     41  C   UNL A   1      41.240  29.536  32.848  1.00  0.00     0.074 A 
ATOM     42  C   UNL A   1      40.569  28.292  33.212  1.00  0.00     0.031 C 
ATOM     43  C   UNL A   1      40.456  26.656  26.814  1.00  0.00     0.029 A 
ATOM     44  C   UNL A   1      41.366  25.971  27.737  1.00  0.00     0.049 A 
ATOM     45  H   UNL A   1      41.719  26.680  29.730  1.00  0.00     0.167 HD
ATOM     46  C   UNL A   1      42.542  29.871  33.080  1.00  0.00     0.037 A 
ATOM     47  C   UNL A   1      42.232  24.893  27.482  1.00  0.00     0.037 A 
ATOM     48  C   UNL A   1      43.417  28.733  32.963  1.00  0.00     0.049 A 
ATOM     49  C   UNL A   1      43.337  25.046  28.436  1.00  0.00     0.074 A 
ATOM     50  C   UNL A   1      43.332  27.429  33.409  1.00  0.00     0.029 A 
ATOM     51  N   UNL A   1      44.295  28.734  31.900  1.00  0.00    -0.354 N 
ATOM     52  N   UNL A   1      44.276  25.924  28.267  1.00  0.00    -0.248 NA
ATOM     53  C   UNL A   1      43.494  24.161  29.585  1.00  0.00     0.031 C 
ATOM     54  C   UNL A   1      43.684  26.656  32.282  1.00  0.00     0.029 A 
ATOM     55  C   UNL A   1      44.350  27.464  31.369  1.00  0.00     0.049 A 
ATOM     56  H   UNL A   1      44.800  29.514  31.572  1.00  0.00     0.167 HD
ATOM     57  C   UNL A   1      44.801  26.045  29.513  1.00  0.00     0.074 A 
ATOM     58  C   UNL A   1      44.509  24.789  30.182  1.00  0.00     0.031 C 
ATOM     59  C   UNL A   1      44.847  27.298  30.026  1.00  0.00     0.037 A 
BRANCH  46  60
ATOM     60  C   UNL A   1      42.941  31.254  32.651  1.00  0.00     0.058 A 
ATOM     61  C   UNL A   1      43.308  32.180  33.632  1.00  0.00     0.135 A 
ATOM     62  C   UNL A   1      42.941  31.695  31.309  1.00  0.00     0.135 A 
ATOM     63  F   UNL A   1      43.374  31.807  34.921  1.00  0.00    -0.206 F 
ATOM     64  C   UNL A   1      43.624  33.495  33.305  1.00  0.00     0.059 A 
ATOM     65  C   UNL A   1      43.204  33.015  30.965  1.00  0.00     0.059 A 
ATOM     66  F   UNL A   1      42.730  30.829  30.304  1.00  0.00    -0.206 F 
ATOM     67  C   UNL A   1      43.552  33.909  31.973  1.00  0.00     0.060 A 
BRANCH  67  68
ATOM     68  S   UNL A   1      43.912  35.632  31.576  1.00  0.00     0.124 S 
ATOM     69  O   UNL A   1      43.432  36.330  32.776  1.00  0.00    -0.237 OA
ATOM     70  O   UNL A   1      45.372  35.596  31.435  1.00  0.00    -0.237 OA
ATOM     71  O   UNL A   1      43.153  35.884  30.375  1.00  0.00    -0.744 OA
ENDBRANCH  67  68
ENDBRANCH  46  60
BRANCH  47  72
ATOM     72  C   UNL A   1      42.594  23.697  26.511  1.00  0.00     0.058 A 
ATOM     73  C   UNL A   1      43.680  23.803  25.563  1.00  0.00     0.135 A 
ATOM     74  C   UNL A   1      42.219  22.363  26.741  1.00  0.00     0.135 A 
ATOM     75  F   UNL A   1      44.154  24.997  25.178  1.00  0.00    -0.206 F 
ATOM     76  C   UNL A   1      44.397  22.716  25.018  1.00  0.00     0.059 A 
ATOM     77  C   UNL A   1      42.911  21.246  26.175  1.00  0.00     0.059 A 
ATOM     78  F   UNL A   1      41.224  22.092  27.596  1.00  0.00    -0.206 F 
ATOM     79  C   UNL A   1      44.029  21.428  25.356  1.00  0.00     0.060 A 
BRANCH  79  80
ATOM     80  S   UNL A   1      45.102  20.045  24.831  1.00  0.00     0.124 S 
ATOM     81  O   UNL A   1      46.443  20.559  25.091  1.00  0.00    -0.237 OA
ATOM     82  O   UNL A   1      44.665  18.958  25.705  1.00  0.00    -0.237 OA
ATOM     83  O   UNL A   1      44.763  19.869  23.422  1.00  0.00    -0.744 OA
ENDBRANCH  79  80
ENDBRANCH  47  72
BRANCH  59  84
ATOM     84  C   UNL A   1      45.239  28.422  29.080  1.00  0.00     0.058 A 
ATOM     85  C   UNL A   1      46.549  28.887  28.815  1.00  0.00     0.135 A 
ATOM     86  C   UNL A   1      44.200  29.126  28.450  1.00  0.00     0.135 A 
ATOM     87  F   UNL A   1      47.634  28.241  29.263  1.00  0.00    -0.206 F 
ATOM     88  C   UNL A   1      46.795  30.036  28.059  1.00  0.00     0.059 A 
ATOM     89  C   UNL A   1      44.426  30.242  27.645  1.00  0.00     0.059 A 
ATOM     90  F   UNL A   1      42.930  28.723  28.616  1.00  0.00    -0.206 F 
ATOM     91  C   UNL A   1      45.725  30.717  27.489  1.00  0.00     0.060 A 
BRANCH  91  92
ATOM     92  S   UNL A   1      46.049  32.218  26.537  1.00  0.00     0.124 S 
ATOM     93  O   UNL A   1      45.689  33.263  27.492  1.00  0.00    -0.237 OA
ATOM     94  O   UNL A   1      47.472  32.108  26.237  1.00  0.00    -0.237 OA
ATOM     95  O   UNL A   1      45.150  32.093  25.393  1.00  0.00    -0.744 OA
ENDBRANCH  91  92
ENDBRANCH  59  84
ENDBRANCH  33  34
ENDBRANCH  25  28
ENDBRANCH   1  24
TORSDOF 14
ENDMDL
