MODEL 1
REMARK VINA RESULT:     -12.8      0.000      0.000
REMARK SMILES COc1ccc(-n2ccnc2C[N@@H+]2CCn3nc(C(=O)NCCCNC(=O)c4ccc(-c5c6nc(c(-c7c(F)cc(S(=O)(=O)[O-])cc7F)c7ccc([nH]7)c(-c7c(F)cc(S(=O)(=O)[O-])cc7F)c7nc(c(-c8c(F)cc(S(=O)(=O)[O-])cc8F)c8ccc5[nH]8)C=C7)C=C6)cc4)cc3C2)cc1
REMARK SMILES IDX 22 1 21 2 19 3 20 4 18 6 13 7 14 8 96 9 15 11 95 12 16 13
REMARK SMILES IDX 94 14 17 15 12 16 11 17 7 18 8 19 9 20 10 21 6 22 3 23 4 24
REMARK SMILES IDX 98 25 5 26 97 27 2 28 1 29 23 30 24 31 25 32 26 33 27 35
REMARK SMILES IDX 28 36 29 37 93 38 30 39 92 40 31 41 32 42 33 43 86 44 34 45
REMARK SMILES IDX 91 46 85 47 87 48 35 49 90 50 84 51 83 52 36 54 70 55 49 56
REMARK SMILES IDX 69 57 50 58 53 59 68 60 88 61 51 62 52 63 67 65 89 66 54 67
REMARK SMILES IDX 37 68 38 69 47 70 39 71 40 72 46 73 48 74 41 75 42 76 43 77
REMARK SMILES IDX 44 78 45 79 71 80 72 81 81 82 73 83 74 84 80 85 82 86 75 87
REMARK SMILES IDX 76 88 77 89 78 90 79 91 55 92 56 93 65 94 57 95 58 96 64 97
REMARK SMILES IDX 66 98 59 99 60 100 61 101 62 102 63 103
REMARK H PARENT 21 5 13 10 25 34 87 53 53 64
REMARK Flexibility Score: inf
ROOT
ATOM      1  C   UNL A   1      33.006  29.269  25.114  1.00  0.00     0.118 C 
ENDROOT
BRANCH   1   2
ATOM      2  N   UNL A   1      33.192  28.428  23.934  1.00  0.00    -0.351 N 
ATOM      3  C   UNL A   1      32.977  27.084  23.672  1.00  0.00     0.271 C 
ATOM      4  O   UNL A   1      33.147  26.725  22.505  1.00  0.00    -0.267 OA
ATOM      5  H   UNL A   1      33.545  28.921  23.158  1.00  0.00     0.163 HD
BRANCH   3   6
ATOM      6  C   UNL A   1      32.647  26.118  24.741  1.00  0.00     0.150 A 
ATOM      7  N   UNL A   1      31.483  22.259  26.404  1.00  0.00    -0.322 N 
ATOM      8  C   UNL A   1      30.182  22.941  26.592  1.00  0.00     0.286 C 
ATOM      9  C   UNL A   1      32.585  23.112  26.910  1.00  0.00     0.319 C 
ATOM     10  H   UNL A   1      31.364  21.397  26.936  1.00  0.00     0.348 HD
ATOM     11  C   UNL A   1      30.136  24.490  26.565  1.00  0.00     0.206 C 
ATOM     12  C   UNL A   1      32.567  24.398  26.165  1.00  0.00     0.094 A 
ATOM     13  N   UNL A   1      31.376  25.046  26.066  1.00  0.00    -0.257 N 
ATOM     14  C   UNL A   1      33.428  25.078  25.330  1.00  0.00     0.065 A 
ATOM     15  N   UNL A   1      31.420  26.144  25.311  1.00  0.00    -0.167 NA
BRANCH   7  16
ATOM     16  C   UNL A   1      31.834  21.818  25.031  1.00  0.00     0.339 C 
BRANCH  16  17
ATOM     17  C   UNL A   1      32.638  20.570  24.816  1.00  0.00     0.168 A 
ATOM     18  N   UNL A   1      34.029  20.500  24.768  1.00  0.00    -0.299 N 
ATOM     19  C   UNL A   1      34.353  19.164  24.694  1.00  0.00     0.113 A 
ATOM     20  C   UNL A   1      33.166  18.483  24.744  1.00  0.00     0.132 A 
ATOM     21  N   UNL A   1      32.113  19.353  24.778  1.00  0.00    -0.236 NA
BRANCH  18  22
ATOM     22  C   UNL A   1      35.002  21.511  24.937  1.00  0.00     0.047 A 
ATOM     23  C   UNL A   1      37.140  23.286  25.185  1.00  0.00     0.119 A 
ATOM     24  C   UNL A   1      36.787  22.459  26.241  1.00  0.00     0.048 A 
ATOM     25  C   UNL A   1      36.446  23.214  23.985  1.00  0.00     0.048 A 
ATOM     26  C   UNL A   1      35.688  21.602  26.141  1.00  0.00     0.030 A 
ATOM     27  C   UNL A   1      35.394  22.300  23.846  1.00  0.00     0.030 A 
BRANCH  23  28
ATOM     28  O   UNL A   1      38.257  24.061  25.303  1.00  0.00    -0.497 OA
ATOM     29  C   UNL A   1      38.743  24.095  26.647  1.00  0.00     0.278 C 
ENDBRANCH  23  28
ENDBRANCH  18  22
ENDBRANCH  16  17
ENDBRANCH   7  16
ENDBRANCH   3   6
ENDBRANCH   1   2
BRANCH   1  30
ATOM     30  C   UNL A   1      34.121  29.244  26.177  1.00  0.00     0.042 C 
BRANCH  30  31
ATOM     31  C   UNL A   1      33.678  29.530  27.596  1.00  0.00     0.118 C 
BRANCH  31  32
ATOM     32  N   UNL A   1      33.778  30.929  27.982  1.00  0.00    -0.352 N 
ATOM     33  C   UNL A   1      34.766  31.567  28.720  1.00  0.00     0.251 C 
ATOM     34  H   UNL A   1      33.041  31.506  27.676  1.00  0.00     0.163 HD
ATOM     35  O   UNL A   1      34.547  32.682  29.163  1.00  0.00    -0.269 OA
BRANCH  33  36
ATOM     36  C   UNL A   1      36.068  30.897  28.977  1.00  0.00     0.039 A 
ATOM     37  C   UNL A   1      36.121  29.577  29.444  1.00  0.00     0.014 A 
ATOM     38  C   UNL A   1      37.256  31.594  28.789  1.00  0.00     0.014 A 
ATOM     39  C   UNL A   1      37.364  28.989  29.693  1.00  0.00     0.010 A 
ATOM     40  C   UNL A   1      38.468  30.964  28.847  1.00  0.00     0.010 A 
ATOM     41  C   UNL A   1      38.536  29.700  29.397  1.00  0.00    -0.014 A 
BRANCH  41  42
ATOM     42  C   UNL A   1      39.864  29.123  29.562  1.00  0.00     0.031 A 
ATOM     43  C   UNL A   1      40.245  28.942  30.981  1.00  0.00     0.074 A 
ATOM     44  C   UNL A   1      40.558  28.551  28.550  1.00  0.00     0.049 A 
ATOM     45  N   UNL A   1      41.078  29.648  31.671  1.00  0.00    -0.248 NA
ATOM     46  C   UNL A   1      39.469  27.983  31.789  1.00  0.00     0.031 C 
ATOM     47  C   UNL A   1      40.099  28.314  27.171  1.00  0.00     0.029 A 
ATOM     48  N   UNL A   1      41.781  27.950  28.557  1.00  0.00    -0.354 N 
ATOM     49  C   UNL A   1      41.151  29.012  32.906  1.00  0.00     0.074 A 
ATOM     50  C   UNL A   1      39.970  28.199  33.008  1.00  0.00     0.031 C 
ATOM     51  C   UNL A   1      40.912  27.421  26.565  1.00  0.00     0.029 A 
ATOM     52  C   UNL A   1      42.054  27.185  27.426  1.00  0.00     0.049 A 
ATOM     53  H   UNL A   1      42.420  28.048  29.300  1.00  0.00     0.167 HD
ATOM     54  C   UNL A   1      42.339  28.934  33.568  1.00  0.00     0.037 A 
ATOM     55  C   UNL A   1      43.146  26.415  27.199  1.00  0.00     0.037 A 
ATOM     56  C   UNL A   1      43.320  29.785  32.941  1.00  0.00     0.049 A 
ATOM     57  C   UNL A   1      44.225  26.920  28.080  1.00  0.00     0.074 A 
ATOM     58  C   UNL A   1      43.596  31.132  32.892  1.00  0.00     0.029 A 
ATOM     59  N   UNL A   1      43.966  29.194  31.886  1.00  0.00    -0.354 N 
ATOM     60  N   UNL A   1      44.739  28.116  27.976  1.00  0.00    -0.248 NA
ATOM     61  C   UNL A   1      44.508  26.226  29.332  1.00  0.00     0.031 C 
ATOM     62  C   UNL A   1      44.322  31.350  31.683  1.00  0.00     0.029 A 
ATOM     63  C   UNL A   1      44.508  30.128  31.043  1.00  0.00     0.049 A 
ATOM     64  H   UNL A   1      44.032  28.221  31.751  1.00  0.00     0.167 HD
ATOM     65  C   UNL A   1      45.029  28.476  29.277  1.00  0.00     0.074 A 
ATOM     66  C   UNL A   1      45.035  27.232  30.034  1.00  0.00     0.031 C 
ATOM     67  C   UNL A   1      44.899  29.766  29.695  1.00  0.00     0.037 A 
BRANCH  54  68
ATOM     68  C   UNL A   1      42.784  27.776  34.440  1.00  0.00     0.058 A 
ATOM     69  C   UNL A   1      42.909  27.983  35.832  1.00  0.00     0.135 A 
ATOM     70  C   UNL A   1      43.358  26.580  33.956  1.00  0.00     0.135 A 
ATOM     71  F   UNL A   1      42.411  29.090  36.405  1.00  0.00    -0.206 F 
ATOM     72  C   UNL A   1      43.599  27.099  36.664  1.00  0.00     0.059 A 
ATOM     73  C   UNL A   1      44.002  25.659  34.776  1.00  0.00     0.059 A 
ATOM     74  F   UNL A   1      43.413  26.284  32.653  1.00  0.00    -0.206 F 
ATOM     75  C   UNL A   1      44.151  25.942  36.123  1.00  0.00     0.060 A 
BRANCH  75  76
ATOM     76  S   UNL A   1      45.101  24.832  37.176  1.00  0.00     0.124 S 
ATOM     77  O   UNL A   1      46.454  25.341  36.992  1.00  0.00    -0.237 OA
ATOM     78  O   UNL A   1      44.497  25.067  38.484  1.00  0.00    -0.237 OA
ATOM     79  O   UNL A   1      44.836  23.517  36.599  1.00  0.00    -0.744 OA
ENDBRANCH  75  76
ENDBRANCH  54  68
BRANCH  55  80
ATOM     80  C   UNL A   1      43.261  25.133  26.459  1.00  0.00     0.058 A 
ATOM     81  C   UNL A   1      44.116  25.007  25.350  1.00  0.00     0.135 A 
ATOM     82  C   UNL A   1      42.775  23.932  27.011  1.00  0.00     0.135 A 
ATOM     83  F   UNL A   1      44.627  26.102  24.767  1.00  0.00    -0.206 F 
ATOM     84  C   UNL A   1      44.524  23.764  24.859  1.00  0.00     0.059 A 
ATOM     85  C   UNL A   1      43.165  22.679  26.537  1.00  0.00     0.059 A 
ATOM     86  F   UNL A   1      41.981  23.946  28.093  1.00  0.00    -0.206 F 
ATOM     87  C   UNL A   1      44.064  22.603  25.480  1.00  0.00     0.060 A 
BRANCH  87  88
ATOM     88  S   UNL A   1      44.752  21.004  24.979  1.00  0.00     0.124 S 
ATOM     89  O   UNL A   1      46.083  21.048  25.575  1.00  0.00    -0.237 OA
ATOM     90  O   UNL A   1      43.815  20.062  25.582  1.00  0.00    -0.237 OA
ATOM     91  O   UNL A   1      44.719  21.064  23.520  1.00  0.00    -0.744 OA
ENDBRANCH  87  88
ENDBRANCH  55  80
BRANCH  67  92
ATOM     92  C   UNL A   1      45.045  30.858  28.677  1.00  0.00     0.058 A 
ATOM     93  C   UNL A   1      46.250  31.255  28.077  1.00  0.00     0.135 A 
ATOM     94  C   UNL A   1      43.866  31.470  28.227  1.00  0.00     0.135 A 
ATOM     95  F   UNL A   1      47.411  30.672  28.407  1.00  0.00    -0.206 F 
ATOM     96  C   UNL A   1      46.280  32.237  27.082  1.00  0.00     0.059 A 
ATOM     97  C   UNL A   1      43.868  32.427  27.220  1.00  0.00     0.059 A 
ATOM     98  F   UNL A   1      42.680  31.103  28.740  1.00  0.00    -0.206 F 
ATOM     99  C   UNL A   1      45.081  32.814  26.657  1.00  0.00     0.060 A 
BRANCH  99 100
ATOM    100  S   UNL A   1      45.103  34.024  25.317  1.00  0.00     0.124 S 
ATOM    101  O   UNL A   1      46.515  34.385  25.251  1.00  0.00    -0.237 OA
ATOM    102  O   UNL A   1      44.592  33.254  24.186  1.00  0.00    -0.237 OA
ATOM    103  O   UNL A   1      44.211  35.078  25.794  1.00  0.00    -0.744 OA
ENDBRANCH  99 100
ENDBRANCH  67  92
ENDBRANCH  41  42
ENDBRANCH  33  36
ENDBRANCH  31  32
ENDBRANCH  30  31
ENDBRANCH   1  30
TORSDOF 17
ENDMDL
MODEL 2
REMARK VINA RESULT:     -12.7      2.759      9.468
REMARK SMILES COc1ccc(-n2ccnc2C[N@@H+]2CCn3nc(C(=O)NCCCNC(=O)c4ccc(-c5c6nc(c(-c7c(F)cc(S(=O)(=O)[O-])cc7F)c7ccc([nH]7)c(-c7c(F)cc(S(=O)(=O)[O-])cc7F)c7nc(c(-c8c(F)cc(S(=O)(=O)[O-])cc8F)c8ccc5[nH]8)C=C7)C=C6)cc4)cc3C2)cc1
REMARK SMILES IDX 22 1 21 2 19 3 20 4 18 6 13 7 14 8 96 9 15 11 95 12 16 13
REMARK SMILES IDX 94 14 17 15 12 16 11 17 7 18 8 19 9 20 10 21 6 22 3 23 4 24
REMARK SMILES IDX 98 25 5 26 97 27 2 28 1 29 23 30 24 31 25 32 26 33 27 35
REMARK SMILES IDX 28 36 29 37 93 38 30 39 92 40 31 41 32 42 33 43 86 44 34 45
REMARK SMILES IDX 91 46 85 47 87 48 35 49 90 50 84 51 83 52 36 54 70 55 49 56
REMARK SMILES IDX 69 57 50 58 53 59 68 60 88 61 51 62 52 63 67 65 89 66 54 67
REMARK SMILES IDX 37 68 38 69 47 70 39 71 40 72 46 73 48 74 41 75 42 76 43 77
REMARK SMILES IDX 44 78 45 79 71 80 72 81 81 82 73 83 74 84 80 85 82 86 75 87
REMARK SMILES IDX 76 88 77 89 78 90 79 91 55 92 56 93 65 94 57 95 58 96 64 97
REMARK SMILES IDX 66 98 59 99 60 100 61 101 62 102 63 103
REMARK H PARENT 21 5 13 10 25 34 87 53 53 64
REMARK Flexibility Score: inf
ROOT
ATOM      1  C   UNL A   1      36.250  22.022  25.648  1.00  0.00     0.118 C 
ENDROOT
BRANCH   1   2
ATOM      2  N   UNL A   1      35.785  20.674  25.329  1.00  0.00    -0.351 N 
ATOM      3  C   UNL A   1      34.587  20.162  24.859  1.00  0.00     0.271 C 
ATOM      4  O   UNL A   1      34.579  18.957  24.595  1.00  0.00    -0.267 OA
ATOM      5  H   UNL A   1      36.470  19.983  25.480  1.00  0.00     0.163 HD
BRANCH   3   6
ATOM      6  C   UNL A   1      33.364  20.985  24.760  1.00  0.00     0.150 A 
ATOM      7  N   UNL A   1      31.015  24.658  24.847  1.00  0.00    -0.322 N 
ATOM      8  C   UNL A   1      30.574  24.126  26.156  1.00  0.00     0.286 C 
ATOM      9  C   UNL A   1      30.919  23.605  23.808  1.00  0.00     0.319 C 
ATOM     10  H   UNL A   1      30.375  25.436  24.692  1.00  0.00     0.348 HD
ATOM     11  C   UNL A   1      30.769  22.618  26.457  1.00  0.00     0.206 C 
ATOM     12  C   UNL A   1      31.778  22.461  24.213  1.00  0.00     0.094 A 
ATOM     13  N   UNL A   1      31.637  21.993  25.481  1.00  0.00    -0.257 N 
ATOM     14  C   UNL A   1      32.884  21.815  23.702  1.00  0.00     0.065 A 
ATOM     15  N   UNL A   1      32.499  21.027  25.800  1.00  0.00    -0.167 NA
BRANCH   7  16
ATOM     16  C   UNL A   1      32.372  25.258  24.772  1.00  0.00     0.339 C 
BRANCH  16  17
ATOM     17  C   UNL A   1      32.752  26.136  23.617  1.00  0.00     0.168 A 
ATOM     18  N   UNL A   1      32.959  27.513  23.679  1.00  0.00    -0.299 N 
ATOM     19  C   UNL A   1      33.421  27.896  22.440  1.00  0.00     0.113 A 
ATOM     20  C   UNL A   1      33.517  26.749  21.699  1.00  0.00     0.132 A 
ATOM     21  N   UNL A   1      33.066  25.676  22.414  1.00  0.00    -0.236 NA
BRANCH  18  22
ATOM     22  C   UNL A   1      32.912  28.396  24.781  1.00  0.00     0.047 A 
ATOM     23  C   UNL A   1      32.982  30.346  26.774  1.00  0.00     0.119 A 
ATOM     24  C   UNL A   1      34.035  29.456  26.624  1.00  0.00     0.048 A 
ATOM     25  C   UNL A   1      31.897  30.289  25.911  1.00  0.00     0.048 A 
ATOM     26  C   UNL A   1      33.986  28.446  25.660  1.00  0.00     0.030 A 
ATOM     27  C   UNL A   1      31.873  29.332  24.889  1.00  0.00     0.030 A 
BRANCH  23  28
ATOM     28  O   UNL A   1      33.100  31.355  27.686  1.00  0.00    -0.497 OA
ATOM     29  C   UNL A   1      34.467  31.648  27.984  1.00  0.00     0.278 C 
ENDBRANCH  23  28
ENDBRANCH  18  22
ENDBRANCH  16  17
ENDBRANCH   7  16
ENDBRANCH   3   6
ENDBRANCH   1   2
BRANCH   1  30
ATOM     30  C   UNL A   1      37.708  22.366  25.286  1.00  0.00     0.042 C 
BRANCH  30  31
ATOM     31  C   UNL A   1      38.640  22.579  26.461  1.00  0.00     0.118 C 
BRANCH  31  32
ATOM     32  N   UNL A   1      40.005  22.131  26.229  1.00  0.00    -0.352 N 
ATOM     33  C   UNL A   1      41.185  22.861  26.261  1.00  0.00     0.251 C 
ATOM     34  H   UNL A   1      40.106  21.174  26.019  1.00  0.00     0.163 HD
ATOM     35  O   UNL A   1      42.197  22.373  25.785  1.00  0.00    -0.269 OA
BRANCH  33  36
ATOM     36  C   UNL A   1      41.215  24.223  26.856  1.00  0.00     0.039 A 
ATOM     37  C   UNL A   1      40.494  25.279  26.281  1.00  0.00     0.014 A 
ATOM     38  C   UNL A   1      41.996  24.473  27.979  1.00  0.00     0.014 A 
ATOM     39  C   UNL A   1      40.564  26.549  26.859  1.00  0.00     0.010 A 
ATOM     40  C   UNL A   1      41.916  25.660  28.653  1.00  0.00     0.010 A 
ATOM     41  C   UNL A   1      41.289  26.729  28.046  1.00  0.00    -0.014 A 
BRANCH  41  42
ATOM     42  C   UNL A   1      41.344  28.009  28.742  1.00  0.00     0.031 A 
ATOM     43  C   UNL A   1      42.447  28.877  28.272  1.00  0.00     0.074 A 
ATOM     44  C   UNL A   1      40.342  28.474  29.524  1.00  0.00     0.049 A 
ATOM     45  N   UNL A   1      43.560  29.136  28.874  1.00  0.00    -0.248 NA
ATOM     46  C   UNL A   1      42.397  29.367  26.882  1.00  0.00     0.031 C 
ATOM     47  C   UNL A   1      39.017  27.867  29.738  1.00  0.00     0.029 A 
ATOM     48  N   UNL A   1      40.238  29.650  30.206  1.00  0.00    -0.354 N 
ATOM     49  C   UNL A   1      44.198  30.070  28.065  1.00  0.00     0.074 A 
ATOM     50  C   UNL A   1      43.590  29.957  26.768  1.00  0.00     0.031 C 
ATOM     51  C   UNL A   1      38.179  28.778  30.279  1.00  0.00     0.029 A 
ATOM     52  C   UNL A   1      38.949  29.952  30.640  1.00  0.00     0.049 A 
ATOM     53  H   UNL A   1      41.009  30.238  30.377  1.00  0.00     0.167 HD
ATOM     54  C   UNL A   1      44.908  31.090  28.624  1.00  0.00     0.037 A 
ATOM     55  C   UNL A   1      38.537  31.082  31.265  1.00  0.00     0.037 A 
ATOM     56  C   UNL A   1      45.080  30.865  30.038  1.00  0.00     0.049 A 
ATOM     57  C   UNL A   1      39.735  31.702  31.878  1.00  0.00     0.074 A 
ATOM     58  C   UNL A   1      45.862  30.067  30.841  1.00  0.00     0.029 A 
ATOM     59  N   UNL A   1      44.023  31.300  30.795  1.00  0.00    -0.354 N 
ATOM     60  N   UNL A   1      40.433  31.136  32.826  1.00  0.00    -0.248 NA
ATOM     61  C   UNL A   1      40.393  32.812  31.197  1.00  0.00     0.031 C 
ATOM     62  C   UNL A   1      45.159  29.926  32.074  1.00  0.00     0.029 A 
ATOM     63  C   UNL A   1      43.986  30.672  32.012  1.00  0.00     0.049 A 
ATOM     64  H   UNL A   1      43.373  31.979  30.501  1.00  0.00     0.167 HD
ATOM     65  C   UNL A   1      41.732  31.525  32.571  1.00  0.00     0.074 A 
ATOM     66  C   UNL A   1      41.628  32.676  31.686  1.00  0.00     0.031 C 
ATOM     67  C   UNL A   1      42.778  30.685  32.812  1.00  0.00     0.037 A 
BRANCH  54  68
ATOM     68  C   UNL A   1      45.029  32.491  28.056  1.00  0.00     0.058 A 
ATOM     69  C   UNL A   1      46.299  32.947  27.637  1.00  0.00     0.135 A 
ATOM     70  C   UNL A   1      44.037  33.490  28.165  1.00  0.00     0.135 A 
ATOM     71  F   UNL A   1      47.324  32.089  27.507  1.00  0.00    -0.206 F 
ATOM     72  C   UNL A   1      46.572  34.296  27.402  1.00  0.00     0.059 A 
ATOM     73  C   UNL A   1      44.274  34.831  27.883  1.00  0.00     0.059 A 
ATOM     74  F   UNL A   1      42.813  33.240  28.643  1.00  0.00    -0.206 F 
ATOM     75  C   UNL A   1      45.554  35.232  27.537  1.00  0.00     0.060 A 
BRANCH  75  76
ATOM     76  S   UNL A   1      45.914  36.981  27.302  1.00  0.00     0.124 S 
ATOM     77  O   UNL A   1      46.789  36.946  26.137  1.00  0.00    -0.237 OA
ATOM     78  O   UNL A   1      44.583  37.538  27.090  1.00  0.00    -0.237 OA
ATOM     79  O   UNL A   1      46.551  37.362  28.560  1.00  0.00    -0.744 OA
ENDBRANCH  75  76
ENDBRANCH  54  68
BRANCH  55  80
ATOM     80  C   UNL A   1      37.237  31.792  31.171  1.00  0.00     0.058 A 
ATOM     81  C   UNL A   1      36.222  31.579  32.120  1.00  0.00     0.135 A 
ATOM     82  C   UNL A   1      37.082  32.914  30.333  1.00  0.00     0.135 A 
ATOM     83  F   UNL A   1      36.294  30.536  32.960  1.00  0.00    -0.206 F 
ATOM     84  C   UNL A   1      35.153  32.465  32.282  1.00  0.00     0.059 A 
ATOM     85  C   UNL A   1      36.022  33.811  30.472  1.00  0.00     0.059 A 
ATOM     86  F   UNL A   1      38.015  33.222  29.419  1.00  0.00    -0.206 F 
ATOM     87  C   UNL A   1      35.078  33.597  31.470  1.00  0.00     0.060 A 
BRANCH  87  88
ATOM     88  S   UNL A   1      33.814  34.847  31.814  1.00  0.00     0.124 S 
ATOM     89  O   UNL A   1      33.056  34.221  32.892  1.00  0.00    -0.237 OA
ATOM     90  O   UNL A   1      34.619  36.004  32.190  1.00  0.00    -0.237 OA
ATOM     91  O   UNL A   1      33.105  34.970  30.542  1.00  0.00    -0.744 OA
ENDBRANCH  87  88
ENDBRANCH  55  80
BRANCH  67  92
ATOM     92  C   UNL A   1      42.615  29.641  33.876  1.00  0.00     0.058 A 
ATOM     93  C   UNL A   1      42.675  29.871  35.259  1.00  0.00     0.135 A 
ATOM     94  C   UNL A   1      42.290  28.344  33.451  1.00  0.00     0.135 A 
ATOM     95  F   UNL A   1      42.916  31.098  35.745  1.00  0.00    -0.206 F 
ATOM     96  C   UNL A   1      42.440  28.847  36.181  1.00  0.00     0.059 A 
ATOM     97  C   UNL A   1      42.024  27.316  34.348  1.00  0.00     0.059 A 
ATOM     98  F   UNL A   1      42.183  28.073  32.139  1.00  0.00    -0.206 F 
ATOM     99  C   UNL A   1      42.110  27.572  35.713  1.00  0.00     0.060 A 
BRANCH  99 100
ATOM    100  S   UNL A   1      41.726  26.263  36.897  1.00  0.00     0.124 S 
ATOM    101  O   UNL A   1      42.892  26.289  37.773  1.00  0.00    -0.237 OA
ATOM    102  O   UNL A   1      40.476  26.730  37.490  1.00  0.00    -0.237 OA
ATOM    103  O   UNL A   1      41.601  25.072  36.061  1.00  0.00    -0.744 OA
ENDBRANCH  99 100
ENDBRANCH  67  92
ENDBRANCH  41  42
ENDBRANCH  33  36
ENDBRANCH  31  32
ENDBRANCH  30  31
ENDBRANCH   1  30
TORSDOF 17
ENDMDL
MODEL 3
REMARK VINA RESULT:     -12.7      2.913      9.638
REMARK SMILES COc1ccc(-n2ccnc2C[N@@H+]2CCn3nc(C(=O)NCCCNC(=O)c4ccc(-c5c6nc(c(-c7c(F)cc(S(=O)(=O)[O-])cc7F)c7ccc([nH]7)c(-c7c(F)cc(S(=O)(=O)[O-])cc7F)c7nc(c(-c8c(F)cc(S(=O)(=O)[O-])cc8F)c8ccc5[nH]8)C=C7)C=C6)cc4)cc3C2)cc1
REMARK SMILES IDX 22 1 21 2 19 3 20 4 18 6 13 7 14 8 96 9 15 11 95 12 16 13
REMARK SMILES IDX 94 14 17 15 12 16 11 17 7 18 8 19 9 20 10 21 6 22 3 23 4 24
REMARK SMILES IDX 98 25 5 26 97 27 2 28 1 29 23 30 24 31 25 32 26 33 27 35
REMARK SMILES IDX 28 36 29 37 93 38 30 39 92 40 31 41 32 42 33 43 86 44 34 45
REMARK SMILES IDX 91 46 85 47 87 48 35 49 90 50 84 51 83 52 36 54 70 55 49 56
REMARK SMILES IDX 69 57 50 58 53 59 68 60 88 61 51 62 52 63 67 65 89 66 54 67
REMARK SMILES IDX 37 68 38 69 47 70 39 71 40 72 46 73 48 74 41 75 42 76 43 77
REMARK SMILES IDX 44 78 45 79 71 80 72 81 81 82 73 83 74 84 80 85 82 86 75 87
REMARK SMILES IDX 76 88 77 89 78 90 79 91 55 92 56 93 65 94 57 95 58 96 64 97
REMARK SMILES IDX 66 98 59 99 60 100 61 101 62 102 63 103
REMARK H PARENT 21 5 13 10 25 34 87 53 53 64
REMARK Flexibility Score: inf
ROOT
ATOM      1  C   UNL A   1      35.661  21.900  26.075  1.00  0.00     0.118 C 
ENDROOT
BRANCH   1   2
ATOM      2  N   UNL A   1      35.091  20.696  25.473  1.00  0.00    -0.351 N 
ATOM      3  C   UNL A   1      33.917  20.435  24.783  1.00  0.00     0.271 C 
ATOM      4  O   UNL A   1      33.806  19.301  24.312  1.00  0.00    -0.267 OA
ATOM      5  H   UNL A   1      35.663  19.902  25.579  1.00  0.00     0.163 HD
BRANCH   3   6
ATOM      6  C   UNL A   1      32.825  21.425  24.686  1.00  0.00     0.150 A 
ATOM      7  N   UNL A   1      31.052  25.408  24.603  1.00  0.00    -0.322 N 
ATOM      8  C   UNL A   1      30.630  25.047  25.977  1.00  0.00     0.286 C 
ATOM      9  C   UNL A   1      30.729  24.307  23.664  1.00  0.00     0.319 C 
ATOM     10  H   UNL A   1      30.523  26.261  24.422  1.00  0.00     0.348 HD
ATOM     11  C   UNL A   1      30.623  23.554  26.390  1.00  0.00     0.206 C 
ATOM     12  C   UNL A   1      31.438  23.080  24.112  1.00  0.00     0.094 A 
ATOM     13  N   UNL A   1      31.319  22.733  25.421  1.00  0.00    -0.257 N 
ATOM     14  C   UNL A   1      32.398  22.238  23.593  1.00  0.00     0.065 A 
ATOM     15  N   UNL A   1      32.051  21.675  25.769  1.00  0.00    -0.167 NA
BRANCH   7  16
ATOM     16  C   UNL A   1      32.472  25.788  24.399  1.00  0.00     0.339 C 
BRANCH  16  17
ATOM     17  C   UNL A   1      33.028  27.024  25.041  1.00  0.00     0.168 A 
ATOM     18  N   UNL A   1      32.562  28.322  24.838  1.00  0.00    -0.299 N 
ATOM     19  C   UNL A   1      33.254  29.129  25.714  1.00  0.00     0.113 A 
ATOM     20  C   UNL A   1      34.068  28.296  26.434  1.00  0.00     0.132 A 
ATOM     21  N   UNL A   1      33.955  27.009  25.989  1.00  0.00    -0.236 NA
BRANCH  18  22
ATOM     22  C   UNL A   1      31.485  28.795  24.056  1.00  0.00     0.047 A 
ATOM     23  C   UNL A   1      29.547  29.976  22.433  1.00  0.00     0.119 A 
ATOM     24  C   UNL A   1      29.683  30.361  23.759  1.00  0.00     0.048 A 
ATOM     25  C   UNL A   1      30.397  29.018  21.897  1.00  0.00     0.048 A 
ATOM     26  C   UNL A   1      30.618  29.740  24.590  1.00  0.00     0.030 A 
ATOM     27  C   UNL A   1      31.392  28.447  22.700  1.00  0.00     0.030 A 
BRANCH  23  28
ATOM     28  O   UNL A   1      28.665  30.651  21.641  1.00  0.00    -0.497 OA
ATOM     29  C   UNL A   1      28.738  32.064  21.844  1.00  0.00     0.278 C 
ENDBRANCH  23  28
ENDBRANCH  18  22
ENDBRANCH  16  17
ENDBRANCH   7  16
ENDBRANCH   3   6
ENDBRANCH   1   2
BRANCH   1  30
ATOM     30  C   UNL A   1      36.148  23.002  25.116  1.00  0.00     0.042 C 
BRANCH  30  31
ATOM     31  C   UNL A   1      37.538  23.538  25.387  1.00  0.00     0.118 C 
BRANCH  31  32
ATOM     32  N   UNL A   1      38.509  22.518  25.753  1.00  0.00    -0.352 N 
ATOM     33  C   UNL A   1      39.708  22.655  26.439  1.00  0.00     0.251 C 
ATOM     34  H   UNL A   1      38.286  21.600  25.473  1.00  0.00     0.163 HD
ATOM     35  O   UNL A   1      40.510  21.735  26.422  1.00  0.00    -0.269 OA
BRANCH  33  36
ATOM     36  C   UNL A   1      40.018  23.908  27.177  1.00  0.00     0.039 A 
ATOM     37  C   UNL A   1      41.283  24.119  27.743  1.00  0.00     0.014 A 
ATOM     38  C   UNL A   1      39.034  24.876  27.345  1.00  0.00     0.014 A 
ATOM     39  C   UNL A   1      41.528  25.301  28.447  1.00  0.00     0.010 A 
ATOM     40  C   UNL A   1      39.327  26.107  27.863  1.00  0.00     0.010 A 
ATOM     41  C   UNL A   1      40.535  26.288  28.507  1.00  0.00    -0.014 A 
BRANCH  41  42
ATOM     42  C   UNL A   1      40.748  27.574  29.159  1.00  0.00     0.031 A 
ATOM     43  C   UNL A   1      41.838  28.363  28.542  1.00  0.00     0.074 A 
ATOM     44  C   UNL A   1      39.875  28.115  30.041  1.00  0.00     0.049 A 
ATOM     45  N   UNL A   1      43.027  28.563  29.004  1.00  0.00    -0.248 NA
ATOM     46  C   UNL A   1      41.653  28.830  27.156  1.00  0.00     0.031 C 
ATOM     47  C   UNL A   1      38.551  27.595  30.424  1.00  0.00     0.029 A 
ATOM     48  N   UNL A   1      39.922  29.307  30.701  1.00  0.00    -0.354 N 
ATOM     49  C   UNL A   1      43.620  29.442  28.103  1.00  0.00     0.074 A 
ATOM     50  C   UNL A   1      42.857  29.343  26.888  1.00  0.00     0.031 C 
ATOM     51  C   UNL A   1      37.838  28.566  31.036  1.00  0.00     0.029 A 
ATOM     52  C   UNL A   1      38.714  29.696  31.275  1.00  0.00     0.049 A 
ATOM     53  H   UNL A   1      40.742  29.848  30.766  1.00  0.00     0.167 HD
ATOM     54  C   UNL A   1      44.450  30.425  28.549  1.00  0.00     0.037 A 
ATOM     55  C   UNL A   1      38.447  30.861  31.914  1.00  0.00     0.037 A 
ATOM     56  C   UNL A   1      44.774  30.216  29.938  1.00  0.00     0.049 A 
ATOM     57  C   UNL A   1      39.744  31.416  32.368  1.00  0.00     0.074 A 
ATOM     58  C   UNL A   1      45.597  29.385  30.665  1.00  0.00     0.029 A 
ATOM     59  N   UNL A   1      43.842  30.729  30.803  1.00  0.00    -0.354 N 
ATOM     60  N   UNL A   1      40.513  30.825  33.242  1.00  0.00    -0.248 NA
ATOM     61  C   UNL A   1      40.381  32.471  31.588  1.00  0.00     0.031 C 
ATOM     62  C   UNL A   1      45.037  29.310  31.974  1.00  0.00     0.029 A 
ATOM     63  C   UNL A   1      43.911  30.127  32.031  1.00  0.00     0.049 A 
ATOM     64  H   UNL A   1      43.203  31.441  30.570  1.00  0.00     0.167 HD
ATOM     65  C   UNL A   1      41.794  31.128  32.828  1.00  0.00     0.074 A 
ATOM     66  C   UNL A   1      41.655  32.267  31.931  1.00  0.00     0.031 C 
ATOM     67  C   UNL A   1      42.809  30.229  32.965  1.00  0.00     0.037 A 
BRANCH  54  68
ATOM     68  C   UNL A   1      44.587  31.805  27.936  1.00  0.00     0.058 A 
ATOM     69  C   UNL A   1      45.781  32.130  27.254  1.00  0.00     0.135 A 
ATOM     70  C   UNL A   1      43.742  32.899  28.223  1.00  0.00     0.135 A 
ATOM     71  F   UNL A   1      46.667  31.174  26.935  1.00  0.00    -0.206 F 
ATOM     72  C   UNL A   1      46.129  33.444  26.936  1.00  0.00     0.059 A 
ATOM     73  C   UNL A   1      44.044  34.209  27.867  1.00  0.00     0.059 A 
ATOM     74  F   UNL A   1      42.625  32.774  28.949  1.00  0.00    -0.206 F 
ATOM     75  C   UNL A   1      45.257  34.479  27.255  1.00  0.00     0.060 A 
BRANCH  75  76
ATOM     76  S   UNL A   1      45.730  36.182  26.911  1.00  0.00     0.124 S 
ATOM     77  O   UNL A   1      46.468  36.034  25.662  1.00  0.00    -0.237 OA
ATOM     78  O   UNL A   1      44.433  36.842  26.817  1.00  0.00    -0.237 OA
ATOM     79  O   UNL A   1      46.529  36.549  28.077  1.00  0.00    -0.744 OA
ENDBRANCH  75  76
ENDBRANCH  54  68
BRANCH  55  80
ATOM     80  C   UNL A   1      37.189  31.649  31.955  1.00  0.00     0.058 A 
ATOM     81  C   UNL A   1      36.635  32.072  33.176  1.00  0.00     0.135 A 
ATOM     82  C   UNL A   1      36.679  32.260  30.793  1.00  0.00     0.135 A 
ATOM     83  F   UNL A   1      37.068  31.544  34.331  1.00  0.00    -0.206 F 
ATOM     84  C   UNL A   1      35.684  33.094  33.250  1.00  0.00     0.059 A 
ATOM     85  C   UNL A   1      35.727  33.279  30.840  1.00  0.00     0.059 A 
ATOM     86  F   UNL A   1      37.167  31.949  29.583  1.00  0.00    -0.206 F 
ATOM     87  C   UNL A   1      35.256  33.712  32.075  1.00  0.00     0.060 A 
BRANCH  87  88
ATOM     88  S   UNL A   1      34.185  35.167  32.185  1.00  0.00     0.124 S 
ATOM     89  O   UNL A   1      32.999  34.621  32.836  1.00  0.00    -0.237 OA
ATOM     90  O   UNL A   1      34.988  36.083  32.988  1.00  0.00    -0.237 OA
ATOM     91  O   UNL A   1      34.005  35.561  30.789  1.00  0.00    -0.744 OA
ENDBRANCH  87  88
ENDBRANCH  55  80
BRANCH  67  92
ATOM     92  C   UNL A   1      42.711  29.216  34.067  1.00  0.00     0.058 A 
ATOM     93  C   UNL A   1      42.979  29.459  35.424  1.00  0.00     0.135 A 
ATOM     94  C   UNL A   1      42.228  27.945  33.723  1.00  0.00     0.135 A 
ATOM     95  F   UNL A   1      43.382  30.668  35.842  1.00  0.00    -0.206 F 
ATOM     96  C   UNL A   1      42.791  28.470  36.393  1.00  0.00     0.059 A 
ATOM     97  C   UNL A   1      42.006  26.955  34.672  1.00  0.00     0.059 A 
ATOM     98  F   UNL A   1      41.920  27.667  32.445  1.00  0.00    -0.206 F 
ATOM     99  C   UNL A   1      42.299  27.221  36.007  1.00  0.00     0.060 A 
BRANCH  99 100
ATOM    100  S   UNL A   1      41.978  25.965  37.264  1.00  0.00     0.124 S 
ATOM    101  O   UNL A   1      40.564  26.173  37.554  1.00  0.00    -0.237 OA
ATOM    102  O   UNL A   1      42.307  24.726  36.564  1.00  0.00    -0.237 OA
ATOM    103  O   UNL A   1      42.895  26.321  38.344  1.00  0.00    -0.744 OA
ENDBRANCH  99 100
ENDBRANCH  67  92
ENDBRANCH  41  42
ENDBRANCH  33  36
ENDBRANCH  31  32
ENDBRANCH  30  31
ENDBRANCH   1  30
TORSDOF 17
ENDMDL
