MODEL 1
REMARK VINA RESULT:     -13.6      0.000      0.000
REMARK SMILES O=C(NCCCNC(=O)c1cc(N2CCN(c3ccc(F)cc3)CC2)ccc1NC(=O)C1CCCC1)c1ccc(-c2c3nc(c(-c4c(F)cc(S(=O)(=O)[O-])cc4F)c4ccc([nH]4)c(-c4c(F)cc(S(=O)(=O)[O-])cc4F)c4nc(c(-c5c(F)cc(S(=O)(=O)[O-])cc5F)c5ccc2[nH]5)C=C4)C=C3)cc1
REMARK SMILES IDX 4 1 3 2 1 3 2 4 37 6 38 7 102 8 39 9 101 10 40 11 41 12
REMARK SMILES IDX 42 13 95 14 43 15 100 16 94 17 96 18 44 19 99 20 93 21 92 22
REMARK SMILES IDX 45 24 79 25 58 26 78 27 59 28 62 29 77 30 97 31 60 32 61 33
REMARK SMILES IDX 76 35 98 36 63 37 46 38 47 39 56 40 48 41 49 42 55 43 57 44
REMARK SMILES IDX 50 45 51 46 52 47 53 48 54 49 80 50 81 51 90 52 82 53 83 54
REMARK SMILES IDX 89 55 91 56 84 57 85 58 86 59 87 60 88 61 64 62 65 63 74 64
REMARK SMILES IDX 66 65 67 66 73 67 75 68 68 69 69 70 70 71 71 72 72 73 5 74
REMARK SMILES IDX 6 75 7 76 8 77 9 79 10 80 11 81 28 82 12 83 27 84 26 85
REMARK SMILES IDX 29 86 30 87 31 89 32 90 33 91 36 92 34 93 35 94 13 95 14 96
REMARK SMILES IDX 25 97 15 98 24 99 16 100 17 101 18 102 23 103 19 104 22 105
REMARK SMILES IDX 20 106 21 107
REMARK H PARENT 3 5 96 23 62 34 7 78 29 88
REMARK Flexibility Score: inf
ROOT
ATOM      1  C   UNL A   1      35.724  31.078  28.143  1.00  0.00     0.118 C 
ENDROOT
BRANCH   1   2
ATOM      2  N   UNL A   1      35.567  30.754  29.555  1.00  0.00    -0.352 N 
ATOM      3  O   UNL A   1      36.057  29.811  31.539  1.00  0.00    -0.269 OA
ATOM      4  C   UNL A   1      36.437  30.131  30.421  1.00  0.00     0.251 C 
ATOM      5  H   UNL A   1      34.706  31.022  29.950  1.00  0.00     0.163 HD
BRANCH   4   6
ATOM      6  C   UNL A   1      37.820  29.830  29.990  1.00  0.00     0.039 A 
ATOM      7  C   UNL A   1      38.828  29.613  30.930  1.00  0.00     0.014 A 
ATOM      8  C   UNL A   1      38.106  29.741  28.625  1.00  0.00     0.014 A 
ATOM      9  C   UNL A   1      40.144  29.469  30.514  1.00  0.00     0.010 A 
ATOM     10  C   UNL A   1      39.414  29.485  28.205  1.00  0.00     0.010 A 
ATOM     11  C   UNL A   1      40.447  29.367  29.148  1.00  0.00    -0.014 A 
BRANCH  11  12
ATOM     12  C   UNL A   1      41.829  29.011  28.739  1.00  0.00     0.031 A 
ATOM     13  C   UNL A   1      42.915  30.046  28.664  1.00  0.00     0.074 A 
ATOM     14  C   UNL A   1      42.082  27.723  28.429  1.00  0.00     0.049 A 
ATOM     15  N   UNL A   1      44.160  29.897  28.291  1.00  0.00    -0.248 NA
ATOM     16  C   UNL A   1      42.564  31.422  29.046  1.00  0.00     0.031 C 
ATOM     17  C   UNL A   1      41.091  26.642  28.449  1.00  0.00     0.029 A 
ATOM     18  N   UNL A   1      43.239  27.100  28.037  1.00  0.00    -0.354 N 
ATOM     19  C   UNL A   1      44.735  31.160  28.363  1.00  0.00     0.074 A 
ATOM     20  C   UNL A   1      43.701  32.068  28.812  1.00  0.00     0.031 C 
ATOM     21  C   UNL A   1      41.684  25.490  28.110  1.00  0.00     0.029 A 
ATOM     22  C   UNL A   1      43.076  25.759  27.777  1.00  0.00     0.049 A 
ATOM     23  H   UNL A   1      44.101  27.567  27.951  1.00  0.00     0.167 HD
ATOM     24  C   UNL A   1      46.010  31.519  28.079  1.00  0.00     0.037 A 
ATOM     25  C   UNL A   1      43.936  24.852  27.280  1.00  0.00     0.037 A 
ATOM     26  C   UNL A   1      47.033  30.592  27.661  1.00  0.00     0.049 A 
ATOM     27  C   UNL A   1      45.335  25.289  26.950  1.00  0.00     0.074 A 
ATOM     28  C   UNL A   1      48.375  30.843  27.435  1.00  0.00     0.029 A 
ATOM     29  N   UNL A   1      46.825  29.248  27.390  1.00  0.00    -0.354 N 
ATOM     30  N   UNL A   1      45.880  26.472  27.099  1.00  0.00    -0.248 NA
ATOM     31  C   UNL A   1      46.228  24.276  26.376  1.00  0.00     0.031 C 
ATOM     32  C   UNL A   1      48.966  29.664  26.970  1.00  0.00     0.029 A 
ATOM     33  C   UNL A   1      48.005  28.666  26.954  1.00  0.00     0.049 A 
ATOM     34  H   UNL A   1      45.967  28.777  27.492  1.00  0.00     0.167 HD
ATOM     35  C   UNL A   1      47.184  26.345  26.639  1.00  0.00     0.074 A 
ATOM     36  C   UNL A   1      47.353  24.964  26.234  1.00  0.00     0.031 C 
ATOM     37  C   UNL A   1      48.152  27.290  26.552  1.00  0.00     0.037 A 
BRANCH  24  38
ATOM     38  C   UNL A   1      46.387  32.970  28.183  1.00  0.00     0.058 A 
ATOM     39  C   UNL A   1      46.957  33.508  29.348  1.00  0.00     0.135 A 
ATOM     40  C   UNL A   1      46.270  33.812  27.064  1.00  0.00     0.135 A 
ATOM     41  F   UNL A   1      47.081  32.754  30.451  1.00  0.00    -0.206 F 
ATOM     42  C   UNL A   1      47.393  34.829  29.400  1.00  0.00     0.059 A 
ATOM     43  C   UNL A   1      46.719  35.130  27.087  1.00  0.00     0.059 A 
ATOM     44  F   UNL A   1      45.731  33.348  25.925  1.00  0.00    -0.206 F 
ATOM     45  C   UNL A   1      47.275  35.630  28.262  1.00  0.00     0.060 A 
BRANCH  45  46
ATOM     46  S   UNL A   1      47.885  37.329  28.336  1.00  0.00     0.124 S 
ATOM     47  O   UNL A   1      46.637  38.083  28.416  1.00  0.00    -0.237 OA
ATOM     48  O   UNL A   1      48.694  37.317  29.550  1.00  0.00    -0.237 OA
ATOM     49  O   UNL A   1      48.629  37.481  27.090  1.00  0.00    -0.744 OA
ENDBRANCH  45  46
ENDBRANCH  24  38
BRANCH  25  50
ATOM     50  C   UNL A   1      43.478  23.464  27.016  1.00  0.00     0.058 A 
ATOM     51  C   UNL A   1      43.303  22.543  28.058  1.00  0.00     0.135 A 
ATOM     52  C   UNL A   1      43.194  23.036  25.708  1.00  0.00     0.135 A 
ATOM     53  F   UNL A   1      43.563  22.905  29.323  1.00  0.00    -0.206 F 
ATOM     54  C   UNL A   1      42.887  21.240  27.812  1.00  0.00     0.059 A 
ATOM     55  C   UNL A   1      42.748  21.747  25.441  1.00  0.00     0.059 A 
ATOM     56  F   UNL A   1      43.326  23.886  24.677  1.00  0.00    -0.206 F 
ATOM     57  C   UNL A   1      42.613  20.850  26.499  1.00  0.00     0.060 A 
BRANCH  57  58
ATOM     58  S   UNL A   1      42.051  19.163  26.191  1.00  0.00     0.124 S 
ATOM     59  O   UNL A   1      40.649  19.380  25.856  1.00  0.00    -0.237 OA
ATOM     60  O   UNL A   1      42.915  18.747  25.090  1.00  0.00    -0.237 OA
ATOM     61  O   UNL A   1      42.301  18.489  27.461  1.00  0.00    -0.744 OA
ENDBRANCH  57  58
ENDBRANCH  25  50
BRANCH  37  62
ATOM     62  C   UNL A   1      49.482  26.862  26.002  1.00  0.00     0.058 A 
ATOM     63  C   UNL A   1      49.800  27.033  24.647  1.00  0.00     0.135 A 
ATOM     64  C   UNL A   1      50.469  26.334  26.849  1.00  0.00     0.135 A 
ATOM     65  F   UNL A   1      48.884  27.520  23.794  1.00  0.00    -0.206 F 
ATOM     66  C   UNL A   1      51.049  26.688  24.146  1.00  0.00     0.059 A 
ATOM     67  C   UNL A   1      51.734  26.007  26.376  1.00  0.00     0.059 A 
ATOM     68  F   UNL A   1      50.215  26.156  28.155  1.00  0.00    -0.206 F 
ATOM     69  C   UNL A   1      52.013  26.182  25.021  1.00  0.00     0.060 A 
BRANCH  69  70
ATOM     70  S   UNL A   1      53.651  25.794  24.369  1.00  0.00     0.124 S 
ATOM     71  O   UNL A   1      53.444  25.955  22.934  1.00  0.00    -0.237 OA
ATOM     72  O   UNL A   1      54.488  26.806  25.006  1.00  0.00    -0.237 OA
ATOM     73  O   UNL A   1      53.880  24.425  24.820  1.00  0.00    -0.744 OA
ENDBRANCH  69  70
ENDBRANCH  37  62
ENDBRANCH  11  12
ENDBRANCH   4   6
ENDBRANCH   1   2
BRANCH   1  74
ATOM     74  C   UNL A   1      34.505  30.719  27.306  1.00  0.00     0.042 C 
BRANCH  74  75
ATOM     75  C   UNL A   1      34.308  29.228  27.106  1.00  0.00     0.118 C 
BRANCH  75  76
ATOM     76  N   UNL A   1      33.132  28.720  27.802  1.00  0.00    -0.352 N 
ATOM     77  C   UNL A   1      32.032  28.057  27.328  1.00  0.00     0.253 C 
ATOM     78  H   UNL A   1      33.129  28.880  28.773  1.00  0.00     0.163 HD
ATOM     79  O   UNL A   1      31.068  27.894  28.074  1.00  0.00    -0.269 OA
BRANCH  77  80
ATOM     80  C   UNL A   1      31.981  27.502  25.956  1.00  0.00     0.065 A 
ATOM     81  C   UNL A   1      32.347  26.141  25.827  1.00  0.00     0.042 A 
ATOM     82  C   UNL A   1      31.719  28.291  24.816  1.00  0.00     0.054 A 
ATOM     83  C   UNL A   1      32.490  25.544  24.573  1.00  0.00     0.038 A 
ATOM     84  C   UNL A   1      31.859  27.672  23.577  1.00  0.00     0.029 A 
ATOM     85  C   UNL A   1      32.208  26.328  23.460  1.00  0.00     0.028 A 
BRANCH  82  86
ATOM     86  N   UNL A   1      31.377  29.659  24.945  1.00  0.00    -0.325 N 
ATOM     87  C   UNL A   1      30.398  30.430  24.366  1.00  0.00     0.227 C 
ATOM     88  H   UNL A   1      31.952  30.154  25.573  1.00  0.00     0.169 HD
ATOM     89  O   UNL A   1      30.263  31.590  24.763  1.00  0.00    -0.274 OA
BRANCH  87  90
ATOM     90  C   UNL A   1      29.505  29.859  23.289  1.00  0.00     0.079 C 
ATOM     91  C   UNL A   1      28.043  29.604  23.636  1.00  0.00     0.013 C 
ATOM     92  C   UNL A   1      29.356  30.856  22.140  1.00  0.00     0.013 C 
ATOM     93  C   UNL A   1      27.442  29.363  22.248  1.00  0.00     0.001 C 
ATOM     94  C   UNL A   1      28.238  30.262  21.295  1.00  0.00     0.001 C 
ENDBRANCH  87  90
ENDBRANCH  82  86
BRANCH  83  95
ATOM     95  N   UNL A   1      33.013  24.279  24.432  1.00  0.00    -0.368 N 
ATOM     96  C   UNL A   1      33.222  23.382  25.584  1.00  0.00     0.138 C 
ATOM     97  C   UNL A   1      32.947  23.621  23.117  1.00  0.00     0.138 C 
ATOM     98  C   UNL A   1      32.235  22.174  25.563  1.00  0.00     0.138 C 
ATOM     99  C   UNL A   1      31.899  22.494  23.118  1.00  0.00     0.138 C 
ATOM    100  N   UNL A   1      32.152  21.556  24.220  1.00  0.00    -0.368 N 
BRANCH 100 101
ATOM    101  C   UNL A   1      32.693  20.312  23.972  1.00  0.00     0.037 A 
ATOM    102  C   UNL A   1      33.787  19.855  24.721  1.00  0.00     0.029 A 
ATOM    103  C   UNL A   1      32.150  19.439  23.014  1.00  0.00     0.029 A 
ATOM    104  C   UNL A   1      34.301  18.566  24.542  1.00  0.00     0.041 A 
ATOM    105  C   UNL A   1      32.669  18.157  22.817  1.00  0.00     0.041 A 
ATOM    106  C   UNL A   1      33.736  17.729  23.590  1.00  0.00     0.123 A 
ATOM    107  F   UNL A   1      34.221  16.493  23.419  1.00  0.00    -0.207 F 
ENDBRANCH 100 101
ENDBRANCH  83  95
ENDBRANCH  77  80
ENDBRANCH  75  76
ENDBRANCH  74  75
ENDBRANCH   1  74
TORSDOF 17
ENDMDL
MODEL 2
REMARK VINA RESULT:     -13.2      0.894      1.572
REMARK SMILES O=C(NCCCNC(=O)c1cc(N2CCN(c3ccc(F)cc3)CC2)ccc1NC(=O)C1CCCC1)c1ccc(-c2c3nc(c(-c4c(F)cc(S(=O)(=O)[O-])cc4F)c4ccc([nH]4)c(-c4c(F)cc(S(=O)(=O)[O-])cc4F)c4nc(c(-c5c(F)cc(S(=O)(=O)[O-])cc5F)c5ccc2[nH]5)C=C4)C=C3)cc1
REMARK SMILES IDX 4 1 3 2 1 3 2 4 37 6 38 7 102 8 39 9 101 10 40 11 41 12
REMARK SMILES IDX 42 13 95 14 43 15 100 16 94 17 96 18 44 19 99 20 93 21 92 22
REMARK SMILES IDX 45 24 79 25 58 26 78 27 59 28 62 29 77 30 97 31 60 32 61 33
REMARK SMILES IDX 76 35 98 36 63 37 46 38 47 39 56 40 48 41 49 42 55 43 57 44
REMARK SMILES IDX 50 45 51 46 52 47 53 48 54 49 80 50 81 51 90 52 82 53 83 54
REMARK SMILES IDX 89 55 91 56 84 57 85 58 86 59 87 60 88 61 64 62 65 63 74 64
REMARK SMILES IDX 66 65 67 66 73 67 75 68 68 69 69 70 70 71 71 72 72 73 5 74
REMARK SMILES IDX 6 75 7 76 8 77 9 79 10 80 11 81 28 82 12 83 27 84 26 85
REMARK SMILES IDX 29 86 30 87 31 89 32 90 33 91 36 92 34 93 35 94 13 95 14 96
REMARK SMILES IDX 25 97 15 98 24 99 16 100 17 101 18 102 23 103 19 104 22 105
REMARK SMILES IDX 20 106 21 107
REMARK H PARENT 3 5 96 23 62 34 7 78 29 88
REMARK Flexibility Score: inf
ROOT
ATOM      1  C   UNL A   1      35.456  30.792  28.068  1.00  0.00     0.118 C 
ENDROOT
BRANCH   1   2
ATOM      2  N   UNL A   1      35.393  31.051  29.500  1.00  0.00    -0.352 N 
ATOM      3  O   UNL A   1      36.037  30.983  31.656  1.00  0.00    -0.269 OA
ATOM      4  C   UNL A   1      36.338  30.842  30.478  1.00  0.00     0.251 C 
ATOM      5  H   UNL A   1      34.544  31.435  29.817  1.00  0.00     0.163 HD
BRANCH   4   6
ATOM      6  C   UNL A   1      37.708  30.425  30.106  1.00  0.00     0.039 A 
ATOM      7  C   UNL A   1      38.178  30.604  28.804  1.00  0.00     0.014 A 
ATOM      8  C   UNL A   1      38.541  29.869  31.080  1.00  0.00     0.014 A 
ATOM      9  C   UNL A   1      39.411  30.084  28.435  1.00  0.00     0.010 A 
ATOM     10  C   UNL A   1      39.828  29.445  30.733  1.00  0.00     0.010 A 
ATOM     11  C   UNL A   1      40.265  29.533  29.403  1.00  0.00    -0.014 A 
BRANCH  11  12
ATOM     12  C   UNL A   1      41.652  29.171  29.019  1.00  0.00     0.031 A 
ATOM     13  C   UNL A   1      42.751  30.195  28.997  1.00  0.00     0.074 A 
ATOM     14  C   UNL A   1      41.899  27.889  28.681  1.00  0.00     0.049 A 
ATOM     15  N   UNL A   1      44.004  30.041  28.651  1.00  0.00    -0.248 NA
ATOM     16  C   UNL A   1      42.407  31.565  29.407  1.00  0.00     0.031 C 
ATOM     17  C   UNL A   1      40.895  26.820  28.649  1.00  0.00     0.029 A 
ATOM     18  N   UNL A   1      43.057  27.262  28.302  1.00  0.00    -0.354 N 
ATOM     19  C   UNL A   1      44.590  31.295  28.771  1.00  0.00     0.074 A 
ATOM     20  C   UNL A   1      43.556  32.203  29.217  1.00  0.00     0.031 C 
ATOM     21  C   UNL A   1      41.483  25.669  28.295  1.00  0.00     0.029 A 
ATOM     22  C   UNL A   1      42.886  25.931  28.003  1.00  0.00     0.049 A 
ATOM     23  H   UNL A   1      43.926  27.721  28.249  1.00  0.00     0.167 HD
ATOM     24  C   UNL A   1      45.876  31.646  28.527  1.00  0.00     0.037 A 
ATOM     25  C   UNL A   1      43.748  25.027  27.504  1.00  0.00     0.037 A 
ATOM     26  C   UNL A   1      46.898  30.718  28.110  1.00  0.00     0.049 A 
ATOM     27  C   UNL A   1      45.159  25.455  27.220  1.00  0.00     0.074 A 
ATOM     28  C   UNL A   1      48.248  30.958  27.924  1.00  0.00     0.029 A 
ATOM     29  N   UNL A   1      46.682  29.383  27.799  1.00  0.00    -0.354 N 
ATOM     30  N   UNL A   1      45.714  26.627  27.413  1.00  0.00    -0.248 NA
ATOM     31  C   UNL A   1      46.055  24.447  26.642  1.00  0.00     0.031 C 
ATOM     32  C   UNL A   1      48.838  29.785  27.444  1.00  0.00     0.029 A 
ATOM     33  C   UNL A   1      47.866  28.799  27.378  1.00  0.00     0.049 A 
ATOM     34  H   UNL A   1      45.817  28.920  27.868  1.00  0.00     0.167 HD
ATOM     35  C   UNL A   1      47.027  26.497  26.982  1.00  0.00     0.074 A 
ATOM     36  C   UNL A   1      47.191  25.125  26.545  1.00  0.00     0.031 C 
ATOM     37  C   UNL A   1      48.007  27.432  26.944  1.00  0.00     0.037 A 
BRANCH  24  38
ATOM     38  C   UNL A   1      46.267  33.089  28.679  1.00  0.00     0.058 A 
ATOM     39  C   UNL A   1      46.775  33.599  29.884  1.00  0.00     0.135 A 
ATOM     40  C   UNL A   1      46.227  33.951  27.570  1.00  0.00     0.135 A 
ATOM     41  F   UNL A   1      46.824  32.824  30.979  1.00  0.00    -0.206 F 
ATOM     42  C   UNL A   1      47.226  34.913  29.984  1.00  0.00     0.059 A 
ATOM     43  C   UNL A   1      46.692  35.261  27.641  1.00  0.00     0.059 A 
ATOM     44  F   UNL A   1      45.750  33.514  26.393  1.00  0.00    -0.206 F 
ATOM     45  C   UNL A   1      47.186  35.734  28.855  1.00  0.00     0.060 A 
BRANCH  45  46
ATOM     46  S   UNL A   1      47.814  37.422  28.995  1.00  0.00     0.124 S 
ATOM     47  O   UNL A   1      47.733  37.878  27.611  1.00  0.00    -0.237 OA
ATOM     48  O   UNL A   1      46.863  38.033  29.918  1.00  0.00    -0.237 OA
ATOM     49  O   UNL A   1      49.165  37.242  29.517  1.00  0.00    -0.744 OA
ENDBRANCH  45  46
ENDBRANCH  24  38
BRANCH  25  50
ATOM     50  C   UNL A   1      43.281  23.652  27.192  1.00  0.00     0.058 A 
ATOM     51  C   UNL A   1      43.074  22.705  28.205  1.00  0.00     0.135 A 
ATOM     52  C   UNL A   1      43.021  23.262  25.867  1.00  0.00     0.135 A 
ATOM     53  F   UNL A   1      43.310  23.030  29.485  1.00  0.00    -0.206 F 
ATOM     54  C   UNL A   1      42.649  21.413  27.915  1.00  0.00     0.059 A 
ATOM     55  C   UNL A   1      42.567  21.986  25.557  1.00  0.00     0.059 A 
ATOM     56  F   UNL A   1      43.184  24.137  24.863  1.00  0.00    -0.206 F 
ATOM     57  C   UNL A   1      42.399  21.062  26.587  1.00  0.00     0.060 A 
BRANCH  57  58
ATOM     58  S   UNL A   1      41.827  19.391  26.221  1.00  0.00     0.124 S 
ATOM     59  O   UNL A   1      42.554  19.096  24.992  1.00  0.00    -0.237 OA
ATOM     60  O   UNL A   1      42.250  18.653  27.407  1.00  0.00    -0.237 OA
ATOM     61  O   UNL A   1      40.383  19.554  26.077  1.00  0.00    -0.744 OA
ENDBRANCH  57  58
ENDBRANCH  25  50
BRANCH  37  62
ATOM     62  C   UNL A   1      49.346  27.003  26.416  1.00  0.00     0.058 A 
ATOM     63  C   UNL A   1      50.294  26.389  27.247  1.00  0.00     0.135 A 
ATOM     64  C   UNL A   1      49.659  27.150  25.056  1.00  0.00     0.135 A 
ATOM     65  F   UNL A   1      50.048  26.239  28.559  1.00  0.00    -0.206 F 
ATOM     66  C   UNL A   1      51.513  25.941  26.750  1.00  0.00     0.059 A 
ATOM     67  C   UNL A   1      50.860  26.686  24.531  1.00  0.00     0.059 A 
ATOM     68  F   UNL A   1      48.782  27.727  24.219  1.00  0.00    -0.206 F 
ATOM     69  C   UNL A   1      51.783  26.088  25.388  1.00  0.00     0.060 A 
BRANCH  69  70
ATOM     70  S   UNL A   1      53.344  25.448  24.744  1.00  0.00     0.124 S 
ATOM     71  O   UNL A   1      54.314  26.304  25.419  1.00  0.00    -0.237 OA
ATOM     72  O   UNL A   1      53.314  24.056  25.181  1.00  0.00    -0.237 OA
ATOM     73  O   UNL A   1      53.224  25.649  23.304  1.00  0.00    -0.744 OA
ENDBRANCH  69  70
ENDBRANCH  37  62
ENDBRANCH  11  12
ENDBRANCH   4   6
ENDBRANCH   1   2
BRANCH   1  74
ATOM     74  C   UNL A   1      35.255  29.327  27.714  1.00  0.00     0.042 C 
BRANCH  74  75
ATOM     75  C   UNL A   1      34.029  29.057  26.860  1.00  0.00     0.118 C 
BRANCH  75  76
ATOM     76  N   UNL A   1      34.288  29.235  25.437  1.00  0.00    -0.352 N 
ATOM     77  C   UNL A   1      33.786  28.572  24.349  1.00  0.00     0.253 C 
ATOM     78  H   UNL A   1      34.929  29.950  25.222  1.00  0.00     0.163 HD
ATOM     79  O   UNL A   1      34.295  28.765  23.247  1.00  0.00    -0.269 OA
BRANCH  77  80
ATOM     80  C   UNL A   1      32.628  27.656  24.456  1.00  0.00     0.065 A 
ATOM     81  C   UNL A   1      32.895  26.290  24.199  1.00  0.00     0.042 A 
ATOM     82  C   UNL A   1      31.307  28.105  24.665  1.00  0.00     0.054 A 
ATOM     83  C   UNL A   1      31.865  25.351  24.115  1.00  0.00     0.038 A 
ATOM     84  C   UNL A   1      30.297  27.151  24.585  1.00  0.00     0.029 A 
ATOM     85  C   UNL A   1      30.571  25.807  24.345  1.00  0.00     0.028 A 
BRANCH  82  86
ATOM     86  N   UNL A   1      31.037  29.477  24.897  1.00  0.00    -0.325 N 
ATOM     87  C   UNL A   1      30.222  30.382  24.264  1.00  0.00     0.227 C 
ATOM     88  H   UNL A   1      31.530  29.853  25.662  1.00  0.00     0.169 HD
ATOM     89  O   UNL A   1      30.096  31.501  24.768  1.00  0.00    -0.274 OA
BRANCH  87  90
ATOM     90  C   UNL A   1      29.486  30.004  22.999  1.00  0.00     0.079 C 
ATOM     91  C   UNL A   1      28.102  29.383  23.137  1.00  0.00     0.013 C 
ATOM     92  C   UNL A   1      29.159  31.253  22.182  1.00  0.00     0.013 C 
ATOM     93  C   UNL A   1      27.591  29.462  21.696  1.00  0.00     0.001 C 
ATOM     94  C   UNL A   1      28.204  30.741  21.113  1.00  0.00     0.001 C 
ENDBRANCH  87  90
ENDBRANCH  82  86
BRANCH  83  95
ATOM     95  N   UNL A   1      32.096  24.061  23.694  1.00  0.00    -0.368 N 
ATOM     96  C   UNL A   1      33.411  23.624  23.190  1.00  0.00     0.138 C 
ATOM     97  C   UNL A   1      31.202  22.988  24.158  1.00  0.00     0.138 C 
ATOM     98  C   UNL A   1      34.111  22.640  24.179  1.00  0.00     0.138 C 
ATOM     99  C   UNL A   1      31.906  22.096  25.195  1.00  0.00     0.138 C 
ATOM    100  N   UNL A   1      33.182  21.595  24.665  1.00  0.00    -0.368 N 
BRANCH 100 101
ATOM    101  C   UNL A   1      33.306  20.284  24.257  1.00  0.00     0.037 A 
ATOM    102  C   UNL A   1      34.367  19.495  24.724  1.00  0.00     0.029 A 
ATOM    103  C   UNL A   1      32.363  19.672  23.414  1.00  0.00     0.029 A 
ATOM    104  C   UNL A   1      34.469  18.141  24.388  1.00  0.00     0.041 A 
ATOM    105  C   UNL A   1      32.466  18.325  23.059  1.00  0.00     0.041 A 
ATOM    106  C   UNL A   1      33.516  17.569  23.557  1.00  0.00     0.123 A 
ATOM    107  F   UNL A   1      33.605  16.272  23.238  1.00  0.00    -0.207 F 
ENDBRANCH 100 101
ENDBRANCH  83  95
ENDBRANCH  77  80
ENDBRANCH  75  76
ENDBRANCH  74  75
ENDBRANCH   1  74
TORSDOF 17
ENDMDL
MODEL 3
REMARK VINA RESULT:     -13.2      5.105      6.920
REMARK SMILES O=C(NCCCNC(=O)c1cc(N2CCN(c3ccc(F)cc3)CC2)ccc1NC(=O)C1CCCC1)c1ccc(-c2c3nc(c(-c4c(F)cc(S(=O)(=O)[O-])cc4F)c4ccc([nH]4)c(-c4c(F)cc(S(=O)(=O)[O-])cc4F)c4nc(c(-c5c(F)cc(S(=O)(=O)[O-])cc5F)c5ccc2[nH]5)C=C4)C=C3)cc1
REMARK SMILES IDX 4 1 3 2 1 3 2 4 37 6 38 7 102 8 39 9 101 10 40 11 41 12
REMARK SMILES IDX 42 13 95 14 43 15 100 16 94 17 96 18 44 19 99 20 93 21 92 22
REMARK SMILES IDX 45 24 79 25 58 26 78 27 59 28 62 29 77 30 97 31 60 32 61 33
REMARK SMILES IDX 76 35 98 36 63 37 46 38 47 39 56 40 48 41 49 42 55 43 57 44
REMARK SMILES IDX 50 45 51 46 52 47 53 48 54 49 80 50 81 51 90 52 82 53 83 54
REMARK SMILES IDX 89 55 91 56 84 57 85 58 86 59 87 60 88 61 64 62 65 63 74 64
REMARK SMILES IDX 66 65 67 66 73 67 75 68 68 69 69 70 70 71 71 72 72 73 5 74
REMARK SMILES IDX 6 75 7 76 8 77 9 79 10 80 11 81 28 82 12 83 27 84 26 85
REMARK SMILES IDX 29 86 30 87 31 89 32 90 33 91 36 92 34 93 35 94 13 95 14 96
REMARK SMILES IDX 25 97 15 98 24 99 16 100 17 101 18 102 23 103 19 104 22 105
REMARK SMILES IDX 20 106 21 107
REMARK H PARENT 3 5 96 23 62 34 7 78 29 88
REMARK Flexibility Score: inf
ROOT
ATOM      1  C   UNL A   1      33.874  28.877  26.421  1.00  0.00     0.118 C 
ENDROOT
BRANCH   1   2
ATOM      2  N   UNL A   1      33.606  30.296  26.617  1.00  0.00    -0.352 N 
ATOM      3  O   UNL A   1      33.764  32.330  27.569  1.00  0.00    -0.269 OA
ATOM      4  C   UNL A   1      34.239  31.211  27.429  1.00  0.00     0.251 C 
ATOM      5  H   UNL A   1      32.859  30.655  26.088  1.00  0.00     0.163 HD
BRANCH   4   6
ATOM      6  C   UNL A   1      35.476  30.831  28.146  1.00  0.00     0.039 A 
ATOM      7  C   UNL A   1      36.640  31.588  28.008  1.00  0.00     0.014 A 
ATOM      8  C   UNL A   1      35.463  29.715  28.987  1.00  0.00     0.014 A 
ATOM      9  C   UNL A   1      37.827  31.145  28.576  1.00  0.00     0.010 A 
ATOM     10  C   UNL A   1      36.633  29.331  29.648  1.00  0.00     0.010 A 
ATOM     11  C   UNL A   1      37.829  30.032  29.431  1.00  0.00    -0.014 A 
BRANCH  11  12
ATOM     12  C   UNL A   1      39.066  29.702  30.182  1.00  0.00     0.031 A 
ATOM     13  C   UNL A   1      39.410  30.394  31.469  1.00  0.00     0.074 A 
ATOM     14  C   UNL A   1      39.883  28.761  29.666  1.00  0.00     0.049 A 
ATOM     15  N   UNL A   1      40.470  30.241  32.221  1.00  0.00    -0.248 NA
ATOM     16  C   UNL A   1      38.453  31.388  31.979  1.00  0.00     0.031 C 
ATOM     17  C   UNL A   1      39.652  28.043  28.408  1.00  0.00     0.029 A 
ATOM     18  N   UNL A   1      41.066  28.243  30.126  1.00  0.00    -0.354 N 
ATOM     19  C   UNL A   1      40.325  31.136  33.274  1.00  0.00     0.074 A 
ATOM     20  C   UNL A   1      39.076  31.835  33.064  1.00  0.00     0.031 C 
ATOM     21  C   UNL A   1      40.644  27.165  28.209  1.00  0.00     0.029 A 
ATOM     22  C   UNL A   1      41.619  27.308  29.282  1.00  0.00     0.049 A 
ATOM     23  H   UNL A   1      41.480  28.514  30.977  1.00  0.00     0.167 HD
ATOM     24  C   UNL A   1      41.164  31.348  34.316  1.00  0.00     0.037 A 
ATOM     25  C   UNL A   1      42.800  26.668  29.336  1.00  0.00     0.037 A 
ATOM     26  C   UNL A   1      42.392  30.619  34.523  1.00  0.00     0.049 A 
ATOM     27  C   UNL A   1      43.719  26.945  30.491  1.00  0.00     0.074 A 
ATOM     28  C   UNL A   1      43.265  30.698  35.593  1.00  0.00     0.029 A 
ATOM     29  N   UNL A   1      42.926  29.695  33.637  1.00  0.00    -0.354 N 
ATOM     30  N   UNL A   1      43.529  27.739  31.517  1.00  0.00    -0.248 NA
ATOM     31  C   UNL A   1      45.013  26.253  30.491  1.00  0.00     0.031 C 
ATOM     32  C   UNL A   1      44.357  29.866  35.328  1.00  0.00     0.029 A 
ATOM     33  C   UNL A   1      44.141  29.230  34.115  1.00  0.00     0.049 A 
ATOM     34  H   UNL A   1      42.505  29.411  32.794  1.00  0.00     0.167 HD
ATOM     35  C   UNL A   1      44.679  27.640  32.288  1.00  0.00     0.074 A 
ATOM     36  C   UNL A   1      45.547  26.688  31.624  1.00  0.00     0.031 C 
ATOM     37  C   UNL A   1      44.992  28.285  33.438  1.00  0.00     0.037 A 
BRANCH  24  38
ATOM     38  C   UNL A   1      40.815  32.418  35.313  1.00  0.00     0.058 A 
ATOM     39  C   UNL A   1      39.961  32.172  36.399  1.00  0.00     0.135 A 
ATOM     40  C   UNL A   1      41.426  33.681  35.235  1.00  0.00     0.135 A 
ATOM     41  F   UNL A   1      39.341  30.987  36.517  1.00  0.00    -0.206 F 
ATOM     42  C   UNL A   1      39.723  33.140  37.371  1.00  0.00     0.059 A 
ATOM     43  C   UNL A   1      41.219  34.657  36.206  1.00  0.00     0.059 A 
ATOM     44  F   UNL A   1      42.251  33.970  34.216  1.00  0.00    -0.206 F 
ATOM     45  C   UNL A   1      40.362  34.378  37.268  1.00  0.00     0.060 A 
BRANCH  45  46
ATOM     46  S   UNL A   1      40.072  35.607  38.560  1.00  0.00     0.124 S 
ATOM     47  O   UNL A   1      41.360  35.617  39.247  1.00  0.00    -0.237 OA
ATOM     48  O   UNL A   1      39.759  36.804  37.786  1.00  0.00    -0.237 OA
ATOM     49  O   UNL A   1      38.960  35.047  39.321  1.00  0.00    -0.744 OA
ENDBRANCH  45  46
ENDBRANCH  24  38
BRANCH  25  50
ATOM     50  C   UNL A   1      43.197  25.751  28.237  1.00  0.00     0.058 A 
ATOM     51  C   UNL A   1      43.800  26.233  27.067  1.00  0.00     0.135 A 
ATOM     52  C   UNL A   1      42.989  24.365  28.343  1.00  0.00     0.135 A 
ATOM     53  F   UNL A   1      44.018  27.548  26.919  1.00  0.00    -0.206 F 
ATOM     54  C   UNL A   1      44.160  25.379  26.031  1.00  0.00     0.059 A 
ATOM     55  C   UNL A   1      43.368  23.489  27.334  1.00  0.00     0.059 A 
ATOM     56  F   UNL A   1      42.433  23.850  29.452  1.00  0.00    -0.206 F 
ATOM     57  C   UNL A   1      43.939  24.007  26.173  1.00  0.00     0.060 A 
BRANCH  57  58
ATOM     58  S   UNL A   1      44.430  22.903  24.834  1.00  0.00     0.124 S 
ATOM     59  O   UNL A   1      45.411  23.719  24.128  1.00  0.00    -0.237 OA
ATOM     60  O   UNL A   1      44.960  21.753  25.561  1.00  0.00    -0.237 OA
ATOM     61  O   UNL A   1      43.179  22.661  24.122  1.00  0.00    -0.744 OA
ENDBRANCH  57  58
ENDBRANCH  25  50
BRANCH  37  62
ATOM     62  C   UNL A   1      46.326  27.981  34.055  1.00  0.00     0.058 A 
ATOM     63  C   UNL A   1      47.459  28.753  33.759  1.00  0.00     0.135 A 
ATOM     64  C   UNL A   1      46.460  26.948  34.996  1.00  0.00     0.135 A 
ATOM     65  F   UNL A   1      47.386  29.742  32.854  1.00  0.00    -0.206 F 
ATOM     66  C   UNL A   1      48.684  28.507  34.370  1.00  0.00     0.059 A 
ATOM     67  C   UNL A   1      47.667  26.702  35.639  1.00  0.00     0.059 A 
ATOM     68  F   UNL A   1      45.403  26.184  35.316  1.00  0.00    -0.206 F 
ATOM     69  C   UNL A   1      48.776  27.484  35.315  1.00  0.00     0.060 A 
BRANCH  69  70
ATOM     70  S   UNL A   1      50.356  27.214  36.145  1.00  0.00     0.124 S 
ATOM     71  O   UNL A   1      50.693  28.564  36.583  1.00  0.00    -0.237 OA
ATOM     72  O   UNL A   1      49.996  26.275  37.203  1.00  0.00    -0.237 OA
ATOM     73  O   UNL A   1      51.204  26.666  35.091  1.00  0.00    -0.744 OA
ENDBRANCH  69  70
ENDBRANCH  37  62
ENDBRANCH  11  12
ENDBRANCH   4   6
ENDBRANCH   1   2
BRANCH   1  74
ATOM     74  C   UNL A   1      32.734  27.982  26.884  1.00  0.00     0.042 C 
BRANCH  74  75
ATOM     75  C   UNL A   1      32.787  26.572  26.326  1.00  0.00     0.118 C 
BRANCH  75  76
ATOM     76  N   UNL A   1      31.795  25.692  26.930  1.00  0.00    -0.352 N 
ATOM     77  C   UNL A   1      31.146  24.598  26.424  1.00  0.00     0.253 C 
ATOM     78  H   UNL A   1      31.552  25.923  27.856  1.00  0.00     0.163 HD
ATOM     79  O   UNL A   1      30.202  24.123  27.053  1.00  0.00    -0.269 OA
BRANCH  77  80
ATOM     80  C   UNL A   1      31.568  23.951  25.161  1.00  0.00     0.065 A 
ATOM     81  C   UNL A   1      32.759  23.190  25.225  1.00  0.00     0.042 A 
ATOM     82  C   UNL A   1      30.918  24.173  23.929  1.00  0.00     0.054 A 
ATOM     83  C   UNL A   1      33.344  22.660  24.074  1.00  0.00     0.038 A 
ATOM     84  C   UNL A   1      31.515  23.628  22.796  1.00  0.00     0.029 A 
ATOM     85  C   UNL A   1      32.680  22.869  22.869  1.00  0.00     0.028 A 
BRANCH  82  86
ATOM     86  N   UNL A   1      29.739  24.956  23.861  1.00  0.00    -0.325 N 
ATOM     87  C   UNL A   1      29.529  26.307  23.739  1.00  0.00     0.227 C 
ATOM     88  H   UNL A   1      28.910  24.428  23.912  1.00  0.00     0.169 HD
ATOM     89  O   UNL A   1      28.370  26.703  23.587  1.00  0.00    -0.274 OA
BRANCH  87  90
ATOM     90  C   UNL A   1      30.690  27.274  23.770  1.00  0.00     0.079 C 
ATOM     91  C   UNL A   1      31.562  27.381  22.525  1.00  0.00     0.013 C 
ATOM     92  C   UNL A   1      30.182  28.710  23.887  1.00  0.00     0.013 C 
ATOM     93  C   UNL A   1      32.368  28.647  22.830  1.00  0.00     0.001 C 
ATOM     94  C   UNL A   1      31.425  29.551  23.632  1.00  0.00     0.001 C 
ENDBRANCH  87  90
ENDBRANCH  82  86
BRANCH  83  95
ATOM     95  N   UNL A   1      34.588  22.071  24.102  1.00  0.00    -0.368 N 
ATOM     96  C   UNL A   1      35.782  22.730  23.539  1.00  0.00     0.138 C 
ATOM     97  C   UNL A   1      34.852  21.005  25.082  1.00  0.00     0.138 C 
ATOM     98  C   UNL A   1      36.780  23.169  24.654  1.00  0.00     0.138 C 
ATOM     99  C   UNL A   1      35.771  21.510  26.209  1.00  0.00     0.138 C 
ATOM    100  N   UNL A   1      36.997  22.097  25.652  1.00  0.00    -0.368 N 
BRANCH 100 101
ATOM    101  C   UNL A   1      38.195  21.417  25.720  1.00  0.00     0.037 A 
ATOM    102  C   UNL A   1      39.328  22.035  26.267  1.00  0.00     0.029 A 
ATOM    103  C   UNL A   1      38.319  20.081  25.305  1.00  0.00     0.029 A 
ATOM    104  C   UNL A   1      40.532  21.340  26.420  1.00  0.00     0.041 A 
ATOM    105  C   UNL A   1      39.522  19.384  25.438  1.00  0.00     0.041 A 
ATOM    106  C   UNL A   1      40.617  20.019  26.003  1.00  0.00     0.123 A 
ATOM    107  F   UNL A   1      41.765  19.347  26.153  1.00  0.00    -0.207 F 
ENDBRANCH 100 101
ENDBRANCH  83  95
ENDBRANCH  77  80
ENDBRANCH  75  76
ENDBRANCH  74  75
ENDBRANCH   1  74
TORSDOF 17
ENDMDL
