MODEL 1
REMARK VINA RESULT:     -11.6      0.000      0.000
REMARK SMILES N#C[C@@H]1CN(C(=O)Nc2cccc(F)c2C(=O)NCCCNC(=O)c2ccc(-c3c4nc(c(-c5c(F)cc(S(=O)(=O)[O-])cc5F)c5ccc([nH]5)c(-c5c(F)cc(S(=O)(=O)[O-])cc5F)c5nc(c(-c6c(F)cc(S(=O)(=O)[O-])cc6F)c6ccc3[nH]6)C=C5)C=C4)cc2)CCO1
REMARK SMILES IDX 20 1 19 2 18 3 16 4 17 5 15 7 9 8 10 9 11 10 13 11 12 12
REMARK SMILES IDX 14 13 8 14 6 15 7 16 5 18 3 19 4 20 93 21 92 22 91 23 2 24
REMARK SMILES IDX 1 25 21 26 22 27 23 28 24 30 25 31 26 32 90 33 27 34 89 35
REMARK SMILES IDX 28 36 29 37 30 38 83 39 31 40 88 41 82 42 84 43 32 44 87 45
REMARK SMILES IDX 81 46 80 47 33 49 67 50 46 51 66 52 47 53 50 54 65 55 85 56
REMARK SMILES IDX 48 57 49 58 64 60 86 61 51 62 34 63 35 64 44 65 36 66 37 67
REMARK SMILES IDX 43 68 45 69 38 70 39 71 40 72 41 73 42 74 68 75 69 76 78 77
REMARK SMILES IDX 70 78 71 79 77 80 79 81 72 82 73 83 74 84 75 85 76 86 52 87
REMARK SMILES IDX 53 88 62 89 54 90 55 91 61 92 63 93 56 94 57 95 58 96 59 97
REMARK SMILES IDX 60 98
REMARK H PARENT 18 6 8 17 22 29 84 48 50 59
REMARK Flexibility Score: inf
ROOT
ATOM      1  C   UNL A   1      33.157  27.987  25.806  1.00  0.00     0.042 C 
ENDROOT
BRANCH   1   2
ATOM      2  C   UNL A   1      33.888  28.844  24.787  1.00  0.00     0.118 C 
BRANCH   2   3
ATOM      3  N   UNL A   1      34.020  28.213  23.484  1.00  0.00    -0.352 N 
ATOM      4  C   UNL A   1      33.196  27.488  22.665  1.00  0.00     0.256 C 
ATOM      5  O   UNL A   1      33.726  27.066  21.631  1.00  0.00    -0.269 OA
ATOM      6  H   UNL A   1      34.916  28.338  23.097  1.00  0.00     0.163 HD
BRANCH   4   7
ATOM      7  C   UNL A   1      31.787  27.084  22.965  1.00  0.00     0.099 A 
ATOM      8  C   UNL A   1      31.484  25.719  23.199  1.00  0.00     0.058 A 
ATOM      9  C   UNL A   1      30.228  25.325  23.702  1.00  0.00     0.027 A 
ATOM     10  C   UNL A   1      29.198  26.253  23.808  1.00  0.00     0.005 A 
ATOM     11  C   UNL A   1      30.677  27.925  22.876  1.00  0.00     0.138 A 
ATOM     12  C   UNL A   1      29.409  27.537  23.327  1.00  0.00     0.040 A 
ATOM     13  F   UNL A   1      30.699  29.036  22.133  1.00  0.00    -0.206 F 
BRANCH   8  14
ATOM     14  N   UNL A   1      32.343  24.722  22.697  1.00  0.00    -0.307 N 
ATOM     15  C   UNL A   1      33.409  24.092  23.275  1.00  0.00     0.322 C 
ATOM     16  O   UNL A   1      34.178  23.469  22.538  1.00  0.00    -0.248 OA
ATOM     17  H   UNL A   1      32.142  24.432  21.777  1.00  0.00     0.171 HD
BRANCH  15  18
ATOM     18  N   UNL A   1      33.556  24.048  24.651  1.00  0.00    -0.319 N 
ATOM     19  C   UNL A   1      33.592  22.281  26.417  1.00  0.00     0.240 C 
ATOM     20  C   UNL A   1      32.766  23.288  25.633  1.00  0.00     0.169 C 
ATOM     21  O   UNL A   1      34.702  22.964  27.056  1.00  0.00    -0.360 OA
ATOM     22  C   UNL A   1      35.539  23.647  26.097  1.00  0.00     0.183 C 
ATOM     23  C   UNL A   1      34.748  24.662  25.254  1.00  0.00     0.150 C 
BRANCH  19  24
ATOM     24  C   UNL A   1      34.087  21.160  25.517  1.00  0.00     0.096 C 
ATOM     25  N   UNL A   1      34.497  20.231  24.770  1.00  0.00    -0.195 NA
ENDBRANCH  19  24
ENDBRANCH  15  18
ENDBRANCH   8  14
ENDBRANCH   4   7
ENDBRANCH   2   3
ENDBRANCH   1   2
BRANCH   1  26
ATOM     26  C   UNL A   1      33.542  28.284  27.246  1.00  0.00     0.118 C 
BRANCH  26  27
ATOM     27  N   UNL A   1      33.522  29.712  27.550  1.00  0.00    -0.352 N 
ATOM     28  C   UNL A   1      34.467  30.523  28.132  1.00  0.00     0.251 C 
ATOM     29  H   UNL A   1      32.690  30.172  27.295  1.00  0.00     0.163 HD
ATOM     30  O   UNL A   1      34.147  31.650  28.500  1.00  0.00    -0.269 OA
BRANCH  28  31
ATOM     31  C   UNL A   1      35.853  30.047  28.326  1.00  0.00     0.039 A 
ATOM     32  C   UNL A   1      36.752  30.110  27.256  1.00  0.00     0.014 A 
ATOM     33  C   UNL A   1      36.263  29.514  29.547  1.00  0.00     0.014 A 
ATOM     34  C   UNL A   1      38.078  29.708  27.442  1.00  0.00     0.010 A 
ATOM     35  C   UNL A   1      37.604  29.217  29.761  1.00  0.00     0.010 A 
ATOM     36  C   UNL A   1      38.525  29.301  28.708  1.00  0.00    -0.014 A 
BRANCH  36  37
ATOM     37  C   UNL A   1      39.944  28.944  28.962  1.00  0.00     0.031 A 
ATOM     38  C   UNL A   1      40.885  29.973  29.530  1.00  0.00     0.074 A 
ATOM     39  C   UNL A   1      40.399  27.725  28.612  1.00  0.00     0.049 A 
ATOM     40  N   UNL A   1      42.176  29.892  29.721  1.00  0.00    -0.248 NA
ATOM     41  C   UNL A   1      40.305  31.274  29.905  1.00  0.00     0.031 C 
ATOM     42  C   UNL A   1      39.589  26.660  28.015  1.00  0.00     0.029 A 
ATOM     43  N   UNL A   1      41.654  27.176  28.697  1.00  0.00    -0.354 N 
ATOM     44  C   UNL A   1      42.562  31.130  30.223  1.00  0.00     0.074 A 
ATOM     45  C   UNL A   1      41.383  31.965  30.247  1.00  0.00     0.031 C 
ATOM     46  C   UNL A   1      40.360  25.578  27.819  1.00  0.00     0.029 A 
ATOM     47  C   UNL A   1      41.726  25.886  28.227  1.00  0.00     0.049 A 
ATOM     48  H   UNL A   1      42.430  27.661  29.060  1.00  0.00     0.167 HD
ATOM     49  C   UNL A   1      43.784  31.524  30.653  1.00  0.00     0.037 A 
ATOM     50  C   UNL A   1      42.778  25.047  28.126  1.00  0.00     0.037 A 
ATOM     51  C   UNL A   1      44.945  30.674  30.654  1.00  0.00     0.049 A 
ATOM     52  C   UNL A   1      44.130  25.515  28.590  1.00  0.00     0.074 A 
ATOM     53  C   UNL A   1      46.217  30.960  31.117  1.00  0.00     0.029 A 
ATOM     54  N   UNL A   1      44.976  29.372  30.173  1.00  0.00    -0.354 N 
ATOM     55  N   UNL A   1      44.467  26.673  29.107  1.00  0.00    -0.248 NA
ATOM     56  C   UNL A   1      45.244  24.567  28.461  1.00  0.00     0.031 C 
ATOM     57  C   UNL A   1      47.029  29.850  30.870  1.00  0.00     0.029 A 
ATOM     58  C   UNL A   1      46.252  28.850  30.306  1.00  0.00     0.049 A 
ATOM     59  H   UNL A   1      44.205  28.891  29.793  1.00  0.00     0.167 HD
ATOM     60  C   UNL A   1      45.827  26.585  29.384  1.00  0.00     0.074 A 
ATOM     61  C   UNL A   1      46.247  25.256  28.990  1.00  0.00     0.031 C 
ATOM     62  C   UNL A   1      46.652  27.521  29.914  1.00  0.00     0.037 A 
BRANCH  49  63
ATOM     63  C   UNL A   1      43.930  32.926  31.178  1.00  0.00     0.058 A 
ATOM     64  C   UNL A   1      43.643  33.222  32.520  1.00  0.00     0.135 A 
ATOM     65  C   UNL A   1      44.289  33.993  30.336  1.00  0.00     0.135 A 
ATOM     66  F   UNL A   1      43.302  32.241  33.371  1.00  0.00    -0.206 F 
ATOM     67  C   UNL A   1      43.690  34.525  33.005  1.00  0.00     0.059 A 
ATOM     68  C   UNL A   1      44.373  35.299  30.808  1.00  0.00     0.059 A 
ATOM     69  F   UNL A   1      44.596  33.764  29.050  1.00  0.00    -0.206 F 
ATOM     70  C   UNL A   1      44.054  35.558  32.140  1.00  0.00     0.060 A 
BRANCH  70  71
ATOM     71  S   UNL A   1      44.131  37.240  32.790  1.00  0.00     0.124 S 
ATOM     72  O   UNL A   1      45.512  37.322  33.250  1.00  0.00    -0.237 OA
ATOM     73  O   UNL A   1      43.803  38.037  31.612  1.00  0.00    -0.237 OA
ATOM     74  O   UNL A   1      43.117  37.244  33.840  1.00  0.00    -0.744 OA
ENDBRANCH  70  71
ENDBRANCH  49  63
BRANCH  50  75
ATOM     75  C   UNL A   1      42.577  23.674  27.590  1.00  0.00     0.058 A 
ATOM     76  C   UNL A   1      42.359  22.580  28.441  1.00  0.00     0.135 A 
ATOM     77  C   UNL A   1      42.644  23.424  26.210  1.00  0.00     0.135 A 
ATOM     78  F   UNL A   1      42.297  22.761  29.769  1.00  0.00    -0.206 F 
ATOM     79  C   UNL A   1      42.245  21.284  27.948  1.00  0.00     0.059 A 
ATOM     80  C   UNL A   1      42.505  22.139  25.691  1.00  0.00     0.059 A 
ATOM     81  F   UNL A   1      42.839  24.439  25.355  1.00  0.00    -0.206 F 
ATOM     82  C   UNL A   1      42.324  21.074  26.571  1.00  0.00     0.060 A 
BRANCH  82  83
ATOM     83  S   UNL A   1      42.196  19.381  25.955  1.00  0.00     0.124 S 
ATOM     84  O   UNL A   1      40.766  19.278  25.683  1.00  0.00    -0.237 OA
ATOM     85  O   UNL A   1      43.064  19.418  24.783  1.00  0.00    -0.237 OA
ATOM     86  O   UNL A   1      42.683  18.576  27.070  1.00  0.00    -0.744 OA
ENDBRANCH  82  83
ENDBRANCH  50  75
BRANCH  62  87
ATOM     87  C   UNL A   1      48.094  27.150  30.122  1.00  0.00     0.058 A 
ATOM     88  C   UNL A   1      48.490  26.461  31.281  1.00  0.00     0.135 A 
ATOM     89  C   UNL A   1      49.095  27.561  29.229  1.00  0.00     0.135 A 
ATOM     90  F   UNL A   1      47.573  26.051  32.171  1.00  0.00    -0.206 F 
ATOM     91  C   UNL A   1      49.830  26.219  31.560  1.00  0.00     0.059 A 
ATOM     92  C   UNL A   1      50.440  27.303  29.474  1.00  0.00     0.059 A 
ATOM     93  F   UNL A   1      48.767  28.212  28.101  1.00  0.00    -0.206 F 
ATOM     94  C   UNL A   1      50.799  26.648  30.652  1.00  0.00     0.060 A 
BRANCH  94  95
ATOM     95  S   UNL A   1      52.534  26.330  31.035  1.00  0.00     0.124 S 
ATOM     96  O   UNL A   1      53.089  26.065  29.713  1.00  0.00    -0.237 OA
ATOM     97  O   UNL A   1      52.945  27.584  31.658  1.00  0.00    -0.237 OA
ATOM     98  O   UNL A   1      52.477  25.181  31.933  1.00  0.00    -0.744 OA
ENDBRANCH  94  95
ENDBRANCH  62  87
ENDBRANCH  36  37
ENDBRANCH  28  31
ENDBRANCH  26  27
ENDBRANCH   1  26
TORSDOF 16
ENDMDL
MODEL 2
REMARK VINA RESULT:     -11.3      2.623      3.485
REMARK SMILES N#C[C@@H]1CN(C(=O)Nc2cccc(F)c2C(=O)NCCCNC(=O)c2ccc(-c3c4nc(c(-c5c(F)cc(S(=O)(=O)[O-])cc5F)c5ccc([nH]5)c(-c5c(F)cc(S(=O)(=O)[O-])cc5F)c5nc(c(-c6c(F)cc(S(=O)(=O)[O-])cc6F)c6ccc3[nH]6)C=C5)C=C4)cc2)CCO1
REMARK SMILES IDX 20 1 19 2 18 3 16 4 17 5 15 7 9 8 10 9 11 10 13 11 12 12
REMARK SMILES IDX 14 13 8 14 6 15 7 16 5 18 3 19 4 20 93 21 92 22 91 23 2 24
REMARK SMILES IDX 1 25 21 26 22 27 23 28 24 30 25 31 26 32 90 33 27 34 89 35
REMARK SMILES IDX 28 36 29 37 30 38 83 39 31 40 88 41 82 42 84 43 32 44 87 45
REMARK SMILES IDX 81 46 80 47 33 49 67 50 46 51 66 52 47 53 50 54 65 55 85 56
REMARK SMILES IDX 48 57 49 58 64 60 86 61 51 62 34 63 35 64 44 65 36 66 37 67
REMARK SMILES IDX 43 68 45 69 38 70 39 71 40 72 41 73 42 74 68 75 69 76 78 77
REMARK SMILES IDX 70 78 71 79 77 80 79 81 72 82 73 83 74 84 75 85 76 86 52 87
REMARK SMILES IDX 53 88 62 89 54 90 55 91 61 92 63 93 56 94 57 95 58 96 59 97
REMARK SMILES IDX 60 98
REMARK H PARENT 18 6 8 17 22 29 84 48 50 59
REMARK Flexibility Score: inf
ROOT
ATOM      1  C   UNL A   1      34.538  29.983  26.800  1.00  0.00     0.042 C 
ENDROOT
BRANCH   1   2
ATOM      2  C   UNL A   1      33.093  30.297  27.143  1.00  0.00     0.118 C 
BRANCH   2   3
ATOM      3  N   UNL A   1      32.302  29.121  27.464  1.00  0.00    -0.352 N 
ATOM      4  C   UNL A   1      31.582  28.205  26.744  1.00  0.00     0.256 C 
ATOM      5  O   UNL A   1      30.985  27.361  27.422  1.00  0.00    -0.269 OA
ATOM      6  H   UNL A   1      32.279  28.938  28.431  1.00  0.00     0.163 HD
BRANCH   4   7
ATOM      7  C   UNL A   1      31.377  28.212  25.262  1.00  0.00     0.099 A 
ATOM      8  C   UNL A   1      31.926  27.168  24.475  1.00  0.00     0.058 A 
ATOM      9  C   UNL A   1      31.572  27.012  23.119  1.00  0.00     0.027 A 
ATOM     10  C   UNL A   1      30.816  27.988  22.480  1.00  0.00     0.005 A 
ATOM     11  C   UNL A   1      30.817  29.263  24.536  1.00  0.00     0.138 A 
ATOM     12  C   UNL A   1      30.500  29.146  23.177  1.00  0.00     0.040 A 
ATOM     13  F   UNL A   1      30.787  30.509  25.020  1.00  0.00    -0.206 F 
BRANCH   8  14
ATOM     14  N   UNL A   1      33.020  26.429  24.966  1.00  0.00    -0.307 N 
ATOM     15  C   UNL A   1      33.080  25.163  25.479  1.00  0.00     0.322 C 
ATOM     16  O   UNL A   1      34.092  24.845  26.109  1.00  0.00    -0.248 OA
ATOM     17  H   UNL A   1      33.882  26.902  24.936  1.00  0.00     0.171 HD
BRANCH  15  18
ATOM     18  N   UNL A   1      32.097  24.229  25.198  1.00  0.00    -0.319 N 
ATOM     19  C   UNL A   1      31.909  21.738  25.198  1.00  0.00     0.240 C 
ATOM     20  C   UNL A   1      32.205  22.997  24.400  1.00  0.00     0.169 C 
ATOM     21  O   UNL A   1      30.596  21.853  25.806  1.00  0.00    -0.360 OA
ATOM     22  C   UNL A   1      30.498  23.011  26.662  1.00  0.00     0.183 C 
ATOM     23  C   UNL A   1      30.815  24.316  25.913  1.00  0.00     0.150 C 
BRANCH  19  24
ATOM     24  C   UNL A   1      32.978  21.493  26.251  1.00  0.00     0.096 C 
ATOM     25  N   UNL A   1      33.865  21.290  27.124  1.00  0.00    -0.195 NA
ENDBRANCH  19  24
ENDBRANCH  15  18
ENDBRANCH   8  14
ENDBRANCH   4   7
ENDBRANCH   2   3
ENDBRANCH   1   2
BRANCH   1  26
ATOM     26  C   UNL A   1      35.323  29.371  27.949  1.00  0.00     0.118 C 
BRANCH  26  27
ATOM     27  N   UNL A   1      35.308  30.205  29.147  1.00  0.00    -0.352 N 
ATOM     28  C   UNL A   1      36.305  30.521  30.039  1.00  0.00     0.251 C 
ATOM     29  H   UNL A   1      34.433  30.609  29.351  1.00  0.00     0.163 HD
ATOM     30  O   UNL A   1      36.011  31.056  31.104  1.00  0.00    -0.269 OA
BRANCH  28  31
ATOM     31  C   UNL A   1      37.718  30.215  29.728  1.00  0.00     0.039 A 
ATOM     32  C   UNL A   1      38.589  29.880  30.770  1.00  0.00     0.014 A 
ATOM     33  C   UNL A   1      38.194  30.284  28.419  1.00  0.00     0.014 A 
ATOM     34  C   UNL A   1      39.913  29.542  30.482  1.00  0.00     0.010 A 
ATOM     35  C   UNL A   1      39.479  29.844  28.124  1.00  0.00     0.010 A 
ATOM     36  C   UNL A   1      40.357  29.477  29.152  1.00  0.00    -0.014 A 
BRANCH  36  37
ATOM     37  C   UNL A   1      41.734  29.043  28.804  1.00  0.00     0.031 A 
ATOM     38  C   UNL A   1      42.858  30.045  28.803  1.00  0.00     0.074 A 
ATOM     39  C   UNL A   1      41.955  27.771  28.417  1.00  0.00     0.049 A 
ATOM     40  N   UNL A   1      44.100  29.890  28.426  1.00  0.00    -0.248 NA
ATOM     41  C   UNL A   1      42.536  31.409  29.258  1.00  0.00     0.031 C 
ATOM     42  C   UNL A   1      40.936  26.722  28.338  1.00  0.00     0.029 A 
ATOM     43  N   UNL A   1      43.106  27.145  28.008  1.00  0.00    -0.354 N 
ATOM     44  C   UNL A   1      44.701  31.133  28.585  1.00  0.00     0.074 A 
ATOM     45  C   UNL A   1      43.674  32.048  29.030  1.00  0.00     0.031 C 
ATOM     46  C   UNL A   1      41.513  25.577  27.940  1.00  0.00     0.029 A 
ATOM     47  C   UNL A   1      42.929  25.820  27.685  1.00  0.00     0.049 A 
ATOM     48  H   UNL A   1      43.976  27.602  27.949  1.00  0.00     0.167 HD
ATOM     49  C   UNL A   1      45.999  31.474  28.403  1.00  0.00     0.037 A 
ATOM     50  C   UNL A   1      43.807  24.905  27.226  1.00  0.00     0.037 A 
ATOM     51  C   UNL A   1      47.019  30.547  27.989  1.00  0.00     0.049 A 
ATOM     52  C   UNL A   1      45.239  25.312  27.012  1.00  0.00     0.074 A 
ATOM     53  C   UNL A   1      48.373  30.780  27.828  1.00  0.00     0.029 A 
ATOM     54  N   UNL A   1      46.800  29.213  27.676  1.00  0.00    -0.354 N 
ATOM     55  N   UNL A   1      45.801  26.481  27.213  1.00  0.00    -0.248 NA
ATOM     56  C   UNL A   1      46.158  24.281  26.512  1.00  0.00     0.031 C 
ATOM     57  C   UNL A   1      48.965  29.600  27.368  1.00  0.00     0.029 A 
ATOM     58  C   UNL A   1      47.991  28.616  27.298  1.00  0.00     0.049 A 
ATOM     59  H   UNL A   1      45.928  28.759  27.717  1.00  0.00     0.167 HD
ATOM     60  C   UNL A   1      47.142  26.320  26.883  1.00  0.00     0.074 A 
ATOM     61  C   UNL A   1      47.310  24.938  26.483  1.00  0.00     0.031 C 
ATOM     62  C   UNL A   1      48.142  27.235  26.908  1.00  0.00     0.037 A 
BRANCH  49  63
ATOM     63  C   UNL A   1      46.399  32.900  28.670  1.00  0.00     0.058 A 
ATOM     64  C   UNL A   1      46.748  33.316  29.964  1.00  0.00     0.135 A 
ATOM     65  C   UNL A   1      46.372  33.872  27.656  1.00  0.00     0.135 A 
ATOM     66  F   UNL A   1      46.798  32.428  30.970  1.00  0.00    -0.206 F 
ATOM     67  C   UNL A   1      47.040  34.646  30.248  1.00  0.00     0.059 A 
ATOM     68  C   UNL A   1      46.690  35.203  27.911  1.00  0.00     0.059 A 
ATOM     69  F   UNL A   1      46.067  33.526  26.396  1.00  0.00    -0.206 F 
ATOM     70  C   UNL A   1      47.006  35.583  29.214  1.00  0.00     0.060 A 
BRANCH  70  71
ATOM     71  S   UNL A   1      47.407  37.302  29.595  1.00  0.00     0.124 S 
ATOM     72  O   UNL A   1      46.186  37.758  30.247  1.00  0.00    -0.237 OA
ATOM     73  O   UNL A   1      48.575  37.157  30.460  1.00  0.00    -0.237 OA
ATOM     74  O   UNL A   1      47.678  37.884  28.284  1.00  0.00    -0.744 OA
ENDBRANCH  70  71
ENDBRANCH  49  63
BRANCH  50  75
ATOM     75  C   UNL A   1      43.353  23.511  26.970  1.00  0.00     0.058 A 
ATOM     76  C   UNL A   1      43.153  22.602  28.021  1.00  0.00     0.135 A 
ATOM     77  C   UNL A   1      43.154  23.049  25.660  1.00  0.00     0.135 A 
ATOM     78  F   UNL A   1      43.340  22.988  29.292  1.00  0.00    -0.206 F 
ATOM     79  C   UNL A   1      42.801  21.277  27.780  1.00  0.00     0.059 A 
ATOM     80  C   UNL A   1      42.775  21.735  25.396  1.00  0.00     0.059 A 
ATOM     81  F   UNL A   1      43.321  23.883  24.623  1.00  0.00    -0.206 F 
ATOM     82  C   UNL A   1      42.619  20.853  26.464  1.00  0.00     0.060 A 
BRANCH  82  83
ATOM     83  S   UNL A   1      42.184  19.124  26.175  1.00  0.00     0.124 S 
ATOM     84  O   UNL A   1      43.112  18.765  25.108  1.00  0.00    -0.237 OA
ATOM     85  O   UNL A   1      42.452  18.522  27.477  1.00  0.00    -0.237 OA
ATOM     86  O   UNL A   1      40.779  19.187  25.791  1.00  0.00    -0.744 OA
ENDBRANCH  82  83
ENDBRANCH  50  75
BRANCH  62  87
ATOM     87  C   UNL A   1      49.519  26.782  26.511  1.00  0.00     0.058 A 
ATOM     88  C   UNL A   1      49.987  26.995  25.203  1.00  0.00     0.135 A 
ATOM     89  C   UNL A   1      50.334  26.051  27.388  1.00  0.00     0.135 A 
ATOM     90  F   UNL A   1      49.244  27.683  24.321  1.00  0.00    -0.206 F 
ATOM     91  C   UNL A   1      51.202  26.475  24.772  1.00  0.00     0.059 A 
ATOM     92  C   UNL A   1      51.567  25.546  26.987  1.00  0.00     0.059 A 
ATOM     93  F   UNL A   1      49.936  25.830  28.652  1.00  0.00    -0.206 F 
ATOM     94  C   UNL A   1      51.983  25.747  25.671  1.00  0.00     0.060 A 
BRANCH  94  95
ATOM     95  S   UNL A   1      53.554  25.073  25.091  1.00  0.00     0.124 S 
ATOM     96  O   UNL A   1      53.387  23.649  25.361  1.00  0.00    -0.237 OA
ATOM     97  O   UNL A   1      53.552  25.458  23.684  1.00  0.00    -0.237 OA
ATOM     98  O   UNL A   1      54.543  25.756  25.920  1.00  0.00    -0.744 OA
ENDBRANCH  94  95
ENDBRANCH  62  87
ENDBRANCH  36  37
ENDBRANCH  28  31
ENDBRANCH  26  27
ENDBRANCH   1  26
TORSDOF 16
ENDMDL
MODEL 3
REMARK VINA RESULT:     -11.1      2.773      8.765
REMARK SMILES N#C[C@@H]1CN(C(=O)Nc2cccc(F)c2C(=O)NCCCNC(=O)c2ccc(-c3c4nc(c(-c5c(F)cc(S(=O)(=O)[O-])cc5F)c5ccc([nH]5)c(-c5c(F)cc(S(=O)(=O)[O-])cc5F)c5nc(c(-c6c(F)cc(S(=O)(=O)[O-])cc6F)c6ccc3[nH]6)C=C5)C=C4)cc2)CCO1
REMARK SMILES IDX 20 1 19 2 18 3 16 4 17 5 15 7 9 8 10 9 11 10 13 11 12 12
REMARK SMILES IDX 14 13 8 14 6 15 7 16 5 18 3 19 4 20 93 21 92 22 91 23 2 24
REMARK SMILES IDX 1 25 21 26 22 27 23 28 24 30 25 31 26 32 90 33 27 34 89 35
REMARK SMILES IDX 28 36 29 37 30 38 83 39 31 40 88 41 82 42 84 43 32 44 87 45
REMARK SMILES IDX 81 46 80 47 33 49 67 50 46 51 66 52 47 53 50 54 65 55 85 56
REMARK SMILES IDX 48 57 49 58 64 60 86 61 51 62 34 63 35 64 44 65 36 66 37 67
REMARK SMILES IDX 43 68 45 69 38 70 39 71 40 72 41 73 42 74 68 75 69 76 78 77
REMARK SMILES IDX 70 78 71 79 77 80 79 81 72 82 73 83 74 84 75 85 76 86 52 87
REMARK SMILES IDX 53 88 62 89 54 90 55 91 61 92 63 93 56 94 57 95 58 96 59 97
REMARK SMILES IDX 60 98
REMARK H PARENT 18 6 8 17 22 29 84 48 50 59
REMARK Flexibility Score: inf
ROOT
ATOM      1  C   UNL A   1      34.159  30.695  27.265  1.00  0.00     0.042 C 
ENDROOT
BRANCH   1   2
ATOM      2  C   UNL A   1      33.217  29.661  26.674  1.00  0.00     0.118 C 
BRANCH   2   3
ATOM      3  N   UNL A   1      33.826  28.353  26.498  1.00  0.00    -0.352 N 
ATOM      4  C   UNL A   1      33.430  27.159  25.957  1.00  0.00     0.256 C 
ATOM      5  O   UNL A   1      34.251  26.240  26.062  1.00  0.00    -0.269 OA
ATOM      6  H   UNL A   1      34.744  28.318  26.851  1.00  0.00     0.163 HD
BRANCH   4   7
ATOM      7  C   UNL A   1      32.087  26.858  25.372  1.00  0.00     0.099 A 
ATOM      8  C   UNL A   1      31.216  25.963  26.042  1.00  0.00     0.058 A 
ATOM      9  C   UNL A   1      29.868  25.825  25.652  1.00  0.00     0.027 A 
ATOM     10  C   UNL A   1      29.415  26.431  24.486  1.00  0.00     0.005 A 
ATOM     11  C   UNL A   1      31.655  27.261  24.108  1.00  0.00     0.138 A 
ATOM     12  C   UNL A   1      30.332  27.092  23.681  1.00  0.00     0.040 A 
ATOM     13  F   UNL A   1      32.523  27.593  23.146  1.00  0.00    -0.206 F 
BRANCH   8  14
ATOM     14  N   UNL A   1      31.749  25.018  26.940  1.00  0.00    -0.307 N 
ATOM     15  C   UNL A   1      31.961  23.675  26.796  1.00  0.00     0.322 C 
ATOM     16  O   UNL A   1      32.165  23.012  27.817  1.00  0.00    -0.248 OA
ATOM     17  H   UNL A   1      32.010  25.384  27.816  1.00  0.00     0.171 HD
BRANCH  15  18
ATOM     18  N   UNL A   1      32.068  23.096  25.543  1.00  0.00    -0.319 N 
ATOM     19  C   UNL A   1      33.911  22.234  24.093  1.00  0.00     0.240 C 
ATOM     20  C   UNL A   1      33.022  23.409  24.468  1.00  0.00     0.169 C 
ATOM     21  O   UNL A   1      33.079  21.098  23.739  1.00  0.00    -0.360 OA
ATOM     22  C   UNL A   1      32.194  20.721  24.816  1.00  0.00     0.183 C 
ATOM     23  C   UNL A   1      31.287  21.883  25.256  1.00  0.00     0.150 C 
BRANCH  19  24
ATOM     24  C   UNL A   1      34.860  21.883  25.227  1.00  0.00     0.096 C 
ATOM     25  N   UNL A   1      35.648  21.592  26.168  1.00  0.00    -0.195 NA
ENDBRANCH  19  24
ENDBRANCH  15  18
ENDBRANCH   8  14
ENDBRANCH   4   7
ENDBRANCH   2   3
ENDBRANCH   1   2
BRANCH   1  26
ATOM     26  C   UNL A   1      35.422  30.102  27.868  1.00  0.00     0.118 C 
BRANCH  26  27
ATOM     27  N   UNL A   1      35.419  30.140  29.328  1.00  0.00    -0.352 N 
ATOM     28  C   UNL A   1      36.406  29.852  30.240  1.00  0.00     0.251 C 
ATOM     29  H   UNL A   1      34.562  30.418  29.727  1.00  0.00     0.163 HD
ATOM     30  O   UNL A   1      36.112  29.731  31.425  1.00  0.00    -0.269 OA
BRANCH  28  31
ATOM     31  C   UNL A   1      37.808  29.681  29.803  1.00  0.00     0.039 A 
ATOM     32  C   UNL A   1      38.786  29.371  30.753  1.00  0.00     0.014 A 
ATOM     33  C   UNL A   1      38.167  29.852  28.466  1.00  0.00     0.014 A 
ATOM     34  C   UNL A   1      40.105  29.158  30.344  1.00  0.00     0.010 A 
ATOM     35  C   UNL A   1      39.454  29.536  28.047  1.00  0.00     0.010 A 
ATOM     36  C   UNL A   1      40.441  29.195  28.981  1.00  0.00    -0.014 A 
BRANCH  36  37
ATOM     37  C   UNL A   1      41.814  28.895  28.503  1.00  0.00     0.031 A 
ATOM     38  C   UNL A   1      42.173  27.494  28.083  1.00  0.00     0.074 A 
ATOM     39  C   UNL A   1      42.753  29.862  28.519  1.00  0.00     0.049 A 
ATOM     40  N   UNL A   1      43.338  27.009  27.741  1.00  0.00    -0.248 NA
ATOM     41  C   UNL A   1      41.085  26.500  28.075  1.00  0.00     0.031 C 
ATOM     42  C   UNL A   1      42.533  31.247  28.945  1.00  0.00     0.029 A 
ATOM     43  N   UNL A   1      44.082  29.830  28.178  1.00  0.00    -0.354 N 
ATOM     44  C   UNL A   1      43.126  25.658  27.492  1.00  0.00     0.074 A 
ATOM     45  C   UNL A   1      41.737  25.385  27.783  1.00  0.00     0.031 C 
ATOM     46  C   UNL A   1      43.677  31.936  28.808  1.00  0.00     0.029 A 
ATOM     47  C   UNL A   1      44.723  31.036  28.335  1.00  0.00     0.049 A 
ATOM     48  H   UNL A   1      44.534  29.018  27.852  1.00  0.00     0.167 HD
ATOM     49  C   UNL A   1      44.004  24.735  27.033  1.00  0.00     0.037 A 
ATOM     50  C   UNL A   1      46.011  31.377  28.131  1.00  0.00     0.037 A 
ATOM     51  C   UNL A   1      45.377  25.026  26.716  1.00  0.00     0.049 A 
ATOM     52  C   UNL A   1      46.974  30.330  27.641  1.00  0.00     0.074 A 
ATOM     53  C   UNL A   1      46.335  24.174  26.195  1.00  0.00     0.029 A 
ATOM     54  N   UNL A   1      45.987  26.261  26.886  1.00  0.00    -0.354 N 
ATOM     55  N   UNL A   1      46.745  29.067  27.365  1.00  0.00    -0.248 NA
ATOM     56  C   UNL A   1      48.366  30.748  27.433  1.00  0.00     0.031 C 
ATOM     57  C   UNL A   1      47.537  24.880  26.097  1.00  0.00     0.029 A 
ATOM     58  C   UNL A   1      47.316  26.187  26.502  1.00  0.00     0.049 A 
ATOM     59  H   UNL A   1      45.541  27.069  27.228  1.00  0.00     0.167 HD
ATOM     60  C   UNL A   1      47.959  28.546  26.931  1.00  0.00     0.074 A 
ATOM     61  C   UNL A   1      48.916  29.633  26.968  1.00  0.00     0.031 C 
ATOM     62  C   UNL A   1      48.254  27.282  26.540  1.00  0.00     0.037 A 
BRANCH  49  63
ATOM     63  C   UNL A   1      43.508  23.330  26.824  1.00  0.00     0.058 A 
ATOM     64  C   UNL A   1      43.315  22.469  27.916  1.00  0.00     0.135 A 
ATOM     65  C   UNL A   1      43.286  22.813  25.536  1.00  0.00     0.135 A 
ATOM     66  F   UNL A   1      43.505  22.912  29.169  1.00  0.00    -0.206 F 
ATOM     67  C   UNL A   1      42.937  21.142  27.738  1.00  0.00     0.059 A 
ATOM     68  C   UNL A   1      42.878  21.498  25.338  1.00  0.00     0.059 A 
ATOM     69  F   UNL A   1      43.433  23.599  24.459  1.00  0.00    -0.206 F 
ATOM     70  C   UNL A   1      42.723  20.665  26.444  1.00  0.00     0.060 A 
BRANCH  70  71
ATOM     71  S   UNL A   1      42.213  18.946  26.233  1.00  0.00     0.124 S 
ATOM     72  O   UNL A   1      42.368  18.418  27.583  1.00  0.00    -0.237 OA
ATOM     73  O   UNL A   1      40.840  19.093  25.759  1.00  0.00    -0.237 OA
ATOM     74  O   UNL A   1      43.156  18.432  25.244  1.00  0.00    -0.744 OA
ENDBRANCH  70  71
ENDBRANCH  49  63
BRANCH  50  75
ATOM     75  C   UNL A   1      46.449  32.780  28.363  1.00  0.00     0.058 A 
ATOM     76  C   UNL A   1      46.887  33.212  29.624  1.00  0.00     0.135 A 
ATOM     77  C   UNL A   1      46.392  33.730  27.331  1.00  0.00     0.135 A 
ATOM     78  F   UNL A   1      46.950  32.348  30.649  1.00  0.00    -0.206 F 
ATOM     79  C   UNL A   1      47.226  34.540  29.862  1.00  0.00     0.059 A 
ATOM     80  C   UNL A   1      46.753  35.059  27.538  1.00  0.00     0.059 A 
ATOM     81  F   UNL A   1      45.991  33.363  26.105  1.00  0.00    -0.206 F 
ATOM     82  C   UNL A   1      47.151  35.457  28.814  1.00  0.00     0.060 A 
BRANCH  82  83
ATOM     83  S   UNL A   1      47.574  37.180  29.151  1.00  0.00     0.124 S 
ATOM     84  O   UNL A   1      47.483  37.222  30.608  1.00  0.00    -0.237 OA
ATOM     85  O   UNL A   1      48.920  37.276  28.597  1.00  0.00    -0.237 OA
ATOM     86  O   UNL A   1      46.546  37.928  28.436  1.00  0.00    -0.744 OA
ENDBRANCH  82  83
ENDBRANCH  50  75
BRANCH  62  87
ATOM     87  C   UNL A   1      49.662  26.994  26.100  1.00  0.00     0.058 A 
ATOM     88  C   UNL A   1      50.036  27.165  24.756  1.00  0.00     0.135 A 
ATOM     89  C   UNL A   1      50.612  26.455  26.981  1.00  0.00     0.135 A 
ATOM     90  F   UNL A   1      49.163  27.672  23.870  1.00  0.00    -0.206 F 
ATOM     91  C   UNL A   1      51.292  26.786  24.297  1.00  0.00     0.059 A 
ATOM     92  C   UNL A   1      51.884  26.095  26.548  1.00  0.00     0.059 A 
ATOM     93  F   UNL A   1      50.307  26.282  28.278  1.00  0.00    -0.206 F 
ATOM     94  C   UNL A   1      52.208  26.246  25.200  1.00  0.00     0.060 A 
BRANCH  94  95
ATOM     95  S   UNL A   1      53.831  25.752  24.583  1.00  0.00     0.124 S 
ATOM     96  O   UNL A   1      54.722  26.579  25.389  1.00  0.00    -0.237 OA
ATOM     97  O   UNL A   1      53.849  24.324  24.878  1.00  0.00    -0.237 OA
ATOM     98  O   UNL A   1      53.772  26.092  23.164  1.00  0.00    -0.744 OA
ENDBRANCH  94  95
ENDBRANCH  62  87
ENDBRANCH  36  37
ENDBRANCH  28  31
ENDBRANCH  26  27
ENDBRANCH   1  26
TORSDOF 16
ENDMDL
