MODEL 1
REMARK VINA RESULT:     -11.4      0.000      0.000
REMARK SMILES O=C(NCCCNC(=O)[C@H]1[C@@H](C(=O)Nc2ccccc2-c2ccccc2)[C@@H]2C=C[C@H]1O2)c1ccc(-c2c3nc(c(-c4c(F)cc(S(=O)(=O)[O-])cc4F)c4ccc([nH]4)c(-c4c(F)cc(S(=O)(=O)[O-])cc4F)c4nc(c(-c5c(F)cc(S(=O)(=O)[O-])cc5F)c5ccc2[nH]5)C=C4)C=C3)cc1
REMARK SMILES IDX 5 1 4 2 3 3 1 4 2 5 32 7 33 8 97 9 34 10 96 11 35 12 36 13
REMARK SMILES IDX 37 14 90 15 38 16 95 17 89 18 91 19 39 20 94 21 88 22 87 23
REMARK SMILES IDX 40 25 74 26 53 27 73 28 54 29 57 30 72 31 92 32 55 33 56 34
REMARK SMILES IDX 71 36 93 37 58 38 41 39 42 40 51 41 43 42 44 43 50 44 52 45
REMARK SMILES IDX 45 46 46 47 47 48 48 49 49 50 75 51 76 52 85 53 77 54 78 55
REMARK SMILES IDX 84 56 86 57 79 58 80 59 81 60 82 61 83 62 59 63 60 64 69 65
REMARK SMILES IDX 61 66 62 67 68 68 70 69 63 70 64 71 65 72 66 73 67 74 6 75
REMARK SMILES IDX 7 76 8 77 9 79 10 80 11 81 30 82 27 83 29 84 31 85 28 86
REMARK SMILES IDX 12 87 13 88 14 89 15 91 16 92 20 93 17 94 19 95 18 96 21 97
REMARK SMILES IDX 22 98 26 99 23 100 25 101 24 102
REMARK H PARENT 3 6 91 24 57 35 7 78 14 90
REMARK Flexibility Score: inf
ROOT
ATOM      1  C   UNL A   1      34.533  31.305  27.291  1.00  0.00     0.042 C 
ENDROOT
BRANCH   1   2
ATOM      2  C   UNL A   1      35.220  30.150  27.999  1.00  0.00     0.118 C 
BRANCH   2   3
ATOM      3  N   UNL A   1      35.261  30.299  29.449  1.00  0.00    -0.352 N 
ATOM      4  O   UNL A   1      36.043  30.074  31.552  1.00  0.00    -0.269 OA
ATOM      5  C   UNL A   1      36.260  30.006  30.352  1.00  0.00     0.251 C 
ATOM      6  H   UNL A   1      34.440  30.670  29.849  1.00  0.00     0.163 HD
BRANCH   5   7
ATOM      7  C   UNL A   1      37.584  29.574  29.857  1.00  0.00     0.039 A 
ATOM      8  C   UNL A   1      38.493  28.967  30.720  1.00  0.00     0.014 A 
ATOM      9  C   UNL A   1      37.931  29.801  28.523  1.00  0.00     0.014 A 
ATOM     10  C   UNL A   1      39.810  28.806  30.325  1.00  0.00     0.010 A 
ATOM     11  C   UNL A   1      39.222  29.494  28.082  1.00  0.00     0.010 A 
ATOM     12  C   UNL A   1      40.186  29.036  28.993  1.00  0.00    -0.014 A 
BRANCH  12  13
ATOM     13  C   UNL A   1      41.576  28.711  28.583  1.00  0.00     0.031 A 
ATOM     14  C   UNL A   1      42.668  29.743  28.619  1.00  0.00     0.074 A 
ATOM     15  C   UNL A   1      41.847  27.443  28.215  1.00  0.00     0.049 A 
ATOM     16  N   UNL A   1      43.931  29.610  28.303  1.00  0.00    -0.248 NA
ATOM     17  C   UNL A   1      42.301  31.101  29.053  1.00  0.00     0.031 C 
ATOM     18  C   UNL A   1      40.855  26.364  28.126  1.00  0.00     0.029 A 
ATOM     19  N   UNL A   1      43.024  26.833  27.876  1.00  0.00    -0.354 N 
ATOM     20  C   UNL A   1      44.501  30.867  28.462  1.00  0.00     0.074 A 
ATOM     21  C   UNL A   1      43.443  31.756  28.893  1.00  0.00     0.031 C 
ATOM     22  C   UNL A   1      41.475  25.218  27.819  1.00  0.00     0.029 A 
ATOM     23  C   UNL A   1      42.889  25.493  27.603  1.00  0.00     0.049 A 
ATOM     24  H   UNL A   1      43.886  27.309  27.832  1.00  0.00     0.167 HD
ATOM     25  C   UNL A   1      45.790  31.240  28.268  1.00  0.00     0.037 A 
ATOM     26  C   UNL A   1      43.791  24.585  27.192  1.00  0.00     0.037 A 
ATOM     27  C   UNL A   1      46.837  30.336  27.863  1.00  0.00     0.049 A 
ATOM     28  C   UNL A   1      45.209  25.022  26.991  1.00  0.00     0.074 A 
ATOM     29  C   UNL A   1      48.182  30.602  27.679  1.00  0.00     0.029 A 
ATOM     30  N   UNL A   1      46.656  28.988  27.577  1.00  0.00    -0.354 N 
ATOM     31  N   UNL A   1      45.734  26.210  27.170  1.00  0.00    -0.248 NA
ATOM     32  C   UNL A   1      46.157  24.001  26.527  1.00  0.00     0.031 C 
ATOM     33  C   UNL A   1      48.805  29.427  27.242  1.00  0.00     0.029 A 
ATOM     34  C   UNL A   1      47.859  28.417  27.197  1.00  0.00     0.049 A 
ATOM     35  H   UNL A   1      45.797  28.510  27.636  1.00  0.00     0.167 HD
ATOM     36  C   UNL A   1      47.075  26.085  26.838  1.00  0.00     0.074 A 
ATOM     37  C   UNL A   1      47.285  24.696  26.475  1.00  0.00     0.031 C 
ATOM     38  C   UNL A   1      48.043  27.034  26.830  1.00  0.00     0.037 A 
BRANCH  25  39
ATOM     39  C   UNL A   1      46.135  32.692  28.459  1.00  0.00     0.058 A 
ATOM     40  C   UNL A   1      46.124  33.607  27.393  1.00  0.00     0.135 A 
ATOM     41  C   UNL A   1      46.453  33.184  29.736  1.00  0.00     0.135 A 
ATOM     42  F   UNL A   1      45.839  33.191  26.150  1.00  0.00    -0.206 F 
ATOM     43  C   UNL A   1      46.448  34.947  27.581  1.00  0.00     0.059 A 
ATOM     44  C   UNL A   1      46.757  34.526  29.952  1.00  0.00     0.059 A 
ATOM     45  F   UNL A   1      46.476  32.355  30.793  1.00  0.00    -0.206 F 
ATOM     46  C   UNL A   1      46.768  35.397  28.864  1.00  0.00     0.060 A 
BRANCH  46  47
ATOM     47  S   UNL A   1      47.200  37.136  29.089  1.00  0.00     0.124 S 
ATOM     48  O   UNL A   1      48.658  37.070  29.130  1.00  0.00    -0.237 OA
ATOM     49  O   UNL A   1      46.629  37.758  27.899  1.00  0.00    -0.237 OA
ATOM     50  O   UNL A   1      46.552  37.487  30.349  1.00  0.00    -0.744 OA
ENDBRANCH  46  47
ENDBRANCH  25  39
BRANCH  26  51
ATOM     51  C   UNL A   1      43.350  23.192  26.922  1.00  0.00     0.058 A 
ATOM     52  C   UNL A   1      43.271  22.695  25.615  1.00  0.00     0.135 A 
ATOM     53  C   UNL A   1      43.072  22.310  27.979  1.00  0.00     0.135 A 
ATOM     54  F   UNL A   1      43.529  23.501  24.574  1.00  0.00    -0.206 F 
ATOM     55  C   UNL A   1      42.935  21.370  25.362  1.00  0.00     0.059 A 
ATOM     56  C   UNL A   1      42.761  20.973  27.753  1.00  0.00     0.059 A 
ATOM     57  F   UNL A   1      43.157  22.733  29.250  1.00  0.00    -0.206 F 
ATOM     58  C   UNL A   1      42.689  20.515  26.439  1.00  0.00     0.060 A 
BRANCH  58  59
ATOM     59  S   UNL A   1      42.334  18.776  26.106  1.00  0.00     0.124 S 
ATOM     60  O   UNL A   1      40.920  18.828  25.753  1.00  0.00    -0.237 OA
ATOM     61  O   UNL A   1      43.255  18.476  25.015  1.00  0.00    -0.237 OA
ATOM     62  O   UNL A   1      42.646  18.123  27.375  1.00  0.00    -0.744 OA
ENDBRANCH  58  59
ENDBRANCH  26  51
BRANCH  38  63
ATOM     63  C   UNL A   1      49.420  26.594  26.421  1.00  0.00     0.058 A 
ATOM     64  C   UNL A   1      50.291  25.975  27.330  1.00  0.00     0.135 A 
ATOM     65  C   UNL A   1      49.857  26.764  25.099  1.00  0.00     0.135 A 
ATOM     66  F   UNL A   1      49.921  25.801  28.610  1.00  0.00    -0.206 F 
ATOM     67  C   UNL A   1      51.560  25.557  26.947  1.00  0.00     0.059 A 
ATOM     68  C   UNL A   1      51.112  26.332  24.687  1.00  0.00     0.059 A 
ATOM     69  F   UNL A   1      49.057  27.347  24.192  1.00  0.00    -0.206 F 
ATOM     70  C   UNL A   1      51.961  25.740  25.621  1.00  0.00     0.060 A 
BRANCH  70  71
ATOM     71  S   UNL A   1      53.599  25.165  25.126  1.00  0.00     0.124 S 
ATOM     72  O   UNL A   1      53.642  25.573  23.727  1.00  0.00    -0.237 OA
ATOM     73  O   UNL A   1      54.477  25.902  26.030  1.00  0.00    -0.237 OA
ATOM     74  O   UNL A   1      53.537  23.725  25.360  1.00  0.00    -0.744 OA
ENDBRANCH  70  71
ENDBRANCH  38  63
ENDBRANCH  12  13
ENDBRANCH   5   7
ENDBRANCH   2   3
ENDBRANCH   1   2
BRANCH   1  75
ATOM     75  C   UNL A   1      33.566  32.052  28.182  1.00  0.00     0.117 C 
BRANCH  75  76
ATOM     76  N   UNL A   1      33.744  33.494  28.108  1.00  0.00    -0.356 N 
ATOM     77  C   UNL A   1      34.096  34.366  29.088  1.00  0.00     0.227 C 
ATOM     78  H   UNL A   1      33.587  33.895  27.222  1.00  0.00     0.163 HD
ATOM     79  O   UNL A   1      34.357  35.522  28.757  1.00  0.00    -0.275 OA
BRANCH  77  80
ATOM     80  C   UNL A   1      34.198  33.873  30.509  1.00  0.00     0.127 C 
ATOM     81  C   UNL A   1      35.620  33.477  30.999  1.00  0.00     0.127 C 
ATOM     82  C   UNL A   1      33.831  34.989  31.509  1.00  0.00     0.155 C 
ATOM     83  C   UNL A   1      35.797  34.396  32.213  1.00  0.00     0.155 C 
ATOM     84  C   UNL A   1      33.624  34.383  32.868  1.00  0.00     0.004 C 
ATOM     85  O   UNL A   1      35.131  35.595  31.738  1.00  0.00    -0.365 OA
ATOM     86  C   UNL A   1      34.836  34.006  33.297  1.00  0.00     0.004 C 
BRANCH  81  87
ATOM     87  C   UNL A   1      36.803  33.656  30.060  1.00  0.00     0.231 C 
ATOM     88  O   UNL A   1      36.792  33.113  28.957  1.00  0.00    -0.274 OA
ATOM     89  N   UNL A   1      37.776  34.526  30.468  1.00  0.00    -0.325 N 
ATOM     90  H   UNL A   1      37.456  35.422  30.722  1.00  0.00     0.169 HD
BRANCH  89  91
ATOM     91  C   UNL A   1      39.169  34.330  30.577  1.00  0.00     0.049 A 
ATOM     92  C   UNL A   1      39.883  34.839  29.473  1.00  0.00     0.027 A 
ATOM     93  C   UNL A   1      39.870  33.867  31.715  1.00  0.00     0.005 A 
ATOM     94  C   UNL A   1      41.267  34.960  29.496  1.00  0.00     0.002 A 
ATOM     95  C   UNL A   1      41.274  34.029  31.718  1.00  0.00     0.011 A 
ATOM     96  C   UNL A   1      41.963  34.578  30.633  1.00  0.00     0.001 A 
BRANCH  93  97
ATOM     97  C   UNL A   1      39.256  33.307  32.931  1.00  0.00    -0.016 A 
ATOM     98  C   UNL A   1      39.226  34.035  34.133  1.00  0.00     0.009 A 
ATOM     99  C   UNL A   1      38.697  32.021  32.930  1.00  0.00     0.009 A 
ATOM    100  C   UNL A   1      38.574  33.534  35.263  1.00  0.00     0.001 A 
ATOM    101  C   UNL A   1      38.030  31.524  34.053  1.00  0.00     0.001 A 
ATOM    102  C   UNL A   1      37.958  32.285  35.215  1.00  0.00     0.000 A 
ENDBRANCH  93  97
ENDBRANCH  89  91
ENDBRANCH  81  87
ENDBRANCH  77  80
ENDBRANCH  75  76
ENDBRANCH   1  75
TORSDOF 16
ENDMDL
MODEL 2
REMARK VINA RESULT:     -11.1      5.564     13.502
REMARK SMILES O=C(NCCCNC(=O)[C@H]1[C@@H](C(=O)Nc2ccccc2-c2ccccc2)[C@@H]2C=C[C@H]1O2)c1ccc(-c2c3nc(c(-c4c(F)cc(S(=O)(=O)[O-])cc4F)c4ccc([nH]4)c(-c4c(F)cc(S(=O)(=O)[O-])cc4F)c4nc(c(-c5c(F)cc(S(=O)(=O)[O-])cc5F)c5ccc2[nH]5)C=C4)C=C3)cc1
REMARK SMILES IDX 5 1 4 2 3 3 1 4 2 5 32 7 33 8 97 9 34 10 96 11 35 12 36 13
REMARK SMILES IDX 37 14 90 15 38 16 95 17 89 18 91 19 39 20 94 21 88 22 87 23
REMARK SMILES IDX 40 25 74 26 53 27 73 28 54 29 57 30 72 31 92 32 55 33 56 34
REMARK SMILES IDX 71 36 93 37 58 38 41 39 42 40 51 41 43 42 44 43 50 44 52 45
REMARK SMILES IDX 45 46 46 47 47 48 48 49 49 50 75 51 76 52 85 53 77 54 78 55
REMARK SMILES IDX 84 56 86 57 79 58 80 59 81 60 82 61 83 62 59 63 60 64 69 65
REMARK SMILES IDX 61 66 62 67 68 68 70 69 63 70 64 71 65 72 66 73 67 74 6 75
REMARK SMILES IDX 7 76 8 77 9 79 10 80 11 81 30 82 27 83 29 84 31 85 28 86
REMARK SMILES IDX 12 87 13 88 14 89 15 91 16 92 20 93 17 94 19 95 18 96 21 97
REMARK SMILES IDX 22 98 26 99 23 100 25 101 24 102
REMARK H PARENT 3 6 91 24 57 35 7 78 14 90
REMARK Flexibility Score: inf
ROOT
ATOM      1  C   UNL A   1      38.992  22.740  26.882  1.00  0.00     0.042 C 
ENDROOT
BRANCH   1   2
ATOM      2  C   UNL A   1      39.052  24.226  26.571  1.00  0.00     0.118 C 
BRANCH   2   3
ATOM      3  N   UNL A   1      40.184  24.598  25.728  1.00  0.00    -0.352 N 
ATOM      4  O   UNL A   1      41.894  25.849  24.960  1.00  0.00    -0.269 OA
ATOM      5  C   UNL A   1      41.098  25.621  25.857  1.00  0.00     0.251 C 
ATOM      6  H   UNL A   1      40.315  24.025  24.939  1.00  0.00     0.163 HD
BRANCH   5   7
ATOM      7  C   UNL A   1      41.084  26.461  27.073  1.00  0.00     0.039 A 
ATOM      8  C   UNL A   1      40.550  25.968  28.261  1.00  0.00     0.014 A 
ATOM      9  C   UNL A   1      41.585  27.764  27.020  1.00  0.00     0.014 A 
ATOM     10  C   UNL A   1      40.299  26.834  29.311  1.00  0.00     0.010 A 
ATOM     11  C   UNL A   1      41.470  28.595  28.139  1.00  0.00     0.010 A 
ATOM     12  C   UNL A   1      40.784  28.150  29.278  1.00  0.00    -0.014 A 
BRANCH  12  13
ATOM     13  C   UNL A   1      40.618  28.997  30.487  1.00  0.00     0.031 A 
ATOM     14  C   UNL A   1      41.534  28.865  31.672  1.00  0.00     0.074 A 
ATOM     15  C   UNL A   1      39.643  29.928  30.479  1.00  0.00     0.049 A 
ATOM     16  N   UNL A   1      41.523  29.537  32.794  1.00  0.00    -0.248 NA
ATOM     17  C   UNL A   1      42.589  27.841  31.599  1.00  0.00     0.031 C 
ATOM     18  C   UNL A   1      38.684  30.129  29.386  1.00  0.00     0.029 A 
ATOM     19  N   UNL A   1      39.308  30.893  31.390  1.00  0.00    -0.354 N 
ATOM     20  C   UNL A   1      42.540  29.000  33.574  1.00  0.00     0.074 A 
ATOM     21  C   UNL A   1      43.142  27.934  32.801  1.00  0.00     0.031 C 
ATOM     22  C   UNL A   1      37.914  31.189  29.663  1.00  0.00     0.029 A 
ATOM     23  C   UNL A   1      38.262  31.688  30.986  1.00  0.00     0.049 A 
ATOM     24  H   UNL A   1      39.772  31.007  32.251  1.00  0.00     0.167 HD
ATOM     25  C   UNL A   1      42.933  29.366  34.818  1.00  0.00     0.037 A 
ATOM     26  C   UNL A   1      37.626  32.689  31.619  1.00  0.00     0.037 A 
ATOM     27  C   UNL A   1      42.339  30.448  35.563  1.00  0.00     0.049 A 
ATOM     28  C   UNL A   1      38.083  33.079  32.990  1.00  0.00     0.074 A 
ATOM     29  C   UNL A   1      42.688  30.928  36.813  1.00  0.00     0.029 A 
ATOM     30  N   UNL A   1      41.267  31.217  35.128  1.00  0.00    -0.354 N 
ATOM     31  N   UNL A   1      39.062  32.572  33.702  1.00  0.00    -0.248 NA
ATOM     32  C   UNL A   1      37.350  34.166  33.649  1.00  0.00     0.031 C 
ATOM     33  C   UNL A   1      41.804  31.958  37.151  1.00  0.00     0.029 A 
ATOM     34  C   UNL A   1      40.930  32.153  36.093  1.00  0.00     0.049 A 
ATOM     35  H   UNL A   1      40.814  31.114  34.260  1.00  0.00     0.167 HD
ATOM     36  C   UNL A   1      39.064  33.278  34.896  1.00  0.00     0.074 A 
ATOM     37  C   UNL A   1      38.005  34.265  34.799  1.00  0.00     0.031 C 
ATOM     38  C   UNL A   1      39.866  33.119  35.978  1.00  0.00     0.037 A 
BRANCH  25  39
ATOM     39  C   UNL A   1      44.035  28.573  35.466  1.00  0.00     0.058 A 
ATOM     40  C   UNL A   1      43.770  27.499  36.331  1.00  0.00     0.135 A 
ATOM     41  C   UNL A   1      45.380  28.874  35.193  1.00  0.00     0.135 A 
ATOM     42  F   UNL A   1      42.504  27.175  36.637  1.00  0.00    -0.206 F 
ATOM     43  C   UNL A   1      44.798  26.775  36.928  1.00  0.00     0.059 A 
ATOM     44  C   UNL A   1      46.425  28.147  35.760  1.00  0.00     0.059 A 
ATOM     45  F   UNL A   1      45.693  29.888  34.372  1.00  0.00    -0.206 F 
ATOM     46  C   UNL A   1      46.123  27.110  36.640  1.00  0.00     0.060 A 
BRANCH  46  47
ATOM     47  S   UNL A   1      47.445  26.169  37.433  1.00  0.00     0.124 S 
ATOM     48  O   UNL A   1      48.629  26.890  36.975  1.00  0.00    -0.237 OA
ATOM     49  O   UNL A   1      47.128  26.313  38.850  1.00  0.00    -0.237 OA
ATOM     50  O   UNL A   1      47.279  24.825  36.890  1.00  0.00    -0.744 OA
ENDBRANCH  46  47
ENDBRANCH  25  39
BRANCH  26  51
ATOM     51  C   UNL A   1      36.475  33.354  30.954  1.00  0.00     0.058 A 
ATOM     52  C   UNL A   1      35.172  33.218  31.449  1.00  0.00     0.135 A 
ATOM     53  C   UNL A   1      36.675  34.202  29.852  1.00  0.00     0.135 A 
ATOM     54  F   UNL A   1      34.933  32.419  32.500  1.00  0.00    -0.206 F 
ATOM     55  C   UNL A   1      34.104  33.902  30.877  1.00  0.00     0.059 A 
ATOM     56  C   UNL A   1      35.628  34.917  29.281  1.00  0.00     0.059 A 
ATOM     57  F   UNL A   1      37.910  34.383  29.357  1.00  0.00    -0.206 F 
ATOM     58  C   UNL A   1      34.345  34.755  29.797  1.00  0.00     0.060 A 
BRANCH  58  59
ATOM     59  S   UNL A   1      32.967  35.702  29.113  1.00  0.00     0.124 S 
ATOM     60  O   UNL A   1      32.184  35.985  30.310  1.00  0.00    -0.237 OA
ATOM     61  O   UNL A   1      33.648  36.843  28.509  1.00  0.00    -0.237 OA
ATOM     62  O   UNL A   1      32.361  34.771  28.165  1.00  0.00    -0.744 OA
ENDBRANCH  58  59
ENDBRANCH  26  51
BRANCH  38  63
ATOM     63  C   UNL A   1      39.629  34.043  37.139  1.00  0.00     0.058 A 
ATOM     64  C   UNL A   1      38.883  33.639  38.256  1.00  0.00     0.135 A 
ATOM     65  C   UNL A   1      40.184  35.332  37.146  1.00  0.00     0.135 A 
ATOM     66  F   UNL A   1      38.322  32.419  38.289  1.00  0.00    -0.206 F 
ATOM     67  C   UNL A   1      38.676  34.491  39.335  1.00  0.00     0.059 A 
ATOM     68  C   UNL A   1      40.011  36.191  38.224  1.00  0.00     0.059 A 
ATOM     69  F   UNL A   1      40.911  35.761  36.102  1.00  0.00    -0.206 F 
ATOM     70  C   UNL A   1      39.246  35.766  39.310  1.00  0.00     0.060 A 
BRANCH  70  71
ATOM     71  S   UNL A   1      38.997  36.852  40.729  1.00  0.00     0.124 S 
ATOM     72  O   UNL A   1      40.366  37.044  41.195  1.00  0.00    -0.237 OA
ATOM     73  O   UNL A   1      38.363  38.020  40.124  1.00  0.00    -0.237 OA
ATOM     74  O   UNL A   1      38.137  36.066  41.610  1.00  0.00    -0.744 OA
ENDBRANCH  70  71
ENDBRANCH  38  63
ENDBRANCH  12  13
ENDBRANCH   5   7
ENDBRANCH   2   3
ENDBRANCH   1   2
BRANCH   1  75
ATOM     75  C   UNL A   1      39.664  21.889  25.828  1.00  0.00     0.117 C 
BRANCH  75  76
ATOM     76  N   UNL A   1      40.518  20.863  26.405  1.00  0.00    -0.356 N 
ATOM     77  C   UNL A   1      41.872  20.830  26.503  1.00  0.00     0.227 C 
ATOM     78  H   UNL A   1      40.048  20.082  26.778  1.00  0.00     0.163 HD
ATOM     79  O   UNL A   1      42.373  19.939  27.189  1.00  0.00    -0.275 OA
BRANCH  77  80
ATOM     80  C   UNL A   1      42.685  21.899  25.819  1.00  0.00     0.127 C 
ATOM     81  C   UNL A   1      43.213  23.048  26.726  1.00  0.00     0.127 C 
ATOM     82  C   UNL A   1      44.003  21.320  25.264  1.00  0.00     0.155 C 
ATOM     83  C   UNL A   1      44.725  22.956  26.495  1.00  0.00     0.155 C 
ATOM     84  C   UNL A   1      44.618  22.315  24.320  1.00  0.00     0.004 C 
ATOM     85  O   UNL A   1      44.891  21.518  26.396  1.00  0.00    -0.365 OA
ATOM     86  C   UNL A   1      45.052  23.330  25.080  1.00  0.00     0.004 C 
BRANCH  81  87
ATOM     87  C   UNL A   1      42.931  23.000  28.220  1.00  0.00     0.231 C 
ATOM     88  O   UNL A   1      41.772  22.894  28.618  1.00  0.00    -0.274 OA
ATOM     89  N   UNL A   1      44.022  22.961  29.042  1.00  0.00    -0.325 N 
ATOM     90  H   UNL A   1      44.676  22.254  28.838  1.00  0.00     0.169 HD
BRANCH  89  91
ATOM     91  C   UNL A   1      44.349  23.784  30.141  1.00  0.00     0.049 A 
ATOM     92  C   UNL A   1      43.950  23.233  31.377  1.00  0.00     0.027 A 
ATOM     93  C   UNL A   1      45.159  24.943  30.118  1.00  0.00     0.005 A 
ATOM     94  C   UNL A   1      44.387  23.766  32.584  1.00  0.00     0.002 A 
ATOM     95  C   UNL A   1      45.607  25.443  31.360  1.00  0.00     0.011 A 
ATOM     96  C   UNL A   1      45.240  24.858  32.575  1.00  0.00     0.001 A 
BRANCH  93  97
ATOM     97  C   UNL A   1      45.643  25.626  28.904  1.00  0.00    -0.016 A 
ATOM     98  C   UNL A   1      46.986  25.528  28.501  1.00  0.00     0.009 A 
ATOM     99  C   UNL A   1      44.780  26.409  28.125  1.00  0.00     0.009 A 
ATOM    100  C   UNL A   1      47.424  26.111  27.309  1.00  0.00     0.001 A 
ATOM    101  C   UNL A   1      45.211  26.980  26.925  1.00  0.00     0.001 A 
ATOM    102  C   UNL A   1      46.529  26.820  26.510  1.00  0.00     0.000 A 
ENDBRANCH  93  97
ENDBRANCH  89  91
ENDBRANCH  81  87
ENDBRANCH  77  80
ENDBRANCH  75  76
ENDBRANCH   1  75
TORSDOF 16
ENDMDL
MODEL 3
REMARK VINA RESULT:     -11.0      6.467     13.102
REMARK SMILES O=C(NCCCNC(=O)[C@H]1[C@@H](C(=O)Nc2ccccc2-c2ccccc2)[C@@H]2C=C[C@H]1O2)c1ccc(-c2c3nc(c(-c4c(F)cc(S(=O)(=O)[O-])cc4F)c4ccc([nH]4)c(-c4c(F)cc(S(=O)(=O)[O-])cc4F)c4nc(c(-c5c(F)cc(S(=O)(=O)[O-])cc5F)c5ccc2[nH]5)C=C4)C=C3)cc1
REMARK SMILES IDX 5 1 4 2 3 3 1 4 2 5 32 7 33 8 97 9 34 10 96 11 35 12 36 13
REMARK SMILES IDX 37 14 90 15 38 16 95 17 89 18 91 19 39 20 94 21 88 22 87 23
REMARK SMILES IDX 40 25 74 26 53 27 73 28 54 29 57 30 72 31 92 32 55 33 56 34
REMARK SMILES IDX 71 36 93 37 58 38 41 39 42 40 51 41 43 42 44 43 50 44 52 45
REMARK SMILES IDX 45 46 46 47 47 48 48 49 49 50 75 51 76 52 85 53 77 54 78 55
REMARK SMILES IDX 84 56 86 57 79 58 80 59 81 60 82 61 83 62 59 63 60 64 69 65
REMARK SMILES IDX 61 66 62 67 68 68 70 69 63 70 64 71 65 72 66 73 67 74 6 75
REMARK SMILES IDX 7 76 8 77 9 79 10 80 11 81 30 82 27 83 29 84 31 85 28 86
REMARK SMILES IDX 12 87 13 88 14 89 15 91 16 92 20 93 17 94 19 95 18 96 21 97
REMARK SMILES IDX 22 98 26 99 23 100 25 101 24 102
REMARK H PARENT 3 6 91 24 57 35 7 78 14 90
REMARK Flexibility Score: inf
ROOT
ATOM      1  C   UNL A   1      37.672  24.018  25.898  1.00  0.00     0.042 C 
ENDROOT
BRANCH   1   2
ATOM      2  C   UNL A   1      38.857  23.587  26.747  1.00  0.00     0.118 C 
BRANCH   2   3
ATOM      3  N   UNL A   1      40.147  23.851  26.120  1.00  0.00    -0.352 N 
ATOM      4  O   UNL A   1      42.013  24.996  25.583  1.00  0.00    -0.269 OA
ATOM      5  C   UNL A   1      41.044  24.879  26.316  1.00  0.00     0.251 C 
ATOM      6  H   UNL A   1      40.423  23.186  25.448  1.00  0.00     0.163 HD
BRANCH   5   7
ATOM      7  C   UNL A   1      40.802  25.860  27.396  1.00  0.00     0.039 A 
ATOM      8  C   UNL A   1      41.503  27.063  27.422  1.00  0.00     0.014 A 
ATOM      9  C   UNL A   1      39.884  25.563  28.406  1.00  0.00     0.014 A 
ATOM     10  C   UNL A   1      41.470  27.850  28.560  1.00  0.00     0.010 A 
ATOM     11  C   UNL A   1      39.737  26.440  29.486  1.00  0.00     0.010 A 
ATOM     12  C   UNL A   1      40.564  27.568  29.593  1.00  0.00    -0.014 A 
BRANCH  12  13
ATOM     13  C   UNL A   1      40.462  28.523  30.726  1.00  0.00     0.031 A 
ATOM     14  C   UNL A   1      41.390  28.446  31.906  1.00  0.00     0.074 A 
ATOM     15  C   UNL A   1      39.535  29.499  30.649  1.00  0.00     0.049 A 
ATOM     16  N   UNL A   1      41.433  29.211  32.965  1.00  0.00    -0.248 NA
ATOM     17  C   UNL A   1      42.390  27.366  31.908  1.00  0.00     0.031 C 
ATOM     18  C   UNL A   1      38.568  29.656  29.556  1.00  0.00     0.029 A 
ATOM     19  N   UNL A   1      39.265  30.555  31.478  1.00  0.00    -0.354 N 
ATOM     20  C   UNL A   1      42.434  28.691  33.776  1.00  0.00     0.074 A 
ATOM     21  C   UNL A   1      42.968  27.532  33.090  1.00  0.00     0.031 C 
ATOM     22  C   UNL A   1      37.858  30.773  29.750  1.00  0.00     0.029 A 
ATOM     23  C   UNL A   1      38.253  31.366  31.021  1.00  0.00     0.049 A 
ATOM     24  H   UNL A   1      39.749  30.718  32.320  1.00  0.00     0.167 HD
ATOM     25  C   UNL A   1      42.866  29.141  34.979  1.00  0.00     0.037 A 
ATOM     26  C   UNL A   1      37.680  32.449  31.573  1.00  0.00     0.037 A 
ATOM     27  C   UNL A   1      42.341  30.312  35.635  1.00  0.00     0.049 A 
ATOM     28  C   UNL A   1      38.180  32.930  32.899  1.00  0.00     0.074 A 
ATOM     29  C   UNL A   1      42.736  30.879  36.834  1.00  0.00     0.029 A 
ATOM     30  N   UNL A   1      41.302  31.096  35.149  1.00  0.00    -0.354 N 
ATOM     31  N   UNL A   1      39.144  32.437  33.639  1.00  0.00    -0.248 NA
ATOM     32  C   UNL A   1      37.514  34.106  33.471  1.00  0.00     0.031 C 
ATOM     33  C   UNL A   1      41.910  31.979  37.093  1.00  0.00     0.029 A 
ATOM     34  C   UNL A   1      41.029  32.127  36.034  1.00  0.00     0.049 A 
ATOM     35  H   UNL A   1      40.829  30.942  34.299  1.00  0.00     0.167 HD
ATOM     36  C   UNL A   1      39.202  33.241  34.768  1.00  0.00     0.074 A 
ATOM     37  C   UNL A   1      38.193  34.269  34.599  1.00  0.00     0.031 C 
ATOM     38  C   UNL A   1      40.013  33.134  35.849  1.00  0.00     0.037 A 
BRANCH  25  39
ATOM     39  C   UNL A   1      43.938  28.351  35.679  1.00  0.00     0.058 A 
ATOM     40  C   UNL A   1      43.633  27.330  36.594  1.00  0.00     0.135 A 
ATOM     41  C   UNL A   1      45.294  28.598  35.407  1.00  0.00     0.135 A 
ATOM     42  F   UNL A   1      42.355  27.058  36.901  1.00  0.00    -0.206 F 
ATOM     43  C   UNL A   1      44.633  26.607  37.238  1.00  0.00     0.059 A 
ATOM     44  C   UNL A   1      46.311  27.871  36.021  1.00  0.00     0.059 A 
ATOM     45  F   UNL A   1      45.645  29.560  34.539  1.00  0.00    -0.206 F 
ATOM     46  C   UNL A   1      45.970  26.889  36.949  1.00  0.00     0.060 A 
BRANCH  46  47
ATOM     47  S   UNL A   1      47.256  25.952  37.804  1.00  0.00     0.124 S 
ATOM     48  O   UNL A   1      47.945  27.008  38.538  1.00  0.00    -0.237 OA
ATOM     49  O   UNL A   1      46.480  25.021  38.617  1.00  0.00    -0.237 OA
ATOM     50  O   UNL A   1      48.015  25.345  36.715  1.00  0.00    -0.744 OA
ENDBRANCH  46  47
ENDBRANCH  25  39
BRANCH  26  51
ATOM     51  C   UNL A   1      36.553  33.113  30.867  1.00  0.00     0.058 A 
ATOM     52  C   UNL A   1      35.237  33.000  31.332  1.00  0.00     0.135 A 
ATOM     53  C   UNL A   1      36.789  33.938  29.756  1.00  0.00     0.135 A 
ATOM     54  F   UNL A   1      34.964  32.223  32.392  1.00  0.00    -0.206 F 
ATOM     55  C   UNL A   1      34.190  33.683  30.723  1.00  0.00     0.059 A 
ATOM     56  C   UNL A   1      35.764  34.654  29.146  1.00  0.00     0.059 A 
ATOM     57  F   UNL A   1      38.037  34.098  29.288  1.00  0.00    -0.206 F 
ATOM     58  C   UNL A   1      34.467  34.514  29.633  1.00  0.00     0.060 A 
BRANCH  58  59
ATOM     59  S   UNL A   1      33.117  35.462  28.898  1.00  0.00     0.124 S 
ATOM     60  O   UNL A   1      32.381  35.889  30.082  1.00  0.00    -0.237 OA
ATOM     61  O   UNL A   1      33.833  36.510  28.178  1.00  0.00    -0.237 OA
ATOM     62  O   UNL A   1      32.442  34.481  28.052  1.00  0.00    -0.744 OA
ENDBRANCH  58  59
ENDBRANCH  26  51
BRANCH  38  63
ATOM     63  C   UNL A   1      39.844  34.165  36.928  1.00  0.00     0.058 A 
ATOM     64  C   UNL A   1      40.405  35.445  36.813  1.00  0.00     0.135 A 
ATOM     65  C   UNL A   1      39.084  33.878  38.073  1.00  0.00     0.135 A 
ATOM     66  F   UNL A   1      41.150  35.763  35.741  1.00  0.00    -0.206 F 
ATOM     67  C   UNL A   1      40.236  36.403  37.807  1.00  0.00     0.059 A 
ATOM     68  C   UNL A   1      38.881  34.827  39.067  1.00  0.00     0.059 A 
ATOM     69  F   UNL A   1      38.523  32.668  38.226  1.00  0.00    -0.206 F 
ATOM     70  C   UNL A   1      39.471  36.083  38.931  1.00  0.00     0.060 A 
BRANCH  70  71
ATOM     71  S   UNL A   1      39.231  37.343  40.201  1.00  0.00     0.124 S 
ATOM     72  O   UNL A   1      38.528  36.589  41.233  1.00  0.00    -0.237 OA
ATOM     73  O   UNL A   1      40.602  37.732  40.520  1.00  0.00    -0.237 OA
ATOM     74  O   UNL A   1      38.440  38.364  39.519  1.00  0.00    -0.744 OA
ENDBRANCH  70  71
ENDBRANCH  38  63
ENDBRANCH  12  13
ENDBRANCH   5   7
ENDBRANCH   2   3
ENDBRANCH   1   2
BRANCH   1  75
ATOM     75  C   UNL A   1      36.827  22.854  25.431  1.00  0.00     0.117 C 
BRANCH  75  76
ATOM     76  N   UNL A   1      36.147  23.132  24.175  1.00  0.00    -0.356 N 
ATOM     77  C   UNL A   1      34.818  23.273  23.933  1.00  0.00     0.227 C 
ATOM     78  H   UNL A   1      36.733  23.233  23.390  1.00  0.00     0.163 HD
ATOM     79  O   UNL A   1      34.480  23.680  22.822  1.00  0.00    -0.275 OA
BRANCH  77  80
ATOM     80  C   UNL A   1      33.834  22.977  25.036  1.00  0.00     0.127 C 
ATOM     81  C   UNL A   1      33.374  24.192  25.892  1.00  0.00     0.127 C 
ATOM     82  C   UNL A   1      32.490  22.485  24.460  1.00  0.00     0.155 C 
ATOM     83  C   UNL A   1      31.855  24.153  25.695  1.00  0.00     0.155 C 
ATOM     84  C   UNL A   1      31.666  21.894  25.569  1.00  0.00     0.004 C 
ATOM     85  O   UNL A   1      31.778  23.741  24.306  1.00  0.00    -0.365 OA
ATOM     86  C   UNL A   1      31.285  22.923  26.338  1.00  0.00     0.004 C 
BRANCH  81  87
ATOM     87  C   UNL A   1      33.889  25.580  25.543  1.00  0.00     0.231 C 
ATOM     88  O   UNL A   1      35.094  25.760  25.382  1.00  0.00    -0.274 OA
ATOM     89  N   UNL A   1      32.941  26.538  25.311  1.00  0.00    -0.325 N 
ATOM     90  H   UNL A   1      32.255  26.296  24.647  1.00  0.00     0.169 HD
BRANCH  89  91
ATOM     91  C   UNL A   1      32.801  27.821  25.881  1.00  0.00     0.049 A 
ATOM     92  C   UNL A   1      33.826  28.129  26.799  1.00  0.00     0.027 A 
ATOM     93  C   UNL A   1      31.885  28.824  25.488  1.00  0.00     0.005 A 
ATOM     94  C   UNL A   1      34.003  29.419  27.284  1.00  0.00     0.002 A 
ATOM     95  C   UNL A   1      32.108  30.130  25.979  1.00  0.00     0.011 A 
ATOM     96  C   UNL A   1      33.158  30.429  26.852  1.00  0.00     0.001 A 
BRANCH  93  97
ATOM     97  C   UNL A   1      30.766  28.643  24.546  1.00  0.00    -0.016 A 
ATOM     98  C   UNL A   1      30.208  27.373  24.316  1.00  0.00     0.009 A 
ATOM     99  C   UNL A   1      30.236  29.729  23.837  1.00  0.00     0.009 A 
ATOM    100  C   UNL A   1      29.097  27.215  23.483  1.00  0.00     0.001 A 
ATOM    101  C   UNL A   1      29.115  29.577  23.017  1.00  0.00     0.001 A 
ATOM    102  C   UNL A   1      28.538  28.322  22.850  1.00  0.00     0.000 A 
ENDBRANCH  93  97
ENDBRANCH  89  91
ENDBRANCH  81  87
ENDBRANCH  77  80
ENDBRANCH  75  76
ENDBRANCH   1  75
TORSDOF 16
ENDMDL
