MODEL 1
REMARK VINA RESULT:     -10.6      0.000      0.000
REMARK SMILES C[C@@H](Oc1ccc(N)cc1)C(=O)NCCCNC(=O)c1ccc(-c2c3nc(c(-c4c(F)cc(S(=O)(=O)[O-])cc4F)c4ccc([nH]4)c(-c4c(F)cc(S(=O)(=O)[O-])cc4F)c4nc(c(-c5c(F)cc(S(=O)(=O)[O-])cc5F)c5ccc2[nH]5)C=C4)C=C3)cc1
REMARK SMILES IDX 15 1 14 2 13 3 11 4 12 5 2 7 1 8 3 9 4 10 5 11 10 12 6 13
REMARK SMILES IDX 9 14 7 15 8 16 16 19 17 20 18 21 19 23 20 24 21 25 85 26
REMARK SMILES IDX 22 27 84 28 23 29 24 30 25 31 78 32 26 33 83 34 77 35 79 36
REMARK SMILES IDX 27 37 82 38 76 39 75 40 28 42 62 43 41 44 61 45 42 46 45 47
REMARK SMILES IDX 60 48 80 49 43 50 44 51 59 53 81 54 46 55 29 56 30 57 39 58
REMARK SMILES IDX 31 59 32 60 38 61 40 62 33 63 34 64 35 65 36 66 37 67 63 68
REMARK SMILES IDX 64 69 73 70 65 71 66 72 72 73 74 74 67 75 68 76 69 77 70 78
REMARK SMILES IDX 71 79 47 80 48 81 57 82 49 83 50 84 56 85 58 86 51 87 52 88
REMARK SMILES IDX 53 89 54 90 55 91
REMARK H PARENT 13 6 8 17 8 18 17 22 79 41 45 52
REMARK Flexibility Score: inf
ROOT
ATOM      1  C   UNL A   1      32.682  28.109  25.891  1.00  0.00     0.042 C 
ENDROOT
BRANCH   1   2
ATOM      2  C   UNL A   1      32.838  26.718  25.296  1.00  0.00     0.118 C 
BRANCH   2   3
ATOM      3  N   UNL A   1      33.228  26.745  23.894  1.00  0.00    -0.353 N 
ATOM      4  C   UNL A   1      33.634  25.726  23.075  1.00  0.00     0.260 C 
ATOM      5  O   UNL A   1      33.853  25.994  21.889  1.00  0.00    -0.271 OA
ATOM      6  H   UNL A   1      33.195  27.633  23.470  1.00  0.00     0.163 HD
BRANCH   4   7
ATOM      7  C   UNL A   1      33.877  24.311  23.625  1.00  0.00     0.258 C 
ATOM      8  C   UNL A   1      32.697  23.434  23.214  1.00  0.00     0.064 C 
BRANCH   7   9
ATOM      9  O   UNL A   1      35.152  23.891  23.137  1.00  0.00    -0.481 OA
BRANCH   9  10
ATOM     10  C   UNL A   1      35.999  23.316  24.031  1.00  0.00     0.120 A 
ATOM     11  C   UNL A   1      36.607  22.090  23.785  1.00  0.00     0.048 A 
ATOM     12  C   UNL A   1      36.407  24.088  25.114  1.00  0.00     0.048 A 
ATOM     13  C   UNL A   1      37.594  21.615  24.650  1.00  0.00     0.029 A 
ATOM     14  C   UNL A   1      37.406  23.615  25.970  1.00  0.00     0.029 A 
ATOM     15  C   UNL A   1      38.028  22.388  25.729  1.00  0.00     0.032 A 
BRANCH  15  16
ATOM     16  N   UNL A   1      38.985  21.896  26.603  1.00  0.00    -0.399 N 
ATOM     17  H   UNL A   1      38.709  21.378  27.392  1.00  0.00     0.156 HD
ATOM     18  H   UNL A   1      39.939  22.066  26.433  1.00  0.00     0.156 HD
ENDBRANCH  15  16
ENDBRANCH   9  10
ENDBRANCH   7   9
ENDBRANCH   4   7
ENDBRANCH   2   3
ENDBRANCH   1   2
BRANCH   1  19
ATOM     19  C   UNL A   1      33.652  28.407  27.024  1.00  0.00     0.118 C 
BRANCH  19  20
ATOM     20  N   UNL A   1      33.586  29.792  27.473  1.00  0.00    -0.352 N 
ATOM     21  C   UNL A   1      34.520  30.547  28.141  1.00  0.00     0.251 C 
ATOM     22  H   UNL A   1      32.743  30.258  27.266  1.00  0.00     0.163 HD
ATOM     23  O   UNL A   1      34.207  31.647  28.589  1.00  0.00    -0.269 OA
BRANCH  21  24
ATOM     24  C   UNL A   1      35.888  30.024  28.342  1.00  0.00     0.039 A 
ATOM     25  C   UNL A   1      36.802  30.086  27.286  1.00  0.00     0.014 A 
ATOM     26  C   UNL A   1      36.269  29.477  29.569  1.00  0.00     0.014 A 
ATOM     27  C   UNL A   1      38.124  29.677  27.490  1.00  0.00     0.010 A 
ATOM     28  C   UNL A   1      37.600  29.146  29.793  1.00  0.00     0.010 A 
ATOM     29  C   UNL A   1      38.543  29.245  28.758  1.00  0.00    -0.014 A 
BRANCH  29  30
ATOM     30  C   UNL A   1      39.955  28.886  29.043  1.00  0.00     0.031 A 
ATOM     31  C   UNL A   1      40.900  29.937  29.559  1.00  0.00     0.074 A 
ATOM     32  C   UNL A   1      40.410  27.656  28.735  1.00  0.00     0.049 A 
ATOM     33  N   UNL A   1      42.199  29.884  29.697  1.00  0.00    -0.248 NA
ATOM     34  C   UNL A   1      40.307  31.229  29.938  1.00  0.00     0.031 C 
ATOM     35  C   UNL A   1      39.600  26.560  28.197  1.00  0.00     0.029 A 
ATOM     36  N   UNL A   1      41.676  27.126  28.805  1.00  0.00    -0.354 N 
ATOM     37  C   UNL A   1      42.582  31.142  30.149  1.00  0.00     0.074 A 
ATOM     38  C   UNL A   1      41.382  31.947  30.224  1.00  0.00     0.031 C 
ATOM     39  C   UNL A   1      40.385  25.491  27.991  1.00  0.00     0.029 A 
ATOM     40  C   UNL A   1      41.760  25.836  28.337  1.00  0.00     0.049 A 
ATOM     41  H   UNL A   1      42.449  27.623  29.156  1.00  0.00     0.167 HD
ATOM     42  C   UNL A   1      43.819  31.580  30.485  1.00  0.00     0.037 A 
ATOM     43  C   UNL A   1      42.828  25.028  28.183  1.00  0.00     0.037 A 
ATOM     44  C   UNL A   1      45.001  30.760  30.440  1.00  0.00     0.049 A 
ATOM     45  C   UNL A   1      44.192  25.533  28.570  1.00  0.00     0.074 A 
ATOM     46  C   UNL A   1      46.293  31.095  30.807  1.00  0.00     0.029 A 
ATOM     47  N   UNL A   1      45.035  29.442  30.008  1.00  0.00    -0.354 N 
ATOM     48  N   UNL A   1      44.532  26.713  29.030  1.00  0.00    -0.248 NA
ATOM     49  C   UNL A   1      45.317  24.600  28.421  1.00  0.00     0.031 C 
ATOM     50  C   UNL A   1      47.115  29.988  30.566  1.00  0.00     0.029 A 
ATOM     51  C   UNL A   1      46.326  28.951  30.092  1.00  0.00     0.049 A 
ATOM     52  H   UNL A   1      44.256  28.932  29.690  1.00  0.00     0.167 HD
ATOM     53  C   UNL A   1      45.901  26.652  29.260  1.00  0.00     0.074 A 
ATOM     54  C   UNL A   1      46.329  25.320  28.887  1.00  0.00     0.031 C 
ATOM     55  C   UNL A   1      46.729  27.612  29.743  1.00  0.00     0.037 A 
BRANCH  42  56
ATOM     56  C   UNL A   1      43.955  33.009  30.931  1.00  0.00     0.058 A 
ATOM     57  C   UNL A   1      44.260  34.037  30.025  1.00  0.00     0.135 A 
ATOM     58  C   UNL A   1      43.749  33.359  32.275  1.00  0.00     0.135 A 
ATOM     59  F   UNL A   1      44.482  33.755  28.731  1.00  0.00    -0.206 F 
ATOM     60  C   UNL A   1      44.386  35.358  30.441  1.00  0.00     0.059 A 
ATOM     61  C   UNL A   1      43.843  34.679  32.708  1.00  0.00     0.059 A 
ATOM     62  F   UNL A   1      43.455  32.415  33.183  1.00  0.00    -0.206 F 
ATOM     63  C   UNL A   1      44.179  35.669  31.786  1.00  0.00     0.060 A 
BRANCH  63  64
ATOM     64  S   UNL A   1      44.347  37.388  32.310  1.00  0.00     0.124 S 
ATOM     65  O   UNL A   1      45.785  37.480  32.544  1.00  0.00    -0.237 OA
ATOM     66  O   UNL A   1      43.845  38.120  31.151  1.00  0.00    -0.237 OA
ATOM     67  O   UNL A   1      43.510  37.462  33.504  1.00  0.00    -0.744 OA
ENDBRANCH  63  64
ENDBRANCH  42  56
BRANCH  43  68
ATOM     68  C   UNL A   1      42.647  23.651  27.652  1.00  0.00     0.058 A 
ATOM     69  C   UNL A   1      42.680  23.403  26.271  1.00  0.00     0.135 A 
ATOM     70  C   UNL A   1      42.456  22.557  28.509  1.00  0.00     0.135 A 
ATOM     71  F   UNL A   1      42.854  24.419  25.413  1.00  0.00    -0.206 F 
ATOM     72  C   UNL A   1      42.518  22.122  25.757  1.00  0.00     0.059 A 
ATOM     73  C   UNL A   1      42.315  21.262  28.019  1.00  0.00     0.059 A 
ATOM     74  F   UNL A   1      42.434  22.738  29.838  1.00  0.00    -0.206 F 
ATOM     75  C   UNL A   1      42.339  21.055  26.641  1.00  0.00     0.060 A 
BRANCH  75  76
ATOM     76  S   UNL A   1      42.180  19.388  25.965  1.00  0.00     0.124 S 
ATOM     77  O   UNL A   1      40.741  19.293  25.749  1.00  0.00    -0.237 OA
ATOM     78  O   UNL A   1      43.003  19.465  24.761  1.00  0.00    -0.237 OA
ATOM     79  O   UNL A   1      42.718  18.544  27.029  1.00  0.00    -0.744 OA
ENDBRANCH  75  76
ENDBRANCH  43  68
BRANCH  55  80
ATOM     80  C   UNL A   1      48.171  27.249  29.957  1.00  0.00     0.058 A 
ATOM     81  C   UNL A   1      49.155  27.531  28.999  1.00  0.00     0.135 A 
ATOM     82  C   UNL A   1      48.581  26.690  31.178  1.00  0.00     0.135 A 
ATOM     83  F   UNL A   1      48.812  28.057  27.812  1.00  0.00    -0.206 F 
ATOM     84  C   UNL A   1      50.499  27.265  29.241  1.00  0.00     0.059 A 
ATOM     85  C   UNL A   1      49.921  26.438  31.451  1.00  0.00     0.059 A 
ATOM     86  F   UNL A   1      47.678  26.409  32.130  1.00  0.00    -0.206 F 
ATOM     87  C   UNL A   1      50.873  26.725  30.474  1.00  0.00     0.060 A 
BRANCH  87  88
ATOM     88  S   UNL A   1      52.626  26.447  30.803  1.00  0.00     0.124 S 
ATOM     89  O   UNL A   1      52.582  25.264  31.656  1.00  0.00    -0.237 OA
ATOM     90  O   UNL A   1      53.168  26.243  29.463  1.00  0.00    -0.237 OA
ATOM     91  O   UNL A   1      53.048  27.680  31.461  1.00  0.00    -0.744 OA
ENDBRANCH  87  88
ENDBRANCH  55  80
ENDBRANCH  29  30
ENDBRANCH  21  24
ENDBRANCH  19  20
ENDBRANCH   1  19
TORSDOF 16
ENDMDL
MODEL 2
REMARK VINA RESULT:     -10.6      3.638     10.287
REMARK SMILES C[C@@H](Oc1ccc(N)cc1)C(=O)NCCCNC(=O)c1ccc(-c2c3nc(c(-c4c(F)cc(S(=O)(=O)[O-])cc4F)c4ccc([nH]4)c(-c4c(F)cc(S(=O)(=O)[O-])cc4F)c4nc(c(-c5c(F)cc(S(=O)(=O)[O-])cc5F)c5ccc2[nH]5)C=C4)C=C3)cc1
REMARK SMILES IDX 15 1 14 2 13 3 11 4 12 5 2 7 1 8 3 9 4 10 5 11 10 12 6 13
REMARK SMILES IDX 9 14 7 15 8 16 16 19 17 20 18 21 19 23 20 24 21 25 85 26
REMARK SMILES IDX 22 27 84 28 23 29 24 30 25 31 78 32 26 33 83 34 77 35 79 36
REMARK SMILES IDX 27 37 82 38 76 39 75 40 28 42 62 43 41 44 61 45 42 46 45 47
REMARK SMILES IDX 60 48 80 49 43 50 44 51 59 53 81 54 46 55 29 56 30 57 39 58
REMARK SMILES IDX 31 59 32 60 38 61 40 62 33 63 34 64 35 65 36 66 37 67 63 68
REMARK SMILES IDX 64 69 73 70 65 71 66 72 72 73 74 74 67 75 68 76 69 77 70 78
REMARK SMILES IDX 71 79 47 80 48 81 57 82 49 83 50 84 56 85 58 86 51 87 52 88
REMARK SMILES IDX 53 89 54 90 55 91
REMARK H PARENT 13 6 8 17 8 18 17 22 79 41 45 52
REMARK Flexibility Score: inf
ROOT
ATOM      1  C   UNL A   1      40.613  20.088  26.290  1.00  0.00     0.042 C 
ENDROOT
BRANCH   1   2
ATOM      2  C   UNL A   1      41.938  19.601  26.856  1.00  0.00     0.118 C 
BRANCH   2   3
ATOM      3  N   UNL A   1      42.712  18.828  25.894  1.00  0.00    -0.353 N 
ATOM      4  C   UNL A   1      43.907  19.118  25.293  1.00  0.00     0.260 C 
ATOM      5  O   UNL A   1      44.400  18.262  24.550  1.00  0.00    -0.271 OA
ATOM      6  H   UNL A   1      42.314  17.965  25.637  1.00  0.00     0.163 HD
BRANCH   4   7
ATOM      7  C   UNL A   1      44.579  20.488  25.478  1.00  0.00     0.258 C 
ATOM      8  C   UNL A   1      46.004  20.392  24.938  1.00  0.00     0.064 C 
BRANCH   7   9
ATOM      9  O   UNL A   1      43.743  21.450  24.833  1.00  0.00    -0.481 OA
BRANCH   9  10
ATOM     10  C   UNL A   1      43.779  22.722  25.311  1.00  0.00     0.120 A 
ATOM     11  C   UNL A   1      43.469  23.019  26.633  1.00  0.00     0.048 A 
ATOM     12  C   UNL A   1      44.339  23.697  24.492  1.00  0.00     0.048 A 
ATOM     13  C   UNL A   1      43.679  24.309  27.124  1.00  0.00     0.029 A 
ATOM     14  C   UNL A   1      44.560  24.984  24.993  1.00  0.00     0.029 A 
ATOM     15  C   UNL A   1      44.259  25.292  26.321  1.00  0.00     0.032 A 
BRANCH  15  16
ATOM     16  N   UNL A   1      44.434  26.579  26.806  1.00  0.00    -0.399 N 
ATOM     17  H   UNL A   1      44.798  26.719  27.710  1.00  0.00     0.156 HD
ATOM     18  H   UNL A   1      44.193  27.352  26.246  1.00  0.00     0.156 HD
ENDBRANCH  15  16
ENDBRANCH   9  10
ENDBRANCH   7   9
ENDBRANCH   4   7
ENDBRANCH   2   3
ENDBRANCH   1   2
BRANCH   1  19
ATOM     19  C   UNL A   1      40.299  21.539  26.620  1.00  0.00     0.118 C 
BRANCH  19  20
ATOM     20  N   UNL A   1      39.201  22.073  25.823  1.00  0.00    -0.352 N 
ATOM     21  C   UNL A   1      38.593  23.304  25.876  1.00  0.00     0.251 C 
ATOM     22  H   UNL A   1      38.840  21.457  25.144  1.00  0.00     0.163 HD
ATOM     23  O   UNL A   1      37.563  23.503  25.237  1.00  0.00    -0.269 OA
BRANCH  21  24
ATOM     24  C   UNL A   1      39.163  24.376  26.719  1.00  0.00     0.039 A 
ATOM     25  C   UNL A   1      40.069  25.278  26.154  1.00  0.00     0.014 A 
ATOM     26  C   UNL A   1      38.802  24.493  28.063  1.00  0.00     0.014 A 
ATOM     27  C   UNL A   1      40.547  26.349  26.915  1.00  0.00     0.010 A 
ATOM     28  C   UNL A   1      39.215  25.601  28.793  1.00  0.00     0.010 A 
ATOM     29  C   UNL A   1      40.088  26.543  28.228  1.00  0.00    -0.014 A 
BRANCH  29  30
ATOM     30  C   UNL A   1      40.499  27.714  29.043  1.00  0.00     0.031 A 
ATOM     31  C   UNL A   1      41.770  27.654  29.845  1.00  0.00     0.074 A 
ATOM     32  C   UNL A   1      39.680  28.779  29.148  1.00  0.00     0.049 A 
ATOM     33  N   UNL A   1      42.213  28.481  30.755  1.00  0.00    -0.248 NA
ATOM     34  C   UNL A   1      42.639  26.489  29.617  1.00  0.00     0.031 C 
ATOM     35  C   UNL A   1      38.404  28.942  28.445  1.00  0.00     0.029 A 
ATOM     36  N   UNL A   1      39.785  29.918  29.908  1.00  0.00    -0.354 N 
ATOM     37  C   UNL A   1      43.395  27.924  31.228  1.00  0.00     0.074 A 
ATOM     38  C   UNL A   1      43.579  26.669  30.533  1.00  0.00     0.031 C 
ATOM     39  C   UNL A   1      37.850  30.111  28.803  1.00  0.00     0.029 A 
ATOM     40  C   UNL A   1      38.704  30.760  29.793  1.00  0.00     0.049 A 
ATOM     41  H   UNL A   1      40.560  30.112  30.481  1.00  0.00     0.167 HD
ATOM     42  C   UNL A   1      44.256  28.421  32.148  1.00  0.00     0.037 A 
ATOM     43  C   UNL A   1      38.421  31.914  30.429  1.00  0.00     0.037 A 
ATOM     44  C   UNL A   1      44.082  29.688  32.809  1.00  0.00     0.049 A 
ATOM     45  C   UNL A   1      39.397  32.453  31.442  1.00  0.00     0.074 A 
ATOM     46  C   UNL A   1      44.923  30.304  33.720  1.00  0.00     0.029 A 
ATOM     47  N   UNL A   1      42.999  30.535  32.626  1.00  0.00    -0.354 N 
ATOM     48  N   UNL A   1      40.528  31.931  31.851  1.00  0.00    -0.248 NA
ATOM     49  C   UNL A   1      39.061  33.734  32.076  1.00  0.00     0.031 C 
ATOM     50  C   UNL A   1      44.331  31.510  34.112  1.00  0.00     0.029 A 
ATOM     51  C   UNL A   1      43.144  31.664  33.412  1.00  0.00     0.049 A 
ATOM     52  H   UNL A   1      42.239  30.358  32.026  1.00  0.00     0.167 HD
ATOM     53  C   UNL A   1      41.056  32.837  32.763  1.00  0.00     0.074 A 
ATOM     54  C   UNL A   1      40.121  33.940  32.847  1.00  0.00     0.031 C 
ATOM     55  C   UNL A   1      42.216  32.765  33.462  1.00  0.00     0.037 A 
BRANCH  42  56
ATOM     56  C   UNL A   1      45.463  27.594  32.492  1.00  0.00     0.058 A 
ATOM     57  C   UNL A   1      45.417  26.598  33.480  1.00  0.00     0.135 A 
ATOM     58  C   UNL A   1      46.674  27.780  31.805  1.00  0.00     0.135 A 
ATOM     59  F   UNL A   1      44.288  26.390  34.178  1.00  0.00    -0.206 F 
ATOM     60  C   UNL A   1      46.535  25.835  33.796  1.00  0.00     0.059 A 
ATOM     61  C   UNL A   1      47.799  27.008  32.085  1.00  0.00     0.059 A 
ATOM     62  F   UNL A   1      46.774  28.718  30.850  1.00  0.00    -0.206 F 
ATOM     63  C   UNL A   1      47.724  26.050  33.095  1.00  0.00     0.060 A 
BRANCH  63  64
ATOM     64  S   UNL A   1      49.166  25.052  33.518  1.00  0.00     0.124 S 
ATOM     65  O   UNL A   1      49.769  24.842  32.204  1.00  0.00    -0.237 OA
ATOM     66  O   UNL A   1      49.904  25.931  34.420  1.00  0.00    -0.237 OA
ATOM     67  O   UNL A   1      48.588  23.864  34.139  1.00  0.00    -0.744 OA
ENDBRANCH  63  64
ENDBRANCH  42  56
BRANCH  43  68
ATOM     68  C   UNL A   1      37.167  32.647  30.114  1.00  0.00     0.058 A 
ATOM     69  C   UNL A   1      35.984  32.383  30.821  1.00  0.00     0.135 A 
ATOM     70  C   UNL A   1      37.127  33.635  29.118  1.00  0.00     0.135 A 
ATOM     71  F   UNL A   1      35.971  31.443  31.777  1.00  0.00    -0.206 F 
ATOM     72  C   UNL A   1      34.802  33.062  30.543  1.00  0.00     0.059 A 
ATOM     73  C   UNL A   1      35.963  34.345  28.839  1.00  0.00     0.059 A 
ATOM     74  F   UNL A   1      38.237  33.938  28.426  1.00  0.00    -0.206 F 
ATOM     75  C   UNL A   1      34.803  34.045  29.551  1.00  0.00     0.060 A 
BRANCH  75  76
ATOM     76  S   UNL A   1      33.277  34.957  29.234  1.00  0.00     0.124 S 
ATOM     77  O   UNL A   1      32.626  34.107  28.243  1.00  0.00    -0.237 OA
ATOM     78  O   UNL A   1      32.657  34.988  30.556  1.00  0.00    -0.237 OA
ATOM     79  O   UNL A   1      33.754  36.248  28.745  1.00  0.00    -0.744 OA
ENDBRANCH  75  76
ENDBRANCH  43  68
BRANCH  55  80
ATOM     80  C   UNL A   1      42.578  33.932  34.337  1.00  0.00     0.058 A 
ATOM     81  C   UNL A   1      42.140  34.025  35.666  1.00  0.00     0.135 A 
ATOM     82  C   UNL A   1      43.449  34.925  33.859  1.00  0.00     0.135 A 
ATOM     83  F   UNL A   1      41.300  33.105  36.166  1.00  0.00    -0.206 F 
ATOM     84  C   UNL A   1      42.548  35.067  36.492  1.00  0.00     0.059 A 
ATOM     85  C   UNL A   1      43.888  35.963  34.674  1.00  0.00     0.059 A 
ATOM     86  F   UNL A   1      43.902  34.877  32.597  1.00  0.00    -0.206 F 
ATOM     87  C   UNL A   1      43.429  36.028  35.989  1.00  0.00     0.060 A 
BRANCH  87  88
ATOM     88  S   UNL A   1      44.005  37.337  37.090  1.00  0.00     0.124 S 
ATOM     89  O   UNL A   1      42.976  37.326  38.125  1.00  0.00    -0.237 OA
ATOM     90  O   UNL A   1      45.319  36.849  37.497  1.00  0.00    -0.237 OA
ATOM     91  O   UNL A   1      44.020  38.519  36.233  1.00  0.00    -0.744 OA
ENDBRANCH  87  88
ENDBRANCH  55  80
ENDBRANCH  29  30
ENDBRANCH  21  24
ENDBRANCH  19  20
ENDBRANCH   1  19
TORSDOF 16
ENDMDL
MODEL 3
REMARK VINA RESULT:     -10.5      3.222      9.685
REMARK SMILES C[C@@H](Oc1ccc(N)cc1)C(=O)NCCCNC(=O)c1ccc(-c2c3nc(c(-c4c(F)cc(S(=O)(=O)[O-])cc4F)c4ccc([nH]4)c(-c4c(F)cc(S(=O)(=O)[O-])cc4F)c4nc(c(-c5c(F)cc(S(=O)(=O)[O-])cc5F)c5ccc2[nH]5)C=C4)C=C3)cc1
REMARK SMILES IDX 15 1 14 2 13 3 11 4 12 5 2 7 1 8 3 9 4 10 5 11 10 12 6 13
REMARK SMILES IDX 9 14 7 15 8 16 16 19 17 20 18 21 19 23 20 24 21 25 85 26
REMARK SMILES IDX 22 27 84 28 23 29 24 30 25 31 78 32 26 33 83 34 77 35 79 36
REMARK SMILES IDX 27 37 82 38 76 39 75 40 28 42 62 43 41 44 61 45 42 46 45 47
REMARK SMILES IDX 60 48 80 49 43 50 44 51 59 53 81 54 46 55 29 56 30 57 39 58
REMARK SMILES IDX 31 59 32 60 38 61 40 62 33 63 34 64 35 65 36 66 37 67 63 68
REMARK SMILES IDX 64 69 73 70 65 71 66 72 72 73 74 74 67 75 68 76 69 77 70 78
REMARK SMILES IDX 71 79 47 80 48 81 57 82 49 83 50 84 56 85 58 86 51 87 52 88
REMARK SMILES IDX 53 89 54 90 55 91
REMARK H PARENT 13 6 8 17 8 18 17 22 79 41 45 52
REMARK Flexibility Score: inf
ROOT
ATOM      1  C   UNL A   1      35.837  23.603  26.092  1.00  0.00     0.042 C 
ENDROOT
BRANCH   1   2
ATOM      2  C   UNL A   1      34.450  23.868  25.525  1.00  0.00     0.118 C 
BRANCH   2   3
ATOM      3  N   UNL A   1      33.387  23.553  26.468  1.00  0.00    -0.353 N 
ATOM      4  C   UNL A   1      32.147  24.115  26.614  1.00  0.00     0.260 C 
ATOM      5  O   UNL A   1      31.389  23.624  27.457  1.00  0.00    -0.271 OA
ATOM      6  H   UNL A   1      33.591  22.823  27.096  1.00  0.00     0.163 HD
BRANCH   4   7
ATOM      7  C   UNL A   1      31.737  25.358  25.809  1.00  0.00     0.258 C 
ATOM      8  C   UNL A   1      30.623  24.953  24.848  1.00  0.00     0.064 C 
BRANCH   7   9
ATOM      9  O   UNL A   1      31.391  26.370  26.757  1.00  0.00    -0.481 OA
BRANCH   9  10
ATOM     10  C   UNL A   1      32.128  27.512  26.741  1.00  0.00     0.120 A 
ATOM     11  C   UNL A   1      31.642  28.707  27.259  1.00  0.00     0.048 A 
ATOM     12  C   UNL A   1      33.467  27.405  26.379  1.00  0.00     0.048 A 
ATOM     13  C   UNL A   1      32.489  29.811  27.374  1.00  0.00     0.029 A 
ATOM     14  C   UNL A   1      34.314  28.509  26.509  1.00  0.00     0.029 A 
ATOM     15  C   UNL A   1      33.839  29.713  27.034  1.00  0.00     0.032 A 
BRANCH  15  16
ATOM     16  N   UNL A   1      34.666  30.822  27.120  1.00  0.00    -0.399 N 
ATOM     17  H   UNL A   1      35.211  30.968  27.926  1.00  0.00     0.156 HD
ATOM     18  H   UNL A   1      34.706  31.463  26.374  1.00  0.00     0.156 HD
ENDBRANCH  15  16
ENDBRANCH   9  10
ENDBRANCH   7   9
ENDBRANCH   4   7
ENDBRANCH   2   3
ENDBRANCH   1   2
BRANCH   1  19
ATOM     19  C   UNL A   1      36.949  23.675  25.057  1.00  0.00     0.118 C 
BRANCH  19  20
ATOM     20  N   UNL A   1      38.029  22.732  25.324  1.00  0.00    -0.352 N 
ATOM     21  C   UNL A   1      39.218  22.921  25.987  1.00  0.00     0.251 C 
ATOM     22  H   UNL A   1      37.884  21.822  24.976  1.00  0.00     0.163 HD
ATOM     23  O   UNL A   1      40.079  22.045  25.954  1.00  0.00    -0.269 OA
BRANCH  21  24
ATOM     24  C   UNL A   1      39.468  24.183  26.714  1.00  0.00     0.039 A 
ATOM     25  C   UNL A   1      38.965  24.335  28.009  1.00  0.00     0.014 A 
ATOM     26  C   UNL A   1      40.201  25.214  26.121  1.00  0.00     0.014 A 
ATOM     27  C   UNL A   1      39.269  25.487  28.740  1.00  0.00     0.010 A 
ATOM     28  C   UNL A   1      40.568  26.321  26.876  1.00  0.00     0.010 A 
ATOM     29  C   UNL A   1      40.111  26.468  28.194  1.00  0.00    -0.014 A 
BRANCH  29  30
ATOM     30  C   UNL A   1      40.533  27.664  28.966  1.00  0.00     0.031 A 
ATOM     31  C   UNL A   1      41.824  27.634  29.737  1.00  0.00     0.074 A 
ATOM     32  C   UNL A   1      39.709  28.726  29.063  1.00  0.00     0.049 A 
ATOM     33  N   UNL A   1      42.284  28.489  30.613  1.00  0.00    -0.248 NA
ATOM     34  C   UNL A   1      42.697  26.469  29.518  1.00  0.00     0.031 C 
ATOM     35  C   UNL A   1      38.415  28.861  28.389  1.00  0.00     0.029 A 
ATOM     36  N   UNL A   1      39.825  29.886  29.789  1.00  0.00    -0.354 N 
ATOM     37  C   UNL A   1      43.482  27.953  31.070  1.00  0.00     0.074 A 
ATOM     38  C   UNL A   1      43.658  26.681  30.405  1.00  0.00     0.031 C 
ATOM     39  C   UNL A   1      37.862  30.036  28.729  1.00  0.00     0.029 A 
ATOM     40  C   UNL A   1      38.736  30.718  29.679  1.00  0.00     0.049 A 
ATOM     41  H   UNL A   1      40.614  30.102  30.337  1.00  0.00     0.167 HD
ATOM     42  C   UNL A   1      44.363  28.481  31.954  1.00  0.00     0.037 A 
ATOM     43  C   UNL A   1      38.461  31.887  30.290  1.00  0.00     0.037 A 
ATOM     44  C   UNL A   1      44.197  29.765  32.584  1.00  0.00     0.049 A 
ATOM     45  C   UNL A   1      39.458  32.459  31.262  1.00  0.00     0.074 A 
ATOM     46  C   UNL A   1      45.055  30.411  33.456  1.00  0.00     0.029 A 
ATOM     47  N   UNL A   1      43.103  30.599  32.406  1.00  0.00    -0.354 N 
ATOM     48  N   UNL A   1      40.603  31.957  31.657  1.00  0.00    -0.248 NA
ATOM     49  C   UNL A   1      39.128  33.755  31.870  1.00  0.00     0.031 C 
ATOM     50  C   UNL A   1      44.465  31.623  33.831  1.00  0.00     0.029 A 
ATOM     51  C   UNL A   1      43.260  31.751  33.157  1.00  0.00     0.049 A 
ATOM     52  H   UNL A   1      42.329  30.401  31.831  1.00  0.00     0.167 HD
ATOM     53  C   UNL A   1      41.147  32.891  32.530  1.00  0.00     0.074 A 
ATOM     54  C   UNL A   1      40.207  33.989  32.608  1.00  0.00     0.031 C 
ATOM     55  C   UNL A   1      42.325  32.846  33.201  1.00  0.00     0.037 A 
BRANCH  42  56
ATOM     56  C   UNL A   1      45.585  27.672  32.289  1.00  0.00     0.058 A 
ATOM     57  C   UNL A   1      45.582  26.732  33.331  1.00  0.00     0.135 A 
ATOM     58  C   UNL A   1      46.764  27.817  31.540  1.00  0.00     0.135 A 
ATOM     59  F   UNL A   1      44.486  26.565  34.089  1.00  0.00    -0.206 F 
ATOM     60  C   UNL A   1      46.714  25.985  33.640  1.00  0.00     0.059 A 
ATOM     61  C   UNL A   1      47.900  27.060  31.812  1.00  0.00     0.059 A 
ATOM     62  F   UNL A   1      46.821  28.701  30.531  1.00  0.00    -0.206 F 
ATOM     63  C   UNL A   1      47.870  26.159  32.876  1.00  0.00     0.060 A 
BRANCH  63  64
ATOM     64  S   UNL A   1      49.330  25.183  33.289  1.00  0.00     0.124 S 
ATOM     65  O   UNL A   1      50.128  26.154  34.033  1.00  0.00    -0.237 OA
ATOM     66  O   UNL A   1      48.767  24.090  34.075  1.00  0.00    -0.237 OA
ATOM     67  O   UNL A   1      49.864  24.801  31.985  1.00  0.00    -0.744 OA
ENDBRANCH  63  64
ENDBRANCH  42  56
BRANCH  43  68
ATOM     68  C   UNL A   1      37.193  32.603  29.987  1.00  0.00     0.058 A 
ATOM     69  C   UNL A   1      36.011  32.294  30.678  1.00  0.00     0.135 A 
ATOM     70  C   UNL A   1      37.139  33.618  29.021  1.00  0.00     0.135 A 
ATOM     71  F   UNL A   1      36.012  31.327  31.607  1.00  0.00    -0.206 F 
ATOM     72  C   UNL A   1      34.818  32.956  30.412  1.00  0.00     0.059 A 
ATOM     73  C   UNL A   1      35.963  34.311  28.753  1.00  0.00     0.059 A 
ATOM     74  F   UNL A   1      38.247  33.964  28.345  1.00  0.00    -0.206 F 
ATOM     75  C   UNL A   1      34.804  33.967  29.449  1.00  0.00     0.060 A 
BRANCH  75  76
ATOM     76  S   UNL A   1      33.262  34.856  29.147  1.00  0.00     0.124 S 
ATOM     77  O   UNL A   1      32.663  34.866  30.477  1.00  0.00    -0.237 OA
ATOM     78  O   UNL A   1      33.741  36.144  28.653  1.00  0.00    -0.237 OA
ATOM     79  O   UNL A   1      32.586  34.026  28.154  1.00  0.00    -0.744 OA
ENDBRANCH  75  76
ENDBRANCH  43  68
BRANCH  55  80
ATOM     80  C   UNL A   1      42.700  34.039  34.034  1.00  0.00     0.058 A 
ATOM     81  C   UNL A   1      42.430  34.096  35.409  1.00  0.00     0.135 A 
ATOM     82  C   UNL A   1      43.421  35.099  33.459  1.00  0.00     0.135 A 
ATOM     83  F   UNL A   1      41.737  33.111  36.003  1.00  0.00    -0.206 F 
ATOM     84  C   UNL A   1      42.855  35.168  36.187  1.00  0.00     0.059 A 
ATOM     85  C   UNL A   1      43.875  36.170  34.222  1.00  0.00     0.059 A 
ATOM     86  F   UNL A   1      43.711  35.087  32.149  1.00  0.00    -0.206 F 
ATOM     87  C   UNL A   1      43.584  36.197  35.586  1.00  0.00     0.060 A 
BRANCH  87  88
ATOM     88  S   UNL A   1      44.188  37.550  36.617  1.00  0.00     0.124 S 
ATOM     89  O   UNL A   1      45.532  37.088  36.951  1.00  0.00    -0.237 OA
ATOM     90  O   UNL A   1      44.117  38.691  35.710  1.00  0.00    -0.237 OA
ATOM     91  O   UNL A   1      43.241  37.580  37.727  1.00  0.00    -0.744 OA
ENDBRANCH  87  88
ENDBRANCH  55  80
ENDBRANCH  29  30
ENDBRANCH  21  24
ENDBRANCH  19  20
ENDBRANCH   1  19
TORSDOF 16
ENDMDL
