MODEL 1
REMARK VINA RESULT:     -10.7      0.000      0.000
REMARK SMILES CC(C)N(CCC#N)C(=O)c1ccncc1/C=C/C(=O)NCCCNC(=O)c1ccc(-c2c3nc(c(-c4c(F)cc(S(=O)(=O)[O-])cc4F)c4ccc([nH]4)c(-c4c(F)cc(S(=O)(=O)[O-])cc4F)c4nc(c(-c5c(F)cc(S(=O)(=O)[O-])cc5F)c5ccc2[nH]5)C=C4)C=C3)cc1
REMARK SMILES IDX 19 1 20 2 21 3 18 5 17 6 16 7 11 8 12 9 13 10 15 11 14 12
REMARK SMILES IDX 9 13 10 14 4 15 2 16 1 17 3 18 5 19 6 20 7 21 8 22 22 23
REMARK SMILES IDX 23 24 24 25 25 26 26 27 27 29 28 30 29 31 93 32 30 33 92 34
REMARK SMILES IDX 31 35 32 36 33 37 86 38 34 39 91 40 85 41 87 42 35 43 90 44
REMARK SMILES IDX 84 45 83 46 36 48 70 49 49 50 69 51 50 52 53 53 68 54 88 55
REMARK SMILES IDX 51 56 52 57 67 59 89 60 54 61 37 62 38 63 47 64 39 65 40 66
REMARK SMILES IDX 46 67 48 68 41 69 42 70 43 71 44 72 45 73 71 74 72 75 81 76
REMARK SMILES IDX 73 77 74 78 80 79 82 80 75 81 76 82 77 83 78 84 79 85 55 86
REMARK SMILES IDX 56 87 65 88 57 89 58 90 64 91 66 92 59 93 60 94 61 95 62 96
REMARK SMILES IDX 63 97
REMARK H PARENT 21 4 25 28 87 47 53 58
REMARK Flexibility Score: inf
ROOT
ATOM      1  C   UNL A   1      37.522  23.524  25.744  1.00  0.00     0.244 C 
ATOM      2  O   UNL A   1      38.249  24.455  26.085  1.00  0.00    -0.270 OA
ATOM      3  N   UNL A   1      38.053  22.460  25.091  1.00  0.00    -0.352 N 
ATOM      4  H   UNL A   1      39.015  22.528  24.894  1.00  0.00     0.163 HD
ENDROOT
BRANCH   1   5
ATOM      5  C   UNL A   1      36.104  23.517  26.174  1.00  0.00     0.072 C 
ATOM      6  C   UNL A   1      35.076  24.170  25.604  1.00  0.00     0.016 C 
BRANCH   6   7
ATOM      7  C   UNL A   1      33.690  23.973  26.063  1.00  0.00     0.006 A 
ATOM      8  C   UNL A   1      32.574  24.609  25.495  1.00  0.00     0.050 A 
ATOM      9  C   UNL A   1      31.293  24.175  25.836  1.00  0.00     0.034 A 
ATOM     10  C   UNL A   1      31.146  23.272  26.869  1.00  0.00     0.112 A 
ATOM     11  C   UNL A   1      33.422  23.074  27.099  1.00  0.00     0.119 A 
ATOM     12  N   UNL A   1      32.186  22.733  27.531  1.00  0.00    -0.264 NA
BRANCH   8  13
ATOM     13  C   UNL A   1      32.677  25.666  24.451  1.00  0.00     0.254 C 
ATOM     14  O   UNL A   1      32.813  25.286  23.291  1.00  0.00    -0.269 OA
BRANCH  13  15
ATOM     15  N   UNL A   1      32.603  27.029  24.817  1.00  0.00    -0.335 N 
BRANCH  15  16
ATOM     16  C   UNL A   1      32.852  27.415  26.233  1.00  0.00     0.079 C 
ATOM     17  C   UNL A   1      34.006  28.403  26.386  1.00  0.00     0.031 C 
ATOM     18  C   UNL A   1      31.601  27.921  26.952  1.00  0.00     0.031 C 
ENDBRANCH  15  16
BRANCH  15  19
ATOM     19  C   UNL A   1      32.085  28.114  23.948  1.00  0.00     0.135 C 
BRANCH  19  20
ATOM     20  C   UNL A   1      30.635  27.921  23.471  1.00  0.00     0.141 C 
BRANCH  20  21
ATOM     21  C   UNL A   1      30.229  28.894  22.448  1.00  0.00     0.064 C 
ATOM     22  N   UNL A   1      29.906  29.658  21.639  1.00  0.00    -0.198 NA
ENDBRANCH  20  21
ENDBRANCH  19  20
ENDBRANCH  15  19
ENDBRANCH  13  15
ENDBRANCH   8  13
ENDBRANCH   6   7
ENDBRANCH   1   5
BRANCH   3  23
ATOM     23  C   UNL A   1      37.419  21.238  24.637  1.00  0.00     0.118 C 
BRANCH  23  24
ATOM     24  C   UNL A   1      38.269  20.030  25.007  1.00  0.00     0.042 C 
BRANCH  24  25
ATOM     25  C   UNL A   1      39.259  20.318  26.124  1.00  0.00     0.118 C 
BRANCH  25  26
ATOM     26  N   UNL A   1      40.358  19.359  26.129  1.00  0.00    -0.352 N 
ATOM     27  C   UNL A   1      41.711  19.564  26.063  1.00  0.00     0.251 C 
ATOM     28  H   UNL A   1      40.084  18.416  26.190  1.00  0.00     0.163 HD
ATOM     29  O   UNL A   1      42.453  18.620  25.808  1.00  0.00    -0.269 OA
BRANCH  27  30
ATOM     30  C   UNL A   1      42.274  20.911  26.293  1.00  0.00     0.039 A 
ATOM     31  C   UNL A   1      42.576  21.714  25.191  1.00  0.00     0.014 A 
ATOM     32  C   UNL A   1      42.533  21.367  27.587  1.00  0.00     0.014 A 
ATOM     33  C   UNL A   1      43.091  22.995  25.394  1.00  0.00     0.010 A 
ATOM     34  C   UNL A   1      42.949  22.678  27.789  1.00  0.00     0.010 A 
ATOM     35  C   UNL A   1      43.246  23.501  26.695  1.00  0.00    -0.014 A 
BRANCH  35  36
ATOM     36  C   UNL A   1      43.727  24.884  26.933  1.00  0.00     0.031 A 
ATOM     37  C   UNL A   1      45.180  25.222  26.740  1.00  0.00     0.074 A 
ATOM     38  C   UNL A   1      42.863  25.816  27.380  1.00  0.00     0.049 A 
ATOM     39  N   UNL A   1      45.800  26.353  26.957  1.00  0.00    -0.248 NA
ATOM     40  C   UNL A   1      46.061  24.138  26.268  1.00  0.00     0.031 C 
ATOM     41  C   UNL A   1      41.439  25.590  27.648  1.00  0.00     0.029 A 
ATOM     42  N   UNL A   1      43.052  27.137  27.695  1.00  0.00    -0.354 N 
ATOM     43  C   UNL A   1      47.138  26.115  26.660  1.00  0.00     0.074 A 
ATOM     44  C   UNL A   1      47.252  24.717  26.309  1.00  0.00     0.031 C 
ATOM     45  C   UNL A   1      40.881  26.739  28.058  1.00  0.00     0.029 A 
ATOM     46  C   UNL A   1      41.911  27.770  28.132  1.00  0.00     0.049 A 
ATOM     47  H   UNL A   1      43.922  27.591  27.615  1.00  0.00     0.167 HD
ATOM     48  C   UNL A   1      48.171  26.990  26.656  1.00  0.00     0.037 A 
ATOM     49  C   UNL A   1      41.720  29.033  28.559  1.00  0.00     0.037 A 
ATOM     50  C   UNL A   1      48.040  28.383  26.995  1.00  0.00     0.049 A 
ATOM     51  C   UNL A   1      42.889  29.981  28.568  1.00  0.00     0.074 A 
ATOM     52  C   UNL A   1      49.011  29.367  26.974  1.00  0.00     0.029 A 
ATOM     53  N   UNL A   1      46.867  28.989  27.427  1.00  0.00    -0.354 N 
ATOM     54  N   UNL A   1      44.134  29.757  28.218  1.00  0.00    -0.248 NA
ATOM     55  C   UNL A   1      42.628  31.353  29.022  1.00  0.00     0.031 C 
ATOM     56  C   UNL A   1      48.443  30.551  27.454  1.00  0.00     0.029 A 
ATOM     57  C   UNL A   1      47.099  30.326  27.705  1.00  0.00     0.049 A 
ATOM     58  H   UNL A   1      45.999  28.534  27.521  1.00  0.00     0.167 HD
ATOM     59  C   UNL A   1      44.797  30.969  28.379  1.00  0.00     0.074 A 
ATOM     60  C   UNL A   1      43.812  31.923  28.844  1.00  0.00     0.031 C 
ATOM     61  C   UNL A   1      46.103  31.265  28.161  1.00  0.00     0.037 A 
BRANCH  48  62
ATOM     62  C   UNL A   1      49.532  26.469  26.278  1.00  0.00     0.058 A 
ATOM     63  C   UNL A   1      50.079  26.679  25.001  1.00  0.00     0.135 A 
ATOM     64  C   UNL A   1      50.320  25.783  27.218  1.00  0.00     0.135 A 
ATOM     65  F   UNL A   1      49.367  27.314  24.056  1.00  0.00    -0.206 F 
ATOM     66  C   UNL A   1      51.342  26.205  24.661  1.00  0.00     0.059 A 
ATOM     67  C   UNL A   1      51.600  25.331  26.912  1.00  0.00     0.059 A 
ATOM     68  F   UNL A   1      49.849  25.550  28.453  1.00  0.00    -0.206 F 
ATOM     69  C   UNL A   1      52.097  25.536  25.625  1.00  0.00     0.060 A 
BRANCH  69  70
ATOM     70  S   UNL A   1      53.739  24.940  25.170  1.00  0.00     0.124 S 
ATOM     71  O   UNL A   1      53.527  23.497  25.132  1.00  0.00    -0.237 OA
ATOM     72  O   UNL A   1      53.952  25.583  23.877  1.00  0.00    -0.237 OA
ATOM     73  O   UNL A   1      54.589  25.421  26.254  1.00  0.00    -0.744 OA
ENDBRANCH  69  70
ENDBRANCH  48  62
BRANCH  49  74
ATOM     74  C   UNL A   1      40.369  29.474  28.999  1.00  0.00     0.058 A 
ATOM     75  C   UNL A   1      40.079  29.679  30.356  1.00  0.00     0.135 A 
ATOM     76  C   UNL A   1      39.343  29.713  28.071  1.00  0.00     0.135 A 
ATOM     77  F   UNL A   1      41.024  29.460  31.284  1.00  0.00    -0.206 F 
ATOM     78  C   UNL A   1      38.818  30.087  30.781  1.00  0.00     0.059 A 
ATOM     79  C   UNL A   1      38.084  30.152  28.468  1.00  0.00     0.059 A 
ATOM     80  F   UNL A   1      39.571  29.552  26.758  1.00  0.00    -0.206 F 
ATOM     81  C   UNL A   1      37.828  30.325  29.826  1.00  0.00     0.060 A 
BRANCH  81  82
ATOM     82  S   UNL A   1      36.212  30.906  30.383  1.00  0.00     0.124 S 
ATOM     83  O   UNL A   1      36.502  32.290  30.736  1.00  0.00    -0.237 OA
ATOM     84  O   UNL A   1      35.391  30.707  29.193  1.00  0.00    -0.237 OA
ATOM     85  O   UNL A   1      35.904  30.018  31.501  1.00  0.00    -0.744 OA
ENDBRANCH  81  82
ENDBRANCH  49  74
BRANCH  61  86
ATOM     86  C   UNL A   1      46.538  32.690  28.379  1.00  0.00     0.058 A 
ATOM     87  C   UNL A   1      46.482  33.649  27.357  1.00  0.00     0.135 A 
ATOM     88  C   UNL A   1      46.969  33.111  29.649  1.00  0.00     0.135 A 
ATOM     89  F   UNL A   1      46.085  33.301  26.122  1.00  0.00    -0.206 F 
ATOM     90  C   UNL A   1      46.863  34.969  27.578  1.00  0.00     0.059 A 
ATOM     91  C   UNL A   1      47.319  34.432  29.902  1.00  0.00     0.059 A 
ATOM     92  F   UNL A   1      47.033  32.236  30.666  1.00  0.00    -0.206 F 
ATOM     93  C   UNL A   1      47.275  35.352  28.857  1.00  0.00     0.060 A 
BRANCH  93  94
ATOM     94  S   UNL A   1      47.732  37.075  29.135  1.00  0.00     0.124 S 
ATOM     95  O   UNL A   1      46.964  37.393  30.335  1.00  0.00    -0.237 OA
ATOM     96  O   UNL A   1      49.178  36.989  29.311  1.00  0.00    -0.237 OA
ATOM     97  O   UNL A   1      47.294  37.745  27.914  1.00  0.00    -0.744 OA
ENDBRANCH  93  94
ENDBRANCH  61  86
ENDBRANCH  35  36
ENDBRANCH  27  30
ENDBRANCH  25  26
ENDBRANCH  24  25
ENDBRANCH  23  24
ENDBRANCH   3  23
TORSDOF 20
ENDMDL
MODEL 2
REMARK VINA RESULT:     -10.6      3.476      9.315
REMARK SMILES CC(C)N(CCC#N)C(=O)c1ccncc1/C=C/C(=O)NCCCNC(=O)c1ccc(-c2c3nc(c(-c4c(F)cc(S(=O)(=O)[O-])cc4F)c4ccc([nH]4)c(-c4c(F)cc(S(=O)(=O)[O-])cc4F)c4nc(c(-c5c(F)cc(S(=O)(=O)[O-])cc5F)c5ccc2[nH]5)C=C4)C=C3)cc1
REMARK SMILES IDX 19 1 20 2 21 3 18 5 17 6 16 7 11 8 12 9 13 10 15 11 14 12
REMARK SMILES IDX 9 13 10 14 4 15 2 16 1 17 3 18 5 19 6 20 7 21 8 22 22 23
REMARK SMILES IDX 23 24 24 25 25 26 26 27 27 29 28 30 29 31 93 32 30 33 92 34
REMARK SMILES IDX 31 35 32 36 33 37 86 38 34 39 91 40 85 41 87 42 35 43 90 44
REMARK SMILES IDX 84 45 83 46 36 48 70 49 49 50 69 51 50 52 53 53 68 54 88 55
REMARK SMILES IDX 51 56 52 57 67 59 89 60 54 61 37 62 38 63 47 64 39 65 40 66
REMARK SMILES IDX 46 67 48 68 41 69 42 70 43 71 44 72 45 73 71 74 72 75 81 76
REMARK SMILES IDX 73 77 74 78 80 79 82 80 75 81 76 82 77 83 78 84 79 85 55 86
REMARK SMILES IDX 56 87 65 88 57 89 58 90 64 91 66 92 59 93 60 94 61 95 62 96
REMARK SMILES IDX 63 97
REMARK H PARENT 21 4 25 28 87 47 53 58
REMARK Flexibility Score: inf
ROOT
ATOM      1  C   UNL A   1      33.387  27.198  22.845  1.00  0.00     0.244 C 
ATOM      2  O   UNL A   1      33.658  26.950  21.672  1.00  0.00    -0.270 OA
ATOM      3  N   UNL A   1      33.768  28.381  23.389  1.00  0.00    -0.352 N 
ATOM      4  H   UNL A   1      34.290  28.966  22.793  1.00  0.00     0.163 HD
ENDROOT
BRANCH   1   5
ATOM      5  C   UNL A   1      32.529  26.258  23.604  1.00  0.00     0.072 C 
ATOM      6  C   UNL A   1      32.787  24.971  23.895  1.00  0.00     0.016 C 
BRANCH   6   7
ATOM      7  C   UNL A   1      31.898  24.187  24.769  1.00  0.00     0.006 A 
ATOM      8  C   UNL A   1      31.913  22.784  24.854  1.00  0.00     0.050 A 
ATOM      9  C   UNL A   1      31.208  22.155  25.879  1.00  0.00     0.034 A 
ATOM     10  C   UNL A   1      30.354  22.904  26.662  1.00  0.00     0.112 A 
ATOM     11  C   UNL A   1      30.996  24.842  25.612  1.00  0.00     0.119 A 
ATOM     12  N   UNL A   1      30.209  24.235  26.530  1.00  0.00    -0.264 NA
BRANCH   8  13
ATOM     13  C   UNL A   1      32.736  21.919  23.965  1.00  0.00     0.254 C 
ATOM     14  O   UNL A   1      32.390  21.848  22.789  1.00  0.00    -0.269 OA
BRANCH  13  15
ATOM     15  N   UNL A   1      33.861  21.240  24.485  1.00  0.00    -0.335 N 
BRANCH  15  16
ATOM     16  C   UNL A   1      35.123  21.995  24.712  1.00  0.00     0.079 C 
ATOM     17  C   UNL A   1      36.237  21.131  25.297  1.00  0.00     0.031 C 
ATOM     18  C   UNL A   1      35.609  22.748  23.473  1.00  0.00     0.031 C 
ENDBRANCH  15  16
BRANCH  15  19
ATOM     19  C   UNL A   1      33.969  19.768  24.635  1.00  0.00     0.135 C 
BRANCH  19  20
ATOM     20  C   UNL A   1      32.839  18.967  23.964  1.00  0.00     0.141 C 
BRANCH  20  21
ATOM     21  C   UNL A   1      33.280  17.661  23.457  1.00  0.00     0.064 C 
ATOM     22  N   UNL A   1      33.631  16.630  23.062  1.00  0.00    -0.198 NA
ENDBRANCH  20  21
ENDBRANCH  19  20
ENDBRANCH  15  19
ENDBRANCH  13  15
ENDBRANCH   8  13
ENDBRANCH   6   7
ENDBRANCH   1   5
BRANCH   3  23
ATOM     23  C   UNL A   1      33.526  28.915  24.714  1.00  0.00     0.118 C 
BRANCH  23  24
ATOM     24  C   UNL A   1      34.058  27.961  25.776  1.00  0.00     0.042 C 
BRANCH  24  25
ATOM     25  C   UNL A   1      33.509  28.249  27.164  1.00  0.00     0.118 C 
BRANCH  25  26
ATOM     26  N   UNL A   1      33.405  29.682  27.414  1.00  0.00    -0.352 N 
ATOM     27  C   UNL A   1      34.273  30.536  28.043  1.00  0.00     0.251 C 
ATOM     28  H   UNL A   1      32.582  30.103  27.077  1.00  0.00     0.163 HD
ATOM     29  O   UNL A   1      33.882  31.646  28.390  1.00  0.00    -0.269 OA
BRANCH  27  30
ATOM     30  C   UNL A   1      35.667  30.122  28.306  1.00  0.00     0.039 A 
ATOM     31  C   UNL A   1      36.586  30.136  27.254  1.00  0.00     0.014 A 
ATOM     32  C   UNL A   1      36.059  29.689  29.575  1.00  0.00     0.014 A 
ATOM     33  C   UNL A   1      37.910  29.765  27.491  1.00  0.00     0.010 A 
ATOM     34  C   UNL A   1      37.397  29.418  29.832  1.00  0.00     0.010 A 
ATOM     35  C   UNL A   1      38.334  29.439  28.790  1.00  0.00    -0.014 A 
BRANCH  35  36
ATOM     36  C   UNL A   1      39.752  29.107  29.078  1.00  0.00     0.031 A 
ATOM     37  C   UNL A   1      40.665  30.149  29.664  1.00  0.00     0.074 A 
ATOM     38  C   UNL A   1      40.224  27.888  28.754  1.00  0.00     0.049 A 
ATOM     39  N   UNL A   1      41.944  30.070  29.926  1.00  0.00    -0.248 NA
ATOM     40  C   UNL A   1      40.072  31.462  29.970  1.00  0.00     0.031 C 
ATOM     41  C   UNL A   1      39.440  26.814  28.137  1.00  0.00     0.029 A 
ATOM     42  N   UNL A   1      41.477  27.346  28.890  1.00  0.00    -0.354 N 
ATOM     43  C   UNL A   1      42.309  31.320  30.415  1.00  0.00     0.074 A 
ATOM     44  C   UNL A   1      41.133  32.158  30.354  1.00  0.00     0.031 C 
ATOM     45  C   UNL A   1      40.222  25.736  27.976  1.00  0.00     0.029 A 
ATOM     46  C   UNL A   1      41.572  26.054  28.428  1.00  0.00     0.049 A 
ATOM     47  H   UNL A   1      42.236  27.835  29.281  1.00  0.00     0.167 HD
ATOM     48  C   UNL A   1      43.509  31.723  30.894  1.00  0.00     0.037 A 
ATOM     49  C   UNL A   1      42.632  25.225  28.362  1.00  0.00     0.037 A 
ATOM     50  C   UNL A   1      44.669  30.873  30.961  1.00  0.00     0.049 A 
ATOM     51  C   UNL A   1      43.961  25.704  28.880  1.00  0.00     0.074 A 
ATOM     52  C   UNL A   1      45.919  31.164  31.476  1.00  0.00     0.029 A 
ATOM     53  N   UNL A   1      44.726  29.567  30.490  1.00  0.00    -0.354 N 
ATOM     54  N   UNL A   1      44.272  26.866  29.402  1.00  0.00    -0.248 NA
ATOM     55  C   UNL A   1      45.082  24.757  28.806  1.00  0.00     0.031 C 
ATOM     56  C   UNL A   1      46.750  30.060  31.257  1.00  0.00     0.029 A 
ATOM     57  C   UNL A   1      45.999  29.053  30.674  1.00  0.00     0.049 A 
ATOM     58  H   UNL A   1      43.972  29.081  30.085  1.00  0.00     0.167 HD
ATOM     59  C   UNL A   1      45.616  26.780  29.750  1.00  0.00     0.074 A 
ATOM     60  C   UNL A   1      46.053  25.447  29.389  1.00  0.00     0.031 C 
ATOM     61  C   UNL A   1      46.415  27.718  30.315  1.00  0.00     0.037 A 
BRANCH  48  62
ATOM     62  C   UNL A   1      43.632  33.143  31.380  1.00  0.00     0.058 A 
ATOM     63  C   UNL A   1      43.343  33.500  32.708  1.00  0.00     0.135 A 
ATOM     64  C   UNL A   1      44.082  34.156  30.517  1.00  0.00     0.135 A 
ATOM     65  F   UNL A   1      42.894  32.578  33.575  1.00  0.00    -0.206 F 
ATOM     66  C   UNL A   1      43.469  34.812  33.154  1.00  0.00     0.059 A 
ATOM     67  C   UNL A   1      44.250  35.467  30.951  1.00  0.00     0.059 A 
ATOM     68  F   UNL A   1      44.370  33.874  29.237  1.00  0.00    -0.206 F 
ATOM     69  C   UNL A   1      43.928  35.789  32.269  1.00  0.00     0.060 A 
BRANCH  69  70
ATOM     70  S   UNL A   1      44.098  37.482  32.870  1.00  0.00     0.124 S 
ATOM     71  O   UNL A   1      43.830  38.250  31.659  1.00  0.00    -0.237 OA
ATOM     72  O   UNL A   1      43.069  37.547  33.903  1.00  0.00    -0.237 OA
ATOM     73  O   UNL A   1      45.474  37.535  33.354  1.00  0.00    -0.744 OA
ENDBRANCH  69  70
ENDBRANCH  48  62
BRANCH  49  74
ATOM     74  C   UNL A   1      42.474  23.858  27.796  1.00  0.00     0.058 A 
ATOM     75  C   UNL A   1      42.407  22.731  28.629  1.00  0.00     0.135 A 
ATOM     76  C   UNL A   1      42.371  23.651  26.411  1.00  0.00     0.135 A 
ATOM     77  F   UNL A   1      42.505  22.874  29.960  1.00  0.00    -0.206 F 
ATOM     78  C   UNL A   1      42.264  21.447  28.112  1.00  0.00     0.059 A 
ATOM     79  C   UNL A   1      42.195  22.381  25.871  1.00  0.00     0.059 A 
ATOM     80  F   UNL A   1      42.408  24.696  25.569  1.00  0.00    -0.206 F 
ATOM     81  C   UNL A   1      42.154  21.284  26.729  1.00  0.00     0.060 A 
BRANCH  81  82
ATOM     82  S   UNL A   1      41.913  19.620  26.071  1.00  0.00     0.124 S 
ATOM     83  O   UNL A   1      42.263  18.795  27.220  1.00  0.00    -0.237 OA
ATOM     84  O   UNL A   1      40.502  19.640  25.701  1.00  0.00    -0.237 OA
ATOM     85  O   UNL A   1      42.845  19.568  24.947  1.00  0.00    -0.744 OA
ENDBRANCH  81  82
ENDBRANCH  49  74
BRANCH  61  86
ATOM     86  C   UNL A   1      47.836  27.327  30.624  1.00  0.00     0.058 A 
ATOM     87  C   UNL A   1      48.193  26.716  31.836  1.00  0.00     0.135 A 
ATOM     88  C   UNL A   1      48.846  27.519  29.665  1.00  0.00     0.135 A 
ATOM     89  F   UNL A   1      47.270  26.515  32.790  1.00  0.00    -0.206 F 
ATOM     90  C   UNL A   1      49.505  26.336  32.099  1.00  0.00     0.059 A 
ATOM     91  C   UNL A   1      50.156  27.112  29.892  1.00  0.00     0.059 A 
ATOM     92  F   UNL A   1      48.558  28.089  28.484  1.00  0.00    -0.206 F 
ATOM     93  C   UNL A   1      50.479  26.533  31.117  1.00  0.00     0.060 A 
BRANCH  93  94
ATOM     94  S   UNL A   1      52.169  26.001  31.461  1.00  0.00     0.124 S 
ATOM     95  O   UNL A   1      52.577  26.959  32.483  1.00  0.00    -0.237 OA
ATOM     96  O   UNL A   1      51.976  24.629  31.918  1.00  0.00    -0.237 OA
ATOM     97  O   UNL A   1      52.837  26.138  30.170  1.00  0.00    -0.744 OA
ENDBRANCH  93  94
ENDBRANCH  61  86
ENDBRANCH  35  36
ENDBRANCH  27  30
ENDBRANCH  25  26
ENDBRANCH  24  25
ENDBRANCH  23  24
ENDBRANCH   3  23
TORSDOF 20
ENDMDL
MODEL 3
REMARK VINA RESULT:     -10.5      0.976      8.323
REMARK SMILES CC(C)N(CCC#N)C(=O)c1ccncc1/C=C/C(=O)NCCCNC(=O)c1ccc(-c2c3nc(c(-c4c(F)cc(S(=O)(=O)[O-])cc4F)c4ccc([nH]4)c(-c4c(F)cc(S(=O)(=O)[O-])cc4F)c4nc(c(-c5c(F)cc(S(=O)(=O)[O-])cc5F)c5ccc2[nH]5)C=C4)C=C3)cc1
REMARK SMILES IDX 19 1 20 2 21 3 18 5 17 6 16 7 11 8 12 9 13 10 15 11 14 12
REMARK SMILES IDX 9 13 10 14 4 15 2 16 1 17 3 18 5 19 6 20 7 21 8 22 22 23
REMARK SMILES IDX 23 24 24 25 25 26 26 27 27 29 28 30 29 31 93 32 30 33 92 34
REMARK SMILES IDX 31 35 32 36 33 37 86 38 34 39 91 40 85 41 87 42 35 43 90 44
REMARK SMILES IDX 84 45 83 46 36 48 70 49 49 50 69 51 50 52 53 53 68 54 88 55
REMARK SMILES IDX 51 56 52 57 67 59 89 60 54 61 37 62 38 63 47 64 39 65 40 66
REMARK SMILES IDX 46 67 48 68 41 69 42 70 43 71 44 72 45 73 71 74 72 75 81 76
REMARK SMILES IDX 73 77 74 78 80 79 82 80 75 81 76 82 77 83 78 84 79 85 55 86
REMARK SMILES IDX 56 87 65 88 57 89 58 90 64 91 66 92 59 93 60 94 61 95 62 96
REMARK SMILES IDX 63 97
REMARK H PARENT 21 4 25 28 87 47 53 58
REMARK Flexibility Score: inf
ROOT
ATOM      1  C   UNL A   1      37.454  23.449  25.626  1.00  0.00     0.244 C 
ATOM      2  O   UNL A   1      38.184  24.407  25.869  1.00  0.00    -0.270 OA
ATOM      3  N   UNL A   1      37.972  22.338  25.043  1.00  0.00    -0.352 N 
ATOM      4  H   UNL A   1      38.926  22.395  24.810  1.00  0.00     0.163 HD
ENDROOT
BRANCH   1   5
ATOM      5  C   UNL A   1      36.050  23.470  26.100  1.00  0.00     0.072 C 
ATOM      6  C   UNL A   1      35.106  24.383  25.813  1.00  0.00     0.016 C 
BRANCH   6   7
ATOM      7  C   UNL A   1      33.711  24.211  26.254  1.00  0.00     0.006 A 
ATOM      8  C   UNL A   1      32.699  25.166  26.056  1.00  0.00     0.050 A 
ATOM      9  C   UNL A   1      31.370  24.811  26.289  1.00  0.00     0.034 A 
ATOM     10  C   UNL A   1      31.097  23.603  26.897  1.00  0.00     0.112 A 
ATOM     11  C   UNL A   1      33.319  23.023  26.875  1.00  0.00     0.119 A 
ATOM     12  N   UNL A   1      32.049  22.711  27.224  1.00  0.00    -0.264 NA
BRANCH   8  13
ATOM     13  C   UNL A   1      32.952  26.524  25.501  1.00  0.00     0.254 C 
ATOM     14  O   UNL A   1      33.503  27.331  26.244  1.00  0.00    -0.269 OA
BRANCH  13  15
ATOM     15  N   UNL A   1      32.572  26.826  24.173  1.00  0.00    -0.335 N 
BRANCH  15  16
ATOM     16  C   UNL A   1      32.593  28.243  23.717  1.00  0.00     0.079 C 
ATOM     17  C   UNL A   1      33.908  28.633  23.046  1.00  0.00     0.031 C 
ATOM     18  C   UNL A   1      31.400  28.613  22.836  1.00  0.00     0.031 C 
ENDBRANCH  15  16
BRANCH  15  19
ATOM     19  C   UNL A   1      31.943  25.868  23.232  1.00  0.00     0.135 C 
BRANCH  19  20
ATOM     20  C   UNL A   1      32.935  24.994  22.443  1.00  0.00     0.141 C 
BRANCH  20  21
ATOM     21  C   UNL A   1      32.929  25.272  21.001  1.00  0.00     0.064 C 
ATOM     22  N   UNL A   1      32.929  25.493  19.864  1.00  0.00    -0.198 NA
ENDBRANCH  20  21
ENDBRANCH  19  20
ENDBRANCH  15  19
ENDBRANCH  13  15
ENDBRANCH   8  13
ENDBRANCH   6   7
ENDBRANCH   1   5
BRANCH   3  23
ATOM     23  C   UNL A   1      37.332  21.082  24.708  1.00  0.00     0.118 C 
BRANCH  23  24
ATOM     24  C   UNL A   1      38.261  19.915  25.016  1.00  0.00     0.042 C 
BRANCH  24  25
ATOM     25  C   UNL A   1      39.337  20.262  26.033  1.00  0.00     0.118 C 
BRANCH  25  26
ATOM     26  N   UNL A   1      40.392  19.257  26.064  1.00  0.00    -0.352 N 
ATOM     27  C   UNL A   1      41.755  19.404  26.048  1.00  0.00     0.251 C 
ATOM     28  H   UNL A   1      40.077  18.325  26.102  1.00  0.00     0.163 HD
ATOM     29  O   UNL A   1      42.464  18.431  25.806  1.00  0.00    -0.269 OA
BRANCH  27  30
ATOM     30  C   UNL A   1      42.366  20.722  26.315  1.00  0.00     0.039 A 
ATOM     31  C   UNL A   1      42.774  21.509  25.235  1.00  0.00     0.014 A 
ATOM     32  C   UNL A   1      42.566  21.167  27.624  1.00  0.00     0.014 A 
ATOM     33  C   UNL A   1      43.336  22.764  25.472  1.00  0.00     0.010 A 
ATOM     34  C   UNL A   1      43.030  22.456  27.854  1.00  0.00     0.010 A 
ATOM     35  C   UNL A   1      43.435  23.263  26.782  1.00  0.00    -0.014 A 
BRANCH  35  36
ATOM     36  C   UNL A   1      43.965  24.622  27.052  1.00  0.00     0.031 A 
ATOM     37  C   UNL A   1      43.036  25.722  27.488  1.00  0.00     0.074 A 
ATOM     38  C   UNL A   1      45.273  24.874  26.843  1.00  0.00     0.049 A 
ATOM     39  N   UNL A   1      43.299  26.983  27.710  1.00  0.00    -0.248 NA
ATOM     40  C   UNL A   1      41.619  25.365  27.672  1.00  0.00     0.031 C 
ATOM     41  C   UNL A   1      46.258  23.896  26.375  1.00  0.00     0.029 A 
ATOM     42  N   UNL A   1      45.998  26.029  26.991  1.00  0.00    -0.354 N 
ATOM     43  C   UNL A   1      42.084  27.570  28.047  1.00  0.00     0.074 A 
ATOM     44  C   UNL A   1      41.073  26.542  27.939  1.00  0.00     0.031 C 
ATOM     45  C   UNL A   1      47.462  24.484  26.303  1.00  0.00     0.029 A 
ATOM     46  C   UNL A   1      47.327  25.890  26.668  1.00  0.00     0.049 A 
ATOM     47  H   UNL A   1      45.605  26.877  27.299  1.00  0.00     0.167 HD
ATOM     48  C   UNL A   1      41.840  28.844  28.436  1.00  0.00     0.037 A 
ATOM     49  C   UNL A   1      48.324  26.797  26.653  1.00  0.00     0.037 A 
ATOM     50  C   UNL A   1      42.859  29.854  28.552  1.00  0.00     0.049 A 
ATOM     51  C   UNL A   1      48.022  28.212  27.067  1.00  0.00     0.074 A 
ATOM     52  C   UNL A   1      42.729  31.160  28.986  1.00  0.00     0.029 A 
ATOM     53  N   UNL A   1      44.196  29.674  28.222  1.00  0.00    -0.354 N 
ATOM     54  N   UNL A   1      46.880  28.734  27.449  1.00  0.00    -0.248 NA
ATOM     55  C   UNL A   1      49.143  29.161  27.055  1.00  0.00     0.031 C 
ATOM     56  C   UNL A   1      43.971  31.789  28.858  1.00  0.00     0.029 A 
ATOM     57  C   UNL A   1      44.894  30.856  28.414  1.00  0.00     0.049 A 
ATOM     58  H   UNL A   1      44.590  28.831  27.900  1.00  0.00     0.167 HD
ATOM     59  C   UNL A   1      47.153  30.063  27.755  1.00  0.00     0.074 A 
ATOM     60  C   UNL A   1      48.569  30.260  27.525  1.00  0.00     0.031 C 
ATOM     61  C   UNL A   1      46.308  31.032  28.186  1.00  0.00     0.037 A 
BRANCH  48  62
ATOM     62  C   UNL A   1      40.418  29.219  28.762  1.00  0.00     0.058 A 
ATOM     63  C   UNL A   1      39.463  29.451  27.757  1.00  0.00     0.135 A 
ATOM     64  C   UNL A   1      39.992  29.309  30.097  1.00  0.00     0.135 A 
ATOM     65  F   UNL A   1      39.815  29.395  26.462  1.00  0.00    -0.206 F 
ATOM     66  C   UNL A   1      38.148  29.787  28.065  1.00  0.00     0.059 A 
ATOM     67  C   UNL A   1      38.674  29.608  30.428  1.00  0.00     0.059 A 
ATOM     68  F   UNL A   1      40.861  29.100  31.099  1.00  0.00    -0.206 F 
ATOM     69  C   UNL A   1      37.762  29.858  29.404  1.00  0.00     0.060 A 
BRANCH  69  70
ATOM     70  S   UNL A   1      36.048  30.281  29.782  1.00  0.00     0.124 S 
ATOM     71  O   UNL A   1      36.094  31.739  29.756  1.00  0.00    -0.237 OA
ATOM     72  O   UNL A   1      35.325  29.650  28.683  1.00  0.00    -0.237 OA
ATOM     73  O   UNL A   1      35.832  29.685  31.096  1.00  0.00    -0.744 OA
ENDBRANCH  69  70
ENDBRANCH  48  62
BRANCH  49  74
ATOM     74  C   UNL A   1      49.695  26.391  26.244  1.00  0.00     0.058 A 
ATOM     75  C   UNL A   1      50.210  26.738  24.986  1.00  0.00     0.135 A 
ATOM     76  C   UNL A   1      50.525  25.659  27.108  1.00  0.00     0.135 A 
ATOM     77  F   UNL A   1      49.455  27.434  24.121  1.00  0.00    -0.206 F 
ATOM     78  C   UNL A   1      51.490  26.360  24.590  1.00  0.00     0.059 A 
ATOM     79  C   UNL A   1      51.819  25.296  26.748  1.00  0.00     0.059 A 
ATOM     80  F   UNL A   1      50.090  25.317  28.331  1.00  0.00    -0.206 F 
ATOM     81  C   UNL A   1      52.289  25.642  25.483  1.00  0.00     0.060 A 
BRANCH  81  82
ATOM     82  S   UNL A   1      53.966  25.203  24.981  1.00  0.00     0.124 S 
ATOM     83  O   UNL A   1      54.759  25.803  26.047  1.00  0.00    -0.237 OA
ATOM     84  O   UNL A   1      53.908  23.745  24.968  1.00  0.00    -0.237 OA
ATOM     85  O   UNL A   1      54.097  25.828  23.667  1.00  0.00    -0.744 OA
ENDBRANCH  81  82
ENDBRANCH  49  74
BRANCH  61  86
ATOM     86  C   UNL A   1      46.897  32.386  28.483  1.00  0.00     0.058 A 
ATOM     87  C   UNL A   1      47.443  32.701  29.736  1.00  0.00     0.135 A 
ATOM     88  C   UNL A   1      46.960  33.365  27.476  1.00  0.00     0.135 A 
ATOM     89  F   UNL A   1      47.404  31.806  30.737  1.00  0.00    -0.206 F 
ATOM     90  C   UNL A   1      48.008  33.947  29.990  1.00  0.00     0.059 A 
ATOM     91  C   UNL A   1      47.553  34.603  27.697  1.00  0.00     0.059 A 
ATOM     92  F   UNL A   1      46.461  33.113  26.256  1.00  0.00    -0.206 F 
ATOM     93  C   UNL A   1      48.062  34.890  28.961  1.00  0.00     0.060 A 
BRANCH  93  94
ATOM     94  S   UNL A   1      48.830  36.488  29.297  1.00  0.00     0.124 S 
ATOM     95  O   UNL A   1      50.123  36.085  29.841  1.00  0.00    -0.237 OA
ATOM     96  O   UNL A   1      48.861  37.102  27.974  1.00  0.00    -0.237 OA
ATOM     97  O   UNL A   1      47.915  37.111  30.250  1.00  0.00    -0.744 OA
ENDBRANCH  93  94
ENDBRANCH  61  86
ENDBRANCH  35  36
ENDBRANCH  27  30
ENDBRANCH  25  26
ENDBRANCH  24  25
ENDBRANCH  23  24
ENDBRANCH   3  23
TORSDOF 20
ENDMDL
