MODEL 1
REMARK VINA RESULT:      -9.9      0.000      0.000
REMARK SMILES CC[C@@H](C)[C@H](NC(=O)N1CCn2c1nc1ccccc12)C(=O)N[C@H](C)C(=O)NCCCNC(=O)c1ccc(-c2c3nc(c(-c4c(F)cc(S(=O)(=O)[O-])cc4F)c4ccc([nH]4)c(-c4c(F)cc(S(=O)(=O)[O-])cc4F)c4nc(c(-c5c(F)cc(S(=O)(=O)[O-])cc5F)c5ccc2[nH]5)C=C4)C=C3)cc1
REMARK SMILES IDX 29 1 28 2 26 3 27 4 24 6 25 7 23 8 21 9 22 10 5 12 3 13 4 14
REMARK SMILES IDX 2 15 1 16 6 17 7 18 8 20 9 21 10 22 13 23 11 24 12 25 14 26
REMARK SMILES IDX 20 27 15 28 19 29 16 30 18 31 17 32 30 33 31 34 32 35 33 36
REMARK SMILES IDX 34 38 35 39 36 40 100 41 37 42 99 43 38 44 39 45 40 46 93 47
REMARK SMILES IDX 41 48 98 49 92 50 94 51 42 52 97 53 91 54 90 55 43 57 77 58
REMARK SMILES IDX 56 59 76 60 57 61 60 62 75 63 95 64 58 65 59 66 74 68 96 69
REMARK SMILES IDX 61 70 44 71 45 72 54 73 46 74 47 75 53 76 55 77 48 78 49 79
REMARK SMILES IDX 50 80 51 81 52 82 78 83 79 84 88 85 80 86 81 87 87 88 89 89
REMARK SMILES IDX 82 90 83 91 84 92 85 93 86 94 62 95 63 96 72 97 64 98 65 99
REMARK SMILES IDX 71 100 73 101 66 102 67 103 68 104 69 105 70 106
REMARK H PARENT 28 5 23 11 6 19 32 37 94 56 60 67
REMARK Flexibility Score: inf
ROOT
ATOM      1  C   UNL A   1      42.238  28.432  34.108  1.00  0.00     0.117 C 
ENDROOT
BRANCH   1   2
ATOM      2  N   UNL A   1      40.788  28.421  34.025  1.00  0.00    -0.354 N 
ATOM      3  C   UNL A   1      39.958  28.744  32.976  1.00  0.00     0.242 C 
ATOM      4  O   UNL A   1      38.745  28.559  33.173  1.00  0.00    -0.273 OA
ATOM      5  H   UNL A   1      40.327  28.137  34.848  1.00  0.00     0.163 HD
BRANCH   3   6
ATOM      6  C   UNL A   1      40.423  29.210  31.546  1.00  0.00     0.168 C 
ATOM      7  C   UNL A   1      39.921  28.450  30.327  1.00  0.00     0.041 C 
BRANCH   6   8
ATOM      8  N   UNL A   1      40.819  30.600  31.241  1.00  0.00    -0.343 N 
ATOM      9  C   UNL A   1      40.270  31.832  31.174  1.00  0.00     0.243 C 
ATOM     10  O   UNL A   1      41.030  32.698  30.713  1.00  0.00    -0.273 OA
ATOM     11  H   UNL A   1      41.777  30.641  31.019  1.00  0.00     0.164 HD
BRANCH   9  12
ATOM     12  C   UNL A   1      38.981  32.264  31.874  1.00  0.00     0.176 C 
BRANCH  12  13
ATOM     13  C   UNL A   1      39.388  32.892  33.315  1.00  0.00     0.018 C 
ATOM     14  C   UNL A   1      39.028  31.924  34.453  1.00  0.00     0.010 C 
BRANCH  13  15
ATOM     15  C   UNL A   1      38.777  34.234  33.803  1.00  0.00     0.002 C 
ATOM     16  C   UNL A   1      39.677  35.053  34.754  1.00  0.00     0.004 C 
ENDBRANCH  13  15
ENDBRANCH  12  13
BRANCH  12  17
ATOM     17  N   UNL A   1      37.878  31.279  31.888  1.00  0.00    -0.326 N 
ATOM     18  C   UNL A   1      36.537  31.223  32.068  1.00  0.00     0.324 C 
ATOM     19  H   UNL A   1      38.231  30.378  31.712  1.00  0.00     0.166 HD
ATOM     20  O   UNL A   1      36.068  30.078  31.969  1.00  0.00    -0.248 OA
BRANCH  18  21
ATOM     21  N   UNL A   1      35.675  32.229  32.317  1.00  0.00    -0.262 N 
ATOM     22  C   UNL A   1      35.544  32.814  33.692  1.00  0.00     0.152 C 
ATOM     23  C   UNL A   1      34.972  33.008  31.453  1.00  0.00     0.214 A 
ATOM     24  C   UNL A   1      34.726  34.105  33.531  1.00  0.00     0.148 C 
ATOM     25  N   UNL A   1      34.445  34.087  32.110  1.00  0.00    -0.308 N 
ATOM     26  N   UNL A   1      34.722  33.056  30.179  1.00  0.00    -0.212 NA
ATOM     27  C   UNL A   1      33.926  34.959  31.216  1.00  0.00     0.070 A 
ATOM     28  C   UNL A   1      34.057  34.256  30.012  1.00  0.00     0.091 A 
ATOM     29  C   UNL A   1      33.389  36.245  31.302  1.00  0.00     0.028 A 
ATOM     30  C   UNL A   1      33.568  34.831  28.833  1.00  0.00     0.031 A 
ATOM     31  C   UNL A   1      32.951  36.816  30.100  1.00  0.00     0.002 A 
ATOM     32  C   UNL A   1      33.022  36.118  28.890  1.00  0.00     0.002 A 
ENDBRANCH  18  21
ENDBRANCH  12  17
ENDBRANCH   9  12
ENDBRANCH   6   8
ENDBRANCH   3   6
ENDBRANCH   1   2
BRANCH   1  33
ATOM     33  C   UNL A   1      43.038  29.784  34.154  1.00  0.00     0.042 C 
BRANCH  33  34
ATOM     34  C   UNL A   1      44.580  29.803  34.134  1.00  0.00     0.118 C 
BRANCH  34  35
ATOM     35  N   UNL A   1      45.382  29.176  35.193  1.00  0.00    -0.352 N 
ATOM     36  C   UNL A   1      46.702  28.774  35.074  1.00  0.00     0.251 C 
ATOM     37  H   UNL A   1      44.944  29.029  36.062  1.00  0.00     0.163 HD
ATOM     38  O   UNL A   1      47.546  28.971  35.941  1.00  0.00    -0.269 OA
BRANCH  36  39
ATOM     39  C   UNL A   1      46.944  27.839  33.976  1.00  0.00     0.039 A 
ATOM     40  C   UNL A   1      47.515  28.327  32.802  1.00  0.00     0.014 A 
ATOM     41  C   UNL A   1      46.063  26.758  33.996  1.00  0.00     0.014 A 
ATOM     42  C   UNL A   1      46.960  27.921  31.604  1.00  0.00     0.010 A 
ATOM     43  C   UNL A   1      45.533  26.337  32.797  1.00  0.00     0.010 A 
ATOM     44  C   UNL A   1      45.913  26.991  31.617  1.00  0.00    -0.014 A 
BRANCH  44  45
ATOM     45  C   UNL A   1      45.272  26.697  30.329  1.00  0.00     0.031 A 
ATOM     46  C   UNL A   1      44.927  27.996  29.666  1.00  0.00     0.074 A 
ATOM     47  C   UNL A   1      45.758  25.694  29.566  1.00  0.00     0.049 A 
ATOM     48  N   UNL A   1      45.782  28.751  29.044  1.00  0.00    -0.248 NA
ATOM     49  C   UNL A   1      43.679  28.675  30.023  1.00  0.00     0.031 C 
ATOM     50  C   UNL A   1      47.174  25.401  29.313  1.00  0.00     0.029 A 
ATOM     51  N   UNL A   1      45.077  24.875  28.691  1.00  0.00    -0.354 N 
ATOM     52  C   UNL A   1      45.225  30.016  28.978  1.00  0.00     0.074 A 
ATOM     53  C   UNL A   1      43.924  29.923  29.600  1.00  0.00     0.031 C 
ATOM     54  C   UNL A   1      47.263  24.620  28.219  1.00  0.00     0.029 A 
ATOM     55  C   UNL A   1      45.921  24.297  27.742  1.00  0.00     0.049 A 
ATOM     56  H   UNL A   1      44.106  24.715  28.731  1.00  0.00     0.167 HD
ATOM     57  C   UNL A   1      45.862  31.078  28.425  1.00  0.00     0.037 A 
ATOM     58  C   UNL A   1      45.562  24.124  26.437  1.00  0.00     0.037 A 
ATOM     59  C   UNL A   1      47.132  30.803  27.829  1.00  0.00     0.049 A 
ATOM     60  C   UNL A   1      45.908  25.485  25.872  1.00  0.00     0.074 A 
ATOM     61  C   UNL A   1      48.465  31.006  28.107  1.00  0.00     0.029 A 
ATOM     62  N   UNL A   1      47.120  30.148  26.620  1.00  0.00    -0.354 N 
ATOM     63  N   UNL A   1      47.099  25.907  25.533  1.00  0.00    -0.248 NA
ATOM     64  C   UNL A   1      44.924  26.555  26.063  1.00  0.00     0.031 C 
ATOM     65  C   UNL A   1      49.173  30.083  27.273  1.00  0.00     0.029 A 
ATOM     66  C   UNL A   1      48.223  29.340  26.571  1.00  0.00     0.049 A 
ATOM     67  H   UNL A   1      46.438  30.243  25.915  1.00  0.00     0.167 HD
ATOM     68  C   UNL A   1      47.085  27.288  25.762  1.00  0.00     0.074 A 
ATOM     69  C   UNL A   1      45.702  27.628  26.026  1.00  0.00     0.031 C 
ATOM     70  C   UNL A   1      48.212  28.042  25.930  1.00  0.00     0.037 A 
BRANCH  57  71
ATOM     71  C   UNL A   1      45.219  32.381  28.181  1.00  0.00     0.058 A 
ATOM     72  C   UNL A   1      45.215  33.296  29.244  1.00  0.00     0.135 A 
ATOM     73  C   UNL A   1      44.445  32.665  27.051  1.00  0.00     0.135 A 
ATOM     74  F   UNL A   1      45.960  33.056  30.338  1.00  0.00    -0.206 F 
ATOM     75  C   UNL A   1      44.410  34.420  29.230  1.00  0.00     0.059 A 
ATOM     76  C   UNL A   1      43.636  33.801  27.008  1.00  0.00     0.059 A 
ATOM     77  F   UNL A   1      44.428  31.822  26.008  1.00  0.00    -0.206 F 
ATOM     78  C   UNL A   1      43.601  34.650  28.118  1.00  0.00     0.060 A 
BRANCH  78  79
ATOM     79  S   UNL A   1      42.470  36.052  28.189  1.00  0.00     0.124 S 
ATOM     80  O   UNL A   1      41.258  35.429  28.710  1.00  0.00    -0.237 OA
ATOM     81  O   UNL A   1      43.164  36.953  29.103  1.00  0.00    -0.237 OA
ATOM     82  O   UNL A   1      42.399  36.502  26.802  1.00  0.00    -0.744 OA
ENDBRANCH  78  79
ENDBRANCH  57  71
BRANCH  58  83
ATOM     83  C   UNL A   1      44.259  23.407  26.250  1.00  0.00     0.058 A 
ATOM     84  C   UNL A   1      44.309  22.103  25.707  1.00  0.00     0.135 A 
ATOM     85  C   UNL A   1      42.992  23.865  26.638  1.00  0.00     0.135 A 
ATOM     86  F   UNL A   1      45.457  21.627  25.196  1.00  0.00    -0.206 F 
ATOM     87  C   UNL A   1      43.216  21.245  25.721  1.00  0.00     0.059 A 
ATOM     88  C   UNL A   1      41.883  23.016  26.683  1.00  0.00     0.059 A 
ATOM     89  F   UNL A   1      42.799  25.132  27.022  1.00  0.00    -0.206 F 
ATOM     90  C   UNL A   1      42.018  21.695  26.266  1.00  0.00     0.060 A 
BRANCH  90  91
ATOM     91  S   UNL A   1      40.684  20.502  26.493  1.00  0.00     0.124 S 
ATOM     92  O   UNL A   1      40.675  20.328  27.941  1.00  0.00    -0.237 OA
ATOM     93  O   UNL A   1      39.547  21.225  25.931  1.00  0.00    -0.237 OA
ATOM     94  O   UNL A   1      41.129  19.346  25.720  1.00  0.00    -0.744 OA
ENDBRANCH  90  91
ENDBRANCH  58  83
BRANCH  70  95
ATOM     95  C   UNL A   1      49.505  27.362  25.630  1.00  0.00     0.058 A 
ATOM     96  C   UNL A   1      50.010  27.358  24.324  1.00  0.00     0.135 A 
ATOM     97  C   UNL A   1      50.290  26.784  26.641  1.00  0.00     0.135 A 
ATOM     98  F   UNL A   1      49.305  27.910  23.322  1.00  0.00    -0.206 F 
ATOM     99  C   UNL A   1      51.262  26.826  24.032  1.00  0.00     0.059 A 
ATOM    100  C   UNL A   1      51.558  26.275  26.378  1.00  0.00     0.059 A 
ATOM    101  F   UNL A   1      49.853  26.735  27.910  1.00  0.00    -0.206 F 
ATOM    102  C   UNL A   1      52.036  26.302  25.070  1.00  0.00     0.060 A 
BRANCH 102 103
ATOM    103  S   UNL A   1      53.698  25.712  24.695  1.00  0.00     0.124 S 
ATOM    104  O   UNL A   1      53.615  24.305  25.073  1.00  0.00    -0.237 OA
ATOM    105  O   UNL A   1      53.811  25.983  23.266  1.00  0.00    -0.237 OA
ATOM    106  O   UNL A   1      54.554  26.532  25.551  1.00  0.00    -0.744 OA
ENDBRANCH 102 103
ENDBRANCH  70  95
ENDBRANCH  44  45
ENDBRANCH  36  39
ENDBRANCH  34  35
ENDBRANCH  33  34
ENDBRANCH   1  33
TORSDOF 19
ENDMDL
MODEL 2
REMARK VINA RESULT:      -9.9      2.106      3.801
REMARK SMILES CC[C@@H](C)[C@H](NC(=O)N1CCn2c1nc1ccccc12)C(=O)N[C@H](C)C(=O)NCCCNC(=O)c1ccc(-c2c3nc(c(-c4c(F)cc(S(=O)(=O)[O-])cc4F)c4ccc([nH]4)c(-c4c(F)cc(S(=O)(=O)[O-])cc4F)c4nc(c(-c5c(F)cc(S(=O)(=O)[O-])cc5F)c5ccc2[nH]5)C=C4)C=C3)cc1
REMARK SMILES IDX 29 1 28 2 26 3 27 4 24 6 25 7 23 8 21 9 22 10 5 12 3 13 4 14
REMARK SMILES IDX 2 15 1 16 6 17 7 18 8 20 9 21 10 22 13 23 11 24 12 25 14 26
REMARK SMILES IDX 20 27 15 28 19 29 16 30 18 31 17 32 30 33 31 34 32 35 33 36
REMARK SMILES IDX 34 38 35 39 36 40 100 41 37 42 99 43 38 44 39 45 40 46 93 47
REMARK SMILES IDX 41 48 98 49 92 50 94 51 42 52 97 53 91 54 90 55 43 57 77 58
REMARK SMILES IDX 56 59 76 60 57 61 60 62 75 63 95 64 58 65 59 66 74 68 96 69
REMARK SMILES IDX 61 70 44 71 45 72 54 73 46 74 47 75 53 76 55 77 48 78 49 79
REMARK SMILES IDX 50 80 51 81 52 82 78 83 79 84 88 85 80 86 81 87 87 88 89 89
REMARK SMILES IDX 82 90 83 91 84 92 85 93 86 94 62 95 63 96 72 97 64 98 65 99
REMARK SMILES IDX 71 100 73 101 66 102 67 103 68 104 69 105 70 106
REMARK H PARENT 28 5 23 11 6 19 32 37 94 56 60 67
REMARK Flexibility Score: inf
ROOT
ATOM      1  C   UNL A   1      44.823  31.809  34.159  1.00  0.00     0.117 C 
ENDROOT
BRANCH   1   2
ATOM      2  N   UNL A   1      43.803  32.811  33.903  1.00  0.00    -0.354 N 
ATOM      3  C   UNL A   1      42.667  33.121  34.616  1.00  0.00     0.242 C 
ATOM      4  O   UNL A   1      42.017  34.092  34.195  1.00  0.00    -0.273 OA
ATOM      5  H   UNL A   1      43.947  33.353  33.094  1.00  0.00     0.163 HD
BRANCH   3   6
ATOM      6  C   UNL A   1      42.203  32.430  35.951  1.00  0.00     0.168 C 
ATOM      7  C   UNL A   1      41.727  33.304  37.103  1.00  0.00     0.041 C 
BRANCH   6   8
ATOM      8  N   UNL A   1      41.660  31.057  36.001  1.00  0.00    -0.343 N 
ATOM      9  C   UNL A   1      40.540  30.383  35.661  1.00  0.00     0.243 C 
ATOM     10  O   UNL A   1      40.518  29.207  36.058  1.00  0.00    -0.273 OA
ATOM     11  H   UNL A   1      42.315  30.445  36.407  1.00  0.00     0.164 HD
BRANCH   9  12
ATOM     12  C   UNL A   1      39.517  30.840  34.620  1.00  0.00     0.176 C 
BRANCH  12  13
ATOM     13  C   UNL A   1      38.838  32.212  35.163  1.00  0.00     0.018 C 
ATOM     14  C   UNL A   1      38.078  31.960  36.475  1.00  0.00     0.010 C 
BRANCH  13  15
ATOM     15  C   UNL A   1      37.794  32.980  34.306  1.00  0.00     0.002 C 
ATOM     16  C   UNL A   1      38.232  34.390  33.856  1.00  0.00     0.004 C 
ENDBRANCH  13  15
ENDBRANCH  12  13
BRANCH  12  17
ATOM     17  N   UNL A   1      38.580  29.810  34.121  1.00  0.00    -0.326 N 
ATOM     18  C   UNL A   1      38.113  29.307  32.955  1.00  0.00     0.324 C 
ATOM     19  H   UNL A   1      38.163  29.341  34.880  1.00  0.00     0.166 HD
ATOM     20  O   UNL A   1      37.289  28.390  33.100  1.00  0.00    -0.248 OA
BRANCH  18  21
ATOM     21  N   UNL A   1      38.436  29.658  31.694  1.00  0.00    -0.262 N 
ATOM     22  C   UNL A   1      38.734  31.084  31.340  1.00  0.00     0.152 C 
ATOM     23  C   UNL A   1      38.750  28.878  30.625  1.00  0.00     0.214 A 
ATOM     24  C   UNL A   1      39.349  31.056  29.931  1.00  0.00     0.148 C 
ATOM     25  N   UNL A   1      39.289  29.641  29.625  1.00  0.00    -0.308 N 
ATOM     26  N   UNL A   1      38.750  27.617  30.317  1.00  0.00    -0.212 NA
ATOM     27  C   UNL A   1      39.785  28.840  28.655  1.00  0.00     0.070 A 
ATOM     28  C   UNL A   1      39.376  27.572  29.086  1.00  0.00     0.091 A 
ATOM     29  C   UNL A   1      40.534  29.055  27.497  1.00  0.00     0.028 A 
ATOM     30  C   UNL A   1      39.667  26.458  28.289  1.00  0.00     0.031 A 
ATOM     31  C   UNL A   1      40.853  27.918  26.743  1.00  0.00     0.002 A 
ATOM     32  C   UNL A   1      40.415  26.644  27.121  1.00  0.00     0.002 A 
ENDBRANCH  18  21
ENDBRANCH  12  17
ENDBRANCH   9  12
ENDBRANCH   6   8
ENDBRANCH   3   6
ENDBRANCH   1   2
BRANCH   1  33
ATOM     33  C   UNL A   1      44.735  30.378  33.517  1.00  0.00     0.042 C 
BRANCH  33  34
ATOM     34  C   UNL A   1      44.266  29.159  34.338  1.00  0.00     0.118 C 
BRANCH  34  35
ATOM     35  N   UNL A   1      45.113  28.537  35.365  1.00  0.00    -0.352 N 
ATOM     36  C   UNL A   1      46.457  28.234  35.227  1.00  0.00     0.251 C 
ATOM     37  H   UNL A   1      44.689  28.319  36.226  1.00  0.00     0.163 HD
ATOM     38  O   UNL A   1      47.289  28.445  36.102  1.00  0.00    -0.269 OA
BRANCH  36  39
ATOM     39  C   UNL A   1      46.759  27.373  34.083  1.00  0.00     0.039 A 
ATOM     40  C   UNL A   1      47.309  27.953  32.942  1.00  0.00     0.014 A 
ATOM     41  C   UNL A   1      45.938  26.244  34.039  1.00  0.00     0.014 A 
ATOM     42  C   UNL A   1      46.786  27.580  31.719  1.00  0.00     0.010 A 
ATOM     43  C   UNL A   1      45.442  25.858  32.814  1.00  0.00     0.010 A 
ATOM     44  C   UNL A   1      45.792  26.594  31.673  1.00  0.00    -0.014 A 
BRANCH  44  45
ATOM     45  C   UNL A   1      45.177  26.334  30.365  1.00  0.00     0.031 A 
ATOM     46  C   UNL A   1      44.747  27.643  29.776  1.00  0.00     0.074 A 
ATOM     47  C   UNL A   1      45.733  25.411  29.549  1.00  0.00     0.049 A 
ATOM     48  N   UNL A   1      45.552  28.488  29.205  1.00  0.00    -0.248 NA
ATOM     49  C   UNL A   1      43.456  28.214  30.162  1.00  0.00     0.031 C 
ATOM     50  C   UNL A   1      47.167  25.231  29.291  1.00  0.00     0.029 A 
ATOM     51  N   UNL A   1      45.112  24.601  28.623  1.00  0.00    -0.354 N 
ATOM     52  C   UNL A   1      44.910  29.715  29.209  1.00  0.00     0.074 A 
ATOM     53  C   UNL A   1      43.616  29.498  29.814  1.00  0.00     0.031 C 
ATOM     54  C   UNL A   1      47.313  24.522  28.154  1.00  0.00     0.029 A 
ATOM     55  C   UNL A   1      45.997  24.138  27.649  1.00  0.00     0.049 A 
ATOM     56  H   UNL A   1      44.155  24.374  28.646  1.00  0.00     0.167 HD
ATOM     57  C   UNL A   1      45.476  30.848  28.724  1.00  0.00     0.037 A 
ATOM     58  C   UNL A   1      45.656  24.017  26.333  1.00  0.00     0.037 A 
ATOM     59  C   UNL A   1      46.764  30.694  28.122  1.00  0.00     0.049 A 
ATOM     60  C   UNL A   1      45.911  25.429  25.851  1.00  0.00     0.074 A 
ATOM     61  C   UNL A   1      48.079  30.970  28.422  1.00  0.00     0.029 A 
ATOM     62  N   UNL A   1      46.801  30.111  26.877  1.00  0.00    -0.354 N 
ATOM     63  N   UNL A   1      47.072  25.949  25.546  1.00  0.00    -0.248 NA
ATOM     64  C   UNL A   1      44.855  26.417  26.095  1.00  0.00     0.031 C 
ATOM     65  C   UNL A   1      48.852  30.147  27.542  1.00  0.00     0.029 A 
ATOM     66  C   UNL A   1      47.957  29.384  26.790  1.00  0.00     0.049 A 
ATOM     67  H   UNL A   1      46.117  30.201  26.174  1.00  0.00     0.167 HD
ATOM     68  C   UNL A   1      46.964  27.311  25.854  1.00  0.00     0.074 A 
ATOM     69  C   UNL A   1      45.560  27.541  26.127  1.00  0.00     0.031 C 
ATOM     70  C   UNL A   1      48.036  28.128  26.074  1.00  0.00     0.037 A 
BRANCH  57  71
ATOM     71  C   UNL A   1      44.747  32.117  28.550  1.00  0.00     0.058 A 
ATOM     72  C   UNL A   1      44.190  32.360  27.286  1.00  0.00     0.135 A 
ATOM     73  C   UNL A   1      44.766  33.156  29.485  1.00  0.00     0.135 A 
ATOM     74  F   UNL A   1      44.146  31.376  26.372  1.00  0.00    -0.206 F 
ATOM     75  C   UNL A   1      43.736  33.615  26.924  1.00  0.00     0.059 A 
ATOM     76  C   UNL A   1      44.300  34.427  29.148  1.00  0.00     0.059 A 
ATOM     77  F   UNL A   1      45.281  32.963  30.709  1.00  0.00    -0.206 F 
ATOM     78  C   UNL A   1      43.822  34.651  27.853  1.00  0.00     0.060 A 
BRANCH  78  79
ATOM     79  S   UNL A   1      43.343  36.301  27.305  1.00  0.00     0.124 S 
ATOM     80  O   UNL A   1      42.737  36.018  26.008  1.00  0.00    -0.237 OA
ATOM     81  O   UNL A   1      42.421  36.712  28.360  1.00  0.00    -0.237 OA
ATOM     82  O   UNL A   1      44.608  37.026  27.263  1.00  0.00    -0.744 OA
ENDBRANCH  78  79
ENDBRANCH  57  71
BRANCH  58  83
ATOM     83  C   UNL A   1      44.405  23.226  26.095  1.00  0.00     0.058 A 
ATOM     84  C   UNL A   1      44.552  21.844  25.834  1.00  0.00     0.135 A 
ATOM     85  C   UNL A   1      43.089  23.699  26.187  1.00  0.00     0.135 A 
ATOM     86  F   UNL A   1      45.770  21.325  25.608  1.00  0.00    -0.206 F 
ATOM     87  C   UNL A   1      43.478  20.962  25.850  1.00  0.00     0.059 A 
ATOM     88  C   UNL A   1      41.994  22.832  26.229  1.00  0.00     0.059 A 
ATOM     89  F   UNL A   1      42.826  25.008  26.279  1.00  0.00    -0.206 F 
ATOM     90  C   UNL A   1      42.206  21.461  26.106  1.00  0.00     0.060 A 
BRANCH  90  91
ATOM     91  S   UNL A   1      40.863  20.283  26.358  1.00  0.00     0.124 S 
ATOM     92  O   UNL A   1      41.289  19.155  25.537  1.00  0.00    -0.237 OA
ATOM     93  O   UNL A   1      40.922  20.078  27.802  1.00  0.00    -0.237 OA
ATOM     94  O   UNL A   1      39.687  21.004  25.880  1.00  0.00    -0.744 OA
ENDBRANCH  90  91
ENDBRANCH  58  83
BRANCH  70  95
ATOM     95  C   UNL A   1      49.373  27.556  25.746  1.00  0.00     0.058 A 
ATOM     96  C   UNL A   1      50.157  26.980  26.754  1.00  0.00     0.135 A 
ATOM     97  C   UNL A   1      49.851  27.498  24.427  1.00  0.00     0.135 A 
ATOM     98  F   UNL A   1      49.739  26.995  28.031  1.00  0.00    -0.206 F 
ATOM     99  C   UNL A   1      51.360  26.344  26.463  1.00  0.00     0.059 A 
ATOM    100  C   UNL A   1      51.035  26.840  24.108  1.00  0.00     0.059 A 
ATOM    101  F   UNL A   1      49.158  28.052  23.418  1.00  0.00    -0.206 F 
ATOM    102  C   UNL A   1      51.782  26.264  25.134  1.00  0.00     0.060 A 
BRANCH 102 103
ATOM    103  S   UNL A   1      53.287  25.345  24.759  1.00  0.00     0.124 S 
ATOM    104  O   UNL A   1      53.324  25.402  23.302  1.00  0.00    -0.237 OA
ATOM    105  O   UNL A   1      54.308  26.122  25.454  1.00  0.00    -0.237 OA
ATOM    106  O   UNL A   1      53.029  24.020  25.320  1.00  0.00    -0.744 OA
ENDBRANCH 102 103
ENDBRANCH  70  95
ENDBRANCH  44  45
ENDBRANCH  36  39
ENDBRANCH  34  35
ENDBRANCH  33  34
ENDBRANCH   1  33
TORSDOF 19
ENDMDL
MODEL 3
REMARK VINA RESULT:      -9.8      3.773      9.557
REMARK SMILES CC[C@@H](C)[C@H](NC(=O)N1CCn2c1nc1ccccc12)C(=O)N[C@H](C)C(=O)NCCCNC(=O)c1ccc(-c2c3nc(c(-c4c(F)cc(S(=O)(=O)[O-])cc4F)c4ccc([nH]4)c(-c4c(F)cc(S(=O)(=O)[O-])cc4F)c4nc(c(-c5c(F)cc(S(=O)(=O)[O-])cc5F)c5ccc2[nH]5)C=C4)C=C3)cc1
REMARK SMILES IDX 29 1 28 2 26 3 27 4 24 6 25 7 23 8 21 9 22 10 5 12 3 13 4 14
REMARK SMILES IDX 2 15 1 16 6 17 7 18 8 20 9 21 10 22 13 23 11 24 12 25 14 26
REMARK SMILES IDX 20 27 15 28 19 29 16 30 18 31 17 32 30 33 31 34 32 35 33 36
REMARK SMILES IDX 34 38 35 39 36 40 100 41 37 42 99 43 38 44 39 45 40 46 93 47
REMARK SMILES IDX 41 48 98 49 92 50 94 51 42 52 97 53 91 54 90 55 43 57 77 58
REMARK SMILES IDX 56 59 76 60 57 61 60 62 75 63 95 64 58 65 59 66 74 68 96 69
REMARK SMILES IDX 61 70 44 71 45 72 54 73 46 74 47 75 53 76 55 77 48 78 49 79
REMARK SMILES IDX 50 80 51 81 52 82 78 83 79 84 88 85 80 86 81 87 87 88 89 89
REMARK SMILES IDX 82 90 83 91 84 92 85 93 86 94 62 95 63 96 72 97 64 98 65 99
REMARK SMILES IDX 71 100 73 101 66 102 67 103 68 104 69 105 70 106
REMARK H PARENT 28 5 23 11 6 19 32 37 94 56 60 67
REMARK Flexibility Score: inf
ROOT
ATOM      1  C   UNL A   1      43.025  25.816  37.402  1.00  0.00     0.117 C 
ENDROOT
BRANCH   1   2
ATOM      2  N   UNL A   1      42.068  26.498  36.548  1.00  0.00    -0.354 N 
ATOM      3  C   UNL A   1      42.131  27.742  35.963  1.00  0.00     0.242 C 
ATOM      4  O   UNL A   1      41.187  28.031  35.209  1.00  0.00    -0.273 OA
ATOM      5  H   UNL A   1      41.245  25.991  36.358  1.00  0.00     0.163 HD
BRANCH   3   6
ATOM      6  C   UNL A   1      43.332  28.753  36.084  1.00  0.00     0.168 C 
ATOM      7  C   UNL A   1      44.249  28.950  34.885  1.00  0.00     0.041 C 
BRANCH   6   8
ATOM      8  N   UNL A   1      43.321  29.910  37.003  1.00  0.00    -0.343 N 
ATOM      9  C   UNL A   1      42.832  31.167  37.065  1.00  0.00     0.243 C 
ATOM     10  O   UNL A   1      43.238  31.819  38.040  1.00  0.00    -0.273 OA
ATOM     11  H   UNL A   1      43.825  29.700  37.822  1.00  0.00     0.164 HD
BRANCH   9  12
ATOM     12  C   UNL A   1      41.649  31.695  36.253  1.00  0.00     0.176 C 
BRANCH  12  13
ATOM     13  C   UNL A   1      41.528  33.290  36.535  1.00  0.00     0.018 C 
ATOM     14  C   UNL A   1      40.401  33.582  37.538  1.00  0.00     0.010 C 
BRANCH  13  15
ATOM     15  C   UNL A   1      41.225  34.285  35.381  1.00  0.00     0.002 C 
ATOM     16  C   UNL A   1      41.076  35.760  35.815  1.00  0.00     0.004 C 
ENDBRANCH  13  15
ENDBRANCH  12  13
BRANCH  12  17
ATOM     17  N   UNL A   1      40.389  30.926  36.348  1.00  0.00    -0.326 N 
ATOM     18  C   UNL A   1      39.167  30.859  35.771  1.00  0.00     0.324 C 
ATOM     19  H   UNL A   1      40.463  30.249  37.058  1.00  0.00     0.166 HD
ATOM     20  O   UNL A   1      38.435  29.979  36.253  1.00  0.00    -0.248 OA
BRANCH  18  21
ATOM     21  N   UNL A   1      38.668  31.597  34.759  1.00  0.00    -0.262 N 
ATOM     22  C   UNL A   1      37.410  32.394  34.929  1.00  0.00     0.152 C 
ATOM     23  C   UNL A   1      39.230  31.933  33.567  1.00  0.00     0.214 A 
ATOM     24  C   UNL A   1      37.324  33.324  33.708  1.00  0.00     0.148 C 
ATOM     25  N   UNL A   1      38.502  32.923  32.964  1.00  0.00    -0.308 N 
ATOM     26  N   UNL A   1      40.291  31.634  32.880  1.00  0.00    -0.212 NA
ATOM     27  C   UNL A   1      39.172  33.394  31.889  1.00  0.00     0.070 A 
ATOM     28  C   UNL A   1      40.266  32.523  31.822  1.00  0.00     0.091 A 
ATOM     29  C   UNL A   1      38.977  34.454  31.001  1.00  0.00     0.028 A 
ATOM     30  C   UNL A   1      41.185  32.665  30.775  1.00  0.00     0.031 A 
ATOM     31  C   UNL A   1      39.937  34.603  29.992  1.00  0.00     0.002 A 
ATOM     32  C   UNL A   1      41.012  33.717  29.868  1.00  0.00     0.002 A 
ENDBRANCH  18  21
ENDBRANCH  12  17
ENDBRANCH   9  12
ENDBRANCH   6   8
ENDBRANCH   3   6
ENDBRANCH   1   2
BRANCH   1  33
ATOM     33  C   UNL A   1      44.350  25.211  36.814  1.00  0.00     0.042 C 
BRANCH  33  34
ATOM     34  C   UNL A   1      44.460  23.713  36.462  1.00  0.00     0.118 C 
BRANCH  34  35
ATOM     35  N   UNL A   1      44.138  23.200  35.123  1.00  0.00    -0.352 N 
ATOM     36  C   UNL A   1      44.898  23.392  33.982  1.00  0.00     0.251 C 
ATOM     37  H   UNL A   1      43.311  22.674  35.029  1.00  0.00     0.163 HD
ATOM     38  O   UNL A   1      45.126  22.504  33.168  1.00  0.00    -0.269 OA
BRANCH  36  39
ATOM     39  C   UNL A   1      45.159  24.797  33.667  1.00  0.00     0.039 A 
ATOM     40  C   UNL A   1      44.098  25.585  33.225  1.00  0.00     0.014 A 
ATOM     41  C   UNL A   1      46.480  25.016  33.275  1.00  0.00     0.014 A 
ATOM     42  C   UNL A   1      44.324  26.413  32.142  1.00  0.00     0.010 A 
ATOM     43  C   UNL A   1      46.703  25.863  32.213  1.00  0.00     0.010 A 
ATOM     44  C   UNL A   1      45.609  26.479  31.590  1.00  0.00    -0.014 A 
BRANCH  44  45
ATOM     45  C   UNL A   1      45.761  27.267  30.360  1.00  0.00     0.031 A 
ATOM     46  C   UNL A   1      45.502  26.370  29.189  1.00  0.00     0.074 A 
ATOM     47  C   UNL A   1      45.281  28.530  30.324  1.00  0.00     0.049 A 
ATOM     48  N   UNL A   1      44.319  26.013  28.787  1.00  0.00    -0.248 NA
ATOM     49  C   UNL A   1      46.586  25.533  28.672  1.00  0.00     0.031 C 
ATOM     50  C   UNL A   1      43.992  28.984  30.860  1.00  0.00     0.029 A 
ATOM     51  N   UNL A   1      45.754  29.607  29.606  1.00  0.00    -0.354 N 
ATOM     52  C   UNL A   1      44.484  24.874  28.020  1.00  0.00     0.074 A 
ATOM     53  C   UNL A   1      45.904  24.611  27.979  1.00  0.00     0.031 C 
ATOM     54  C   UNL A   1      43.685  30.168  30.295  1.00  0.00     0.029 A 
ATOM     55  C   UNL A   1      44.780  30.588  29.423  1.00  0.00     0.049 A 
ATOM     56  H   UNL A   1      46.674  29.677  29.263  1.00  0.00     0.167 HD
ATOM     57  C   UNL A   1      43.448  24.198  27.465  1.00  0.00     0.037 A 
ATOM     58  C   UNL A   1      44.645  31.292  28.262  1.00  0.00     0.037 A 
ATOM     59  C   UNL A   1      42.154  24.779  27.648  1.00  0.00     0.049 A 
ATOM     60  C   UNL A   1      43.791  30.337  27.457  1.00  0.00     0.074 A 
ATOM     61  C   UNL A   1      41.021  24.552  28.397  1.00  0.00     0.029 A 
ATOM     62  N   UNL A   1      41.863  25.894  26.897  1.00  0.00    -0.354 N 
ATOM     63  N   UNL A   1      42.496  30.175  27.559  1.00  0.00    -0.248 NA
ATOM     64  C   UNL A   1      44.482  29.236  26.778  1.00  0.00     0.031 C 
ATOM     65  C   UNL A   1      40.296  25.786  28.374  1.00  0.00     0.029 A 
ATOM     66  C   UNL A   1      41.056  26.704  27.648  1.00  0.00     0.049 A 
ATOM     67  H   UNL A   1      42.180  26.076  25.983  1.00  0.00     0.167 HD
ATOM     68  C   UNL A   1      42.261  28.834  27.232  1.00  0.00     0.074 A 
ATOM     69  C   UNL A   1      43.513  28.334  26.703  1.00  0.00     0.031 C 
ATOM     70  C   UNL A   1      41.137  28.149  27.597  1.00  0.00     0.037 A 
BRANCH  57  71
ATOM     71  C   UNL A   1      43.612  23.097  26.499  1.00  0.00     0.058 A 
ATOM     72  C   UNL A   1      43.274  21.810  26.942  1.00  0.00     0.135 A 
ATOM     73  C   UNL A   1      44.272  23.232  25.274  1.00  0.00     0.135 A 
ATOM     74  F   UNL A   1      42.627  21.650  28.109  1.00  0.00    -0.206 F 
ATOM     75  C   UNL A   1      43.646  20.680  26.236  1.00  0.00     0.059 A 
ATOM     76  C   UNL A   1      44.644  22.107  24.537  1.00  0.00     0.059 A 
ATOM     77  F   UNL A   1      44.605  24.446  24.809  1.00  0.00    -0.206 F 
ATOM     78  C   UNL A   1      44.357  20.838  25.047  1.00  0.00     0.060 A 
BRANCH  78  79
ATOM     79  S   UNL A   1      44.938  19.343  24.222  1.00  0.00     0.124 S 
ATOM     80  O   UNL A   1      44.453  19.549  22.861  1.00  0.00    -0.237 OA
ATOM     81  O   UNL A   1      46.383  19.442  24.403  1.00  0.00    -0.237 OA
ATOM     82  O   UNL A   1      44.287  18.270  24.965  1.00  0.00    -0.744 OA
ENDBRANCH  78  79
ENDBRANCH  57  71
BRANCH  58  83
ATOM     83  C   UNL A   1      45.910  31.942  27.790  1.00  0.00     0.058 A 
ATOM     84  C   UNL A   1      45.982  33.352  27.864  1.00  0.00     0.135 A 
ATOM     85  C   UNL A   1      47.072  31.289  27.355  1.00  0.00     0.135 A 
ATOM     86  F   UNL A   1      44.883  34.070  28.151  1.00  0.00    -0.206 F 
ATOM     87  C   UNL A   1      47.173  34.050  27.702  1.00  0.00     0.059 A 
ATOM     88  C   UNL A   1      48.287  31.963  27.208  1.00  0.00     0.059 A 
ATOM     89  F   UNL A   1      47.076  29.975  27.101  1.00  0.00    -0.206 F 
ATOM     90  C   UNL A   1      48.335  33.337  27.429  1.00  0.00     0.060 A 
BRANCH  90  91
ATOM     91  S   UNL A   1      49.906  34.223  27.455  1.00  0.00     0.124 S 
ATOM     92  O   UNL A   1      50.842  33.199  27.005  1.00  0.00    -0.237 OA
ATOM     93  O   UNL A   1      49.645  35.307  26.514  1.00  0.00    -0.237 OA
ATOM     94  O   UNL A   1      50.040  34.631  28.851  1.00  0.00    -0.744 OA
ENDBRANCH  90  91
ENDBRANCH  58  83
BRANCH  70  95
ATOM     95  C   UNL A   1      40.034  28.965  28.181  1.00  0.00     0.058 A 
ATOM     96  C   UNL A   1      39.090  29.573  27.343  1.00  0.00     0.135 A 
ATOM     97  C   UNL A   1      39.855  29.084  29.569  1.00  0.00     0.135 A 
ATOM     98  F   UNL A   1      39.207  29.477  26.008  1.00  0.00    -0.206 F 
ATOM     99  C   UNL A   1      37.991  30.251  27.861  1.00  0.00     0.059 A 
ATOM    100  C   UNL A   1      38.747  29.730  30.108  1.00  0.00     0.059 A 
ATOM    101  F   UNL A   1      40.737  28.544  30.426  1.00  0.00    -0.206 F 
ATOM    102  C   UNL A   1      37.819  30.309  29.246  1.00  0.00     0.060 A 
BRANCH 102 103
ATOM    103  S   UNL A   1      36.336  31.099  29.900  1.00  0.00     0.124 S 
ATOM    104  O   UNL A   1      36.328  30.634  31.282  1.00  0.00    -0.237 OA
ATOM    105  O   UNL A   1      36.625  32.516  29.705  1.00  0.00    -0.237 OA
ATOM    106  O   UNL A   1      35.265  30.564  29.061  1.00  0.00    -0.744 OA
ENDBRANCH 102 103
ENDBRANCH  70  95
ENDBRANCH  44  45
ENDBRANCH  36  39
ENDBRANCH  34  35
ENDBRANCH  33  34
ENDBRANCH   1  33
TORSDOF 19
ENDMDL
