MODEL 1
REMARK VINA RESULT:     -13.4      0.000      0.000
REMARK SMILES Cc1ccc(/C=C2/SC(=O)N(CC(=O)NCCCNC(=O)c3ccc(-c4c5nc(c(-c6c(F)cc(S(=O)(=O)[O-])cc6F)c6ccc([nH]6)c(-c6c(F)cc(S(=O)(=O)[O-])cc6F)c6nc(c(-c7c(F)cc(S(=O)(=O)[O-])cc7F)c7ccc4[nH]7)C=C6)C=C5)cc3)C2=O)cc1
REMARK SMILES IDX 17 1 16 2 15 3 13 4 14 5 12 7 11 8 6 9 7 10 8 11 88 12 9 13
REMARK SMILES IDX 89 14 10 15 5 16 1 17 2 18 3 19 91 20 4 21 90 22 18 23 19 24
REMARK SMILES IDX 20 25 21 27 22 28 23 29 87 30 24 31 86 32 25 33 26 34 27 35
REMARK SMILES IDX 80 36 28 37 85 38 79 39 81 40 29 41 84 42 78 43 77 44 30 46
REMARK SMILES IDX 64 47 43 48 63 49 44 50 47 51 62 52 82 53 45 54 46 55 61 57
REMARK SMILES IDX 83 58 48 59 31 60 32 61 41 62 33 63 34 64 40 65 42 66 35 67
REMARK SMILES IDX 36 68 37 69 38 70 39 71 65 72 66 73 75 74 67 75 68 76 74 77
REMARK SMILES IDX 76 78 69 79 70 80 71 81 72 82 73 83 49 84 50 85 59 86 51 87
REMARK SMILES IDX 52 88 58 89 60 90 53 91 54 92 55 93 56 94 57 95
REMARK H PARENT 15 6 19 26 81 45 47 56
REMARK Flexibility Score: inf
ROOT
ATOM      1  C   UNL A   1      33.643  29.999  26.462  1.00  0.00     0.042 C 
ENDROOT
BRANCH   1   2
ATOM      2  C   UNL A   1      32.184  30.075  26.876  1.00  0.00     0.117 C 
BRANCH   2   3
ATOM      3  N   UNL A   1      31.671  28.781  27.298  1.00  0.00    -0.354 N 
ATOM      4  C   UNL A   1      31.534  27.624  26.588  1.00  0.00     0.240 C 
ATOM      5  O   UNL A   1      31.261  26.592  27.206  1.00  0.00    -0.273 OA
ATOM      6  H   UNL A   1      31.376  28.734  28.237  1.00  0.00     0.163 HD
BRANCH   4   7
ATOM      7  C   UNL A   1      31.782  27.593  25.077  1.00  0.00     0.229 C 
BRANCH   7   8
ATOM      8  N   UNL A   1      31.621  26.260  24.525  1.00  0.00    -0.259 N 
ATOM      9  C   UNL A   1      33.001  22.973  23.804  1.00  0.00     0.029 C 
ATOM     10  C   UNL A   1      32.271  24.095  23.878  1.00  0.00     0.083 C 
ATOM     11  S   UNL A   1      30.627  24.196  23.362  1.00  0.00    -0.022 SA
ATOM     12  C   UNL A   1      32.704  25.424  24.409  1.00  0.00     0.268 C 
ATOM     13  C   UNL A   1      30.465  25.856  23.918  1.00  0.00     0.294 C 
ATOM     14  O   UNL A   1      33.858  25.747  24.641  1.00  0.00    -0.268 OA
ATOM     15  O   UNL A   1      29.462  26.515  23.727  1.00  0.00    -0.261 OA
BRANCH   9  16
ATOM     16  C   UNL A   1      34.387  22.883  24.268  1.00  0.00    -0.024 A 
ATOM     17  C   UNL A   1      38.405  22.047  25.562  1.00  0.00     0.044 C 
ATOM     18  C   UNL A   1      37.016  22.399  25.119  1.00  0.00    -0.051 A 
ATOM     19  C   UNL A   1      35.961  22.384  26.038  1.00  0.00     0.004 A 
ATOM     20  C   UNL A   1      36.754  22.717  23.783  1.00  0.00     0.004 A 
ATOM     21  C   UNL A   1      34.650  22.625  25.616  1.00  0.00     0.008 A 
ATOM     22  C   UNL A   1      35.447  22.964  23.359  1.00  0.00     0.008 A 
ENDBRANCH   9  16
ENDBRANCH   7   8
ENDBRANCH   4   7
ENDBRANCH   2   3
ENDBRANCH   1   2
BRANCH   1  23
ATOM     23  C   UNL A   1      34.602  29.960  27.642  1.00  0.00     0.118 C 
BRANCH  23  24
ATOM     24  N   UNL A   1      35.642  30.983  27.594  1.00  0.00    -0.352 N 
ATOM     25  C   UNL A   1      36.921  30.939  28.134  1.00  0.00     0.251 C 
ATOM     26  H   UNL A   1      35.407  31.812  27.117  1.00  0.00     0.163 HD
ATOM     27  O   UNL A   1      37.558  31.951  28.398  1.00  0.00    -0.269 OA
BRANCH  25  28
ATOM     28  C   UNL A   1      37.572  29.613  28.205  1.00  0.00     0.039 A 
ATOM     29  C   UNL A   1      37.480  28.932  29.429  1.00  0.00     0.014 A 
ATOM     30  C   UNL A   1      38.574  29.322  27.296  1.00  0.00     0.014 A 
ATOM     31  C   UNL A   1      38.553  28.167  29.860  1.00  0.00     0.010 A 
ATOM     32  C   UNL A   1      39.708  28.745  27.796  1.00  0.00     0.010 A 
ATOM     33  C   UNL A   1      39.702  28.198  29.088  1.00  0.00    -0.014 A 
BRANCH  33  34
ATOM     34  C   UNL A   1      40.973  27.613  29.449  1.00  0.00     0.031 A 
ATOM     35  C   UNL A   1      41.194  26.230  28.986  1.00  0.00     0.074 A 
ATOM     36  C   UNL A   1      41.949  28.449  29.866  1.00  0.00     0.049 A 
ATOM     37  N   UNL A   1      42.232  25.529  29.248  1.00  0.00    -0.248 NA
ATOM     38  C   UNL A   1      40.219  25.505  28.168  1.00  0.00     0.031 C 
ATOM     39  C   UNL A   1      43.392  28.254  29.802  1.00  0.00     0.029 A 
ATOM     40  N   UNL A   1      41.797  29.620  30.615  1.00  0.00    -0.354 N 
ATOM     41  C   UNL A   1      42.218  24.421  28.424  1.00  0.00     0.074 A 
ATOM     42  C   UNL A   1      40.911  24.416  27.826  1.00  0.00     0.031 C 
ATOM     43  C   UNL A   1      43.986  29.081  30.682  1.00  0.00     0.029 A 
ATOM     44  C   UNL A   1      42.925  29.711  31.454  1.00  0.00     0.049 A 
ATOM     45  H   UNL A   1      41.047  30.256  30.566  1.00  0.00     0.167 HD
ATOM     46  C   UNL A   1      43.388  23.740  28.273  1.00  0.00     0.037 A 
ATOM     47  C   UNL A   1      42.774  29.554  32.806  1.00  0.00     0.037 A 
ATOM     48  C   UNL A   1      44.362  24.262  29.234  1.00  0.00     0.049 A 
ATOM     49  C   UNL A   1      43.424  28.284  33.307  1.00  0.00     0.074 A 
ATOM     50  C   UNL A   1      45.362  25.212  29.125  1.00  0.00     0.029 A 
ATOM     51  N   UNL A   1      44.105  24.106  30.592  1.00  0.00    -0.354 N 
ATOM     52  N   UNL A   1      43.610  27.216  32.575  1.00  0.00    -0.248 NA
ATOM     53  C   UNL A   1      43.998  28.153  34.643  1.00  0.00     0.031 C 
ATOM     54  C   UNL A   1      45.634  25.701  30.431  1.00  0.00     0.029 A 
ATOM     55  C   UNL A   1      44.820  25.029  31.329  1.00  0.00     0.049 A 
ATOM     56  H   UNL A   1      43.498  23.432  30.974  1.00  0.00     0.167 HD
ATOM     57  C   UNL A   1      44.317  26.287  33.294  1.00  0.00     0.074 A 
ATOM     58  C   UNL A   1      44.535  26.923  34.581  1.00  0.00     0.031 C 
ATOM     59  C   UNL A   1      44.699  25.078  32.780  1.00  0.00     0.037 A 
BRANCH  46  60
ATOM     60  C   UNL A   1      43.762  22.800  27.143  1.00  0.00     0.058 A 
ATOM     61  C   UNL A   1      43.027  21.603  26.968  1.00  0.00     0.135 A 
ATOM     62  C   UNL A   1      44.842  22.949  26.247  1.00  0.00     0.135 A 
ATOM     63  F   UNL A   1      41.947  21.327  27.712  1.00  0.00    -0.206 F 
ATOM     64  C   UNL A   1      43.366  20.622  26.036  1.00  0.00     0.059 A 
ATOM     65  C   UNL A   1      45.210  21.972  25.313  1.00  0.00     0.059 A 
ATOM     66  F   UNL A   1      45.587  24.056  26.206  1.00  0.00    -0.206 F 
ATOM     67  C   UNL A   1      44.470  20.806  25.220  1.00  0.00     0.060 A 
BRANCH  67  68
ATOM     68  S   UNL A   1      44.896  19.518  24.037  1.00  0.00     0.124 S 
ATOM     69  O   UNL A   1      44.105  18.389  24.519  1.00  0.00    -0.237 OA
ATOM     70  O   UNL A   1      44.459  20.106  22.775  1.00  0.00    -0.237 OA
ATOM     71  O   UNL A   1      46.340  19.376  24.192  1.00  0.00    -0.744 OA
ENDBRANCH  67  68
ENDBRANCH  46  60
BRANCH  47  72
ATOM     72  C   UNL A   1      41.503  30.171  33.303  1.00  0.00     0.058 A 
ATOM     73  C   UNL A   1      41.507  31.575  33.448  1.00  0.00     0.135 A 
ATOM     74  C   UNL A   1      40.261  29.550  33.100  1.00  0.00     0.135 A 
ATOM     75  F   UNL A   1      42.660  32.220  33.688  1.00  0.00    -0.206 F 
ATOM     76  C   UNL A   1      40.379  32.342  33.172  1.00  0.00     0.059 A 
ATOM     77  C   UNL A   1      39.112  30.304  32.838  1.00  0.00     0.059 A 
ATOM     78  F   UNL A   1      40.184  28.217  32.979  1.00  0.00    -0.206 F 
ATOM     79  C   UNL A   1      39.209  31.696  32.783  1.00  0.00     0.060 A 
BRANCH  79  80
ATOM     80  S   UNL A   1      37.909  32.700  32.018  1.00  0.00     0.124 S 
ATOM     81  O   UNL A   1      36.971  31.683  31.555  1.00  0.00    -0.237 OA
ATOM     82  O   UNL A   1      37.454  33.511  33.150  1.00  0.00    -0.237 OA
ATOM     83  O   UNL A   1      38.619  33.421  30.968  1.00  0.00    -0.744 OA
ENDBRANCH  79  80
ENDBRANCH  47  72
BRANCH  59  84
ATOM     84  C   UNL A   1      45.116  23.871  33.595  1.00  0.00     0.058 A 
ATOM     85  C   UNL A   1      46.389  23.718  34.171  1.00  0.00     0.135 A 
ATOM     86  C   UNL A   1      44.173  22.871  33.952  1.00  0.00     0.135 A 
ATOM     87  F   UNL A   1      47.333  24.662  34.055  1.00  0.00    -0.206 F 
ATOM     88  C   UNL A   1      46.739  22.604  34.931  1.00  0.00     0.059 A 
ATOM     89  C   UNL A   1      44.479  21.793  34.776  1.00  0.00     0.059 A 
ATOM     90  F   UNL A   1      42.903  22.908  33.526  1.00  0.00    -0.206 F 
ATOM     91  C   UNL A   1      45.781  21.641  35.221  1.00  0.00     0.060 A 
BRANCH  91  92
ATOM     92  S   UNL A   1      46.241  20.204  36.197  1.00  0.00     0.124 S 
ATOM     93  O   UNL A   1      47.696  20.240  36.089  1.00  0.00    -0.237 OA
ATOM     94  O   UNL A   1      45.698  20.526  37.513  1.00  0.00    -0.237 OA
ATOM     95  O   UNL A   1      45.583  19.100  35.507  1.00  0.00    -0.744 OA
ENDBRANCH  91  92
ENDBRANCH  59  84
ENDBRANCH  33  34
ENDBRANCH  25  28
ENDBRANCH  23  24
ENDBRANCH   1  23
TORSDOF 15
ENDMDL
MODEL 2
REMARK VINA RESULT:     -13.2      4.470     10.864
REMARK SMILES Cc1ccc(/C=C2/SC(=O)N(CC(=O)NCCCNC(=O)c3ccc(-c4c5nc(c(-c6c(F)cc(S(=O)(=O)[O-])cc6F)c6ccc([nH]6)c(-c6c(F)cc(S(=O)(=O)[O-])cc6F)c6nc(c(-c7c(F)cc(S(=O)(=O)[O-])cc7F)c7ccc4[nH]7)C=C6)C=C5)cc3)C2=O)cc1
REMARK SMILES IDX 17 1 16 2 15 3 13 4 14 5 12 7 11 8 6 9 7 10 8 11 88 12 9 13
REMARK SMILES IDX 89 14 10 15 5 16 1 17 2 18 3 19 91 20 4 21 90 22 18 23 19 24
REMARK SMILES IDX 20 25 21 27 22 28 23 29 87 30 24 31 86 32 25 33 26 34 27 35
REMARK SMILES IDX 80 36 28 37 85 38 79 39 81 40 29 41 84 42 78 43 77 44 30 46
REMARK SMILES IDX 64 47 43 48 63 49 44 50 47 51 62 52 82 53 45 54 46 55 61 57
REMARK SMILES IDX 83 58 48 59 31 60 32 61 41 62 33 63 34 64 40 65 42 66 35 67
REMARK SMILES IDX 36 68 37 69 38 70 39 71 65 72 66 73 75 74 67 75 68 76 74 77
REMARK SMILES IDX 76 78 69 79 70 80 71 81 72 82 73 83 49 84 50 85 59 86 51 87
REMARK SMILES IDX 52 88 58 89 60 90 53 91 54 92 55 93 56 94 57 95
REMARK H PARENT 15 6 19 26 81 45 47 56
REMARK Flexibility Score: inf
ROOT
ATOM      1  C   UNL A   1      37.776  20.942  25.019  1.00  0.00     0.042 C 
ENDROOT
BRANCH   1   2
ATOM      2  C   UNL A   1      36.274  20.716  25.030  1.00  0.00     0.117 C 
BRANCH   2   3
ATOM      3  N   UNL A   1      35.635  21.358  26.168  1.00  0.00    -0.354 N 
ATOM      4  C   UNL A   1      34.886  22.498  26.218  1.00  0.00     0.240 C 
ATOM      5  O   UNL A   1      34.276  22.747  27.260  1.00  0.00    -0.273 OA
ATOM      6  H   UNL A   1      35.763  20.903  27.032  1.00  0.00     0.163 HD
BRANCH   4   7
ATOM      7  C   UNL A   1      34.750  23.405  24.992  1.00  0.00     0.229 C 
BRANCH   7   8
ATOM      8  N   UNL A   1      33.376  23.814  24.765  1.00  0.00    -0.259 N 
ATOM      9  C   UNL A   1      30.782  26.356  24.966  1.00  0.00     0.029 C 
ATOM     10  C   UNL A   1      31.502  25.232  24.839  1.00  0.00     0.083 C 
ATOM     11  S   UNL A   1      30.889  23.787  24.121  1.00  0.00    -0.022 SA
ATOM     12  C   UNL A   1      32.919  25.011  25.259  1.00  0.00     0.268 C 
ATOM     13  C   UNL A   1      32.438  22.965  24.249  1.00  0.00     0.294 C 
ATOM     14  O   UNL A   1      33.560  25.750  25.990  1.00  0.00    -0.268 OA
ATOM     15  O   UNL A   1      32.585  21.797  23.946  1.00  0.00    -0.261 OA
BRANCH   9  16
ATOM     16  C   UNL A   1      31.313  27.589  25.550  1.00  0.00    -0.024 A 
ATOM     17  C   UNL A   1      33.367  30.920  27.340  1.00  0.00     0.044 C 
ATOM     18  C   UNL A   1      32.601  29.796  26.709  1.00  0.00    -0.051 A 
ATOM     19  C   UNL A   1      31.931  28.865  27.511  1.00  0.00     0.004 A 
ATOM     20  C   UNL A   1      32.571  29.646  25.319  1.00  0.00     0.004 A 
ATOM     21  C   UNL A   1      31.289  27.766  26.936  1.00  0.00     0.008 A 
ATOM     22  C   UNL A   1      31.925  28.552  24.741  1.00  0.00     0.008 A 
ENDBRANCH   9  16
ENDBRANCH   7   8
ENDBRANCH   4   7
ENDBRANCH   2   3
ENDBRANCH   1   2
BRANCH   1  23
ATOM     23  C   UNL A   1      38.199  22.198  25.765  1.00  0.00     0.118 C 
BRANCH  23  24
ATOM     24  N   UNL A   1      39.366  22.012  26.623  1.00  0.00    -0.352 N 
ATOM     25  C   UNL A   1      40.342  22.939  26.964  1.00  0.00     0.251 C 
ATOM     26  H   UNL A   1      39.475  21.113  27.009  1.00  0.00     0.163 HD
ATOM     27  O   UNL A   1      41.462  22.608  27.335  1.00  0.00    -0.269 OA
BRANCH  25  28
ATOM     28  C   UNL A   1      39.921  24.354  27.048  1.00  0.00     0.039 A 
ATOM     29  C   UNL A   1      40.553  25.251  26.173  1.00  0.00     0.014 A 
ATOM     30  C   UNL A   1      39.318  24.793  28.214  1.00  0.00     0.014 A 
ATOM     31  C   UNL A   1      40.826  26.540  26.607  1.00  0.00     0.010 A 
ATOM     32  C   UNL A   1      39.760  25.983  28.723  1.00  0.00     0.010 A 
ATOM     33  C   UNL A   1      40.540  26.836  27.929  1.00  0.00    -0.014 A 
BRANCH  33  34
ATOM     34  C   UNL A   1      40.904  28.055  28.614  1.00  0.00     0.031 A 
ATOM     35  C   UNL A   1      39.862  29.099  28.657  1.00  0.00     0.074 A 
ATOM     36  C   UNL A   1      41.988  28.019  29.418  1.00  0.00     0.049 A 
ATOM     37  N   UNL A   1      40.012  30.260  29.173  1.00  0.00    -0.248 NA
ATOM     38  C   UNL A   1      38.525  28.905  28.092  1.00  0.00     0.031 C 
ATOM     39  C   UNL A   1      42.287  28.861  30.570  1.00  0.00     0.029 A 
ATOM     40  N   UNL A   1      43.159  27.279  29.225  1.00  0.00    -0.354 N 
ATOM     41  C   UNL A   1      38.765  30.841  29.288  1.00  0.00     0.074 A 
ATOM     42  C   UNL A   1      37.885  29.990  28.534  1.00  0.00     0.031 C 
ATOM     43  C   UNL A   1      43.608  28.808  30.821  1.00  0.00     0.029 A 
ATOM     44  C   UNL A   1      44.217  28.059  29.732  1.00  0.00     0.049 A 
ATOM     45  H   UNL A   1      43.230  26.387  28.815  1.00  0.00     0.167 HD
ATOM     46  C   UNL A   1      38.646  31.905  30.130  1.00  0.00     0.037 A 
ATOM     47  C   UNL A   1      45.138  28.590  28.867  1.00  0.00     0.037 A 
ATOM     48  C   UNL A   1      39.984  32.310  30.565  1.00  0.00     0.049 A 
ATOM     49  C   UNL A   1      45.044  30.097  28.791  1.00  0.00     0.074 A 
ATOM     50  C   UNL A   1      40.729  32.009  31.692  1.00  0.00     0.029 A 
ATOM     51  N   UNL A   1      40.877  32.790  29.612  1.00  0.00    -0.354 N 
ATOM     52  N   UNL A   1      43.952  30.777  29.030  1.00  0.00    -0.248 NA
ATOM     53  C   UNL A   1      46.194  30.957  28.531  1.00  0.00     0.031 C 
ATOM     54  C   UNL A   1      42.097  32.218  31.370  1.00  0.00     0.029 A 
ATOM     55  C   UNL A   1      42.177  32.670  30.062  1.00  0.00     0.049 A 
ATOM     56  H   UNL A   1      40.618  33.162  28.739  1.00  0.00     0.167 HD
ATOM     57  C   UNL A   1      44.231  32.119  28.980  1.00  0.00     0.074 A 
ATOM     58  C   UNL A   1      45.647  32.178  28.664  1.00  0.00     0.031 C 
ATOM     59  C   UNL A   1      43.295  33.086  29.227  1.00  0.00     0.037 A 
BRANCH  46  60
ATOM     60  C   UNL A   1      37.374  32.435  30.763  1.00  0.00     0.058 A 
ATOM     61  C   UNL A   1      36.606  33.400  30.067  1.00  0.00     0.135 A 
ATOM     62  C   UNL A   1      36.876  32.119  32.044  1.00  0.00     0.135 A 
ATOM     63  F   UNL A   1      36.921  33.782  28.821  1.00  0.00    -0.206 F 
ATOM     64  C   UNL A   1      35.489  34.033  30.612  1.00  0.00     0.059 A 
ATOM     65  C   UNL A   1      35.765  32.751  32.618  1.00  0.00     0.059 A 
ATOM     66  F   UNL A   1      37.419  31.165  32.804  1.00  0.00    -0.206 F 
ATOM     67  C   UNL A   1      35.081  33.714  31.897  1.00  0.00     0.060 A 
BRANCH  67  68
ATOM     68  S   UNL A   1      33.646  34.556  32.583  1.00  0.00     0.124 S 
ATOM     69  O   UNL A   1      32.983  33.478  33.312  1.00  0.00    -0.237 OA
ATOM     70  O   UNL A   1      34.263  35.591  33.404  1.00  0.00    -0.237 OA
ATOM     71  O   UNL A   1      32.935  35.037  31.403  1.00  0.00    -0.744 OA
ENDBRANCH  67  68
ENDBRANCH  46  60
BRANCH  47  72
ATOM     72  C   UNL A   1      45.460  27.650  27.747  1.00  0.00     0.058 A 
ATOM     73  C   UNL A   1      44.897  27.959  26.491  1.00  0.00     0.135 A 
ATOM     74  C   UNL A   1      46.637  26.885  27.751  1.00  0.00     0.135 A 
ATOM     75  F   UNL A   1      43.748  28.652  26.425  1.00  0.00    -0.206 F 
ATOM     76  C   UNL A   1      45.583  27.729  25.303  1.00  0.00     0.059 A 
ATOM     77  C   UNL A   1      47.334  26.627  26.566  1.00  0.00     0.059 A 
ATOM     78  F   UNL A   1      47.211  26.534  28.911  1.00  0.00    -0.206 F 
ATOM     79  C   UNL A   1      46.843  27.139  25.362  1.00  0.00     0.060 A 
BRANCH  79  80
ATOM     80  S   UNL A   1      47.891  27.243  23.888  1.00  0.00     0.124 S 
ATOM     81  O   UNL A   1      47.978  25.846  23.476  1.00  0.00    -0.237 OA
ATOM     82  O   UNL A   1      47.094  28.110  23.017  1.00  0.00    -0.237 OA
ATOM     83  O   UNL A   1      49.128  27.824  24.398  1.00  0.00    -0.744 OA
ENDBRANCH  79  80
ENDBRANCH  47  72
BRANCH  59  84
ATOM     84  C   UNL A   1      43.406  34.540  28.816  1.00  0.00     0.058 A 
ATOM     85  C   UNL A   1      43.542  35.602  29.727  1.00  0.00     0.135 A 
ATOM     86  C   UNL A   1      43.528  34.904  27.449  1.00  0.00     0.135 A 
ATOM     87  F   UNL A   1      43.608  35.392  31.049  1.00  0.00    -0.206 F 
ATOM     88  C   UNL A   1      43.660  36.929  29.319  1.00  0.00     0.059 A 
ATOM     89  C   UNL A   1      43.728  36.212  27.023  1.00  0.00     0.059 A 
ATOM     90  F   UNL A   1      43.474  33.995  26.464  1.00  0.00    -0.206 F 
ATOM     91  C   UNL A   1      43.742  37.226  27.964  1.00  0.00     0.060 A 
BRANCH  91  92
ATOM     92  S   UNL A   1      43.888  38.941  27.445  1.00  0.00     0.124 S 
ATOM     93  O   UNL A   1      42.711  39.082  26.593  1.00  0.00    -0.237 OA
ATOM     94  O   UNL A   1      43.841  39.662  28.712  1.00  0.00    -0.237 OA
ATOM     95  O   UNL A   1      45.174  38.978  26.757  1.00  0.00    -0.744 OA
ENDBRANCH  91  92
ENDBRANCH  59  84
ENDBRANCH  33  34
ENDBRANCH  25  28
ENDBRANCH  23  24
ENDBRANCH   1  23
TORSDOF 15
ENDMDL
MODEL 3
REMARK VINA RESULT:     -13.1      1.792      2.368
REMARK SMILES Cc1ccc(/C=C2/SC(=O)N(CC(=O)NCCCNC(=O)c3ccc(-c4c5nc(c(-c6c(F)cc(S(=O)(=O)[O-])cc6F)c6ccc([nH]6)c(-c6c(F)cc(S(=O)(=O)[O-])cc6F)c6nc(c(-c7c(F)cc(S(=O)(=O)[O-])cc7F)c7ccc4[nH]7)C=C6)C=C5)cc3)C2=O)cc1
REMARK SMILES IDX 17 1 16 2 15 3 13 4 14 5 12 7 11 8 6 9 7 10 8 11 88 12 9 13
REMARK SMILES IDX 89 14 10 15 5 16 1 17 2 18 3 19 91 20 4 21 90 22 18 23 19 24
REMARK SMILES IDX 20 25 21 27 22 28 23 29 87 30 24 31 86 32 25 33 26 34 27 35
REMARK SMILES IDX 80 36 28 37 85 38 79 39 81 40 29 41 84 42 78 43 77 44 30 46
REMARK SMILES IDX 64 47 43 48 63 49 44 50 47 51 62 52 82 53 45 54 46 55 61 57
REMARK SMILES IDX 83 58 48 59 31 60 32 61 41 62 33 63 34 64 40 65 42 66 35 67
REMARK SMILES IDX 36 68 37 69 38 70 39 71 65 72 66 73 75 74 67 75 68 76 74 77
REMARK SMILES IDX 76 78 69 79 70 80 71 81 72 82 73 83 49 84 50 85 59 86 51 87
REMARK SMILES IDX 52 88 58 89 60 90 53 91 54 92 55 93 56 94 57 95
REMARK H PARENT 15 6 19 26 81 45 47 56
REMARK Flexibility Score: inf
ROOT
ATOM      1  C   UNL A   1      32.098  30.538  26.590  1.00  0.00     0.042 C 
ENDROOT
BRANCH   1   2
ATOM      2  C   UNL A   1      31.882  30.051  25.168  1.00  0.00     0.117 C 
BRANCH   2   3
ATOM      3  N   UNL A   1      33.131  29.676  24.525  1.00  0.00    -0.354 N 
ATOM      4  C   UNL A   1      33.348  28.875  23.442  1.00  0.00     0.240 C 
ATOM      5  O   UNL A   1      34.478  28.857  22.950  1.00  0.00    -0.273 OA
ATOM      6  H   UNL A   1      33.943  30.055  24.934  1.00  0.00     0.163 HD
BRANCH   4   7
ATOM      7  C   UNL A   1      32.204  28.074  22.813  1.00  0.00     0.229 C 
BRANCH   7   8
ATOM      8  N   UNL A   1      31.743  27.006  23.681  1.00  0.00    -0.259 N 
ATOM      9  C   UNL A   1      32.404  23.914  25.477  1.00  0.00     0.029 C 
ATOM     10  C   UNL A   1      31.868  24.986  24.877  1.00  0.00     0.083 C 
ATOM     11  S   UNL A   1      30.250  25.520  25.151  1.00  0.00    -0.022 SA
ATOM     12  C   UNL A   1      32.532  25.905  23.903  1.00  0.00     0.268 C 
ATOM     13  C   UNL A   1      30.457  26.943  24.140  1.00  0.00     0.294 C 
ATOM     14  O   UNL A   1      33.589  25.682  23.333  1.00  0.00    -0.268 OA
ATOM     15  O   UNL A   1      29.544  27.703  23.885  1.00  0.00    -0.261 OA
BRANCH   9  16
ATOM     16  C   UNL A   1      33.785  23.479  25.264  1.00  0.00    -0.024 A 
ATOM     17  C   UNL A   1      37.777  21.878  25.111  1.00  0.00     0.044 C 
ATOM     18  C   UNL A   1      36.398  22.468  25.111  1.00  0.00    -0.051 A 
ATOM     19  C   UNL A   1      36.126  23.618  25.862  1.00  0.00     0.004 A 
ATOM     20  C   UNL A   1      35.364  21.863  24.390  1.00  0.00     0.004 A 
ATOM     21  C   UNL A   1      34.826  24.123  25.939  1.00  0.00     0.008 A 
ATOM     22  C   UNL A   1      34.065  22.369  24.459  1.00  0.00     0.008 A 
ENDBRANCH   9  16
ENDBRANCH   7   8
ENDBRANCH   4   7
ENDBRANCH   2   3
ENDBRANCH   1   2
BRANCH   1  23
ATOM     23  C   UNL A   1      33.465  30.174  27.149  1.00  0.00     0.118 C 
BRANCH  23  24
ATOM     24  N   UNL A   1      34.379  31.308  27.262  1.00  0.00    -0.352 N 
ATOM     25  C   UNL A   1      35.534  31.411  28.027  1.00  0.00     0.251 C 
ATOM     26  H   UNL A   1      34.146  32.101  26.727  1.00  0.00     0.163 HD
ATOM     27  O   UNL A   1      35.997  32.490  28.374  1.00  0.00    -0.269 OA
BRANCH  25  28
ATOM     28  C   UNL A   1      36.300  30.167  28.253  1.00  0.00     0.039 A 
ATOM     29  C   UNL A   1      36.357  29.693  29.573  1.00  0.00     0.014 A 
ATOM     30  C   UNL A   1      37.255  29.804  27.319  1.00  0.00     0.014 A 
ATOM     31  C   UNL A   1      37.521  29.091  30.026  1.00  0.00     0.010 A 
ATOM     32  C   UNL A   1      38.468  29.402  27.805  1.00  0.00     0.010 A 
ATOM     33  C   UNL A   1      38.604  29.079  29.164  1.00  0.00    -0.014 A 
BRANCH  33  34
ATOM     34  C   UNL A   1      39.944  28.657  29.503  1.00  0.00     0.031 A 
ATOM     35  C   UNL A   1      40.306  27.288  29.088  1.00  0.00     0.074 A 
ATOM     36  C   UNL A   1      40.831  29.615  29.850  1.00  0.00     0.049 A 
ATOM     37  N   UNL A   1      41.425  26.721  29.341  1.00  0.00    -0.248 NA
ATOM     38  C   UNL A   1      39.396  26.423  28.335  1.00  0.00     0.031 C 
ATOM     39  C   UNL A   1      42.284  29.581  29.743  1.00  0.00     0.029 A 
ATOM     40  N   UNL A   1      40.568  30.793  30.557  1.00  0.00    -0.354 N 
ATOM     41  C   UNL A   1      41.512  25.584  28.563  1.00  0.00     0.074 A 
ATOM     42  C   UNL A   1      40.196  25.405  28.013  1.00  0.00     0.031 C 
ATOM     43  C   UNL A   1      42.805  30.507  30.568  1.00  0.00     0.029 A 
ATOM     44  C   UNL A   1      41.704  31.047  31.351  1.00  0.00     0.049 A 
ATOM     45  H   UNL A   1      39.750  31.337  30.509  1.00  0.00     0.167 HD
ATOM     46  C   UNL A   1      42.748  25.032  28.398  1.00  0.00     0.037 A 
ATOM     47  C   UNL A   1      41.613  30.934  32.713  1.00  0.00     0.037 A 
ATOM     48  C   UNL A   1      43.684  25.702  29.302  1.00  0.00     0.049 A 
ATOM     49  C   UNL A   1      42.419  29.768  33.241  1.00  0.00     0.074 A 
ATOM     50  C   UNL A   1      44.566  26.754  29.120  1.00  0.00     0.029 A 
ATOM     51  N   UNL A   1      43.489  25.579  30.674  1.00  0.00    -0.354 N 
ATOM     52  N   UNL A   1      42.702  28.697  32.546  1.00  0.00    -0.248 NA
ATOM     53  C   UNL A   1      43.045  29.762  34.560  1.00  0.00     0.031 C 
ATOM     54  C   UNL A   1      44.820  27.327  30.395  1.00  0.00     0.029 A 
ATOM     55  C   UNL A   1      44.116  26.607  31.348  1.00  0.00     0.049 A 
ATOM     56  H   UNL A   1      42.974  24.858  31.104  1.00  0.00     0.167 HD
ATOM     57  C   UNL A   1      43.533  27.886  33.277  1.00  0.00     0.074 A 
ATOM     58  C   UNL A   1      43.716  28.598  34.528  1.00  0.00     0.031 C 
ATOM     59  C   UNL A   1      44.035  26.706  32.798  1.00  0.00     0.037 A 
BRANCH  46  60
ATOM     60  C   UNL A   1      43.191  24.092  27.295  1.00  0.00     0.058 A 
ATOM     61  C   UNL A   1      42.829  22.725  27.363  1.00  0.00     0.135 A 
ATOM     62  C   UNL A   1      44.013  24.415  26.194  1.00  0.00     0.135 A 
ATOM     63  F   UNL A   1      42.019  22.261  28.326  1.00  0.00    -0.206 F 
ATOM     64  C   UNL A   1      43.284  21.762  26.463  1.00  0.00     0.059 A 
ATOM     65  C   UNL A   1      44.494  23.463  25.285  1.00  0.00     0.059 A 
ATOM     66  F   UNL A   1      44.376  25.669  25.919  1.00  0.00    -0.206 F 
ATOM     67  C   UNL A   1      44.131  22.136  25.433  1.00  0.00     0.060 A 
BRANCH  67  68
ATOM     68  S   UNL A   1      44.719  20.872  24.294  1.00  0.00     0.124 S 
ATOM     69  O   UNL A   1      43.821  19.758  24.588  1.00  0.00    -0.237 OA
ATOM     70  O   UNL A   1      44.529  21.515  22.999  1.00  0.00    -0.237 OA
ATOM     71  O   UNL A   1      46.109  20.671  24.694  1.00  0.00    -0.744 OA
ENDBRANCH  67  68
ENDBRANCH  46  60
BRANCH  47  72
ATOM     72  C   UNL A   1      40.296  31.426  33.230  1.00  0.00     0.058 A 
ATOM     73  C   UNL A   1      39.410  30.441  33.716  1.00  0.00     0.135 A 
ATOM     74  C   UNL A   1      40.150  32.726  33.735  1.00  0.00     0.135 A 
ATOM     75  F   UNL A   1      39.473  29.188  33.237  1.00  0.00    -0.206 F 
ATOM     76  C   UNL A   1      38.583  30.676  34.810  1.00  0.00     0.059 A 
ATOM     77  C   UNL A   1      39.311  32.988  34.823  1.00  0.00     0.059 A 
ATOM     78  F   UNL A   1      40.944  33.715  33.297  1.00  0.00    -0.206 F 
ATOM     79  C   UNL A   1      38.609  31.933  35.410  1.00  0.00     0.060 A 
BRANCH  79  80
ATOM     80  S   UNL A   1      37.879  32.091  37.060  1.00  0.00     0.124 S 
ATOM     81  O   UNL A   1      38.981  32.662  37.828  1.00  0.00    -0.237 OA
ATOM     82  O   UNL A   1      36.754  32.993  36.804  1.00  0.00    -0.237 OA
ATOM     83  O   UNL A   1      37.525  30.718  37.401  1.00  0.00    -0.744 OA
ENDBRANCH  79  80
ENDBRANCH  47  72
BRANCH  59  84
ATOM     84  C   UNL A   1      44.611  25.591  33.646  1.00  0.00     0.058 A 
ATOM     85  C   UNL A   1      45.977  25.260  33.679  1.00  0.00     0.135 A 
ATOM     86  C   UNL A   1      43.804  24.898  34.587  1.00  0.00     0.135 A 
ATOM     87  F   UNL A   1      46.884  25.938  32.964  1.00  0.00    -0.206 F 
ATOM     88  C   UNL A   1      46.481  24.239  34.482  1.00  0.00     0.059 A 
ATOM     89  C   UNL A   1      44.302  23.933  35.455  1.00  0.00     0.059 A 
ATOM     90  F   UNL A   1      42.492  25.142  34.713  1.00  0.00    -0.206 F 
ATOM     91  C   UNL A   1      45.635  23.574  35.361  1.00  0.00     0.060 A 
BRANCH  91  92
ATOM     92  S   UNL A   1      46.292  22.255  36.389  1.00  0.00     0.124 S 
ATOM     93  O   UNL A   1      45.827  22.666  37.711  1.00  0.00    -0.237 OA
ATOM     94  O   UNL A   1      45.648  21.068  35.835  1.00  0.00    -0.237 OA
ATOM     95  O   UNL A   1      47.732  22.339  36.172  1.00  0.00    -0.744 OA
ENDBRANCH  91  92
ENDBRANCH  59  84
ENDBRANCH  33  34
ENDBRANCH  25  28
ENDBRANCH  23  24
ENDBRANCH   1  23
TORSDOF 15
ENDMDL
