MODEL 1
REMARK VINA RESULT:     -13.6      0.000      0.000
REMARK SMILES Cc1cc(OCC(C)(C)C(=O)NCCCNC(=O)c2ccc(-c3c4nc(c(-c5c(F)cc(S(=O)(=O)[O-])cc5F)c5ccc([nH]5)c(-c5c(F)cc(S(=O)(=O)[O-])cc5F)c5nc(c(-c6c(F)cc(S(=O)(=O)[O-])cc6F)c6ccc3[nH]6)C=C5)C=C4)cc2)cc(C(C)C)c1
REMARK SMILES IDX 13 1 12 2 10 3 11 4 7 6 8 7 9 8 6 9 5 10 4 11 1 12 2 13 3 14
REMARK SMILES IDX 90 15 86 16 85 17 87 18 88 19 89 20 14 21 15 22 16 23 17 24
REMARK SMILES IDX 18 26 19 27 20 28 84 29 21 30 83 31 22 32 23 33 24 34 77 35
REMARK SMILES IDX 25 36 82 37 76 38 78 39 26 40 81 41 75 42 74 43 27 45 61 46
REMARK SMILES IDX 40 47 60 48 41 49 44 50 59 51 79 52 42 53 43 54 58 56 80 57
REMARK SMILES IDX 45 58 28 59 29 60 38 61 30 62 31 63 37 64 39 65 32 66 33 67
REMARK SMILES IDX 34 68 35 69 36 70 62 71 63 72 72 73 64 74 65 75 71 76 73 77
REMARK SMILES IDX 66 78 67 79 68 80 69 81 70 82 46 83 47 84 56 85 48 86 49 87
REMARK SMILES IDX 55 88 57 89 50 90 51 91 52 92 53 93 54 94
REMARK H PARENT 12 5 16 25 78 44 44 55
REMARK Flexibility Score: inf
ROOT
ATOM      1  C   UNL A   1      33.399  29.281  25.121  1.00  0.00     0.117 C 
ENDROOT
BRANCH   1   2
ATOM      2  N   UNL A   1      33.796  29.084  23.725  1.00  0.00    -0.355 N 
ATOM      3  C   UNL A   1      33.691  28.062  22.828  1.00  0.00     0.229 C 
ATOM      4  O   UNL A   1      34.178  28.282  21.713  1.00  0.00    -0.274 OA
ATOM      5  H   UNL A   1      34.244  29.874  23.345  1.00  0.00     0.163 HD
BRANCH   3   6
ATOM      6  C   UNL A   1      33.128  26.668  23.174  1.00  0.00     0.077 C 
ATOM      7  C   UNL A   1      33.647  26.126  24.498  1.00  0.00     0.025 C 
ATOM      8  C   UNL A   1      33.557  25.675  22.075  1.00  0.00     0.025 C 
BRANCH   6   9
ATOM      9  C   UNL A   1      31.552  26.698  23.145  1.00  0.00     0.245 C 
BRANCH   9  10
ATOM     10  O   UNL A   1      30.890  27.517  22.171  1.00  0.00    -0.492 OA
BRANCH  10  11
ATOM     11  C   UNL A   1      29.949  28.436  22.531  1.00  0.00     0.119 A 
ATOM     12  C   UNL A   1      26.360  28.119  23.730  1.00  0.00     0.044 C 
ATOM     13  C   UNL A   1      27.631  28.709  23.202  1.00  0.00    -0.047 A 
ATOM     14  C   UNL A   1      28.753  27.897  23.007  1.00  0.00     0.049 A 
ATOM     15  C   UNL A   1      27.706  30.059  22.841  1.00  0.00     0.007 A 
ATOM     16  C   UNL A   1      28.915  30.622  22.401  1.00  0.00    -0.042 A 
ATOM     17  C   UNL A   1      30.059  29.813  22.385  1.00  0.00     0.050 A 
BRANCH  16  18
ATOM     18  C   UNL A   1      28.896  32.013  21.779  1.00  0.00     0.013 C 
ATOM     19  C   UNL A   1      27.905  32.195  20.627  1.00  0.00     0.012 C 
ATOM     20  C   UNL A   1      28.619  33.066  22.866  1.00  0.00     0.012 C 
ENDBRANCH  16  18
ENDBRANCH  10  11
ENDBRANCH   9  10
ENDBRANCH   6   9
ENDBRANCH   3   6
ENDBRANCH   1   2
BRANCH   1  21
ATOM     21  C   UNL A   1      34.575  29.128  26.083  1.00  0.00     0.042 C 
BRANCH  21  22
ATOM     22  C   UNL A   1      34.242  29.648  27.474  1.00  0.00     0.118 C 
BRANCH  22  23
ATOM     23  N   UNL A   1      34.939  30.871  27.847  1.00  0.00    -0.352 N 
ATOM     24  C   UNL A   1      36.180  30.978  28.475  1.00  0.00     0.251 C 
ATOM     25  H   UNL A   1      34.483  31.717  27.633  1.00  0.00     0.163 HD
ATOM     26  O   UNL A   1      36.590  31.998  28.955  1.00  0.00    -0.269 OA
BRANCH  24  27
ATOM     27  C   UNL A   1      37.032  29.764  28.408  1.00  0.00     0.039 A 
ATOM     28  C   UNL A   1      37.228  29.065  29.604  1.00  0.00     0.014 A 
ATOM     29  C   UNL A   1      37.874  29.585  27.316  1.00  0.00     0.014 A 
ATOM     30  C   UNL A   1      38.394  28.327  29.775  1.00  0.00     0.010 A 
ATOM     31  C   UNL A   1      39.083  28.958  27.532  1.00  0.00     0.010 A 
ATOM     32  C   UNL A   1      39.361  28.359  28.772  1.00  0.00    -0.014 A 
BRANCH  32  33
ATOM     33  C   UNL A   1      40.710  27.831  28.936  1.00  0.00     0.031 A 
ATOM     34  C   UNL A   1      40.996  26.440  28.515  1.00  0.00     0.074 A 
ATOM     35  C   UNL A   1      41.710  28.619  29.390  1.00  0.00     0.049 A 
ATOM     36  N   UNL A   1      41.979  25.727  28.948  1.00  0.00    -0.248 NA
ATOM     37  C   UNL A   1      40.140  25.720  27.580  1.00  0.00     0.031 C 
ATOM     38  C   UNL A   1      43.143  28.344  29.325  1.00  0.00     0.029 A 
ATOM     39  N   UNL A   1      41.612  29.763  30.185  1.00  0.00    -0.354 N 
ATOM     40  C   UNL A   1      42.058  24.597  28.160  1.00  0.00     0.074 A 
ATOM     41  C   UNL A   1      40.856  24.616  27.364  1.00  0.00     0.031 C 
ATOM     42  C   UNL A   1      43.775  29.109  30.229  1.00  0.00     0.029 A 
ATOM     43  C   UNL A   1      42.757  29.795  31.007  1.00  0.00     0.049 A 
ATOM     44  H   UNL A   1      40.881  30.423  30.175  1.00  0.00     0.167 HD
ATOM     45  C   UNL A   1      43.201  23.849  28.173  1.00  0.00     0.037 A 
ATOM     46  C   UNL A   1      42.650  29.735  32.367  1.00  0.00     0.037 A 
ATOM     47  C   UNL A   1      44.144  24.357  29.170  1.00  0.00     0.049 A 
ATOM     48  C   UNL A   1      43.283  28.503  32.976  1.00  0.00     0.074 A 
ATOM     49  C   UNL A   1      45.239  25.201  29.073  1.00  0.00     0.029 A 
ATOM     50  N   UNL A   1      43.830  24.277  30.524  1.00  0.00    -0.354 N 
ATOM     51  N   UNL A   1      43.637  27.448  32.294  1.00  0.00    -0.248 NA
ATOM     52  C   UNL A   1      43.548  28.351  34.406  1.00  0.00     0.031 C 
ATOM     53  C   UNL A   1      45.538  25.686  30.370  1.00  0.00     0.029 A 
ATOM     54  C   UNL A   1      44.640  25.123  31.260  1.00  0.00     0.049 A 
ATOM     55  H   UNL A   1      43.131  23.698  30.905  1.00  0.00     0.167 HD
ATOM     56  C   UNL A   1      44.111  26.484  33.146  1.00  0.00     0.074 A 
ATOM     57  C   UNL A   1      44.066  27.111  34.453  1.00  0.00     0.031 C 
ATOM     58  C   UNL A   1      44.486  25.246  32.703  1.00  0.00     0.037 A 
BRANCH  45  59
ATOM     59  C   UNL A   1      43.577  22.887  27.058  1.00  0.00     0.058 A 
ATOM     60  C   UNL A   1      42.880  21.670  26.889  1.00  0.00     0.135 A 
ATOM     61  C   UNL A   1      44.660  23.062  26.173  1.00  0.00     0.135 A 
ATOM     62  F   UNL A   1      41.752  21.407  27.563  1.00  0.00    -0.206 F 
ATOM     63  C   UNL A   1      43.307  20.659  26.024  1.00  0.00     0.059 A 
ATOM     64  C   UNL A   1      45.145  22.044  25.344  1.00  0.00     0.059 A 
ATOM     65  F   UNL A   1      45.258  24.252  26.032  1.00  0.00    -0.206 F 
ATOM     66  C   UNL A   1      44.468  20.836  25.287  1.00  0.00     0.060 A 
BRANCH  66  67
ATOM     67  S   UNL A   1      45.057  19.485  24.249  1.00  0.00     0.124 S 
ATOM     68  O   UNL A   1      44.509  19.838  22.942  1.00  0.00    -0.237 OA
ATOM     69  O   UNL A   1      46.504  19.607  24.385  1.00  0.00    -0.237 OA
ATOM     70  O   UNL A   1      44.466  18.300  24.866  1.00  0.00    -0.744 OA
ENDBRANCH  66  67
ENDBRANCH  45  59
BRANCH  46  71
ATOM     71  C   UNL A   1      41.448  30.445  32.884  1.00  0.00     0.058 A 
ATOM     72  C   UNL A   1      40.307  29.668  33.170  1.00  0.00     0.135 A 
ATOM     73  C   UNL A   1      41.551  31.697  33.506  1.00  0.00     0.135 A 
ATOM     74  F   UNL A   1      40.148  28.470  32.584  1.00  0.00    -0.206 F 
ATOM     75  C   UNL A   1      39.404  30.032  34.162  1.00  0.00     0.059 A 
ATOM     76  C   UNL A   1      40.648  32.087  34.499  1.00  0.00     0.059 A 
ATOM     77  F   UNL A   1      42.609  32.485  33.267  1.00  0.00    -0.206 F 
ATOM     78  C   UNL A   1      39.626  31.211  34.869  1.00  0.00     0.060 A 
BRANCH  78  79
ATOM     79  S   UNL A   1      38.674  31.473  36.386  1.00  0.00     0.124 S 
ATOM     80  O   UNL A   1      38.310  30.110  36.757  1.00  0.00    -0.237 OA
ATOM     81  O   UNL A   1      39.660  32.121  37.252  1.00  0.00    -0.237 OA
ATOM     82  O   UNL A   1      37.573  32.322  35.946  1.00  0.00    -0.744 OA
ENDBRANCH  78  79
ENDBRANCH  46  71
BRANCH  58  83
ATOM     83  C   UNL A   1      44.837  24.063  33.577  1.00  0.00     0.058 A 
ATOM     84  C   UNL A   1      43.913  23.093  33.999  1.00  0.00     0.135 A 
ATOM     85  C   UNL A   1      46.189  23.803  33.914  1.00  0.00     0.135 A 
ATOM     86  F   UNL A   1      42.620  23.161  33.649  1.00  0.00    -0.206 F 
ATOM     87  C   UNL A   1      44.286  21.984  34.762  1.00  0.00     0.059 A 
ATOM     88  C   UNL A   1      46.590  22.675  34.625  1.00  0.00     0.059 A 
ATOM     89  F   UNL A   1      47.173  24.638  33.549  1.00  0.00    -0.206 F 
ATOM     90  C   UNL A   1      45.627  21.784  35.073  1.00  0.00     0.060 A 
BRANCH  90  91
ATOM     91  S   UNL A   1      46.129  20.329  36.013  1.00  0.00     0.124 S 
ATOM     92  O   UNL A   1      45.405  19.270  35.318  1.00  0.00    -0.237 OA
ATOM     93  O   UNL A   1      47.579  20.316  35.844  1.00  0.00    -0.237 OA
ATOM     94  O   UNL A   1      45.667  20.632  37.363  1.00  0.00    -0.744 OA
ENDBRANCH  90  91
ENDBRANCH  58  83
ENDBRANCH  32  33
ENDBRANCH  24  27
ENDBRANCH  22  23
ENDBRANCH  21  22
ENDBRANCH   1  21
TORSDOF 17
ENDMDL
MODEL 2
REMARK VINA RESULT:     -13.4      1.534      3.648
REMARK SMILES Cc1cc(OCC(C)(C)C(=O)NCCCNC(=O)c2ccc(-c3c4nc(c(-c5c(F)cc(S(=O)(=O)[O-])cc5F)c5ccc([nH]5)c(-c5c(F)cc(S(=O)(=O)[O-])cc5F)c5nc(c(-c6c(F)cc(S(=O)(=O)[O-])cc6F)c6ccc3[nH]6)C=C5)C=C4)cc2)cc(C(C)C)c1
REMARK SMILES IDX 13 1 12 2 10 3 11 4 7 6 8 7 9 8 6 9 5 10 4 11 1 12 2 13 3 14
REMARK SMILES IDX 90 15 86 16 85 17 87 18 88 19 89 20 14 21 15 22 16 23 17 24
REMARK SMILES IDX 18 26 19 27 20 28 84 29 21 30 83 31 22 32 23 33 24 34 77 35
REMARK SMILES IDX 25 36 82 37 76 38 78 39 26 40 81 41 75 42 74 43 27 45 61 46
REMARK SMILES IDX 40 47 60 48 41 49 44 50 59 51 79 52 42 53 43 54 58 56 80 57
REMARK SMILES IDX 45 58 28 59 29 60 38 61 30 62 31 63 37 64 39 65 32 66 33 67
REMARK SMILES IDX 34 68 35 69 36 70 62 71 63 72 72 73 64 74 65 75 71 76 73 77
REMARK SMILES IDX 66 78 67 79 68 80 69 81 70 82 46 83 47 84 56 85 48 86 49 87
REMARK SMILES IDX 55 88 57 89 50 90 51 91 52 92 53 93 54 94
REMARK H PARENT 12 5 16 25 78 44 44 55
REMARK Flexibility Score: inf
ROOT
ATOM      1  C   UNL A   1      32.791  29.097  25.720  1.00  0.00     0.117 C 
ENDROOT
BRANCH   1   2
ATOM      2  N   UNL A   1      31.905  28.054  26.245  1.00  0.00    -0.355 N 
ATOM      3  C   UNL A   1      31.069  27.131  25.691  1.00  0.00     0.229 C 
ATOM      4  O   UNL A   1      30.461  26.414  26.494  1.00  0.00    -0.274 OA
ATOM      5  H   UNL A   1      31.917  28.010  27.228  1.00  0.00     0.163 HD
BRANCH   3   6
ATOM      6  C   UNL A   1      30.771  27.036  24.180  1.00  0.00     0.077 C 
ATOM      7  C   UNL A   1      30.211  28.326  23.599  1.00  0.00     0.025 C 
ATOM      8  C   UNL A   1      29.715  25.937  23.951  1.00  0.00     0.025 C 
BRANCH   6   9
ATOM      9  C   UNL A   1      32.061  26.570  23.403  1.00  0.00     0.245 C 
BRANCH   9  10
ATOM     10  O   UNL A   1      33.191  26.096  24.149  1.00  0.00    -0.492 OA
BRANCH  10  11
ATOM     11  C   UNL A   1      33.678  24.834  23.984  1.00  0.00     0.119 A 
ATOM     12  C   UNL A   1      32.163  21.646  22.581  1.00  0.00     0.044 C 
ATOM     13  C   UNL A   1      33.091  22.579  23.296  1.00  0.00    -0.047 A 
ATOM     14  C   UNL A   1      32.814  23.950  23.336  1.00  0.00     0.049 A 
ATOM     15  C   UNL A   1      34.213  22.100  23.981  1.00  0.00     0.007 A 
ATOM     16  C   UNL A   1      35.112  22.981  24.601  1.00  0.00    -0.042 A 
ATOM     17  C   UNL A   1      34.890  24.359  24.469  1.00  0.00     0.050 A 
BRANCH  16  18
ATOM     18  C   UNL A   1      36.167  22.416  25.544  1.00  0.00     0.013 C 
ATOM     19  C   UNL A   1      36.684  21.022  25.177  1.00  0.00     0.012 C 
ATOM     20  C   UNL A   1      37.351  23.392  25.648  1.00  0.00     0.012 C 
ENDBRANCH  16  18
ENDBRANCH  10  11
ENDBRANCH   9  10
ENDBRANCH   6   9
ENDBRANCH   3   6
ENDBRANCH   1   2
BRANCH   1  21
ATOM     21  C   UNL A   1      33.142  30.142  26.775  1.00  0.00     0.042 C 
BRANCH  21  22
ATOM     22  C   UNL A   1      34.450  29.818  27.482  1.00  0.00     0.118 C 
BRANCH  22  23
ATOM     23  N   UNL A   1      35.165  30.978  27.996  1.00  0.00    -0.352 N 
ATOM     24  C   UNL A   1      36.379  30.986  28.683  1.00  0.00     0.251 C 
ATOM     25  H   UNL A   1      34.743  31.855  27.844  1.00  0.00     0.163 HD
ATOM     26  O   UNL A   1      36.796  31.945  29.273  1.00  0.00    -0.269 OA
BRANCH  24  27
ATOM     27  C   UNL A   1      37.199  29.757  28.537  1.00  0.00     0.039 A 
ATOM     28  C   UNL A   1      37.378  28.981  29.688  1.00  0.00     0.014 A 
ATOM     29  C   UNL A   1      38.034  29.625  27.433  1.00  0.00     0.014 A 
ATOM     30  C   UNL A   1      38.525  28.204  29.808  1.00  0.00     0.010 A 
ATOM     31  C   UNL A   1      39.227  28.954  27.607  1.00  0.00     0.010 A 
ATOM     32  C   UNL A   1      39.491  28.273  28.806  1.00  0.00    -0.014 A 
BRANCH  32  33
ATOM     33  C   UNL A   1      40.826  27.700  28.932  1.00  0.00     0.031 A 
ATOM     34  C   UNL A   1      41.046  26.290  28.539  1.00  0.00     0.074 A 
ATOM     35  C   UNL A   1      41.870  28.463  29.325  1.00  0.00     0.049 A 
ATOM     36  N   UNL A   1      42.019  25.553  28.953  1.00  0.00    -0.248 NA
ATOM     37  C   UNL A   1      40.128  25.577  27.657  1.00  0.00     0.031 C 
ATOM     38  C   UNL A   1      43.289  28.135  29.213  1.00  0.00     0.029 A 
ATOM     39  N   UNL A   1      41.844  29.631  30.092  1.00  0.00    -0.354 N 
ATOM     40  C   UNL A   1      42.028  24.401  28.194  1.00  0.00     0.074 A 
ATOM     41  C   UNL A   1      40.796  24.442  27.444  1.00  0.00     0.031 C 
ATOM     42  C   UNL A   1      43.982  28.900  30.070  1.00  0.00     0.029 A 
ATOM     43  C   UNL A   1      43.021  29.642  30.867  1.00  0.00     0.049 A 
ATOM     44  H   UNL A   1      41.137  30.316  30.091  1.00  0.00     0.167 HD
ATOM     45  C   UNL A   1      43.143  23.613  28.183  1.00  0.00     0.037 A 
ATOM     46  C   UNL A   1      42.966  29.622  32.232  1.00  0.00     0.037 A 
ATOM     47  C   UNL A   1      44.142  24.112  29.129  1.00  0.00     0.049 A 
ATOM     48  C   UNL A   1      43.578  28.384  32.850  1.00  0.00     0.074 A 
ATOM     49  C   UNL A   1      45.261  24.912  28.966  1.00  0.00     0.029 A 
ATOM     50  N   UNL A   1      43.880  24.079  30.496  1.00  0.00    -0.354 N 
ATOM     51  N   UNL A   1      43.868  27.300  32.184  1.00  0.00    -0.248 NA
ATOM     52  C   UNL A   1      43.894  28.260  34.272  1.00  0.00     0.031 C 
ATOM     53  C   UNL A   1      45.628  25.420  30.237  1.00  0.00     0.029 A 
ATOM     54  C   UNL A   1      44.747  24.914  31.176  1.00  0.00     0.049 A 
ATOM     55  H   UNL A   1      43.176  23.535  30.919  1.00  0.00     0.167 HD
ATOM     56  C   UNL A   1      44.341  26.341  33.043  1.00  0.00     0.074 A 
ATOM     57  C   UNL A   1      44.371  27.004  34.333  1.00  0.00     0.031 C 
ATOM     58  C   UNL A   1      44.655  25.079  32.620  1.00  0.00     0.037 A 
BRANCH  45  59
ATOM     59  C   UNL A   1      43.441  22.609  27.081  1.00  0.00     0.058 A 
ATOM     60  C   UNL A   1      42.689  21.418  26.967  1.00  0.00     0.135 A 
ATOM     61  C   UNL A   1      44.498  22.717  26.157  1.00  0.00     0.135 A 
ATOM     62  F   UNL A   1      41.575  21.219  27.685  1.00  0.00    -0.206 F 
ATOM     63  C   UNL A   1      43.044  20.369  26.115  1.00  0.00     0.059 A 
ATOM     64  C   UNL A   1      44.912  21.659  25.338  1.00  0.00     0.059 A 
ATOM     65  F   UNL A   1      45.140  23.876  25.965  1.00  0.00    -0.206 F 
ATOM     66  C   UNL A   1      44.185  20.479  25.336  1.00  0.00     0.060 A 
BRANCH  66  67
ATOM     67  S   UNL A   1      44.682  19.080  24.313  1.00  0.00     0.124 S 
ATOM     68  O   UNL A   1      43.710  18.059  24.693  1.00  0.00    -0.237 OA
ATOM     69  O   UNL A   1      44.540  19.623  22.967  1.00  0.00    -0.237 OA
ATOM     70  O   UNL A   1      46.054  18.816  24.742  1.00  0.00    -0.744 OA
ENDBRANCH  66  67
ENDBRANCH  45  59
BRANCH  46  71
ATOM     71  C   UNL A   1      41.810  30.388  32.775  1.00  0.00     0.058 A 
ATOM     72  C   UNL A   1      40.638  29.668  33.079  1.00  0.00     0.135 A 
ATOM     73  C   UNL A   1      41.988  31.630  33.401  1.00  0.00     0.135 A 
ATOM     74  F   UNL A   1      40.408  28.483  32.490  1.00  0.00    -0.206 F 
ATOM     75  C   UNL A   1      39.773  30.071  34.090  1.00  0.00     0.059 A 
ATOM     76  C   UNL A   1      41.125  32.059  34.413  1.00  0.00     0.059 A 
ATOM     77  F   UNL A   1      43.080  32.365  33.146  1.00  0.00    -0.206 F 
ATOM     78  C   UNL A   1      40.067  31.233  34.799  1.00  0.00     0.060 A 
BRANCH  78  79
ATOM     79  S   UNL A   1      39.158  31.534  36.334  1.00  0.00     0.124 S 
ATOM     80  O   UNL A   1      38.686  30.196  36.676  1.00  0.00    -0.237 OA
ATOM     81  O   UNL A   1      40.205  32.074  37.203  1.00  0.00    -0.237 OA
ATOM     82  O   UNL A   1      38.127  32.482  35.931  1.00  0.00    -0.744 OA
ENDBRANCH  78  79
ENDBRANCH  46  71
BRANCH  58  83
ATOM     83  C   UNL A   1      44.998  23.908  33.512  1.00  0.00     0.058 A 
ATOM     84  C   UNL A   1      44.088  22.901  33.877  1.00  0.00     0.135 A 
ATOM     85  C   UNL A   1      46.336  23.699  33.929  1.00  0.00     0.135 A 
ATOM     86  F   UNL A   1      42.818  22.921  33.450  1.00  0.00    -0.206 F 
ATOM     87  C   UNL A   1      44.458  21.805  34.660  1.00  0.00     0.059 A 
ATOM     88  C   UNL A   1      46.738  22.585  34.661  1.00  0.00     0.059 A 
ATOM     89  F   UNL A   1      47.308  24.572  33.624  1.00  0.00    -0.206 F 
ATOM     90  C   UNL A   1      45.785  21.656  35.050  1.00  0.00     0.060 A 
BRANCH  90  91
ATOM     91  S   UNL A   1      46.285  20.218  36.017  1.00  0.00     0.124 S 
ATOM     92  O   UNL A   1      47.740  20.303  35.932  1.00  0.00    -0.237 OA
ATOM     93  O   UNL A   1      45.713  20.494  37.331  1.00  0.00    -0.237 OA
ATOM     94  O   UNL A   1      45.673  19.106  35.298  1.00  0.00    -0.744 OA
ENDBRANCH  90  91
ENDBRANCH  58  83
ENDBRANCH  32  33
ENDBRANCH  24  27
ENDBRANCH  22  23
ENDBRANCH  21  22
ENDBRANCH   1  21
TORSDOF 17
ENDMDL
MODEL 3
REMARK VINA RESULT:     -13.1      5.125     11.396
REMARK SMILES Cc1cc(OCC(C)(C)C(=O)NCCCNC(=O)c2ccc(-c3c4nc(c(-c5c(F)cc(S(=O)(=O)[O-])cc5F)c5ccc([nH]5)c(-c5c(F)cc(S(=O)(=O)[O-])cc5F)c5nc(c(-c6c(F)cc(S(=O)(=O)[O-])cc6F)c6ccc3[nH]6)C=C5)C=C4)cc2)cc(C(C)C)c1
REMARK SMILES IDX 13 1 12 2 10 3 11 4 7 6 8 7 9 8 6 9 5 10 4 11 1 12 2 13 3 14
REMARK SMILES IDX 90 15 86 16 85 17 87 18 88 19 89 20 14 21 15 22 16 23 17 24
REMARK SMILES IDX 18 26 19 27 20 28 84 29 21 30 83 31 22 32 23 33 24 34 77 35
REMARK SMILES IDX 25 36 82 37 76 38 78 39 26 40 81 41 75 42 74 43 27 45 61 46
REMARK SMILES IDX 40 47 60 48 41 49 44 50 59 51 79 52 42 53 43 54 58 56 80 57
REMARK SMILES IDX 45 58 28 59 29 60 38 61 30 62 31 63 37 64 39 65 32 66 33 67
REMARK SMILES IDX 34 68 35 69 36 70 62 71 63 72 72 73 64 74 65 75 71 76 73 77
REMARK SMILES IDX 66 78 67 79 68 80 69 81 70 82 46 83 47 84 56 85 48 86 49 87
REMARK SMILES IDX 55 88 57 89 50 90 51 91 52 92 53 93 54 94
REMARK H PARENT 12 5 16 25 78 44 44 55
REMARK Flexibility Score: inf
ROOT
ATOM      1  C   UNL A   1      36.211  22.138  25.033  1.00  0.00     0.117 C 
ENDROOT
BRANCH   1   2
ATOM      2  N   UNL A   1      35.497  22.696  23.880  1.00  0.00    -0.355 N 
ATOM      3  C   UNL A   1      34.281  23.282  23.692  1.00  0.00     0.229 C 
ATOM      4  O   UNL A   1      34.027  23.616  22.529  1.00  0.00    -0.274 OA
ATOM      5  H   UNL A   1      36.018  22.631  23.048  1.00  0.00     0.163 HD
BRANCH   3   6
ATOM      6  C   UNL A   1      33.213  23.424  24.796  1.00  0.00     0.077 C 
ATOM      7  C   UNL A   1      33.774  23.957  26.106  1.00  0.00     0.025 C 
ATOM      8  C   UNL A   1      32.616  22.032  25.088  1.00  0.00     0.025 C 
BRANCH   6   9
ATOM      9  C   UNL A   1      32.016  24.311  24.280  1.00  0.00     0.245 C 
BRANCH   9  10
ATOM     10  O   UNL A   1      31.179  24.975  25.237  1.00  0.00    -0.492 OA
BRANCH  10  11
ATOM     11  C   UNL A   1      31.102  26.335  25.297  1.00  0.00     0.119 A 
ATOM     12  C   UNL A   1      30.308  28.992  22.702  1.00  0.00     0.044 C 
ATOM     13  C   UNL A   1      30.774  28.341  23.968  1.00  0.00    -0.047 A 
ATOM     14  C   UNL A   1      30.687  26.953  24.117  1.00  0.00     0.049 A 
ATOM     15  C   UNL A   1      31.353  29.093  24.996  1.00  0.00     0.007 A 
ATOM     16  C   UNL A   1      31.735  28.490  26.205  1.00  0.00    -0.042 A 
ATOM     17  C   UNL A   1      31.471  27.125  26.379  1.00  0.00     0.050 A 
BRANCH  16  18
ATOM     18  C   UNL A   1      32.587  29.284  27.188  1.00  0.00     0.013 C 
ATOM     19  C   UNL A   1      34.078  28.937  27.181  1.00  0.00     0.012 C 
ATOM     20  C   UNL A   1      32.409  30.790  26.933  1.00  0.00     0.012 C 
ENDBRANCH  16  18
ENDBRANCH  10  11
ENDBRANCH   9  10
ENDBRANCH   6   9
ENDBRANCH   3   6
ENDBRANCH   1   2
BRANCH   1  21
ATOM     21  C   UNL A   1      37.713  22.400  24.964  1.00  0.00     0.042 C 
BRANCH  21  22
ATOM     22  C   UNL A   1      38.163  23.405  26.014  1.00  0.00     0.118 C 
BRANCH  22  23
ATOM     23  N   UNL A   1      39.510  23.187  26.524  1.00  0.00    -0.352 N 
ATOM     24  C   UNL A   1      40.411  24.154  26.969  1.00  0.00     0.251 C 
ATOM     25  H   UNL A   1      39.819  22.253  26.557  1.00  0.00     0.163 HD
ATOM     26  O   UNL A   1      41.575  23.932  27.161  1.00  0.00    -0.269 OA
BRANCH  24  27
ATOM     27  C   UNL A   1      39.813  25.468  27.315  1.00  0.00     0.039 A 
ATOM     28  C   UNL A   1      40.257  26.574  26.582  1.00  0.00     0.014 A 
ATOM     29  C   UNL A   1      39.164  25.618  28.536  1.00  0.00     0.014 A 
ATOM     30  C   UNL A   1      40.226  27.834  27.170  1.00  0.00     0.010 A 
ATOM     31  C   UNL A   1      39.249  26.844  29.162  1.00  0.00     0.010 A 
ATOM     32  C   UNL A   1      39.811  27.945  28.496  1.00  0.00    -0.014 A 
BRANCH  32  33
ATOM     33  C   UNL A   1      39.963  29.160  29.288  1.00  0.00     0.031 A 
ATOM     34  C   UNL A   1      38.904  30.194  29.232  1.00  0.00     0.074 A 
ATOM     35  C   UNL A   1      41.012  29.311  30.127  1.00  0.00     0.049 A 
ATOM     36  N   UNL A   1      39.071  31.436  29.535  1.00  0.00    -0.248 NA
ATOM     37  C   UNL A   1      37.552  29.898  28.773  1.00  0.00     0.031 C 
ATOM     38  C   UNL A   1      41.150  30.303  31.190  1.00  0.00     0.029 A 
ATOM     39  N   UNL A   1      42.267  28.702  30.055  1.00  0.00    -0.354 N 
ATOM     40  C   UNL A   1      37.826  32.027  29.593  1.00  0.00     0.074 A 
ATOM     41  C   UNL A   1      36.923  31.040  29.055  1.00  0.00     0.031 C 
ATOM     42  C   UNL A   1      42.449  30.427  31.504  1.00  0.00     0.029 A 
ATOM     43  C   UNL A   1      43.205  29.629  30.554  1.00  0.00     0.049 A 
ATOM     44  H   UNL A   1      42.461  27.797  29.719  1.00  0.00     0.167 HD
ATOM     45  C   UNL A   1      37.683  33.231  30.222  1.00  0.00     0.037 A 
ATOM     46  C   UNL A   1      44.209  30.110  29.763  1.00  0.00     0.037 A 
ATOM     47  C   UNL A   1      38.983  33.755  30.642  1.00  0.00     0.049 A 
ATOM     48  C   UNL A   1      44.132  31.601  29.517  1.00  0.00     0.074 A 
ATOM     49  C   UNL A   1      39.656  33.718  31.853  1.00  0.00     0.029 A 
ATOM     50  N   UNL A   1      39.921  34.133  29.685  1.00  0.00    -0.354 N 
ATOM     51  N   UNL A   1      43.079  32.330  29.766  1.00  0.00    -0.248 NA
ATOM     52  C   UNL A   1      45.227  32.387  28.952  1.00  0.00     0.031 C 
ATOM     53  C   UNL A   1      41.022  34.004  31.607  1.00  0.00     0.029 A 
ATOM     54  C   UNL A   1      41.178  34.237  30.252  1.00  0.00     0.049 A 
ATOM     55  H   UNL A   1      39.717  34.303  28.736  1.00  0.00     0.167 HD
ATOM     56  C   UNL A   1      43.306  33.623  29.368  1.00  0.00     0.074 A 
ATOM     57  C   UNL A   1      44.678  33.613  28.896  1.00  0.00     0.031 C 
ATOM     58  C   UNL A   1      42.339  34.587  29.447  1.00  0.00     0.037 A 
BRANCH  45  59
ATOM     59  C   UNL A   1      36.350  33.745  30.738  1.00  0.00     0.058 A 
ATOM     60  C   UNL A   1      35.366  34.224  29.845  1.00  0.00     0.135 A 
ATOM     61  C   UNL A   1      36.006  33.870  32.099  1.00  0.00     0.135 A 
ATOM     62  F   UNL A   1      35.481  34.063  28.520  1.00  0.00    -0.206 F 
ATOM     63  C   UNL A   1      34.215  34.897  30.265  1.00  0.00     0.059 A 
ATOM     64  C   UNL A   1      34.894  34.593  32.546  1.00  0.00     0.059 A 
ATOM     65  F   UNL A   1      36.706  33.244  33.054  1.00  0.00    -0.206 F 
ATOM     66  C   UNL A   1      34.008  35.117  31.618  1.00  0.00     0.060 A 
BRANCH  66  67
ATOM     67  S   UNL A   1      32.568  36.069  32.137  1.00  0.00     0.124 S 
ATOM     68  O   UNL A   1      33.107  36.876  33.228  1.00  0.00    -0.237 OA
ATOM     69  O   UNL A   1      32.228  36.794  30.918  1.00  0.00    -0.237 OA
ATOM     70  O   UNL A   1      31.611  35.042  32.543  1.00  0.00    -0.744 OA
ENDBRANCH  66  67
ENDBRANCH  45  59
BRANCH  46  71
ATOM     71  C   UNL A   1      44.730  29.094  28.807  1.00  0.00     0.058 A 
ATOM     72  C   UNL A   1      44.188  29.087  27.507  1.00  0.00     0.135 A 
ATOM     73  C   UNL A   1      45.986  28.499  28.989  1.00  0.00     0.135 A 
ATOM     74  F   UNL A   1      42.978  29.624  27.282  1.00  0.00    -0.206 F 
ATOM     75  C   UNL A   1      44.931  28.674  26.407  1.00  0.00     0.059 A 
ATOM     76  C   UNL A   1      46.746  28.068  27.897  1.00  0.00     0.059 A 
ATOM     77  F   UNL A   1      46.551  28.468  30.205  1.00  0.00    -0.206 F 
ATOM     78  C   UNL A   1      46.237  28.234  26.608  1.00  0.00     0.060 A 
BRANCH  78  79
ATOM     79  S   UNL A   1      47.300  28.066  25.153  1.00  0.00     0.124 S 
ATOM     80  O   UNL A   1      47.092  26.670  24.783  1.00  0.00    -0.237 OA
ATOM     81  O   UNL A   1      46.721  29.053  24.241  1.00  0.00    -0.237 OA
ATOM     82  O   UNL A   1      48.624  28.390  25.669  1.00  0.00    -0.744 OA
ENDBRANCH  78  79
ENDBRANCH  46  71
BRANCH  58  83
ATOM     83  C   UNL A   1      42.430  35.978  28.863  1.00  0.00     0.058 A 
ATOM     84  C   UNL A   1      43.131  37.040  29.458  1.00  0.00     0.135 A 
ATOM     85  C   UNL A   1      41.899  36.246  27.576  1.00  0.00     0.135 A 
ATOM     86  F   UNL A   1      43.778  36.883  30.622  1.00  0.00    -0.206 F 
ATOM     87  C   UNL A   1      43.237  38.298  28.859  1.00  0.00     0.059 A 
ATOM     88  C   UNL A   1      42.042  37.475  26.937  1.00  0.00     0.059 A 
ATOM     89  F   UNL A   1      41.228  35.310  26.888  1.00  0.00    -0.206 F 
ATOM     90  C   UNL A   1      42.687  38.507  27.599  1.00  0.00     0.060 A 
BRANCH  90  91
ATOM     91  S   UNL A   1      42.862  40.111  26.793  1.00  0.00     0.124 S 
ATOM     92  O   UNL A   1      43.136  40.980  27.932  1.00  0.00    -0.237 OA
ATOM     93  O   UNL A   1      43.981  39.897  25.880  1.00  0.00    -0.237 OA
ATOM     94  O   UNL A   1      41.567  40.301  26.148  1.00  0.00    -0.744 OA
ENDBRANCH  90  91
ENDBRANCH  58  83
ENDBRANCH  32  33
ENDBRANCH  24  27
ENDBRANCH  22  23
ENDBRANCH  21  22
ENDBRANCH   1  21
TORSDOF 17
ENDMDL
