MODEL 1
REMARK VINA RESULT:     -11.6      0.000      0.000
REMARK SMILES O=C(NCCCNC(=O)c1cc(-c2ccoc2)n[nH]1)c1ccc(-c2c3nc(c(-c4c(F)cc(S(=O)(=O)[O-])cc4F)c4ccc([nH]4)c(-c4c(F)cc(S(=O)(=O)[O-])cc4F)c4nc(c(-c5c(F)cc(S(=O)(=O)[O-])cc5F)c5ccc2[nH]5)C=C4)C=C3)cc1
REMARK SMILES IDX 4 1 3 2 1 3 2 4 20 6 21 7 85 8 22 9 84 10 23 11 24 12 25 13
REMARK SMILES IDX 78 14 26 15 83 16 77 17 79 18 27 19 82 20 76 21 75 22 28 24
REMARK SMILES IDX 62 25 41 26 61 27 42 28 45 29 60 30 80 31 43 32 44 33 59 35
REMARK SMILES IDX 81 36 46 37 29 38 30 39 39 40 31 41 32 42 38 43 40 44 33 45
REMARK SMILES IDX 34 46 35 47 36 48 37 49 63 50 64 51 73 52 65 53 66 54 72 55
REMARK SMILES IDX 74 56 67 57 68 58 69 59 70 60 71 61 47 62 48 63 57 64 49 65
REMARK SMILES IDX 50 66 56 67 58 68 51 69 52 70 53 71 54 72 55 73 5 74 6 75
REMARK SMILES IDX 7 76 8 77 9 79 10 80 11 81 19 82 12 83 18 84 13 86 14 87
REMARK SMILES IDX 17 88 15 89 16 90
REMARK H PARENT 3 5 79 23 45 34 7 78 19 85
REMARK Flexibility Score: inf
ROOT
ATOM      1  C   UNL A   1      40.437  22.970  27.335  1.00  0.00     0.118 C 
ENDROOT
BRANCH   1   2
ATOM      2  N   UNL A   1      40.905  23.819  26.250  1.00  0.00    -0.352 N 
ATOM      3  O   UNL A   1      41.277  25.689  25.082  1.00  0.00    -0.269 OA
ATOM      4  C   UNL A   1      41.061  25.179  26.180  1.00  0.00     0.251 C 
ATOM      5  H   UNL A   1      41.153  23.334  25.428  1.00  0.00     0.163 HD
BRANCH   4   6
ATOM      6  C   UNL A   1      40.976  26.038  27.385  1.00  0.00     0.039 A 
ATOM      7  C   UNL A   1      41.895  27.064  27.625  1.00  0.00     0.014 A 
ATOM      8  C   UNL A   1      39.875  25.881  28.237  1.00  0.00     0.014 A 
ATOM      9  C   UNL A   1      41.750  27.883  28.747  1.00  0.00     0.010 A 
ATOM     10  C   UNL A   1      39.710  26.722  29.342  1.00  0.00     0.010 A 
ATOM     11  C   UNL A   1      40.654  27.723  29.610  1.00  0.00    -0.014 A 
BRANCH  11  12
ATOM     12  C   UNL A   1      40.475  28.651  30.754  1.00  0.00     0.031 A 
ATOM     13  C   UNL A   1      41.378  28.583  31.952  1.00  0.00     0.074 A 
ATOM     14  C   UNL A   1      39.496  29.574  30.704  1.00  0.00     0.049 A 
ATOM     15  N   UNL A   1      41.400  29.355  33.009  1.00  0.00    -0.248 NA
ATOM     16  C   UNL A   1      42.380  27.507  31.969  1.00  0.00     0.031 C 
ATOM     17  C   UNL A   1      38.530  29.721  29.613  1.00  0.00     0.029 A 
ATOM     18  N   UNL A   1      39.164  30.572  31.584  1.00  0.00    -0.354 N 
ATOM     19  C   UNL A   1      42.404  28.852  33.826  1.00  0.00     0.074 A 
ATOM     20  C   UNL A   1      42.964  27.703  33.145  1.00  0.00     0.031 C 
ATOM     21  C   UNL A   1      37.737  30.773  29.872  1.00  0.00     0.029 A 
ATOM     22  C   UNL A   1      38.133  31.366  31.146  1.00  0.00     0.049 A 
ATOM     23  H   UNL A   1      39.621  30.705  32.446  1.00  0.00     0.167 HD
ATOM     24  C   UNL A   1      42.821  29.306  35.032  1.00  0.00     0.037 A 
ATOM     25  C   UNL A   1      37.578  32.460  31.701  1.00  0.00     0.037 A 
ATOM     26  C   UNL A   1      42.287  30.459  35.706  1.00  0.00     0.049 A 
ATOM     27  C   UNL A   1      38.095  32.979  33.009  1.00  0.00     0.074 A 
ATOM     28  C   UNL A   1      42.673  31.008  36.917  1.00  0.00     0.029 A 
ATOM     29  N   UNL A   1      41.252  31.246  35.224  1.00  0.00    -0.354 N 
ATOM     30  N   UNL A   1      39.065  32.506  33.752  1.00  0.00    -0.248 NA
ATOM     31  C   UNL A   1      37.442  34.178  33.551  1.00  0.00     0.031 C 
ATOM     32  C   UNL A   1      41.866  32.126  37.171  1.00  0.00     0.029 A 
ATOM     33  C   UNL A   1      40.984  32.275  36.113  1.00  0.00     0.049 A 
ATOM     34  H   UNL A   1      40.779  31.096  34.374  1.00  0.00     0.167 HD
ATOM     35  C   UNL A   1      39.138  33.348  34.854  1.00  0.00     0.074 A 
ATOM     36  C   UNL A   1      38.123  34.367  34.674  1.00  0.00     0.031 C 
ATOM     37  C   UNL A   1      39.970  33.277  35.921  1.00  0.00     0.037 A 
BRANCH  24  38
ATOM     38  C   UNL A   1      43.919  28.537  35.700  1.00  0.00     0.058 A 
ATOM     39  C   UNL A   1      45.267  28.832  35.452  1.00  0.00     0.135 A 
ATOM     40  C   UNL A   1      43.621  27.499  36.596  1.00  0.00     0.135 A 
ATOM     41  F   UNL A   1      45.597  29.807  34.590  1.00  0.00    -0.206 F 
ATOM     42  C   UNL A   1      46.289  28.110  36.058  1.00  0.00     0.059 A 
ATOM     43  C   UNL A   1      44.628  26.766  37.217  1.00  0.00     0.059 A 
ATOM     44  F   UNL A   1      42.345  27.175  36.856  1.00  0.00    -0.206 F 
ATOM     45  C   UNL A   1      45.960  27.070  36.929  1.00  0.00     0.060 A 
BRANCH  45  46
ATOM     46  S   UNL A   1      47.281  26.112  37.700  1.00  0.00     0.124 S 
ATOM     47  O   UNL A   1      48.466  26.756  37.142  1.00  0.00    -0.237 OA
ATOM     48  O   UNL A   1      47.054  26.332  39.125  1.00  0.00    -0.237 OA
ATOM     49  O   UNL A   1      47.023  24.754  37.233  1.00  0.00    -0.744 OA
ENDBRANCH  45  46
ENDBRANCH  24  38
BRANCH  25  50
ATOM     50  C   UNL A   1      36.486  33.158  30.985  1.00  0.00     0.058 A 
ATOM     51  C   UNL A   1      35.168  33.093  31.459  1.00  0.00     0.135 A 
ATOM     52  C   UNL A   1      36.747  33.943  29.855  1.00  0.00     0.135 A 
ATOM     53  F   UNL A   1      34.881  32.352  32.540  1.00  0.00    -0.206 F 
ATOM     54  C   UNL A   1      34.140  33.793  30.840  1.00  0.00     0.059 A 
ATOM     55  C   UNL A   1      35.736  34.658  29.222  1.00  0.00     0.059 A 
ATOM     56  F   UNL A   1      37.998  34.039  29.377  1.00  0.00    -0.206 F 
ATOM     57  C   UNL A   1      34.435  34.576  29.723  1.00  0.00     0.060 A 
BRANCH  57  58
ATOM     58  S   UNL A   1      33.132  35.567  28.957  1.00  0.00     0.124 S 
ATOM     59  O   UNL A   1      32.377  36.007  30.123  1.00  0.00    -0.237 OA
ATOM     60  O   UNL A   1      33.884  36.606  28.256  1.00  0.00    -0.237 OA
ATOM     61  O   UNL A   1      32.465  34.600  28.091  1.00  0.00    -0.744 OA
ENDBRANCH  57  58
ENDBRANCH  25  50
BRANCH  37  62
ATOM     62  C   UNL A   1      39.806  34.327  36.977  1.00  0.00     0.058 A 
ATOM     63  C   UNL A   1      40.478  35.555  36.881  1.00  0.00     0.135 A 
ATOM     64  C   UNL A   1      38.965  34.116  38.079  1.00  0.00     0.135 A 
ATOM     65  F   UNL A   1      41.299  35.797  35.846  1.00  0.00    -0.206 F 
ATOM     66  C   UNL A   1      40.332  36.539  37.853  1.00  0.00     0.059 A 
ATOM     67  C   UNL A   1      38.800  35.088  39.060  1.00  0.00     0.059 A 
ATOM     68  F   UNL A   1      38.303  32.956  38.212  1.00  0.00    -0.206 F 
ATOM     69  C   UNL A   1      39.495  36.293  38.943  1.00  0.00     0.060 A 
BRANCH  69  70
ATOM     70  S   UNL A   1      39.283  37.569  40.204  1.00  0.00     0.124 S 
ATOM     71  O   UNL A   1      38.235  38.393  39.610  1.00  0.00    -0.237 OA
ATOM     72  O   UNL A   1      38.893  36.803  41.384  1.00  0.00    -0.237 OA
ATOM     73  O   UNL A   1      40.605  38.183  40.275  1.00  0.00    -0.744 OA
ENDBRANCH  69  70
ENDBRANCH  37  62
ENDBRANCH  11  12
ENDBRANCH   4   6
ENDBRANCH   1   2
BRANCH   1  74
ATOM     74  C   UNL A   1      40.721  21.489  27.074  1.00  0.00     0.042 C 
BRANCH  74  75
ATOM     75  C   UNL A   1      42.129  21.035  27.465  1.00  0.00     0.118 C 
BRANCH  75  76
ATOM     76  N   UNL A   1      42.729  20.165  26.466  1.00  0.00    -0.351 N 
ATOM     77  C   UNL A   1      43.663  20.439  25.502  1.00  0.00     0.269 C 
ATOM     78  H   UNL A   1      42.415  19.232  26.486  1.00  0.00     0.163 HD
ATOM     79  O   UNL A   1      43.788  19.635  24.579  1.00  0.00    -0.268 OA
BRANCH  77  80
ATOM     80  C   UNL A   1      44.442  21.643  25.558  1.00  0.00     0.123 A 
ATOM     81  C   UNL A   1      44.234  22.937  25.121  1.00  0.00     0.064 A 
ATOM     82  N   UNL A   1      45.628  21.696  26.243  1.00  0.00    -0.272 N 
ATOM     83  C   UNL A   1      45.381  23.659  25.514  1.00  0.00     0.096 A 
ATOM     84  N   UNL A   1      46.241  22.891  26.190  1.00  0.00    -0.175 NA
ATOM     85  H   UNL A   1      45.998  20.926  26.732  1.00  0.00     0.190 HD
BRANCH  83  86
ATOM     86  C   UNL A   1      45.625  25.068  25.236  1.00  0.00     0.040 A 
ATOM     87  C   UNL A   1      46.862  25.660  24.872  1.00  0.00     0.052 A 
ATOM     88  C   UNL A   1      44.708  26.094  25.279  1.00  0.00     0.205 A 
ATOM     89  C   UNL A   1      46.610  27.006  24.721  1.00  0.00     0.195 A 
ATOM     90  O   UNL A   1      45.301  27.277  24.966  1.00  0.00    -0.472 OA
ENDBRANCH  83  86
ENDBRANCH  77  80
ENDBRANCH  75  76
ENDBRANCH  74  75
ENDBRANCH   1  74
TORSDOF 14
ENDMDL
MODEL 2
REMARK VINA RESULT:     -11.6      5.895     14.060
REMARK SMILES O=C(NCCCNC(=O)c1cc(-c2ccoc2)n[nH]1)c1ccc(-c2c3nc(c(-c4c(F)cc(S(=O)(=O)[O-])cc4F)c4ccc([nH]4)c(-c4c(F)cc(S(=O)(=O)[O-])cc4F)c4nc(c(-c5c(F)cc(S(=O)(=O)[O-])cc5F)c5ccc2[nH]5)C=C4)C=C3)cc1
REMARK SMILES IDX 4 1 3 2 1 3 2 4 20 6 21 7 85 8 22 9 84 10 23 11 24 12 25 13
REMARK SMILES IDX 78 14 26 15 83 16 77 17 79 18 27 19 82 20 76 21 75 22 28 24
REMARK SMILES IDX 62 25 41 26 61 27 42 28 45 29 60 30 80 31 43 32 44 33 59 35
REMARK SMILES IDX 81 36 46 37 29 38 30 39 39 40 31 41 32 42 38 43 40 44 33 45
REMARK SMILES IDX 34 46 35 47 36 48 37 49 63 50 64 51 73 52 65 53 66 54 72 55
REMARK SMILES IDX 74 56 67 57 68 58 69 59 70 60 71 61 47 62 48 63 57 64 49 65
REMARK SMILES IDX 50 66 56 67 58 68 51 69 52 70 53 71 54 72 55 73 5 74 6 75
REMARK SMILES IDX 7 76 8 77 9 79 10 80 11 81 19 82 12 83 18 84 13 86 14 87
REMARK SMILES IDX 17 88 15 89 16 90
REMARK H PARENT 3 5 79 23 45 34 7 78 19 85
REMARK Flexibility Score: inf
ROOT
ATOM      1  C   UNL A   1      35.492  31.352  28.246  1.00  0.00     0.118 C 
ENDROOT
BRANCH   1   2
ATOM      2  N   UNL A   1      35.501  31.128  29.684  1.00  0.00    -0.352 N 
ATOM      3  O   UNL A   1      36.067  30.211  31.644  1.00  0.00    -0.269 OA
ATOM      4  C   UNL A   1      36.382  30.437  30.477  1.00  0.00     0.251 C 
ATOM      5  H   UNL A   1      34.751  31.543  30.169  1.00  0.00     0.163 HD
BRANCH   4   6
ATOM      6  C   UNL A   1      37.689  29.963  29.964  1.00  0.00     0.039 A 
ATOM      7  C   UNL A   1      38.024  30.050  28.610  1.00  0.00     0.014 A 
ATOM      8  C   UNL A   1      38.646  29.524  30.888  1.00  0.00     0.014 A 
ATOM      9  C   UNL A   1      39.286  29.638  28.174  1.00  0.00     0.010 A 
ATOM     10  C   UNL A   1      39.921  29.143  30.458  1.00  0.00     0.010 A 
ATOM     11  C   UNL A   1      40.246  29.188  29.095  1.00  0.00    -0.014 A 
BRANCH  11  12
ATOM     12  C   UNL A   1      41.605  28.826  28.625  1.00  0.00     0.031 A 
ATOM     13  C   UNL A   1      42.721  29.832  28.638  1.00  0.00     0.074 A 
ATOM     14  C   UNL A   1      41.840  27.573  28.194  1.00  0.00     0.049 A 
ATOM     15  N   UNL A   1      43.980  29.667  28.321  1.00  0.00    -0.248 NA
ATOM     16  C   UNL A   1      42.377  31.199  29.056  1.00  0.00     0.031 C 
ATOM     17  C   UNL A   1      40.834  26.512  28.098  1.00  0.00     0.029 A 
ATOM     18  N   UNL A   1      42.999  26.974  27.773  1.00  0.00    -0.354 N 
ATOM     19  C   UNL A   1      44.578  30.909  28.483  1.00  0.00     0.074 A 
ATOM     20  C   UNL A   1      43.542  31.821  28.922  1.00  0.00     0.031 C 
ATOM     21  C   UNL A   1      41.429  25.383  27.681  1.00  0.00     0.029 A 
ATOM     22  C   UNL A   1      42.851  25.642  27.474  1.00  0.00     0.049 A 
ATOM     23  H   UNL A   1      43.856  27.454  27.693  1.00  0.00     0.167 HD
ATOM     24  C   UNL A   1      45.872  31.258  28.285  1.00  0.00     0.037 A 
ATOM     25  C   UNL A   1      43.761  24.727  27.091  1.00  0.00     0.037 A 
ATOM     26  C   UNL A   1      46.913  30.355  27.872  1.00  0.00     0.049 A 
ATOM     27  C   UNL A   1      45.199  25.123  26.935  1.00  0.00     0.074 A 
ATOM     28  C   UNL A   1      48.259  30.618  27.678  1.00  0.00     0.029 A 
ATOM     29  N   UNL A   1      46.726  29.011  27.592  1.00  0.00    -0.354 N 
ATOM     30  N   UNL A   1      45.751  26.296  27.122  1.00  0.00    -0.248 NA
ATOM     31  C   UNL A   1      46.135  24.070  26.518  1.00  0.00     0.031 C 
ATOM     32  C   UNL A   1      48.886  29.431  27.276  1.00  0.00     0.029 A 
ATOM     33  C   UNL A   1      47.930  28.430  27.226  1.00  0.00     0.049 A 
ATOM     34  H   UNL A   1      45.865  28.537  27.648  1.00  0.00     0.167 HD
ATOM     35  C   UNL A   1      47.100  26.126  26.841  1.00  0.00     0.074 A 
ATOM     36  C   UNL A   1      47.284  24.733  26.485  1.00  0.00     0.031 C 
ATOM     37  C   UNL A   1      48.095  27.045  26.871  1.00  0.00     0.037 A 
BRANCH  24  38
ATOM     38  C   UNL A   1      46.228  32.695  28.517  1.00  0.00     0.058 A 
ATOM     39  C   UNL A   1      46.178  33.631  27.475  1.00  0.00     0.135 A 
ATOM     40  C   UNL A   1      46.620  33.137  29.789  1.00  0.00     0.135 A 
ATOM     41  F   UNL A   1      45.824  33.248  26.238  1.00  0.00    -0.206 F 
ATOM     42  C   UNL A   1      46.524  34.962  27.682  1.00  0.00     0.059 A 
ATOM     43  C   UNL A   1      46.965  34.465  30.021  1.00  0.00     0.059 A 
ATOM     44  F   UNL A   1      46.692  32.273  30.814  1.00  0.00    -0.206 F 
ATOM     45  C   UNL A   1      46.928  35.367  28.956  1.00  0.00     0.060 A 
BRANCH  45  46
ATOM     46  S   UNL A   1      47.401  37.088  29.227  1.00  0.00     0.124 S 
ATOM     47  O   UNL A   1      46.838  37.336  30.551  1.00  0.00    -0.237 OA
ATOM     48  O   UNL A   1      48.858  37.040  29.159  1.00  0.00    -0.237 OA
ATOM     49  O   UNL A   1      46.751  37.789  28.124  1.00  0.00    -0.744 OA
ENDBRANCH  45  46
ENDBRANCH  24  38
BRANCH  25  50
ATOM     50  C   UNL A   1      43.329  23.329  26.868  1.00  0.00     0.058 A 
ATOM     51  C   UNL A   1      43.180  22.829  25.567  1.00  0.00     0.135 A 
ATOM     52  C   UNL A   1      43.116  22.456  27.943  1.00  0.00     0.135 A 
ATOM     53  F   UNL A   1      43.379  23.635  24.512  1.00  0.00    -0.206 F 
ATOM     54  C   UNL A   1      42.840  21.502  25.335  1.00  0.00     0.059 A 
ATOM     55  C   UNL A   1      42.780  21.123  27.737  1.00  0.00     0.059 A 
ATOM     56  F   UNL A   1      43.258  22.895  29.204  1.00  0.00    -0.206 F 
ATOM     57  C   UNL A   1      42.644  20.655  26.428  1.00  0.00     0.060 A 
BRANCH  57  58
ATOM     58  S   UNL A   1      42.291  18.905  26.150  1.00  0.00     0.124 S 
ATOM     59  O   UNL A   1      43.289  18.562  25.145  1.00  0.00    -0.237 OA
ATOM     60  O   UNL A   1      42.491  18.319  27.473  1.00  0.00    -0.237 OA
ATOM     61  O   UNL A   1      40.905  18.929  25.692  1.00  0.00    -0.744 OA
ENDBRANCH  57  58
ENDBRANCH  25  50
BRANCH  37  62
ATOM     62  C   UNL A   1      49.466  26.570  26.500  1.00  0.00     0.058 A 
ATOM     63  C   UNL A   1      50.324  26.022  27.466  1.00  0.00     0.135 A 
ATOM     64  C   UNL A   1      49.921  26.645  25.175  1.00  0.00     0.135 A 
ATOM     65  F   UNL A   1      49.932  25.938  28.747  1.00  0.00    -0.206 F 
ATOM     66  C   UNL A   1      51.598  25.575  27.133  1.00  0.00     0.059 A 
ATOM     67  C   UNL A   1      51.188  26.198  24.820  1.00  0.00     0.059 A 
ATOM     68  F   UNL A   1      49.134  27.162  24.219  1.00  0.00    -0.206 F 
ATOM     69  C   UNL A   1      52.024  25.674  25.807  1.00  0.00     0.060 A 
BRANCH  69  70
ATOM     70  S   UNL A   1      53.670  25.080  25.358  1.00  0.00     0.124 S 
ATOM     71  O   UNL A   1      53.898  25.779  24.098  1.00  0.00    -0.237 OA
ATOM     72  O   UNL A   1      54.494  25.516  26.482  1.00  0.00    -0.237 OA
ATOM     73  O   UNL A   1      53.481  23.636  25.255  1.00  0.00    -0.744 OA
ENDBRANCH  69  70
ENDBRANCH  37  62
ENDBRANCH  11  12
ENDBRANCH   4   6
ENDBRANCH   1   2
BRANCH   1  74
ATOM     74  C   UNL A   1      35.036  32.769  27.886  1.00  0.00     0.042 C 
BRANCH  74  75
ATOM     75  C   UNL A   1      33.536  33.015  28.054  1.00  0.00     0.118 C 
BRANCH  75  76
ATOM     76  N   UNL A   1      33.199  34.429  28.023  1.00  0.00    -0.351 N 
ATOM     77  C   UNL A   1      33.022  35.318  29.051  1.00  0.00     0.269 C 
ATOM     78  H   UNL A   1      33.080  34.808  27.122  1.00  0.00     0.163 HD
ATOM     79  O   UNL A   1      32.440  36.373  28.803  1.00  0.00    -0.268 OA
BRANCH  77  80
ATOM     80  C   UNL A   1      33.474  35.005  30.376  1.00  0.00     0.123 A 
ATOM     81  C   UNL A   1      34.687  34.603  30.902  1.00  0.00     0.064 A 
ATOM     82  N   UNL A   1      32.667  35.187  31.469  1.00  0.00    -0.272 N 
ATOM     83  C   UNL A   1      34.478  34.490  32.293  1.00  0.00     0.096 A 
ATOM     84  N   UNL A   1      33.234  34.836  32.636  1.00  0.00    -0.175 NA
ATOM     85  H   UNL A   1      31.752  35.545  31.405  1.00  0.00     0.190 HD
BRANCH  83  86
ATOM     86  C   UNL A   1      35.477  34.058  33.262  1.00  0.00     0.040 A 
ATOM     87  C   UNL A   1      35.405  34.190  34.673  1.00  0.00     0.052 A 
ATOM     88  C   UNL A   1      36.681  33.444  32.996  1.00  0.00     0.205 A 
ATOM     89  C   UNL A   1      36.572  33.650  35.166  1.00  0.00     0.195 A 
ATOM     90  O   UNL A   1      37.353  33.194  34.151  1.00  0.00    -0.472 OA
ENDBRANCH  83  86
ENDBRANCH  77  80
ENDBRANCH  75  76
ENDBRANCH  74  75
ENDBRANCH   1  74
TORSDOF 14
ENDMDL
MODEL 3
REMARK VINA RESULT:     -11.5      2.811      4.764
REMARK SMILES O=C(NCCCNC(=O)c1cc(-c2ccoc2)n[nH]1)c1ccc(-c2c3nc(c(-c4c(F)cc(S(=O)(=O)[O-])cc4F)c4ccc([nH]4)c(-c4c(F)cc(S(=O)(=O)[O-])cc4F)c4nc(c(-c5c(F)cc(S(=O)(=O)[O-])cc5F)c5ccc2[nH]5)C=C4)C=C3)cc1
REMARK SMILES IDX 4 1 3 2 1 3 2 4 20 6 21 7 85 8 22 9 84 10 23 11 24 12 25 13
REMARK SMILES IDX 78 14 26 15 83 16 77 17 79 18 27 19 82 20 76 21 75 22 28 24
REMARK SMILES IDX 62 25 41 26 61 27 42 28 45 29 60 30 80 31 43 32 44 33 59 35
REMARK SMILES IDX 81 36 46 37 29 38 30 39 39 40 31 41 32 42 38 43 40 44 33 45
REMARK SMILES IDX 34 46 35 47 36 48 37 49 63 50 64 51 73 52 65 53 66 54 72 55
REMARK SMILES IDX 74 56 67 57 68 58 69 59 70 60 71 61 47 62 48 63 57 64 49 65
REMARK SMILES IDX 50 66 56 67 58 68 51 69 52 70 53 71 54 72 55 73 5 74 6 75
REMARK SMILES IDX 7 76 8 77 9 79 10 80 11 81 19 82 12 83 18 84 13 86 14 87
REMARK SMILES IDX 17 88 15 89 16 90
REMARK H PARENT 3 5 79 23 45 34 7 78 19 85
REMARK Flexibility Score: inf
ROOT
ATOM      1  C   UNL A   1      40.702  22.992  27.200  1.00  0.00     0.118 C 
ENDROOT
BRANCH   1   2
ATOM      2  N   UNL A   1      41.206  23.861  26.147  1.00  0.00    -0.352 N 
ATOM      3  O   UNL A   1      41.613  25.753  25.026  1.00  0.00    -0.269 OA
ATOM      4  C   UNL A   1      41.360  25.223  26.107  1.00  0.00     0.251 C 
ATOM      5  H   UNL A   1      41.484  23.392  25.326  1.00  0.00     0.163 HD
BRANCH   4   6
ATOM      6  C   UNL A   1      41.230  26.060  27.323  1.00  0.00     0.039 A 
ATOM      7  C   UNL A   1      42.178  27.034  27.651  1.00  0.00     0.014 A 
ATOM      8  C   UNL A   1      40.065  25.939  28.092  1.00  0.00     0.014 A 
ATOM      9  C   UNL A   1      41.993  27.836  28.780  1.00  0.00     0.010 A 
ATOM     10  C   UNL A   1      39.863  26.765  29.202  1.00  0.00     0.010 A 
ATOM     11  C   UNL A   1      40.831  27.713  29.560  1.00  0.00    -0.014 A 
BRANCH  11  12
ATOM     12  C   UNL A   1      40.616  28.624  30.710  1.00  0.00     0.031 A 
ATOM     13  C   UNL A   1      41.493  28.554  31.926  1.00  0.00     0.074 A 
ATOM     14  C   UNL A   1      39.626  29.535  30.650  1.00  0.00     0.049 A 
ATOM     15  N   UNL A   1      41.483  29.315  32.992  1.00  0.00    -0.248 NA
ATOM     16  C   UNL A   1      42.509  27.492  31.952  1.00  0.00     0.031 C 
ATOM     17  C   UNL A   1      38.682  29.682  29.540  1.00  0.00     0.029 A 
ATOM     18  N   UNL A   1      39.262  30.518  31.533  1.00  0.00    -0.354 N 
ATOM     19  C   UNL A   1      42.476  28.815  33.824  1.00  0.00     0.074 A 
ATOM     20  C   UNL A   1      43.066  27.682  33.142  1.00  0.00     0.031 C 
ATOM     21  C   UNL A   1      37.869  30.721  29.794  1.00  0.00     0.029 A 
ATOM     22  C   UNL A   1      38.230  31.304  31.083  1.00  0.00     0.049 A 
ATOM     23  H   UNL A   1      39.698  30.648  32.407  1.00  0.00     0.167 HD
ATOM     24  C   UNL A   1      42.861  29.260  35.045  1.00  0.00     0.037 A 
ATOM     25  C   UNL A   1      37.648  32.384  31.638  1.00  0.00     0.037 A 
ATOM     26  C   UNL A   1      42.298  30.398  35.720  1.00  0.00     0.049 A 
ATOM     27  C   UNL A   1      38.130  32.894  32.963  1.00  0.00     0.074 A 
ATOM     28  C   UNL A   1      42.650  30.938  36.945  1.00  0.00     0.029 A 
ATOM     29  N   UNL A   1      41.263  31.177  35.225  1.00  0.00    -0.354 N 
ATOM     30  N   UNL A   1      39.091  32.426  33.721  1.00  0.00    -0.248 NA
ATOM     31  C   UNL A   1      37.451  34.078  33.504  1.00  0.00     0.031 C 
ATOM     32  C   UNL A   1      41.824  32.042  37.194  1.00  0.00     0.029 A 
ATOM     33  C   UNL A   1      40.962  32.191  36.119  1.00  0.00     0.049 A 
ATOM     34  H   UNL A   1      40.809  31.031  34.364  1.00  0.00     0.167 HD
ATOM     35  C   UNL A   1      39.130  33.255  34.834  1.00  0.00     0.074 A 
ATOM     36  C   UNL A   1      38.105  34.263  34.644  1.00  0.00     0.031 C 
ATOM     37  C   UNL A   1      39.939  33.183  35.918  1.00  0.00     0.037 A 
BRANCH  24  38
ATOM     38  C   UNL A   1      43.955  28.498  35.727  1.00  0.00     0.058 A 
ATOM     39  C   UNL A   1      45.304  28.797  35.493  1.00  0.00     0.135 A 
ATOM     40  C   UNL A   1      43.651  27.462  36.623  1.00  0.00     0.135 A 
ATOM     41  F   UNL A   1      45.640  29.770  34.630  1.00  0.00    -0.206 F 
ATOM     42  C   UNL A   1      46.323  28.081  36.111  1.00  0.00     0.059 A 
ATOM     43  C   UNL A   1      44.654  26.735  37.258  1.00  0.00     0.059 A 
ATOM     44  F   UNL A   1      42.374  27.134  36.870  1.00  0.00    -0.206 F 
ATOM     45  C   UNL A   1      45.988  27.043  36.983  1.00  0.00     0.060 A 
BRANCH  45  46
ATOM     46  S   UNL A   1      47.305  26.093  37.772  1.00  0.00     0.124 S 
ATOM     47  O   UNL A   1      48.429  26.366  36.881  1.00  0.00    -0.237 OA
ATOM     48  O   UNL A   1      47.391  26.694  39.099  1.00  0.00    -0.237 OA
ATOM     49  O   UNL A   1      46.793  24.727  37.741  1.00  0.00    -0.744 OA
ENDBRANCH  45  46
ENDBRANCH  24  38
BRANCH  25  50
ATOM     50  C   UNL A   1      36.563  33.076  30.907  1.00  0.00     0.058 A 
ATOM     51  C   UNL A   1      35.231  32.957  31.331  1.00  0.00     0.135 A 
ATOM     52  C   UNL A   1      36.840  33.907  29.815  1.00  0.00     0.135 A 
ATOM     53  F   UNL A   1      34.928  32.172  32.375  1.00  0.00    -0.206 F 
ATOM     54  C   UNL A   1      34.206  33.651  30.699  1.00  0.00     0.059 A 
ATOM     55  C   UNL A   1      35.832  34.615  29.170  1.00  0.00     0.059 A 
ATOM     56  F   UNL A   1      38.104  34.054  29.386  1.00  0.00    -0.206 F 
ATOM     57  C   UNL A   1      34.518  34.480  29.620  1.00  0.00     0.060 A 
BRANCH  57  58
ATOM     58  S   UNL A   1      33.214  35.461  28.841  1.00  0.00     0.124 S 
ATOM     59  O   UNL A   1      33.993  36.451  28.110  1.00  0.00    -0.237 OA
ATOM     60  O   UNL A   1      32.510  34.475  28.026  1.00  0.00    -0.237 OA
ATOM     61  O   UNL A   1      32.463  35.959  29.989  1.00  0.00    -0.744 OA
ENDBRANCH  57  58
ENDBRANCH  25  50
BRANCH  37  62
ATOM     62  C   UNL A   1      39.739  34.218  36.982  1.00  0.00     0.058 A 
ATOM     63  C   UNL A   1      38.993  33.931  38.135  1.00  0.00     0.135 A 
ATOM     64  C   UNL A   1      40.306  35.495  36.860  1.00  0.00     0.135 A 
ATOM     65  F   UNL A   1      38.427  32.723  38.289  1.00  0.00    -0.206 F 
ATOM     66  C   UNL A   1      38.803  34.883  39.130  1.00  0.00     0.059 A 
ATOM     67  C   UNL A   1      40.134  36.460  37.846  1.00  0.00     0.059 A 
ATOM     68  F   UNL A   1      41.027  35.814  35.774  1.00  0.00    -0.206 F 
ATOM     69  C   UNL A   1      39.372  36.148  38.974  1.00  0.00     0.060 A 
BRANCH  69  70
ATOM     70  S   UNL A   1      39.148  37.388  40.268  1.00  0.00     0.124 S 
ATOM     71  O   UNL A   1      40.523  37.818  40.501  1.00  0.00    -0.237 OA
ATOM     72  O   UNL A   1      38.277  38.372  39.632  1.00  0.00    -0.237 OA
ATOM     73  O   UNL A   1      38.533  36.625  41.350  1.00  0.00    -0.744 OA
ENDBRANCH  69  70
ENDBRANCH  37  62
ENDBRANCH  11  12
ENDBRANCH   4   6
ENDBRANCH   1   2
BRANCH   1  74
ATOM     74  C   UNL A   1      40.251  21.632  26.661  1.00  0.00     0.042 C 
BRANCH  74  75
ATOM     75  C   UNL A   1      38.849  21.627  26.048  1.00  0.00     0.118 C 
BRANCH  75  76
ATOM     76  N   UNL A   1      38.174  22.905  26.195  1.00  0.00    -0.351 N 
ATOM     77  C   UNL A   1      36.869  23.249  25.953  1.00  0.00     0.269 C 
ATOM     78  H   UNL A   1      38.742  23.640  26.520  1.00  0.00     0.163 HD
ATOM     79  O   UNL A   1      36.600  24.445  25.849  1.00  0.00    -0.268 OA
BRANCH  77  80
ATOM     80  C   UNL A   1      35.863  22.238  25.795  1.00  0.00     0.123 A 
ATOM     81  C   UNL A   1      35.490  21.415  24.749  1.00  0.00     0.064 A 
ATOM     82  N   UNL A   1      35.091  21.826  26.850  1.00  0.00    -0.272 N 
ATOM     83  C   UNL A   1      34.440  20.617  25.250  1.00  0.00     0.096 A 
ATOM     84  N   UNL A   1      34.188  20.882  26.536  1.00  0.00    -0.175 NA
ATOM     85  H   UNL A   1      35.191  22.190  27.760  1.00  0.00     0.190 HD
BRANCH  83  86
ATOM     86  C   UNL A   1      33.704  19.617  24.487  1.00  0.00     0.040 A 
ATOM     87  C   UNL A   1      34.016  18.238  24.373  1.00  0.00     0.052 A 
ATOM     88  C   UNL A   1      32.573  19.819  23.728  1.00  0.00     0.205 A 
ATOM     89  C   UNL A   1      33.052  17.697  23.550  1.00  0.00     0.195 A 
ATOM     90  O   UNL A   1      32.171  18.654  23.155  1.00  0.00    -0.472 OA
ENDBRANCH  83  86
ENDBRANCH  77  80
ENDBRANCH  75  76
ENDBRANCH  74  75
ENDBRANCH   1  74
TORSDOF 14
ENDMDL
