MODEL 1
REMARK VINA RESULT:     -10.2      0.000      0.000
REMARK SMILES C=CC[N@H+](CC(=O)NCCCNC(=O)c1ccc(-c2c3nc(c(-c4c(F)cc(S(=O)(=O)[O-])cc4F)c4ccc([nH]4)c(-c4c(F)cc(S(=O)(=O)[O-])cc4F)c4nc(c(-c5c(F)cc(S(=O)(=O)[O-])cc5F)c5ccc2[nH]5)C=C4)C=C3)cc1)[C@@H]1CCCC[C@@H]1C
REMARK SMILES IDX 10 1 9 2 8 3 6 4 7 5 5 7 4 8 3 10 2 11 1 12 81 13 82 14
REMARK SMILES IDX 86 15 83 16 85 17 87 18 84 19 11 20 12 21 13 22 14 24 15 25
REMARK SMILES IDX 16 26 80 27 17 28 79 29 18 30 19 31 20 32 73 33 21 34 78 35
REMARK SMILES IDX 72 36 74 37 22 38 77 39 71 40 70 41 23 43 57 44 36 45 56 46
REMARK SMILES IDX 37 47 40 48 55 49 75 50 38 51 39 52 54 54 76 55 41 56 24 57
REMARK SMILES IDX 25 58 34 59 26 60 27 61 33 62 35 63 28 64 29 65 30 66 31 67
REMARK SMILES IDX 32 68 58 69 59 70 68 71 60 72 61 73 67 74 69 75 62 76 63 77
REMARK SMILES IDX 64 78 65 79 66 80 42 81 43 82 52 83 44 84 45 85 51 86 53 87
REMARK SMILES IDX 46 88 47 89 48 90 49 91 50 92
REMARK H PARENT 8 6 4 9 12 23 74 42 40 53
REMARK Flexibility Score: inf
ROOT
ATOM      1  C   UNL A   1      33.354  27.961  25.554  1.00  0.00     0.042 C 
ENDROOT
BRANCH   1   2
ATOM      2  C   UNL A   1      33.440  26.493  25.126  1.00  0.00     0.118 C 
BRANCH   2   3
ATOM      3  N   UNL A   1      33.283  26.313  23.688  1.00  0.00    -0.351 N 
ATOM      4  C   UNL A   1      33.852  25.431  22.811  1.00  0.00     0.275 C 
ATOM      5  O   UNL A   1      33.552  25.557  21.620  1.00  0.00    -0.269 OA
ATOM      6  H   UNL A   1      32.651  26.941  23.272  1.00  0.00     0.163 HD
BRANCH   4   7
ATOM      7  C   UNL A   1      34.781  24.296  23.287  1.00  0.00     0.364 C 
BRANCH   7   8
ATOM      8  N   UNL A   1      34.076  23.203  24.032  1.00  0.00    -0.321 N 
ATOM      9  H   UNL A   1      33.573  23.542  24.851  1.00  0.00     0.349 HD
BRANCH   8  10
ATOM     10  C   UNL A   1      33.094  22.644  23.087  1.00  0.00     0.291 C 
BRANCH  10  11
ATOM     11  C   UNL A   1      31.607  22.751  23.236  1.00  0.00     0.025 C 
ATOM     12  C   UNL A   1      30.984  23.477  24.176  1.00  0.00     0.010 C 
ENDBRANCH  10  11
ENDBRANCH   8  10
BRANCH   8  13
ATOM     13  C   UNL A   1      35.027  22.237  24.665  1.00  0.00     0.187 C 
ATOM     14  C   UNL A   1      34.344  20.906  25.093  1.00  0.00     0.065 C 
ATOM     15  C   UNL A   1      35.707  22.695  26.017  1.00  0.00     0.044 C 
ATOM     16  C   UNL A   1      33.214  21.147  26.096  1.00  0.00     0.006 C 
ATOM     17  C   UNL A   1      34.638  23.031  27.074  1.00  0.00     0.009 C 
ATOM     18  C   UNL A   1      36.795  23.765  25.951  1.00  0.00     0.014 C 
ATOM     19  C   UNL A   1      33.729  21.831  27.361  1.00  0.00     0.001 C 
ENDBRANCH   8  13
ENDBRANCH   7   8
ENDBRANCH   4   7
ENDBRANCH   2   3
ENDBRANCH   1   2
BRANCH   1  20
ATOM     20  C   UNL A   1      33.596  28.195  27.041  1.00  0.00     0.118 C 
BRANCH  20  21
ATOM     21  N   UNL A   1      33.503  29.603  27.374  1.00  0.00    -0.352 N 
ATOM     22  C   UNL A   1      34.395  30.407  28.044  1.00  0.00     0.251 C 
ATOM     23  H   UNL A   1      32.678  30.051  27.077  1.00  0.00     0.163 HD
ATOM     24  O   UNL A   1      33.999  31.484  28.487  1.00  0.00    -0.269 OA
BRANCH  22  25
ATOM     25  C   UNL A   1      35.809  30.001  28.245  1.00  0.00     0.039 A 
ATOM     26  C   UNL A   1      36.206  29.557  29.511  1.00  0.00     0.014 A 
ATOM     27  C   UNL A   1      36.767  30.129  27.235  1.00  0.00     0.014 A 
ATOM     28  C   UNL A   1      37.542  29.220  29.753  1.00  0.00     0.010 A 
ATOM     29  C   UNL A   1      38.083  29.716  27.454  1.00  0.00     0.010 A 
ATOM     30  C   UNL A   1      38.494  29.281  28.722  1.00  0.00    -0.014 A 
BRANCH  30  31
ATOM     31  C   UNL A   1      39.924  28.946  28.970  1.00  0.00     0.031 A 
ATOM     32  C   UNL A   1      40.852  29.980  29.560  1.00  0.00     0.074 A 
ATOM     33  C   UNL A   1      40.402  27.733  28.633  1.00  0.00     0.049 A 
ATOM     34  N   UNL A   1      42.136  29.899  29.798  1.00  0.00    -0.248 NA
ATOM     35  C   UNL A   1      40.262  31.284  29.904  1.00  0.00     0.031 C 
ATOM     36  C   UNL A   1      39.624  26.657  28.016  1.00  0.00     0.029 A 
ATOM     37  N   UNL A   1      41.662  27.199  28.756  1.00  0.00    -0.354 N 
ATOM     38  C   UNL A   1      42.511  31.143  30.296  1.00  0.00     0.074 A 
ATOM     39  C   UNL A   1      41.328  31.976  30.282  1.00  0.00     0.031 C 
ATOM     40  C   UNL A   1      40.416  25.587  27.835  1.00  0.00     0.029 A 
ATOM     41  C   UNL A   1      41.765  25.909  28.292  1.00  0.00     0.049 A 
ATOM     42  H   UNL A   1      42.421  27.695  29.140  1.00  0.00     0.167 HD
ATOM     43  C   UNL A   1      43.721  31.549  30.749  1.00  0.00     0.037 A 
ATOM     44  C   UNL A   1      42.826  25.079  28.235  1.00  0.00     0.037 A 
ATOM     45  C   UNL A   1      44.889  30.708  30.803  1.00  0.00     0.049 A 
ATOM     46  C   UNL A   1      44.157  25.545  28.762  1.00  0.00     0.074 A 
ATOM     47  C   UNL A   1      46.144  31.009  31.302  1.00  0.00     0.029 A 
ATOM     48  N   UNL A   1      44.942  29.399  30.348  1.00  0.00    -0.354 N 
ATOM     49  N   UNL A   1      44.476  26.708  29.280  1.00  0.00    -0.248 NA
ATOM     50  C   UNL A   1      45.269  24.586  28.703  1.00  0.00     0.031 C 
ATOM     51  C   UNL A   1      46.967  29.892  31.118  1.00  0.00     0.029 A 
ATOM     52  C   UNL A   1      46.212  28.883  30.542  1.00  0.00     0.049 A 
ATOM     53  H   UNL A   1      44.188  28.909  29.946  1.00  0.00     0.167 HD
ATOM     54  C   UNL A   1      45.818  26.611  29.630  1.00  0.00     0.074 A 
ATOM     55  C   UNL A   1      46.248  25.273  29.276  1.00  0.00     0.031 C 
ATOM     56  C   UNL A   1      46.623  27.546  30.194  1.00  0.00     0.037 A 
BRANCH  43  57
ATOM     57  C   UNL A   1      43.844  32.969  31.235  1.00  0.00     0.058 A 
ATOM     58  C   UNL A   1      44.214  34.013  30.371  1.00  0.00     0.135 A 
ATOM     59  C   UNL A   1      43.559  33.295  32.570  1.00  0.00     0.135 A 
ATOM     60  F   UNL A   1      44.512  33.755  29.088  1.00  0.00    -0.206 F 
ATOM     61  C   UNL A   1      44.325  35.324  30.821  1.00  0.00     0.059 A 
ATOM     62  C   UNL A   1      43.638  34.604  33.036  1.00  0.00     0.059 A 
ATOM     63  F   UNL A   1      43.200  32.336  33.439  1.00  0.00    -0.206 F 
ATOM     64  C   UNL A   1      44.038  35.610  32.157  1.00  0.00     0.060 A 
BRANCH  64  65
ATOM     65  S   UNL A   1      44.186  37.318  32.724  1.00  0.00     0.124 S 
ATOM     66  O   UNL A   1      43.099  37.396  33.696  1.00  0.00    -0.237 OA
ATOM     67  O   UNL A   1      45.535  37.348  33.279  1.00  0.00    -0.237 OA
ATOM     68  O   UNL A   1      43.994  38.098  31.505  1.00  0.00    -0.744 OA
ENDBRANCH  64  65
ENDBRANCH  43  57
BRANCH  44  69
ATOM     69  C   UNL A   1      42.666  23.708  27.680  1.00  0.00     0.058 A 
ATOM     70  C   UNL A   1      42.454  22.609  28.526  1.00  0.00     0.135 A 
ATOM     71  C   UNL A   1      42.708  23.472  26.298  1.00  0.00     0.135 A 
ATOM     72  F   UNL A   1      42.414  22.784  29.855  1.00  0.00    -0.206 F 
ATOM     73  C   UNL A   1      42.305  21.321  28.022  1.00  0.00     0.059 A 
ATOM     74  C   UNL A   1      42.538  22.197  25.769  1.00  0.00     0.059 A 
ATOM     75  F   UNL A   1      42.893  24.493  25.446  1.00  0.00    -0.206 F 
ATOM     76  C   UNL A   1      42.346  21.125  26.641  1.00  0.00     0.060 A 
BRANCH  76  77
ATOM     77  S   UNL A   1      42.095  19.458  25.993  1.00  0.00     0.124 S 
ATOM     78  O   UNL A   1      42.921  19.482  24.792  1.00  0.00    -0.237 OA
ATOM     79  O   UNL A   1      42.582  18.625  27.088  1.00  0.00    -0.237 OA
ATOM     80  O   UNL A   1      40.653  19.400  25.768  1.00  0.00    -0.744 OA
ENDBRANCH  76  77
ENDBRANCH  44  69
BRANCH  56  81
ATOM     81  C   UNL A   1      48.040  27.149  30.495  1.00  0.00     0.058 A 
ATOM     82  C   UNL A   1      49.101  27.514  29.652  1.00  0.00     0.135 A 
ATOM     83  C   UNL A   1      48.346  26.442  31.668  1.00  0.00     0.135 A 
ATOM     84  F   UNL A   1      48.861  28.186  28.515  1.00  0.00    -0.206 F 
ATOM     85  C   UNL A   1      50.416  27.174  29.953  1.00  0.00     0.059 A 
ATOM     86  C   UNL A   1      49.656  26.112  32.001  1.00  0.00     0.059 A 
ATOM     87  F   UNL A   1      47.368  26.077  32.512  1.00  0.00    -0.206 F 
ATOM     88  C   UNL A   1      50.684  26.472  31.130  1.00  0.00     0.060 A 
BRANCH  88  89
ATOM     89  S   UNL A   1      52.398  26.066  31.528  1.00  0.00     0.124 S 
ATOM     90  O   UNL A   1      52.784  27.206  32.354  1.00  0.00    -0.237 OA
ATOM     91  O   UNL A   1      52.266  24.792  32.228  1.00  0.00    -0.237 OA
ATOM     92  O   UNL A   1      53.041  25.991  30.220  1.00  0.00    -0.744 OA
ENDBRANCH  88  89
ENDBRANCH  56  81
ENDBRANCH  30  31
ENDBRANCH  22  25
ENDBRANCH  20  21
ENDBRANCH   1  20
TORSDOF 17
ENDMDL
MODEL 2
REMARK VINA RESULT:     -10.0      0.637      2.357
REMARK SMILES C=CC[N@H+](CC(=O)NCCCNC(=O)c1ccc(-c2c3nc(c(-c4c(F)cc(S(=O)(=O)[O-])cc4F)c4ccc([nH]4)c(-c4c(F)cc(S(=O)(=O)[O-])cc4F)c4nc(c(-c5c(F)cc(S(=O)(=O)[O-])cc5F)c5ccc2[nH]5)C=C4)C=C3)cc1)[C@@H]1CCCC[C@@H]1C
REMARK SMILES IDX 10 1 9 2 8 3 6 4 7 5 5 7 4 8 3 10 2 11 1 12 81 13 82 14
REMARK SMILES IDX 86 15 83 16 85 17 87 18 84 19 11 20 12 21 13 22 14 24 15 25
REMARK SMILES IDX 16 26 80 27 17 28 79 29 18 30 19 31 20 32 73 33 21 34 78 35
REMARK SMILES IDX 72 36 74 37 22 38 77 39 71 40 70 41 23 43 57 44 36 45 56 46
REMARK SMILES IDX 37 47 40 48 55 49 75 50 38 51 39 52 54 54 76 55 41 56 24 57
REMARK SMILES IDX 25 58 34 59 26 60 27 61 33 62 35 63 28 64 29 65 30 66 31 67
REMARK SMILES IDX 32 68 58 69 59 70 68 71 60 72 61 73 67 74 69 75 62 76 63 77
REMARK SMILES IDX 64 78 65 79 66 80 42 81 43 82 52 83 44 84 45 85 51 86 53 87
REMARK SMILES IDX 46 88 47 89 48 90 49 91 50 92
REMARK H PARENT 8 6 4 9 12 23 74 42 40 53
REMARK Flexibility Score: inf
ROOT
ATOM      1  C   UNL A   1      33.629  28.380  24.968  1.00  0.00     0.042 C 
ENDROOT
BRANCH   1   2
ATOM      2  C   UNL A   1      32.627  27.331  24.476  1.00  0.00     0.118 C 
BRANCH   2   3
ATOM      3  N   UNL A   1      33.227  26.353  23.578  1.00  0.00    -0.351 N 
ATOM      4  C   UNL A   1      33.906  25.190  23.817  1.00  0.00     0.275 C 
ATOM      5  O   UNL A   1      34.345  24.590  22.831  1.00  0.00    -0.269 OA
ATOM      6  H   UNL A   1      33.125  26.570  22.623  1.00  0.00     0.163 HD
BRANCH   4   7
ATOM      7  C   UNL A   1      34.070  24.622  25.239  1.00  0.00     0.364 C 
BRANCH   7   8
ATOM      8  N   UNL A   1      34.292  23.140  25.283  1.00  0.00    -0.321 N 
ATOM      9  H   UNL A   1      34.347  22.720  24.356  1.00  0.00     0.349 HD
BRANCH   8  10
ATOM     10  C   UNL A   1      35.592  22.951  25.951  1.00  0.00     0.291 C 
BRANCH  10  11
ATOM     11  C   UNL A   1      36.792  23.825  25.751  1.00  0.00     0.025 C 
ATOM     12  C   UNL A   1      38.048  23.485  26.075  1.00  0.00     0.010 C 
ENDBRANCH  10  11
ENDBRANCH   8  10
BRANCH   8  13
ATOM     13  C   UNL A   1      33.125  22.403  25.859  1.00  0.00     0.187 C 
ATOM     14  C   UNL A   1      33.467  20.935  26.249  1.00  0.00     0.065 C 
ATOM     15  C   UNL A   1      31.879  22.197  24.909  1.00  0.00     0.044 C 
ATOM     16  C   UNL A   1      33.958  20.130  25.044  1.00  0.00     0.006 C 
ATOM     17  C   UNL A   1      32.292  21.451  23.626  1.00  0.00     0.009 C 
ATOM     18  C   UNL A   1      30.997  23.407  24.603  1.00  0.00     0.014 C 
ATOM     19  C   UNL A   1      32.904  20.083  23.939  1.00  0.00     0.001 C 
ENDBRANCH   8  13
ENDBRANCH   7   8
ENDBRANCH   4   7
ENDBRANCH   2   3
ENDBRANCH   1   2
BRANCH   1  20
ATOM     20  C   UNL A   1      33.822  28.400  26.481  1.00  0.00     0.118 C 
BRANCH  20  21
ATOM     21  N   UNL A   1      33.665  29.740  27.014  1.00  0.00    -0.352 N 
ATOM     22  C   UNL A   1      34.478  30.443  27.872  1.00  0.00     0.251 C 
ATOM     23  H   UNL A   1      32.857  30.217  26.717  1.00  0.00     0.163 HD
ATOM     24  O   UNL A   1      34.019  31.433  28.437  1.00  0.00    -0.269 OA
BRANCH  22  25
ATOM     25  C   UNL A   1      35.880  30.028  28.131  1.00  0.00     0.039 A 
ATOM     26  C   UNL A   1      36.213  29.545  29.402  1.00  0.00     0.014 A 
ATOM     27  C   UNL A   1      36.888  30.184  27.175  1.00  0.00     0.014 A 
ATOM     28  C   UNL A   1      37.535  29.199  29.701  1.00  0.00     0.010 A 
ATOM     29  C   UNL A   1      38.191  29.762  27.447  1.00  0.00     0.010 A 
ATOM     30  C   UNL A   1      38.537  29.289  28.720  1.00  0.00    -0.014 A 
BRANCH  30  31
ATOM     31  C   UNL A   1      39.953  28.944  29.029  1.00  0.00     0.031 A 
ATOM     32  C   UNL A   1      40.851  29.958  29.694  1.00  0.00     0.074 A 
ATOM     33  C   UNL A   1      40.447  27.740  28.682  1.00  0.00     0.049 A 
ATOM     34  N   UNL A   1      42.122  29.869  29.993  1.00  0.00    -0.248 NA
ATOM     35  C   UNL A   1      40.245  31.254  30.046  1.00  0.00     0.031 C 
ATOM     36  C   UNL A   1      39.700  26.684  27.996  1.00  0.00     0.029 A 
ATOM     37  N   UNL A   1      41.699  27.201  28.851  1.00  0.00    -0.354 N 
ATOM     38  C   UNL A   1      42.472  31.097  30.544  1.00  0.00     0.074 A 
ATOM     39  C   UNL A   1      41.292  31.932  30.496  1.00  0.00     0.031 C 
ATOM     40  C   UNL A   1      40.499  25.618  27.824  1.00  0.00     0.029 A 
ATOM     41  C   UNL A   1      41.824  25.924  28.356  1.00  0.00     0.049 A 
ATOM     42  H   UNL A   1      42.438  27.683  29.287  1.00  0.00     0.167 HD
ATOM     43  C   UNL A   1      43.659  31.487  31.068  1.00  0.00     0.037 A 
ATOM     44  C   UNL A   1      42.886  25.093  28.328  1.00  0.00     0.037 A 
ATOM     45  C   UNL A   1      44.822  30.642  31.156  1.00  0.00     0.049 A 
ATOM     46  C   UNL A   1      44.189  25.542  28.933  1.00  0.00     0.074 A 
ATOM     47  C   UNL A   1      46.051  30.926  31.725  1.00  0.00     0.029 A 
ATOM     48  N   UNL A   1      44.897  29.347  30.667  1.00  0.00    -0.354 N 
ATOM     49  N   UNL A   1      44.483  26.688  29.500  1.00  0.00    -0.248 NA
ATOM     50  C   UNL A   1      45.302  24.583  28.902  1.00  0.00     0.031 C 
ATOM     51  C   UNL A   1      46.882  29.814  31.550  1.00  0.00     0.029 A 
ATOM     52  C   UNL A   1      46.156  28.823  30.908  1.00  0.00     0.049 A 
ATOM     53  H   UNL A   1      44.164  28.871  30.214  1.00  0.00     0.167 HD
ATOM     54  C   UNL A   1      45.806  26.579  29.913  1.00  0.00     0.074 A 
ATOM     55  C   UNL A   1      46.252  25.251  29.543  1.00  0.00     0.031 C 
ATOM     56  C   UNL A   1      46.582  27.496  30.543  1.00  0.00     0.037 A 
BRANCH  43  57
ATOM     57  C   UNL A   1      43.759  32.892  31.600  1.00  0.00     0.058 A 
ATOM     58  C   UNL A   1      43.422  33.201  32.928  1.00  0.00     0.135 A 
ATOM     59  C   UNL A   1      44.227  33.935  30.785  1.00  0.00     0.135 A 
ATOM     60  F   UNL A   1      42.954  32.246  33.747  1.00  0.00    -0.206 F 
ATOM     61  C   UNL A   1      43.517  34.499  33.419  1.00  0.00     0.059 A 
ATOM     62  C   UNL A   1      44.355  35.236  31.263  1.00  0.00     0.059 A 
ATOM     63  F   UNL A   1      44.565  33.695  29.508  1.00  0.00    -0.206 F 
ATOM     64  C   UNL A   1      43.982  35.511  32.578  1.00  0.00     0.060 A 
BRANCH  64  65
ATOM     65  S   UNL A   1      44.100  37.190  33.232  1.00  0.00     0.124 S 
ATOM     66  O   UNL A   1      44.084  37.981  32.005  1.00  0.00    -0.237 OA
ATOM     67  O   UNL A   1      42.907  37.287  34.065  1.00  0.00    -0.237 OA
ATOM     68  O   UNL A   1      45.368  37.183  33.956  1.00  0.00    -0.744 OA
ENDBRANCH  64  65
ENDBRANCH  43  57
BRANCH  44  69
ATOM     69  C   UNL A   1      42.752  23.740  27.727  1.00  0.00     0.058 A 
ATOM     70  C   UNL A   1      42.897  23.548  26.345  1.00  0.00     0.135 A 
ATOM     71  C   UNL A   1      42.490  22.612  28.520  1.00  0.00     0.135 A 
ATOM     72  F   UNL A   1      43.141  24.597  25.545  1.00  0.00    -0.206 F 
ATOM     73  C   UNL A   1      42.773  22.289  25.767  1.00  0.00     0.059 A 
ATOM     74  C   UNL A   1      42.385  21.340  27.969  1.00  0.00     0.059 A 
ATOM     75  F   UNL A   1      42.358  22.741  29.850  1.00  0.00    -0.206 F 
ATOM     76  C   UNL A   1      42.519  21.189  26.588  1.00  0.00     0.060 A 
BRANCH  76  77
ATOM     77  S   UNL A   1      42.414  19.550  25.836  1.00  0.00     0.124 S 
ATOM     78  O   UNL A   1      41.007  19.490  25.459  1.00  0.00    -0.237 OA
ATOM     79  O   UNL A   1      43.368  19.654  24.737  1.00  0.00    -0.237 OA
ATOM     80  O   UNL A   1      42.816  18.659  26.921  1.00  0.00    -0.744 OA
ENDBRANCH  76  77
ENDBRANCH  44  69
BRANCH  56  81
ATOM     81  C   UNL A   1      47.982  27.087  30.902  1.00  0.00     0.058 A 
ATOM     82  C   UNL A   1      48.277  26.468  32.126  1.00  0.00     0.135 A 
ATOM     83  C   UNL A   1      49.032  27.269  29.988  1.00  0.00     0.135 A 
ATOM     84  F   UNL A   1      47.309  26.276  33.037  1.00  0.00    -0.206 F 
ATOM     85  C   UNL A   1      49.569  26.059  32.440  1.00  0.00     0.059 A 
ATOM     86  C   UNL A   1      50.328  26.847  30.271  1.00  0.00     0.059 A 
ATOM     87  F   UNL A   1      48.801  27.848  28.799  1.00  0.00    -0.206 F 
ATOM     88  C   UNL A   1      50.589  26.254  31.506  1.00  0.00     0.060 A 
BRANCH  88  89
ATOM     89  S   UNL A   1      52.255  25.688  31.910  1.00  0.00     0.124 S 
ATOM     90  O   UNL A   1      52.024  24.276  32.194  1.00  0.00    -0.237 OA
ATOM     91  O   UNL A   1      52.992  25.976  30.683  1.00  0.00    -0.237 OA
ATOM     92  O   UNL A   1      52.623  26.509  33.059  1.00  0.00    -0.744 OA
ENDBRANCH  88  89
ENDBRANCH  56  81
ENDBRANCH  30  31
ENDBRANCH  22  25
ENDBRANCH  20  21
ENDBRANCH   1  20
TORSDOF 17
ENDMDL
MODEL 3
REMARK VINA RESULT:     -10.0      5.050     10.541
REMARK SMILES C=CC[N@H+](CC(=O)NCCCNC(=O)c1ccc(-c2c3nc(c(-c4c(F)cc(S(=O)(=O)[O-])cc4F)c4ccc([nH]4)c(-c4c(F)cc(S(=O)(=O)[O-])cc4F)c4nc(c(-c5c(F)cc(S(=O)(=O)[O-])cc5F)c5ccc2[nH]5)C=C4)C=C3)cc1)[C@@H]1CCCC[C@@H]1C
REMARK SMILES IDX 10 1 9 2 8 3 6 4 7 5 5 7 4 8 3 10 2 11 1 12 81 13 82 14
REMARK SMILES IDX 86 15 83 16 85 17 87 18 84 19 11 20 12 21 13 22 14 24 15 25
REMARK SMILES IDX 16 26 80 27 17 28 79 29 18 30 19 31 20 32 73 33 21 34 78 35
REMARK SMILES IDX 72 36 74 37 22 38 77 39 71 40 70 41 23 43 57 44 36 45 56 46
REMARK SMILES IDX 37 47 40 48 55 49 75 50 38 51 39 52 54 54 76 55 41 56 24 57
REMARK SMILES IDX 25 58 34 59 26 60 27 61 33 62 35 63 28 64 29 65 30 66 31 67
REMARK SMILES IDX 32 68 58 69 59 70 68 71 60 72 61 73 67 74 69 75 62 76 63 77
REMARK SMILES IDX 64 78 65 79 66 80 42 81 43 82 52 83 44 84 45 85 51 86 53 87
REMARK SMILES IDX 46 88 47 89 48 90 49 91 50 92
REMARK H PARENT 8 6 4 9 12 23 74 42 40 53
REMARK Flexibility Score: inf
ROOT
ATOM      1  C   UNL A   1      37.507  23.487  25.642  1.00  0.00     0.042 C 
ENDROOT
BRANCH   1   2
ATOM      2  C   UNL A   1      36.030  23.725  25.972  1.00  0.00     0.118 C 
BRANCH   2   3
ATOM      3  N   UNL A   1      35.432  22.624  26.716  1.00  0.00    -0.351 N 
ATOM      4  C   UNL A   1      34.177  22.444  27.228  1.00  0.00     0.275 C 
ATOM      5  O   UNL A   1      33.979  21.405  27.864  1.00  0.00    -0.269 OA
ATOM      6  H   UNL A   1      36.045  21.871  26.879  1.00  0.00     0.163 HD
BRANCH   4   7
ATOM      7  C   UNL A   1      33.044  23.458  26.978  1.00  0.00     0.364 C 
BRANCH   7   8
ATOM      8  N   UNL A   1      32.528  23.464  25.571  1.00  0.00    -0.321 N 
ATOM      9  H   UNL A   1      33.273  23.413  24.876  1.00  0.00     0.349 HD
BRANCH   8  10
ATOM     10  C   UNL A   1      31.697  22.254  25.445  1.00  0.00     0.291 C 
BRANCH  10  11
ATOM     11  C   UNL A   1      32.072  21.037  24.657  1.00  0.00     0.025 C 
ATOM     12  C   UNL A   1      33.278  20.823  24.109  1.00  0.00     0.010 C 
ENDBRANCH  10  11
ENDBRANCH   8  10
BRANCH   8  13
ATOM     13  C   UNL A   1      31.887  24.764  25.202  1.00  0.00     0.187 C 
ATOM     14  C   UNL A   1      30.993  24.660  23.931  1.00  0.00     0.065 C 
ATOM     15  C   UNL A   1      32.858  25.948  24.811  1.00  0.00     0.044 C 
ATOM     16  C   UNL A   1      31.794  24.192  22.714  1.00  0.00     0.006 C 
ATOM     17  C   UNL A   1      33.761  25.542  23.630  1.00  0.00     0.009 C 
ATOM     18  C   UNL A   1      33.654  26.627  25.925  1.00  0.00     0.014 C 
ATOM     19  C   UNL A   1      32.939  25.151  22.398  1.00  0.00     0.001 C 
ENDBRANCH   8  13
ENDBRANCH   7   8
ENDBRANCH   4   7
ENDBRANCH   2   3
ENDBRANCH   1   2
BRANCH   1  20
ATOM     20  C   UNL A   1      38.480  24.113  26.636  1.00  0.00     0.118 C 
BRANCH  20  21
ATOM     21  N   UNL A   1      39.825  24.161  26.096  1.00  0.00    -0.352 N 
ATOM     22  C   UNL A   1      40.826  25.078  26.316  1.00  0.00     0.251 C 
ATOM     23  H   UNL A   1      40.057  23.428  25.482  1.00  0.00     0.163 HD
ATOM     24  O   UNL A   1      41.776  25.110  25.537  1.00  0.00    -0.269 OA
BRANCH  22  25
ATOM     25  C   UNL A   1      40.776  26.025  27.460  1.00  0.00     0.039 A 
ATOM     26  C   UNL A   1      39.867  25.778  28.495  1.00  0.00     0.014 A 
ATOM     27  C   UNL A   1      41.545  27.191  27.490  1.00  0.00     0.014 A 
ATOM     28  C   UNL A   1      39.751  26.677  29.561  1.00  0.00     0.010 A 
ATOM     29  C   UNL A   1      41.488  28.046  28.594  1.00  0.00     0.010 A 
ATOM     30  C   UNL A   1      40.573  27.815  29.630  1.00  0.00    -0.014 A 
BRANCH  30  31
ATOM     31  C   UNL A   1      40.446  28.792  30.746  1.00  0.00     0.031 A 
ATOM     32  C   UNL A   1      41.330  28.669  31.963  1.00  0.00     0.074 A 
ATOM     33  C   UNL A   1      39.518  29.767  30.690  1.00  0.00     0.049 A 
ATOM     34  N   UNL A   1      41.334  29.385  33.060  1.00  0.00    -0.248 NA
ATOM     35  C   UNL A   1      42.323  27.582  31.958  1.00  0.00     0.031 C 
ATOM     36  C   UNL A   1      38.571  29.972  29.592  1.00  0.00     0.029 A 
ATOM     37  N   UNL A   1      39.210  30.765  31.581  1.00  0.00    -0.354 N 
ATOM     38  C   UNL A   1      42.308  28.823  33.879  1.00  0.00     0.074 A 
ATOM     39  C   UNL A   1      42.841  27.678  33.174  1.00  0.00     0.031 C 
ATOM     40  C   UNL A   1      37.806  31.042  29.863  1.00  0.00     0.029 A 
ATOM     41  C   UNL A   1      38.183  31.580  31.168  1.00  0.00     0.049 A 
ATOM     42  H   UNL A   1      39.682  30.887  32.437  1.00  0.00     0.167 HD
ATOM     43  C   UNL A   1      42.739  29.236  35.095  1.00  0.00     0.037 A 
ATOM     44  C   UNL A   1      37.604  32.639  31.771  1.00  0.00     0.037 A 
ATOM     45  C   UNL A   1      42.238  30.401  35.778  1.00  0.00     0.049 A 
ATOM     46  C   UNL A   1      38.112  33.091  33.114  1.00  0.00     0.074 A 
ATOM     47  C   UNL A   1      42.654  30.936  36.985  1.00  0.00     0.029 A 
ATOM     48  N   UNL A   1      41.216  31.213  35.311  1.00  0.00    -0.354 N 
ATOM     49  N   UNL A   1      39.073  32.578  33.846  1.00  0.00    -0.248 NA
ATOM     50  C   UNL A   1      37.465  34.269  33.708  1.00  0.00     0.031 C 
ATOM     51  C   UNL A   1      41.860  32.053  37.265  1.00  0.00     0.029 A 
ATOM     52  C   UNL A   1      40.977  32.237  36.212  1.00  0.00     0.049 A 
ATOM     53  H   UNL A   1      40.731  31.081  34.464  1.00  0.00     0.167 HD
ATOM     54  C   UNL A   1      39.160  33.384  34.976  1.00  0.00     0.074 A 
ATOM     55  C   UNL A   1      38.163  34.426  34.824  1.00  0.00     0.031 C 
ATOM     56  C   UNL A   1      39.989  33.272  36.043  1.00  0.00     0.037 A 
BRANCH  43  57
ATOM     57  C   UNL A   1      43.818  28.427  35.765  1.00  0.00     0.058 A 
ATOM     58  C   UNL A   1      45.179  28.677  35.527  1.00  0.00     0.135 A 
ATOM     59  C   UNL A   1      43.489  27.414  36.679  1.00  0.00     0.135 A 
ATOM     60  F   UNL A   1      45.550  29.625  34.651  1.00  0.00    -0.206 F 
ATOM     61  C   UNL A   1      46.175  27.931  36.149  1.00  0.00     0.059 A 
ATOM     62  C   UNL A   1      44.469  26.672  37.332  1.00  0.00     0.059 A 
ATOM     63  F   UNL A   1      42.203  27.134  36.944  1.00  0.00    -0.206 F 
ATOM     64  C   UNL A   1      45.810  26.928  37.048  1.00  0.00     0.060 A 
BRANCH  64  65
ATOM     65  S   UNL A   1      47.115  25.970  37.847  1.00  0.00     0.124 S 
ATOM     66  O   UNL A   1      47.547  25.101  36.755  1.00  0.00    -0.237 OA
ATOM     67  O   UNL A   1      48.064  27.003  38.247  1.00  0.00    -0.237 OA
ATOM     68  O   UNL A   1      46.421  25.301  38.944  1.00  0.00    -0.744 OA
ENDBRANCH  64  65
ENDBRANCH  43  57
BRANCH  44  69
ATOM     69  C   UNL A   1      36.494  33.361  31.096  1.00  0.00     0.058 A 
ATOM     70  C   UNL A   1      36.729  34.136  29.951  1.00  0.00     0.135 A 
ATOM     71  C   UNL A   1      35.176  33.281  31.572  1.00  0.00     0.135 A 
ATOM     72  F   UNL A   1      37.973  34.249  29.462  1.00  0.00    -0.206 F 
ATOM     73  C   UNL A   1      35.702  34.819  29.309  1.00  0.00     0.059 A 
ATOM     74  C   UNL A   1      34.128  33.936  30.934  1.00  0.00     0.059 A 
ATOM     75  F   UNL A   1      34.896  32.539  32.656  1.00  0.00    -0.206 F 
ATOM     76  C   UNL A   1      34.402  34.711  29.807  1.00  0.00     0.060 A 
BRANCH  76  77
ATOM     77  S   UNL A   1      33.065  35.556  28.935  1.00  0.00     0.124 S 
ATOM     78  O   UNL A   1      32.450  34.456  28.204  1.00  0.00    -0.237 OA
ATOM     79  O   UNL A   1      32.282  36.111  30.035  1.00  0.00    -0.237 OA
ATOM     80  O   UNL A   1      33.770  36.542  28.120  1.00  0.00    -0.744 OA
ENDBRANCH  76  77
ENDBRANCH  44  69
BRANCH  56  81
ATOM     81  C   UNL A   1      39.881  34.318  37.116  1.00  0.00     0.058 A 
ATOM     82  C   UNL A   1      40.477  35.581  36.975  1.00  0.00     0.135 A 
ATOM     83  C   UNL A   1      39.128  34.072  38.275  1.00  0.00     0.135 A 
ATOM     84  F   UNL A   1      41.212  35.864  35.888  1.00  0.00    -0.206 F 
ATOM     85  C   UNL A   1      40.345  36.559  37.956  1.00  0.00     0.059 A 
ATOM     86  C   UNL A   1      38.963  35.044  39.258  1.00  0.00     0.059 A 
ATOM     87  F   UNL A   1      38.530  32.884  38.453  1.00  0.00    -0.206 F 
ATOM     88  C   UNL A   1      39.586  36.280  39.095  1.00  0.00     0.060 A 
BRANCH  88  89
ATOM     89  S   UNL A   1      39.393  37.568  40.345  1.00  0.00     0.124 S 
ATOM     90  O   UNL A   1      38.708  36.842  41.410  1.00  0.00    -0.237 OA
ATOM     91  O   UNL A   1      40.774  37.948  40.624  1.00  0.00    -0.237 OA
ATOM     92  O   UNL A   1      38.596  38.585  39.665  1.00  0.00    -0.744 OA
ENDBRANCH  88  89
ENDBRANCH  56  81
ENDBRANCH  30  31
ENDBRANCH  22  25
ENDBRANCH  20  21
ENDBRANCH   1  20
TORSDOF 17
ENDMDL
