MODEL 1
REMARK VINA RESULT:     -12.9      0.000      0.000
REMARK SMILES CCOC(=O)c1c(NC(=O)[C@@H]2[C@@H](C(=O)NCCCNC(=O)c3ccc(-c4c5nc(c(-c6c(F)cc(S(=O)(=O)[O-])cc6F)c6ccc([nH]6)c(-c6c(F)cc(S(=O)(=O)[O-])cc6F)c6nc(c(-c7c(F)cc(S(=O)(=O)[O-])cc7F)c7ccc4[nH]7)C=C6)C=C5)cc3)[C@@H]3C=C[C@H]2CC3)sc2c1CCC2
REMARK SMILES IDX 16 1 15 2 13 3 14 4 12 6 11 7 91 8 88 9 90 10 92 11 89 12
REMARK SMILES IDX 93 13 9 14 8 15 10 17 7 18 6 19 96 20 94 21 95 22 97 23
REMARK SMILES IDX 99 24 98 25 4 26 5 27 3 28 2 29 1 30 17 31 18 32 19 33 20 34
REMARK SMILES IDX 21 36 22 37 23 38 87 39 24 40 86 41 25 42 26 43 27 44 80 45
REMARK SMILES IDX 28 46 85 47 79 48 81 49 29 50 84 51 78 52 77 53 30 55 64 56
REMARK SMILES IDX 43 57 63 58 44 59 47 60 62 61 82 62 45 63 46 64 61 66 83 67
REMARK SMILES IDX 48 68 31 69 32 70 41 71 33 72 34 73 40 74 42 75 35 76 36 77
REMARK SMILES IDX 37 78 38 79 39 80 65 81 66 82 75 83 67 84 68 85 74 86 76 87
REMARK SMILES IDX 69 88 70 89 71 90 72 91 73 92 49 93 50 94 59 95 51 96 52 97
REMARK SMILES IDX 58 98 60 99 53 100 54 101 55 102 56 103 57 104
REMARK H PARENT 15 5 8 16 19 35 81 54 47 65
REMARK Flexibility Score: inf
ROOT
ATOM      1  C   UNL A   1      36.889  21.717  25.732  1.00  0.00     0.117 C 
ENDROOT
BRANCH   1   2
ATOM      2  N   UNL A   1      35.925  22.552  26.429  1.00  0.00    -0.356 N 
ATOM      3  C   UNL A   1      34.707  23.045  26.073  1.00  0.00     0.224 C 
ATOM      4  O   UNL A   1      34.048  23.545  26.988  1.00  0.00    -0.275 OA
ATOM      5  H   UNL A   1      36.208  22.811  27.336  1.00  0.00     0.163 HD
BRANCH   3   6
ATOM      6  C   UNL A   1      34.110  22.848  24.671  1.00  0.00     0.098 C 
ATOM      7  C   UNL A   1      33.082  23.907  24.210  1.00  0.00     0.099 C 
ATOM      8  C   UNL A   1      31.678  23.245  24.033  1.00  0.00     0.025 C 
ATOM      9  C   UNL A   1      33.438  21.416  24.554  1.00  0.00     0.025 C 
ATOM     10  C   UNL A   1      31.798  22.204  22.950  1.00  0.00    -0.027 C 
ATOM     11  C   UNL A   1      31.306  22.474  25.337  1.00  0.00     0.009 C 
ATOM     12  C   UNL A   1      32.697  21.245  23.226  1.00  0.00    -0.027 C 
ATOM     13  C   UNL A   1      32.283  21.298  25.568  1.00  0.00     0.009 C 
BRANCH   7  14
ATOM     14  C   UNL A   1      33.374  24.902  23.037  1.00  0.00     0.229 C 
ATOM     15  N   UNL A   1      33.091  26.238  22.937  1.00  0.00    -0.317 N 
ATOM     16  H   UNL A   1      33.080  26.571  22.011  1.00  0.00     0.170 HD
ATOM     17  O   UNL A   1      33.801  24.395  21.982  1.00  0.00    -0.274 OA
BRANCH  15  18
ATOM     18  C   UNL A   1      32.818  27.209  23.874  1.00  0.00     0.110 A 
ATOM     19  C   UNL A   1      31.728  27.430  24.726  1.00  0.00     0.098 A 
ATOM     20  C   UNL A   1      32.162  28.327  25.755  1.00  0.00    -0.017 A 
ATOM     21  S   UNL A   1      33.689  28.686  23.835  1.00  0.00    -0.122 S 
ATOM     22  C   UNL A   1      33.388  28.853  25.460  1.00  0.00     0.011 A 
ATOM     23  C   UNL A   1      31.688  28.865  27.058  1.00  0.00     0.038 C 
ATOM     24  C   UNL A   1      34.018  29.635  26.532  1.00  0.00     0.047 C 
ATOM     25  C   UNL A   1      32.760  29.976  27.375  1.00  0.00     0.010 C 
BRANCH  19  26
ATOM     26  C   UNL A   1      30.424  26.823  24.590  1.00  0.00     0.341 C 
ATOM     27  O   UNL A   1      29.923  26.071  25.420  1.00  0.00    -0.246 OA
BRANCH  26  28
ATOM     28  O   UNL A   1      29.919  27.082  23.351  1.00  0.00    -0.462 OA
BRANCH  28  29
ATOM     29  C   UNL A   1      29.542  28.430  23.043  1.00  0.00     0.230 C 
ATOM     30  C   UNL A   1      28.034  28.600  22.949  1.00  0.00     0.049 C 
ENDBRANCH  28  29
ENDBRANCH  26  28
ENDBRANCH  19  26
ENDBRANCH  15  18
ENDBRANCH   7  14
ENDBRANCH   3   6
ENDBRANCH   1   2
BRANCH   1  31
ATOM     31  C   UNL A   1      38.161  22.471  25.329  1.00  0.00     0.042 C 
BRANCH  31  32
ATOM     32  C   UNL A   1      39.175  22.605  26.457  1.00  0.00     0.118 C 
BRANCH  32  33
ATOM     33  N   UNL A   1      40.473  22.010  26.133  1.00  0.00    -0.352 N 
ATOM     34  C   UNL A   1      41.682  22.652  25.935  1.00  0.00     0.251 C 
ATOM     35  H   UNL A   1      40.486  21.030  26.044  1.00  0.00     0.163 HD
ATOM     36  O   UNL A   1      42.587  22.097  25.322  1.00  0.00    -0.269 OA
BRANCH  34  37
ATOM     37  C   UNL A   1      41.853  24.019  26.456  1.00  0.00     0.039 A 
ATOM     38  C   UNL A   1      41.452  25.133  25.714  1.00  0.00     0.014 A 
ATOM     39  C   UNL A   1      42.365  24.170  27.742  1.00  0.00     0.014 A 
ATOM     40  C   UNL A   1      41.477  26.390  26.317  1.00  0.00     0.010 A 
ATOM     41  C   UNL A   1      42.241  25.380  28.382  1.00  0.00     0.010 A 
ATOM     42  C   UNL A   1      41.844  26.507  27.668  1.00  0.00    -0.014 A 
BRANCH  42  43
ATOM     43  C   UNL A   1      41.725  27.792  28.362  1.00  0.00     0.031 A 
ATOM     44  C   UNL A   1      42.825  28.765  28.106  1.00  0.00     0.074 A 
ATOM     45  C   UNL A   1      40.607  28.192  29.007  1.00  0.00     0.049 A 
ATOM     46  N   UNL A   1      43.734  29.174  28.927  1.00  0.00    -0.248 NA
ATOM     47  C   UNL A   1      43.002  29.261  26.730  1.00  0.00     0.031 C 
ATOM     48  C   UNL A   1      39.306  27.510  29.057  1.00  0.00     0.029 A 
ATOM     49  N   UNL A   1      40.355  29.363  29.661  1.00  0.00    -0.354 N 
ATOM     50  C   UNL A   1      44.447  30.162  28.246  1.00  0.00     0.074 A 
ATOM     51  C   UNL A   1      44.089  30.028  26.858  1.00  0.00     0.031 C 
ATOM     52  C   UNL A   1      38.357  28.373  29.468  1.00  0.00     0.029 A 
ATOM     53  C   UNL A   1      39.008  29.590  29.912  1.00  0.00     0.049 A 
ATOM     54  H   UNL A   1      41.064  29.991  29.929  1.00  0.00     0.167 HD
ATOM     55  C   UNL A   1      45.057  31.181  28.914  1.00  0.00     0.037 A 
ATOM     56  C   UNL A   1      38.446  30.694  30.455  1.00  0.00     0.037 A 
ATOM     57  C   UNL A   1      45.081  30.925  30.331  1.00  0.00     0.049 A 
ATOM     58  C   UNL A   1      39.492  31.379  31.249  1.00  0.00     0.074 A 
ATOM     59  C   UNL A   1      45.749  30.080  31.188  1.00  0.00     0.029 A 
ATOM     60  N   UNL A   1      43.995  31.418  31.006  1.00  0.00    -0.354 N 
ATOM     61  N   UNL A   1      40.066  30.852  32.298  1.00  0.00    -0.248 NA
ATOM     62  C   UNL A   1      40.161  32.551  30.699  1.00  0.00     0.031 C 
ATOM     63  C   UNL A   1      44.887  29.899  32.311  1.00  0.00     0.029 A 
ATOM     64  C   UNL A   1      43.735  30.660  32.117  1.00  0.00     0.049 A 
ATOM     65  H   UNL A   1      43.475  32.208  30.733  1.00  0.00     0.167 HD
ATOM     66  C   UNL A   1      41.354  31.347  32.272  1.00  0.00     0.074 A 
ATOM     67  C   UNL A   1      41.299  32.508  31.397  1.00  0.00     0.031 C 
ATOM     68  C   UNL A   1      42.407  30.590  32.696  1.00  0.00     0.037 A 
BRANCH  55  69
ATOM     69  C   UNL A   1      45.227  32.598  28.396  1.00  0.00     0.058 A 
ATOM     70  C   UNL A   1      46.530  33.125  28.245  1.00  0.00     0.135 A 
ATOM     71  C   UNL A   1      44.184  33.548  28.344  1.00  0.00     0.135 A 
ATOM     72  F   UNL A   1      47.603  32.318  28.287  1.00  0.00    -0.206 F 
ATOM     73  C   UNL A   1      46.780  34.495  28.125  1.00  0.00     0.059 A 
ATOM     74  C   UNL A   1      44.406  34.911  28.170  1.00  0.00     0.059 A 
ATOM     75  F   UNL A   1      42.907  33.217  28.563  1.00  0.00    -0.206 F 
ATOM     76  C   UNL A   1      45.707  35.382  28.105  1.00  0.00     0.060 A 
BRANCH  76  77
ATOM     77  S   UNL A   1      46.021  37.156  28.054  1.00  0.00     0.124 S 
ATOM     78  O   UNL A   1      46.147  37.470  29.473  1.00  0.00    -0.237 OA
ATOM     79  O   UNL A   1      47.250  37.227  27.271  1.00  0.00    -0.237 OA
ATOM     80  O   UNL A   1      44.834  37.686  27.392  1.00  0.00    -0.744 OA
ENDBRANCH  76  77
ENDBRANCH  55  69
BRANCH  56  81
ATOM     81  C   UNL A   1      37.136  31.305  30.132  1.00  0.00     0.058 A 
ATOM     82  C   UNL A   1      36.364  31.931  31.124  1.00  0.00     0.135 A 
ATOM     83  C   UNL A   1      36.751  31.539  28.796  1.00  0.00     0.135 A 
ATOM     84  F   UNL A   1      36.668  31.766  32.420  1.00  0.00    -0.206 F 
ATOM     85  C   UNL A   1      35.312  32.795  30.809  1.00  0.00     0.059 A 
ATOM     86  C   UNL A   1      35.699  32.389  28.458  1.00  0.00     0.059 A 
ATOM     87  F   UNL A   1      37.449  31.020  27.774  1.00  0.00    -0.206 F 
ATOM     88  C   UNL A   1      35.004  33.040  29.471  1.00  0.00     0.060 A 
BRANCH  88  89
ATOM     89  S   UNL A   1      33.786  34.312  29.064  1.00  0.00     0.124 S 
ATOM     90  O   UNL A   1      32.943  33.622  28.094  1.00  0.00    -0.237 OA
ATOM     91  O   UNL A   1      33.175  34.578  30.362  1.00  0.00    -0.237 OA
ATOM     92  O   UNL A   1      34.598  35.400  28.526  1.00  0.00    -0.744 OA
ENDBRANCH  88  89
ENDBRANCH  56  81
BRANCH  68  93
ATOM     93  C   UNL A   1      42.133  29.504  33.698  1.00  0.00     0.058 A 
ATOM     94  C   UNL A   1      41.793  28.179  33.384  1.00  0.00     0.135 A 
ATOM     95  C   UNL A   1      42.321  29.817  35.054  1.00  0.00     0.135 A 
ATOM     96  F   UNL A   1      41.675  27.778  32.111  1.00  0.00    -0.206 F 
ATOM     97  C   UNL A   1      41.611  27.216  34.380  1.00  0.00     0.059 A 
ATOM     98  C   UNL A   1      42.177  28.868  36.059  1.00  0.00     0.059 A 
ATOM     99  F   UNL A   1      42.695  31.057  35.413  1.00  0.00    -0.206 F 
ATOM    100  C   UNL A   1      41.807  27.570  35.715  1.00  0.00     0.060 A 
BRANCH 100 101
ATOM    101  S   UNL A   1      41.643  26.310  36.997  1.00  0.00     0.124 S 
ATOM    102  O   UNL A   1      40.365  26.657  37.609  1.00  0.00    -0.237 OA
ATOM    103  O   UNL A   1      41.661  25.069  36.228  1.00  0.00    -0.237 OA
ATOM    104  O   UNL A   1      42.817  26.525  37.840  1.00  0.00    -0.744 OA
ENDBRANCH 100 101
ENDBRANCH  68  93
ENDBRANCH  42  43
ENDBRANCH  34  37
ENDBRANCH  32  33
ENDBRANCH  31  32
ENDBRANCH   1  31
TORSDOF 18
ENDMDL
MODEL 2
REMARK VINA RESULT:     -12.8      2.906      9.354
REMARK SMILES CCOC(=O)c1c(NC(=O)[C@@H]2[C@@H](C(=O)NCCCNC(=O)c3ccc(-c4c5nc(c(-c6c(F)cc(S(=O)(=O)[O-])cc6F)c6ccc([nH]6)c(-c6c(F)cc(S(=O)(=O)[O-])cc6F)c6nc(c(-c7c(F)cc(S(=O)(=O)[O-])cc7F)c7ccc4[nH]7)C=C6)C=C5)cc3)[C@@H]3C=C[C@H]2CC3)sc2c1CCC2
REMARK SMILES IDX 16 1 15 2 13 3 14 4 12 6 11 7 91 8 88 9 90 10 92 11 89 12
REMARK SMILES IDX 93 13 9 14 8 15 10 17 7 18 6 19 96 20 94 21 95 22 97 23
REMARK SMILES IDX 99 24 98 25 4 26 5 27 3 28 2 29 1 30 17 31 18 32 19 33 20 34
REMARK SMILES IDX 21 36 22 37 23 38 87 39 24 40 86 41 25 42 26 43 27 44 80 45
REMARK SMILES IDX 28 46 85 47 79 48 81 49 29 50 84 51 78 52 77 53 30 55 64 56
REMARK SMILES IDX 43 57 63 58 44 59 47 60 62 61 82 62 45 63 46 64 61 66 83 67
REMARK SMILES IDX 48 68 31 69 32 70 41 71 33 72 34 73 40 74 42 75 35 76 36 77
REMARK SMILES IDX 37 78 38 79 39 80 65 81 66 82 75 83 67 84 68 85 74 86 76 87
REMARK SMILES IDX 69 88 70 89 71 90 72 91 73 92 49 93 50 94 59 95 51 96 52 97
REMARK SMILES IDX 58 98 60 99 53 100 54 101 55 102 56 103 57 104
REMARK H PARENT 15 5 8 16 19 35 81 54 47 65
REMARK Flexibility Score: inf
ROOT
ATOM      1  C   UNL A   1      32.175  28.695  27.039  1.00  0.00     0.117 C 
ENDROOT
BRANCH   1   2
ATOM      2  N   UNL A   1      33.252  27.776  26.711  1.00  0.00    -0.356 N 
ATOM      3  C   UNL A   1      33.272  26.573  26.074  1.00  0.00     0.224 C 
ATOM      4  O   UNL A   1      34.390  26.153  25.767  1.00  0.00    -0.275 OA
ATOM      5  H   UNL A   1      34.139  28.083  27.007  1.00  0.00     0.163 HD
BRANCH   3   6
ATOM      6  C   UNL A   1      31.993  25.857  25.612  1.00  0.00     0.098 C 
ATOM      7  C   UNL A   1      32.129  24.351  25.291  1.00  0.00     0.099 C 
ATOM      8  C   UNL A   1      31.864  24.104  23.771  1.00  0.00     0.025 C 
ATOM      9  C   UNL A   1      31.380  26.585  24.343  1.00  0.00     0.025 C 
ATOM     10  C   UNL A   1      30.444  24.519  23.482  1.00  0.00    -0.027 C 
ATOM     11  C   UNL A   1      32.773  25.053  22.931  1.00  0.00     0.009 C 
ATOM     12  C   UNL A   1      30.196  25.810  23.762  1.00  0.00    -0.027 C 
ATOM     13  C   UNL A   1      32.386  26.531  23.176  1.00  0.00     0.009 C 
BRANCH   7  14
ATOM     14  C   UNL A   1      31.439  23.244  26.157  1.00  0.00     0.229 C 
ATOM     15  N   UNL A   1      31.442  21.884  25.997  1.00  0.00    -0.317 N 
ATOM     16  H   UNL A   1      30.702  21.431  26.461  1.00  0.00     0.170 HD
ATOM     17  O   UNL A   1      30.660  23.648  27.042  1.00  0.00    -0.274 OA
BRANCH  15  18
ATOM     18  C   UNL A   1      32.275  21.024  25.317  1.00  0.00     0.110 A 
ATOM     19  C   UNL A   1      33.590  20.596  25.542  1.00  0.00     0.098 A 
ATOM     20  C   UNL A   1      33.792  19.408  24.768  1.00  0.00    -0.017 A 
ATOM     21  S   UNL A   1      31.925  20.629  23.685  1.00  0.00    -0.122 S 
ATOM     22  C   UNL A   1      32.756  19.206  23.901  1.00  0.00     0.011 A 
ATOM     23  C   UNL A   1      34.790  18.315  24.617  1.00  0.00     0.038 C 
ATOM     24  C   UNL A   1      32.761  17.919  23.194  1.00  0.00     0.047 C 
ATOM     25  C   UNL A   1      34.260  17.548  23.347  1.00  0.00     0.010 C 
BRANCH  19  26
ATOM     26  C   UNL A   1      34.538  21.234  26.426  1.00  0.00     0.341 C 
ATOM     27  O   UNL A   1      34.301  21.532  27.592  1.00  0.00    -0.246 OA
BRANCH  26  28
ATOM     28  O   UNL A   1      35.653  21.592  25.730  1.00  0.00    -0.462 OA
BRANCH  28  29
ATOM     29  C   UNL A   1      35.737  22.933  25.233  1.00  0.00     0.230 C 
ATOM     30  C   UNL A   1      35.736  22.987  23.713  1.00  0.00     0.049 C 
ENDBRANCH  28  29
ENDBRANCH  26  28
ENDBRANCH  19  26
ENDBRANCH  15  18
ENDBRANCH   7  14
ENDBRANCH   3   6
ENDBRANCH   1   2
BRANCH   1  31
ATOM     31  C   UNL A   1      32.531  30.163  26.772  1.00  0.00     0.042 C 
BRANCH  31  32
ATOM     32  C   UNL A   1      33.922  30.551  27.257  1.00  0.00     0.118 C 
BRANCH  32  33
ATOM     33  N   UNL A   1      33.896  31.553  28.324  1.00  0.00    -0.352 N 
ATOM     34  C   UNL A   1      34.813  31.741  29.342  1.00  0.00     0.251 C 
ATOM     35  H   UNL A   1      33.129  32.170  28.317  1.00  0.00     0.163 HD
ATOM     36  O   UNL A   1      34.498  32.352  30.357  1.00  0.00    -0.269 OA
BRANCH  34  37
ATOM     37  C   UNL A   1      36.166  31.177  29.191  1.00  0.00     0.039 A 
ATOM     38  C   UNL A   1      37.285  32.004  29.060  1.00  0.00     0.014 A 
ATOM     39  C   UNL A   1      36.309  29.794  29.251  1.00  0.00     0.014 A 
ATOM     40  C   UNL A   1      38.555  31.430  29.092  1.00  0.00     0.010 A 
ATOM     41  C   UNL A   1      37.557  29.250  29.440  1.00  0.00     0.010 A 
ATOM     42  C   UNL A   1      38.690  30.049  29.315  1.00  0.00    -0.014 A 
BRANCH  42  43
ATOM     43  C   UNL A   1      40.014  29.453  29.508  1.00  0.00     0.031 A 
ATOM     44  C   UNL A   1      40.418  29.233  30.926  1.00  0.00     0.074 A 
ATOM     45  C   UNL A   1      40.744  28.914  28.507  1.00  0.00     0.049 A 
ATOM     46  N   UNL A   1      41.341  29.842  31.595  1.00  0.00    -0.248 NA
ATOM     47  C   UNL A   1      39.622  28.295  31.735  1.00  0.00     0.031 C 
ATOM     48  C   UNL A   1      40.344  28.724  27.106  1.00  0.00     0.029 A 
ATOM     49  N   UNL A   1      41.964  28.305  28.554  1.00  0.00    -0.354 N 
ATOM     50  C   UNL A   1      41.407  29.195  32.830  1.00  0.00     0.074 A 
ATOM     51  C   UNL A   1      40.210  28.403  32.930  1.00  0.00     0.031 C 
ATOM     52  C   UNL A   1      41.171  27.839  26.514  1.00  0.00     0.029 A 
ATOM     53  C   UNL A   1      42.272  27.568  27.418  1.00  0.00     0.049 A 
ATOM     54  H   UNL A   1      42.573  28.381  29.325  1.00  0.00     0.167 HD
ATOM     55  C   UNL A   1      42.567  29.151  33.544  1.00  0.00     0.037 A 
ATOM     56  C   UNL A   1      43.356  26.787  27.211  1.00  0.00     0.037 A 
ATOM     57  C   UNL A   1      43.546  30.051  32.990  1.00  0.00     0.049 A 
ATOM     58  C   UNL A   1      44.426  27.265  28.118  1.00  0.00     0.074 A 
ATOM     59  C   UNL A   1      43.737  31.413  32.930  1.00  0.00     0.029 A 
ATOM     60  N   UNL A   1      44.357  29.481  32.045  1.00  0.00    -0.354 N 
ATOM     61  N   UNL A   1      44.960  28.454  28.043  1.00  0.00    -0.248 NA
ATOM     62  C   UNL A   1      44.706  26.535  29.348  1.00  0.00     0.031 C 
ATOM     63  C   UNL A   1      44.506  31.648  31.750  1.00  0.00     0.029 A 
ATOM     64  C   UNL A   1      44.783  30.423  31.146  1.00  0.00     0.049 A 
ATOM     65  H   UNL A   1      44.601  28.528  32.015  1.00  0.00     0.167 HD
ATOM     66  C   UNL A   1      45.266  28.778  29.350  1.00  0.00     0.074 A 
ATOM     67  C   UNL A   1      45.263  27.512  30.067  1.00  0.00     0.031 C 
ATOM     68  C   UNL A   1      45.173  30.064  29.796  1.00  0.00     0.037 A 
BRANCH  55  69
ATOM     69  C   UNL A   1      43.008  28.007  34.439  1.00  0.00     0.058 A 
ATOM     70  C   UNL A   1      43.276  28.263  35.803  1.00  0.00     0.135 A 
ATOM     71  C   UNL A   1      43.476  26.765  33.957  1.00  0.00     0.135 A 
ATOM     72  F   UNL A   1      42.888  29.417  36.371  1.00  0.00    -0.206 F 
ATOM     73  C   UNL A   1      44.012  27.385  36.604  1.00  0.00     0.059 A 
ATOM     74  C   UNL A   1      44.163  25.852  34.751  1.00  0.00     0.059 A 
ATOM     75  F   UNL A   1      43.381  26.420  32.668  1.00  0.00    -0.206 F 
ATOM     76  C   UNL A   1      44.465  26.188  36.060  1.00  0.00     0.060 A 
BRANCH  76  77
ATOM     77  S   UNL A   1      45.503  25.096  37.052  1.00  0.00     0.124 S 
ATOM     78  O   UNL A   1      46.370  26.054  37.728  1.00  0.00    -0.237 OA
ATOM     79  O   UNL A   1      44.519  24.419  37.892  1.00  0.00    -0.237 OA
ATOM     80  O   UNL A   1      46.149  24.251  36.053  1.00  0.00    -0.744 OA
ENDBRANCH  76  77
ENDBRANCH  55  69
BRANCH  56  81
ATOM     81  C   UNL A   1      43.436  25.516  26.453  1.00  0.00     0.058 A 
ATOM     82  C   UNL A   1      44.354  25.355  25.404  1.00  0.00     0.135 A 
ATOM     83  C   UNL A   1      42.813  24.344  26.929  1.00  0.00     0.135 A 
ATOM     84  F   UNL A   1      44.996  26.419  24.898  1.00  0.00    -0.206 F 
ATOM     85  C   UNL A   1      44.691  24.095  24.901  1.00  0.00     0.059 A 
ATOM     86  C   UNL A   1      43.126  23.078  26.436  1.00  0.00     0.059 A 
ATOM     87  F   UNL A   1      41.951  24.387  27.956  1.00  0.00    -0.206 F 
ATOM     88  C   UNL A   1      44.091  22.959  25.443  1.00  0.00     0.060 A 
BRANCH  88  89
ATOM     89  S   UNL A   1      44.676  21.325  24.937  1.00  0.00     0.124 S 
ATOM     90  O   UNL A   1      44.530  21.389  23.487  1.00  0.00    -0.237 OA
ATOM     91  O   UNL A   1      46.046  21.322  25.440  1.00  0.00    -0.237 OA
ATOM     92  O   UNL A   1      43.763  20.412  25.619  1.00  0.00    -0.744 OA
ENDBRANCH  88  89
ENDBRANCH  56  81
BRANCH  68  93
ATOM     93  C   UNL A   1      45.315  31.169  28.788  1.00  0.00     0.058 A 
ATOM     94  C   UNL A   1      46.527  31.610  28.234  1.00  0.00     0.135 A 
ATOM     95  C   UNL A   1      44.134  31.746  28.293  1.00  0.00     0.135 A 
ATOM     96  F   UNL A   1      47.693  31.054  28.591  1.00  0.00    -0.206 F 
ATOM     97  C   UNL A   1      46.564  32.607  27.256  1.00  0.00     0.059 A 
ATOM     98  C   UNL A   1      44.145  32.717  27.299  1.00  0.00     0.059 A 
ATOM     99  F   UNL A   1      42.940  31.331  28.751  1.00  0.00    -0.206 F 
ATOM    100  C   UNL A   1      45.366  33.154  26.794  1.00  0.00     0.060 A 
BRANCH 100 101
ATOM    101  S   UNL A   1      45.409  34.392  25.480  1.00  0.00     0.124 S 
ATOM    102  O   UNL A   1      46.834  34.471  25.178  1.00  0.00    -0.237 OA
ATOM    103  O   UNL A   1      44.574  33.787  24.446  1.00  0.00    -0.237 OA
ATOM    104  O   UNL A   1      44.838  35.579  26.111  1.00  0.00    -0.744 OA
ENDBRANCH 100 101
ENDBRANCH  68  93
ENDBRANCH  42  43
ENDBRANCH  34  37
ENDBRANCH  32  33
ENDBRANCH  31  32
ENDBRANCH   1  31
TORSDOF 18
ENDMDL
MODEL 3
REMARK VINA RESULT:     -12.6      1.367      2.036
REMARK SMILES CCOC(=O)c1c(NC(=O)[C@@H]2[C@@H](C(=O)NCCCNC(=O)c3ccc(-c4c5nc(c(-c6c(F)cc(S(=O)(=O)[O-])cc6F)c6ccc([nH]6)c(-c6c(F)cc(S(=O)(=O)[O-])cc6F)c6nc(c(-c7c(F)cc(S(=O)(=O)[O-])cc7F)c7ccc4[nH]7)C=C6)C=C5)cc3)[C@@H]3C=C[C@H]2CC3)sc2c1CCC2
REMARK SMILES IDX 16 1 15 2 13 3 14 4 12 6 11 7 91 8 88 9 90 10 92 11 89 12
REMARK SMILES IDX 93 13 9 14 8 15 10 17 7 18 6 19 96 20 94 21 95 22 97 23
REMARK SMILES IDX 99 24 98 25 4 26 5 27 3 28 2 29 1 30 17 31 18 32 19 33 20 34
REMARK SMILES IDX 21 36 22 37 23 38 87 39 24 40 86 41 25 42 26 43 27 44 80 45
REMARK SMILES IDX 28 46 85 47 79 48 81 49 29 50 84 51 78 52 77 53 30 55 64 56
REMARK SMILES IDX 43 57 63 58 44 59 47 60 62 61 82 62 45 63 46 64 61 66 83 67
REMARK SMILES IDX 48 68 31 69 32 70 41 71 33 72 34 73 40 74 42 75 35 76 36 77
REMARK SMILES IDX 37 78 38 79 39 80 65 81 66 82 75 83 67 84 68 85 74 86 76 87
REMARK SMILES IDX 69 88 70 89 71 90 72 91 73 92 49 93 50 94 59 95 51 96 52 97
REMARK SMILES IDX 58 98 60 99 53 100 54 101 55 102 56 103 57 104
REMARK H PARENT 15 5 8 16 19 35 81 54 47 65
REMARK Flexibility Score: inf
ROOT
ATOM      1  C   UNL A   1      36.473  23.811  25.729  1.00  0.00     0.117 C 
ENDROOT
BRANCH   1   2
ATOM      2  N   UNL A   1      35.704  23.220  26.812  1.00  0.00    -0.356 N 
ATOM      3  C   UNL A   1      34.447  22.701  26.870  1.00  0.00     0.224 C 
ATOM      4  O   UNL A   1      34.177  22.079  27.901  1.00  0.00    -0.275 OA
ATOM      5  H   UNL A   1      36.187  23.189  27.670  1.00  0.00     0.163 HD
BRANCH   3   6
ATOM      6  C   UNL A   1      33.480  22.732  25.677  1.00  0.00     0.098 C 
ATOM      7  C   UNL A   1      32.146  21.971  25.856  1.00  0.00     0.099 C 
ATOM      8  C   UNL A   1      32.080  20.771  24.858  1.00  0.00     0.025 C 
ATOM      9  C   UNL A   1      34.196  22.185  24.371  1.00  0.00     0.025 C 
ATOM     10  C   UNL A   1      32.114  21.336  23.462  1.00  0.00    -0.027 C 
ATOM     11  C   UNL A   1      33.369  19.907  25.008  1.00  0.00     0.009 C 
ATOM     12  C   UNL A   1      33.218  22.055  23.202  1.00  0.00    -0.027 C 
ATOM     13  C   UNL A   1      34.617  20.717  24.585  1.00  0.00     0.009 C 
BRANCH   7  14
ATOM     14  C   UNL A   1      30.766  22.707  25.926  1.00  0.00     0.229 C 
ATOM     15  N   UNL A   1      30.437  23.980  25.543  1.00  0.00    -0.317 N 
ATOM     16  H   UNL A   1      29.614  24.319  25.964  1.00  0.00     0.170 HD
ATOM     17  O   UNL A   1      29.859  22.114  26.541  1.00  0.00    -0.274 OA
BRANCH  15  18
ATOM     18  C   UNL A   1      31.028  24.881  24.686  1.00  0.00     0.110 A 
ATOM     19  C   UNL A   1      31.647  26.122  24.890  1.00  0.00     0.098 A 
ATOM     20  C   UNL A   1      32.432  26.406  23.725  1.00  0.00    -0.017 A 
ATOM     21  S   UNL A   1      30.687  24.796  23.008  1.00  0.00    -0.122 S 
ATOM     22  C   UNL A   1      32.153  25.523  22.721  1.00  0.00     0.011 A 
ATOM     23  C   UNL A   1      33.466  27.372  23.269  1.00  0.00     0.038 C 
ATOM     24  C   UNL A   1      33.035  25.597  21.548  1.00  0.00     0.047 C 
ATOM     25  C   UNL A   1      33.591  27.033  21.735  1.00  0.00     0.010 C 
BRANCH  19  26
ATOM     26  C   UNL A   1      31.527  26.932  26.080  1.00  0.00     0.341 C 
ATOM     27  O   UNL A   1      31.408  26.479  27.213  1.00  0.00    -0.246 OA
BRANCH  26  28
ATOM     28  O   UNL A   1      31.406  28.245  25.737  1.00  0.00    -0.462 OA
BRANCH  28  29
ATOM     29  C   UNL A   1      32.469  29.137  26.095  1.00  0.00     0.230 C 
ATOM     30  C   UNL A   1      32.055  30.125  27.174  1.00  0.00     0.049 C 
ENDBRANCH  28  29
ENDBRANCH  26  28
ENDBRANCH  19  26
ENDBRANCH  15  18
ENDBRANCH   7  14
ENDBRANCH   3   6
ENDBRANCH   1   2
BRANCH   1  31
ATOM     31  C   UNL A   1      37.758  23.038  25.408  1.00  0.00     0.042 C 
BRANCH  31  32
ATOM     32  C   UNL A   1      38.698  22.894  26.598  1.00  0.00     0.118 C 
BRANCH  32  33
ATOM     33  N   UNL A   1      39.984  22.293  26.239  1.00  0.00    -0.352 N 
ATOM     34  C   UNL A   1      41.191  22.928  26.015  1.00  0.00     0.251 C 
ATOM     35  H   UNL A   1      39.990  21.313  26.147  1.00  0.00     0.163 HD
ATOM     36  O   UNL A   1      42.078  22.370  25.378  1.00  0.00    -0.269 OA
BRANCH  34  37
ATOM     37  C   UNL A   1      41.383  24.293  26.536  1.00  0.00     0.039 A 
ATOM     38  C   UNL A   1      40.784  25.395  25.920  1.00  0.00     0.014 A 
ATOM     39  C   UNL A   1      42.124  24.449  27.704  1.00  0.00     0.014 A 
ATOM     40  C   UNL A   1      40.855  26.639  26.546  1.00  0.00     0.010 A 
ATOM     41  C   UNL A   1      42.058  25.636  28.394  1.00  0.00     0.010 A 
ATOM     42  C   UNL A   1      41.468  26.751  27.805  1.00  0.00    -0.014 A 
BRANCH  42  43
ATOM     43  C   UNL A   1      41.414  28.012  28.549  1.00  0.00     0.031 A 
ATOM     44  C   UNL A   1      42.526  28.966  28.277  1.00  0.00     0.074 A 
ATOM     45  C   UNL A   1      40.336  28.416  29.257  1.00  0.00     0.049 A 
ATOM     46  N   UNL A   1      43.481  29.324  29.070  1.00  0.00    -0.248 NA
ATOM     47  C   UNL A   1      42.655  29.508  26.913  1.00  0.00     0.031 C 
ATOM     48  C   UNL A   1      39.022  27.764  29.342  1.00  0.00     0.029 A 
ATOM     49  N   UNL A   1      40.144  29.567  29.963  1.00  0.00    -0.354 N 
ATOM     50  C   UNL A   1      44.188  30.318  28.393  1.00  0.00     0.074 A 
ATOM     51  C   UNL A   1      43.766  30.244  27.019  1.00  0.00     0.031 C 
ATOM     52  C   UNL A   1      38.114  28.634  29.826  1.00  0.00     0.029 A 
ATOM     53  C   UNL A   1      38.816  29.818  30.283  1.00  0.00     0.049 A 
ATOM     54  H   UNL A   1      40.881  30.168  30.221  1.00  0.00     0.167 HD
ATOM     55  C   UNL A   1      44.854  31.296  29.068  1.00  0.00     0.037 A 
ATOM     56  C   UNL A   1      38.308  30.914  30.889  1.00  0.00     0.037 A 
ATOM     57  C   UNL A   1      44.934  30.988  30.473  1.00  0.00     0.049 A 
ATOM     58  C   UNL A   1      39.406  31.544  31.659  1.00  0.00     0.074 A 
ATOM     59  C   UNL A   1      45.618  30.097  31.268  1.00  0.00     0.029 A 
ATOM     60  N   UNL A   1      43.893  31.483  31.214  1.00  0.00    -0.354 N 
ATOM     61  N   UNL A   1      40.011  30.966  32.662  1.00  0.00    -0.248 NA
ATOM     62  C   UNL A   1      40.080  32.719  31.121  1.00  0.00     0.031 C 
ATOM     63  C   UNL A   1      44.802  29.896  32.422  1.00  0.00     0.029 A 
ATOM     64  C   UNL A   1      43.663  30.691  32.308  1.00  0.00     0.049 A 
ATOM     65  H   UNL A   1      43.382  32.295  30.992  1.00  0.00     0.167 HD
ATOM     66  C   UNL A   1      41.310  31.429  32.595  1.00  0.00     0.074 A 
ATOM     67  C   UNL A   1      41.246  32.623  31.765  1.00  0.00     0.031 C 
ATOM     68  C   UNL A   1      42.361  30.632  32.943  1.00  0.00     0.037 A 
BRANCH  55  69
ATOM     69  C   UNL A   1      45.038  32.727  28.594  1.00  0.00     0.058 A 
ATOM     70  C   UNL A   1      46.347  33.236  28.429  1.00  0.00     0.135 A 
ATOM     71  C   UNL A   1      44.012  33.696  28.599  1.00  0.00     0.135 A 
ATOM     72  F   UNL A   1      47.405  32.409  28.418  1.00  0.00    -0.206 F 
ATOM     73  C   UNL A   1      46.618  34.605  28.349  1.00  0.00     0.059 A 
ATOM     74  C   UNL A   1      44.254  35.060  28.464  1.00  0.00     0.059 A 
ATOM     75  F   UNL A   1      42.734  33.380  28.837  1.00  0.00    -0.206 F 
ATOM     76  C   UNL A   1      45.562  35.510  28.384  1.00  0.00     0.060 A 
BRANCH  76  77
ATOM     77  S   UNL A   1      45.907  37.280  28.384  1.00  0.00     0.124 S 
ATOM     78  O   UNL A   1      44.955  37.762  27.390  1.00  0.00    -0.237 OA
ATOM     79  O   UNL A   1      45.628  37.645  29.769  1.00  0.00    -0.237 OA
ATOM     80  O   UNL A   1      47.313  37.345  27.999  1.00  0.00    -0.744 OA
ENDBRANCH  76  77
ENDBRANCH  55  69
BRANCH  56  81
ATOM     81  C   UNL A   1      37.001  31.569  30.648  1.00  0.00     0.058 A 
ATOM     82  C   UNL A   1      36.101  31.800  31.700  1.00  0.00     0.135 A 
ATOM     83  C   UNL A   1      36.733  32.235  29.435  1.00  0.00     0.135 A 
ATOM     84  F   UNL A   1      36.288  31.210  32.891  1.00  0.00    -0.206 F 
ATOM     85  C   UNL A   1      35.035  32.696  31.581  1.00  0.00     0.059 A 
ATOM     86  C   UNL A   1      35.670  33.125  29.289  1.00  0.00     0.059 A 
ATOM     87  F   UNL A   1      37.556  32.113  28.382  1.00  0.00    -0.206 F 
ATOM     88  C   UNL A   1      34.844  33.375  30.378  1.00  0.00     0.060 A 
BRANCH  88  89
ATOM     89  S   UNL A   1      33.596  34.681  30.291  1.00  0.00     0.124 S 
ATOM     90  O   UNL A   1      32.730  34.199  29.221  1.00  0.00    -0.237 OA
ATOM     91  O   UNL A   1      33.027  34.651  31.634  1.00  0.00    -0.237 OA
ATOM     92  O   UNL A   1      34.377  35.874  29.975  1.00  0.00    -0.744 OA
ENDBRANCH  88  89
ENDBRANCH  56  81
BRANCH  68  93
ATOM     93  C   UNL A   1      42.104  29.518  33.917  1.00  0.00     0.058 A 
ATOM     94  C   UNL A   1      41.681  28.223  33.575  1.00  0.00     0.135 A 
ATOM     95  C   UNL A   1      42.396  29.763  35.269  1.00  0.00     0.135 A 
ATOM     96  F   UNL A   1      41.461  27.883  32.298  1.00  0.00    -0.206 F 
ATOM     97  C   UNL A   1      41.521  27.227  34.542  1.00  0.00     0.059 A 
ATOM     98  C   UNL A   1      42.274  28.779  36.243  1.00  0.00     0.059 A 
ATOM     99  F   UNL A   1      42.849  30.969  35.651  1.00  0.00    -0.206 F 
ATOM    100  C   UNL A   1      41.822  27.515  35.874  1.00  0.00     0.060 A 
BRANCH 100 101
ATOM    101  S   UNL A   1      41.685  26.209  37.113  1.00  0.00     0.124 S 
ATOM    102  O   UNL A   1      40.342  26.426  37.642  1.00  0.00    -0.237 OA
ATOM    103  O   UNL A   1      41.865  24.997  36.319  1.00  0.00    -0.237 OA
ATOM    104  O   UNL A   1      42.775  26.502  38.040  1.00  0.00    -0.744 OA
ENDBRANCH 100 101
ENDBRANCH  68  93
ENDBRANCH  42  43
ENDBRANCH  34  37
ENDBRANCH  32  33
ENDBRANCH  31  32
ENDBRANCH   1  31
TORSDOF 18
ENDMDL
