MODEL 1
REMARK VINA RESULT:     -11.8      0.000      0.000
REMARK SMILES CCOc1cc(/C=N/O)cc(Cl)c1OCc1ccc(C(=O)NCCCNC(=O)c2ccc(-c3c4nc(c(-c5c(F)cc(S(=O)(=O)[O-])cc5F)c5ccc([nH]5)c(-c5c(F)cc(S(=O)(=O)[O-])cc5F)c5nc(c(-c6c(F)cc(S(=O)(=O)[O-])cc6F)c6ccc3[nH]6)C=C5)C=C4)cc2)cc1
REMARK SMILES IDX 23 1 22 2 20 3 21 4 19 6 16 7 17 8 96 9 18 10 95 11 15 12
REMARK SMILES IDX 14 13 13 14 4 15 5 16 6 17 11 18 10 19 12 20 3 21 2 22 1 23
REMARK SMILES IDX 7 24 8 25 9 26 24 28 25 29 26 30 27 31 28 33 29 34 30 35
REMARK SMILES IDX 94 36 31 37 93 38 32 39 33 40 34 41 87 42 35 43 92 44 86 45
REMARK SMILES IDX 88 46 36 47 91 48 85 49 84 50 37 52 71 53 50 54 70 55 51 56
REMARK SMILES IDX 54 57 69 58 89 59 52 60 53 61 68 63 90 64 55 65 38 66 39 67
REMARK SMILES IDX 48 68 40 69 41 70 47 71 49 72 42 73 43 74 44 75 45 76 46 77
REMARK SMILES IDX 72 78 73 79 82 80 74 81 75 82 81 83 83 84 76 85 77 86 78 87
REMARK SMILES IDX 79 88 80 89 56 90 57 91 66 92 58 93 59 94 65 95 67 96 60 97
REMARK SMILES IDX 61 98 62 99 63 100 64 101
REMARK H PARENT 22 5 9 27 26 32 88 51 54 62
REMARK Flexibility Score: inf
ROOT
ATOM      1  C   UNL A   1      33.882  30.837  27.567  1.00  0.00     0.118 C 
ENDROOT
BRANCH   1   2
ATOM      2  N   UNL A   1      32.712  31.073  26.742  1.00  0.00    -0.352 N 
ATOM      3  C   UNL A   1      32.028  30.240  25.896  1.00  0.00     0.251 C 
ATOM      4  O   UNL A   1      30.973  30.641  25.406  1.00  0.00    -0.269 OA
ATOM      5  H   UNL A   1      32.348  31.986  26.799  1.00  0.00     0.163 HD
BRANCH   3   6
ATOM      6  C   UNL A   1      32.491  28.862  25.584  1.00  0.00     0.039 A 
ATOM      7  C   UNL A   1      33.577  26.339  24.948  1.00  0.00    -0.011 A 
ATOM      8  C   UNL A   1      33.776  27.437  24.098  1.00  0.00     0.008 A 
ATOM      9  C   UNL A   1      32.790  26.506  26.091  1.00  0.00     0.008 A 
ATOM     10  C   UNL A   1      33.248  28.690  24.420  1.00  0.00     0.014 A 
ATOM     11  C   UNL A   1      32.281  27.765  26.424  1.00  0.00     0.014 A 
BRANCH   7  12
ATOM     12  C   UNL A   1      34.217  25.006  24.620  1.00  0.00     0.265 C 
BRANCH  12  13
ATOM     13  O   UNL A   1      34.176  23.996  25.636  1.00  0.00    -0.483 OA
BRANCH  13  14
ATOM     14  C   UNL A   1      33.720  22.729  25.375  1.00  0.00     0.180 A 
ATOM     15  C   UNL A   1      34.745  21.768  25.211  1.00  0.00     0.163 A 
ATOM     16  C   UNL A   1      34.438  20.436  24.935  1.00  0.00     0.060 A 
ATOM     17  C   UNL A   1      33.111  20.046  24.774  1.00  0.00     0.001 A 
ATOM     18  C   UNL A   1      32.385  22.298  25.288  1.00  0.00     0.087 A 
ATOM     19  C   UNL A   1      32.086  20.971  24.944  1.00  0.00     0.034 A 
ATOM     20  Cl  UNL A   1      31.018  23.259  25.734  1.00  0.00    -0.080 Cl
BRANCH  15  21
ATOM     21  O   UNL A   1      36.042  22.148  25.471  1.00  0.00    -0.490 OA
BRANCH  21  22
ATOM     22  C   UNL A   1      36.981  21.928  24.411  1.00  0.00     0.226 C 
ATOM     23  C   UNL A   1      36.713  22.815  23.203  1.00  0.00     0.049 C 
ENDBRANCH  21  22
ENDBRANCH  15  21
BRANCH  17  24
ATOM     24  C   UNL A   1      32.773  18.635  24.509  1.00  0.00     0.162 C 
ATOM     25  N   UNL A   1      32.245  17.880  25.419  1.00  0.00    -0.097 NA
BRANCH  25  26
ATOM     26  O   UNL A   1      32.011  16.611  24.882  1.00  0.00    -0.411 OA
ATOM     27  H   UNL A   1      32.666  16.195  24.360  1.00  0.00     0.330 HD
ENDBRANCH  25  26
ENDBRANCH  17  24
ENDBRANCH  13  14
ENDBRANCH  12  13
ENDBRANCH   7  12
ENDBRANCH   3   6
ENDBRANCH   1   2
BRANCH   1  28
ATOM     28  C   UNL A   1      34.464  32.142  28.103  1.00  0.00     0.042 C 
BRANCH  28  29
ATOM     29  C   UNL A   1      35.825  31.977  28.774  1.00  0.00     0.118 C 
BRANCH  29  30
ATOM     30  N   UNL A   1      35.703  31.419  30.110  1.00  0.00    -0.352 N 
ATOM     31  C   UNL A   1      36.525  30.559  30.790  1.00  0.00     0.251 C 
ATOM     32  H   UNL A   1      34.901  31.705  30.606  1.00  0.00     0.163 HD
ATOM     33  O   UNL A   1      36.099  30.022  31.810  1.00  0.00    -0.269 OA
BRANCH  31  34
ATOM     34  C   UNL A   1      37.901  30.271  30.323  1.00  0.00     0.039 A 
ATOM     35  C   UNL A   1      38.108  30.075  28.954  1.00  0.00     0.014 A 
ATOM     36  C   UNL A   1      38.965  30.103  31.215  1.00  0.00     0.014 A 
ATOM     37  C   UNL A   1      39.374  29.726  28.481  1.00  0.00     0.010 A 
ATOM     38  C   UNL A   1      40.245  29.825  30.735  1.00  0.00     0.010 A 
ATOM     39  C   UNL A   1      40.458  29.606  29.367  1.00  0.00    -0.014 A 
BRANCH  39  40
ATOM     40  C   UNL A   1      41.799  29.209  28.869  1.00  0.00     0.031 A 
ATOM     41  C   UNL A   1      42.912  30.224  28.796  1.00  0.00     0.074 A 
ATOM     42  C   UNL A   1      42.011  27.942  28.466  1.00  0.00     0.049 A 
ATOM     43  N   UNL A   1      44.147  30.066  28.396  1.00  0.00    -0.248 NA
ATOM     44  C   UNL A   1      42.586  31.601  29.200  1.00  0.00     0.031 C 
ATOM     45  C   UNL A   1      40.998  26.884  28.435  1.00  0.00     0.029 A 
ATOM     46  N   UNL A   1      43.147  27.326  28.004  1.00  0.00    -0.354 N 
ATOM     47  C   UNL A   1      44.739  31.321  28.486  1.00  0.00     0.074 A 
ATOM     48  C   UNL A   1      43.716  32.240  28.932  1.00  0.00     0.031 C 
ATOM     49  C   UNL A   1      41.564  25.746  28.002  1.00  0.00     0.029 A 
ATOM     50  C   UNL A   1      42.970  25.997  27.704  1.00  0.00     0.049 A 
ATOM     51  H   UNL A   1      44.007  27.794  27.898  1.00  0.00     0.167 HD
ATOM     52  C   UNL A   1      46.026  31.671  28.244  1.00  0.00     0.037 A 
ATOM     53  C   UNL A   1      43.846  25.081  27.246  1.00  0.00     0.037 A 
ATOM     54  C   UNL A   1      47.051  30.744  27.839  1.00  0.00     0.049 A 
ATOM     55  C   UNL A   1      45.279  25.484  27.030  1.00  0.00     0.074 A 
ATOM     56  C   UNL A   1      48.398  30.984  27.635  1.00  0.00     0.029 A 
ATOM     57  N   UNL A   1      46.842  29.398  27.579  1.00  0.00    -0.354 N 
ATOM     58  N   UNL A   1      45.837  26.661  27.188  1.00  0.00    -0.248 NA
ATOM     59  C   UNL A   1      46.204  24.433  26.587  1.00  0.00     0.031 C 
ATOM     60  C   UNL A   1      48.998  29.789  27.219  1.00  0.00     0.029 A 
ATOM     61  C   UNL A   1      48.032  28.796  27.204  1.00  0.00     0.049 A 
ATOM     62  H   UNL A   1      45.975  28.937  27.652  1.00  0.00     0.167 HD
ATOM     63  C   UNL A   1      47.183  26.487  26.883  1.00  0.00     0.074 A 
ATOM     64  C   UNL A   1      47.357  25.087  26.552  1.00  0.00     0.031 C 
ATOM     65  C   UNL A   1      48.184  27.402  26.875  1.00  0.00     0.037 A 
BRANCH  52  66
ATOM     66  C   UNL A   1      46.402  33.117  28.424  1.00  0.00     0.058 A 
ATOM     67  C   UNL A   1      46.327  34.035  27.365  1.00  0.00     0.135 A 
ATOM     68  C   UNL A   1      46.806  33.599  29.680  1.00  0.00     0.135 A 
ATOM     69  F   UNL A   1      45.963  33.625  26.140  1.00  0.00    -0.206 F 
ATOM     70  C   UNL A   1      46.666  35.374  27.535  1.00  0.00     0.059 A 
ATOM     71  C   UNL A   1      47.124  34.940  29.879  1.00  0.00     0.059 A 
ATOM     72  F   UNL A   1      46.896  32.765  30.727  1.00  0.00    -0.206 F 
ATOM     73  C   UNL A   1      47.064  35.817  28.797  1.00  0.00     0.060 A 
BRANCH  73  74
ATOM     74  S   UNL A   1      47.489  37.559  29.006  1.00  0.00     0.124 S 
ATOM     75  O   UNL A   1      47.925  37.587  30.399  1.00  0.00    -0.237 OA
ATOM     76  O   UNL A   1      48.536  37.749  28.010  1.00  0.00    -0.237 OA
ATOM     77  O   UNL A   1      46.233  38.251  28.729  1.00  0.00    -0.744 OA
ENDBRANCH  73  74
ENDBRANCH  52  66
BRANCH  53  78
ATOM     78  C   UNL A   1      43.399  23.687  26.994  1.00  0.00     0.058 A 
ATOM     79  C   UNL A   1      43.210  22.785  28.052  1.00  0.00     0.135 A 
ATOM     80  C   UNL A   1      43.141  23.231  25.692  1.00  0.00     0.135 A 
ATOM     81  F   UNL A   1      43.447  23.174  29.314  1.00  0.00    -0.206 F 
ATOM     82  C   UNL A   1      42.803  21.474  27.828  1.00  0.00     0.059 A 
ATOM     83  C   UNL A   1      42.709  21.932  25.445  1.00  0.00     0.059 A 
ATOM     84  F   UNL A   1      43.288  24.061  24.647  1.00  0.00    -0.206 F 
ATOM     85  C   UNL A   1      42.554  21.057  26.519  1.00  0.00     0.060 A 
BRANCH  85  86
ATOM     86  S   UNL A   1      41.979  19.368  26.241  1.00  0.00     0.124 S 
ATOM     87  O   UNL A   1      42.429  18.701  27.457  1.00  0.00    -0.237 OA
ATOM     88  O   UNL A   1      40.537  19.551  26.107  1.00  0.00    -0.237 OA
ATOM     89  O   UNL A   1      42.668  18.979  25.013  1.00  0.00    -0.744 OA
ENDBRANCH  85  86
ENDBRANCH  53  78
BRANCH  65  90
ATOM     90  C   UNL A   1      49.557  26.908  26.515  1.00  0.00     0.058 A 
ATOM     91  C   UNL A   1      49.990  26.847  25.182  1.00  0.00     0.135 A 
ATOM     92  C   UNL A   1      50.454  26.505  27.517  1.00  0.00     0.135 A 
ATOM     93  F   UNL A   1      49.167  27.217  24.186  1.00  0.00    -0.206 F 
ATOM     94  C   UNL A   1      51.253  26.369  24.850  1.00  0.00     0.059 A 
ATOM     95  C   UNL A   1      51.732  26.049  27.210  1.00  0.00     0.059 A 
ATOM     96  F   UNL A   1      50.094  26.556  28.809  1.00  0.00    -0.206 F 
ATOM     97  C   UNL A   1      52.116  25.966  25.872  1.00  0.00     0.060 A 
BRANCH  97  98
ATOM     98  S   UNL A   1      53.753  25.347  25.432  1.00  0.00     0.124 S 
ATOM     99  O   UNL A   1      53.417  24.218  24.572  1.00  0.00    -0.237 OA
ATOM    100  O   UNL A   1      54.356  26.496  24.764  1.00  0.00    -0.237 OA
ATOM    101  O   UNL A   1      54.341  25.003  26.723  1.00  0.00    -0.744 OA
ENDBRANCH  97  98
ENDBRANCH  65  90
ENDBRANCH  39  40
ENDBRANCH  31  34
ENDBRANCH  29  30
ENDBRANCH  28  29
ENDBRANCH   1  28
TORSDOF 20
ENDMDL
MODEL 2
REMARK VINA RESULT:     -11.8      6.416     12.007
REMARK SMILES CCOc1cc(/C=N/O)cc(Cl)c1OCc1ccc(C(=O)NCCCNC(=O)c2ccc(-c3c4nc(c(-c5c(F)cc(S(=O)(=O)[O-])cc5F)c5ccc([nH]5)c(-c5c(F)cc(S(=O)(=O)[O-])cc5F)c5nc(c(-c6c(F)cc(S(=O)(=O)[O-])cc6F)c6ccc3[nH]6)C=C5)C=C4)cc2)cc1
REMARK SMILES IDX 23 1 22 2 20 3 21 4 19 6 16 7 17 8 96 9 18 10 95 11 15 12
REMARK SMILES IDX 14 13 13 14 4 15 5 16 6 17 11 18 10 19 12 20 3 21 2 22 1 23
REMARK SMILES IDX 7 24 8 25 9 26 24 28 25 29 26 30 27 31 28 33 29 34 30 35
REMARK SMILES IDX 94 36 31 37 93 38 32 39 33 40 34 41 87 42 35 43 92 44 86 45
REMARK SMILES IDX 88 46 36 47 91 48 85 49 84 50 37 52 71 53 50 54 70 55 51 56
REMARK SMILES IDX 54 57 69 58 89 59 52 60 53 61 68 63 90 64 55 65 38 66 39 67
REMARK SMILES IDX 48 68 40 69 41 70 47 71 49 72 42 73 43 74 44 75 45 76 46 77
REMARK SMILES IDX 72 78 73 79 82 80 74 81 75 82 81 83 83 84 76 85 77 86 78 87
REMARK SMILES IDX 79 88 80 89 56 90 57 91 66 92 58 93 59 94 65 95 67 96 60 97
REMARK SMILES IDX 61 98 62 99 63 100 64 101
REMARK H PARENT 22 5 9 27 26 32 88 51 54 62
REMARK Flexibility Score: inf
ROOT
ATOM      1  C   UNL A   1      38.109  22.341  25.964  1.00  0.00     0.118 C 
ENDROOT
BRANCH   1   2
ATOM      2  N   UNL A   1      37.822  22.560  24.559  1.00  0.00    -0.352 N 
ATOM      3  C   UNL A   1      36.698  23.035  23.936  1.00  0.00     0.251 C 
ATOM      4  O   UNL A   1      36.750  23.260  22.727  1.00  0.00    -0.269 OA
ATOM      5  H   UNL A   1      38.561  22.329  23.949  1.00  0.00     0.163 HD
BRANCH   3   6
ATOM      6  C   UNL A   1      35.440  23.326  24.671  1.00  0.00     0.039 A 
ATOM      7  C   UNL A   1      33.081  23.675  26.176  1.00  0.00    -0.011 A 
ATOM      8  C   UNL A   1      33.331  22.466  25.509  1.00  0.00     0.008 A 
ATOM      9  C   UNL A   1      33.999  24.721  26.040  1.00  0.00     0.008 A 
ATOM     10  C   UNL A   1      34.505  22.289  24.774  1.00  0.00     0.014 A 
ATOM     11  C   UNL A   1      35.184  24.535  25.323  1.00  0.00     0.014 A 
BRANCH   7  12
ATOM     12  C   UNL A   1      31.836  23.824  27.027  1.00  0.00     0.265 C 
BRANCH  12  13
ATOM     13  O   UNL A   1      30.683  24.396  26.398  1.00  0.00    -0.483 OA
BRANCH  13  14
ATOM     14  C   UNL A   1      30.794  25.288  25.361  1.00  0.00     0.180 A 
ATOM     15  C   UNL A   1      30.959  26.631  25.769  1.00  0.00     0.163 A 
ATOM     16  C   UNL A   1      31.080  27.654  24.828  1.00  0.00     0.060 A 
ATOM     17  C   UNL A   1      30.996  27.363  23.469  1.00  0.00     0.001 A 
ATOM     18  C   UNL A   1      30.793  25.005  23.985  1.00  0.00     0.087 A 
ATOM     19  C   UNL A   1      30.848  26.046  23.045  1.00  0.00     0.034 A 
ATOM     20  Cl  UNL A   1      30.885  23.414  23.313  1.00  0.00    -0.080 Cl
BRANCH  15  21
ATOM     21  O   UNL A   1      31.138  26.889  27.109  1.00  0.00    -0.490 OA
BRANCH  21  22
ATOM     22  C   UNL A   1      31.515  28.231  27.441  1.00  0.00     0.226 C 
ATOM     23  C   UNL A   1      33.025  28.411  27.513  1.00  0.00     0.049 C 
ENDBRANCH  21  22
ENDBRANCH  15  21
BRANCH  17  24
ATOM     24  C   UNL A   1      31.151  28.431  22.464  1.00  0.00     0.162 C 
ATOM     25  N   UNL A   1      30.158  29.185  22.115  1.00  0.00    -0.097 NA
BRANCH  25  26
ATOM     26  O   UNL A   1      30.600  30.119  21.173  1.00  0.00    -0.411 OA
ATOM     27  H   UNL A   1      31.517  30.241  21.030  1.00  0.00     0.330 HD
ENDBRANCH  25  26
ENDBRANCH  17  24
ENDBRANCH  13  14
ENDBRANCH  12  13
ENDBRANCH   7  12
ENDBRANCH   3   6
ENDBRANCH   1   2
BRANCH   1  28
ATOM     28  C   UNL A   1      38.558  23.627  26.653  1.00  0.00     0.042 C 
BRANCH  28  29
ATOM     29  C   UNL A   1      39.434  24.519  25.778  1.00  0.00     0.118 C 
BRANCH  29  30
ATOM     30  N   UNL A   1      40.843  24.188  25.912  1.00  0.00    -0.352 N 
ATOM     31  C   UNL A   1      41.829  24.790  26.649  1.00  0.00     0.251 C 
ATOM     32  H   UNL A   1      41.135  23.406  25.389  1.00  0.00     0.163 HD
ATOM     33  O   UNL A   1      42.999  24.497  26.416  1.00  0.00    -0.269 OA
BRANCH  31  34
ATOM     34  C   UNL A   1      41.511  25.774  27.710  1.00  0.00     0.039 A 
ATOM     35  C   UNL A   1      42.334  26.896  27.841  1.00  0.00     0.014 A 
ATOM     36  C   UNL A   1      40.476  25.564  28.627  1.00  0.00     0.014 A 
ATOM     37  C   UNL A   1      42.116  27.808  28.876  1.00  0.00     0.010 A 
ATOM     38  C   UNL A   1      40.214  26.510  29.618  1.00  0.00     0.010 A 
ATOM     39  C   UNL A   1      41.047  27.627  29.770  1.00  0.00    -0.014 A 
BRANCH  39  40
ATOM     40  C   UNL A   1      40.829  28.581  30.887  1.00  0.00     0.031 A 
ATOM     41  C   UNL A   1      41.671  28.492  32.135  1.00  0.00     0.074 A 
ATOM     42  C   UNL A   1      39.863  29.513  30.787  1.00  0.00     0.049 A 
ATOM     43  N   UNL A   1      41.634  29.237  33.210  1.00  0.00    -0.248 NA
ATOM     44  C   UNL A   1      42.668  27.410  32.191  1.00  0.00     0.031 C 
ATOM     45  C   UNL A   1      38.945  29.661  29.655  1.00  0.00     0.029 A 
ATOM     46  N   UNL A   1      39.489  30.513  31.650  1.00  0.00    -0.354 N 
ATOM     47  C   UNL A   1      42.586  28.706  34.074  1.00  0.00     0.074 A 
ATOM     48  C   UNL A   1      43.151  27.548  33.418  1.00  0.00     0.031 C 
ATOM     49  C   UNL A   1      38.131  30.706  29.883  1.00  0.00     0.029 A 
ATOM     50  C   UNL A   1      38.454  31.286  31.182  1.00  0.00     0.049 A 
ATOM     51  H   UNL A   1      39.923  30.661  32.522  1.00  0.00     0.167 HD
ATOM     52  C   UNL A   1      42.973  29.158  35.291  1.00  0.00     0.037 A 
ATOM     53  C   UNL A   1      37.837  32.348  31.737  1.00  0.00     0.037 A 
ATOM     54  C   UNL A   1      42.434  30.335  35.921  1.00  0.00     0.049 A 
ATOM     55  C   UNL A   1      38.316  32.858  33.068  1.00  0.00     0.074 A 
ATOM     56  C   UNL A   1      42.805  30.917  37.121  1.00  0.00     0.029 A 
ATOM     57  N   UNL A   1      41.411  31.114  35.401  1.00  0.00    -0.354 N 
ATOM     58  N   UNL A   1      39.268  32.386  33.838  1.00  0.00    -0.248 NA
ATOM     59  C   UNL A   1      37.650  34.055  33.599  1.00  0.00     0.031 C 
ATOM     60  C   UNL A   1      41.983  32.029  37.342  1.00  0.00     0.029 A 
ATOM     61  C   UNL A   1      41.128  32.163  36.260  1.00  0.00     0.049 A 
ATOM     62  H   UNL A   1      40.953  30.946  34.546  1.00  0.00     0.167 HD
ATOM     63  C   UNL A   1      39.326  33.238  34.935  1.00  0.00     0.074 A 
ATOM     64  C   UNL A   1      38.329  34.266  34.718  1.00  0.00     0.031 C 
ATOM     65  C   UNL A   1      40.129  33.175  36.027  1.00  0.00     0.037 A 
BRANCH  52  66
ATOM     66  C   UNL A   1      44.039  28.384  36.017  1.00  0.00     0.058 A 
ATOM     67  C   UNL A   1      45.401  28.688  35.866  1.00  0.00     0.135 A 
ATOM     68  C   UNL A   1      43.694  27.351  36.904  1.00  0.00     0.135 A 
ATOM     69  F   UNL A   1      45.789  29.654  35.019  1.00  0.00    -0.206 F 
ATOM     70  C   UNL A   1      46.386  27.977  36.545  1.00  0.00     0.059 A 
ATOM     71  C   UNL A   1      44.661  26.645  37.615  1.00  0.00     0.059 A 
ATOM     72  F   UNL A   1      42.406  27.019  37.087  1.00  0.00    -0.206 F 
ATOM     73  C   UNL A   1      46.005  26.957  37.418  1.00  0.00     0.060 A 
BRANCH  73  74
ATOM     74  S   UNL A   1      47.294  26.052  38.302  1.00  0.00     0.124 S 
ATOM     75  O   UNL A   1      48.209  27.130  38.664  1.00  0.00    -0.237 OA
ATOM     76  O   UNL A   1      46.555  25.451  39.407  1.00  0.00    -0.237 OA
ATOM     77  O   UNL A   1      47.795  25.112  37.304  1.00  0.00    -0.744 OA
ENDBRANCH  73  74
ENDBRANCH  52  66
BRANCH  53  78
ATOM     78  C   UNL A   1      36.724  33.019  31.017  1.00  0.00     0.058 A 
ATOM     79  C   UNL A   1      36.977  33.953  30.002  1.00  0.00     0.135 A 
ATOM     80  C   UNL A   1      35.385  32.733  31.325  1.00  0.00     0.135 A 
ATOM     81  F   UNL A   1      38.241  34.261  29.675  1.00  0.00    -0.206 F 
ATOM     82  C   UNL A   1      35.943  34.595  29.329  1.00  0.00     0.059 A 
ATOM     83  C   UNL A   1      34.333  33.345  30.649  1.00  0.00     0.059 A 
ATOM     84  F   UNL A   1      35.090  31.833  32.275  1.00  0.00    -0.206 F 
ATOM     85  C   UNL A   1      34.623  34.284  29.660  1.00  0.00     0.060 A 
BRANCH  85  86
ATOM     86  S   UNL A   1      33.286  35.087  28.750  1.00  0.00     0.124 S 
ATOM     87  O   UNL A   1      32.473  35.623  29.835  1.00  0.00    -0.237 OA
ATOM     88  O   UNL A   1      34.007  36.068  27.944  1.00  0.00    -0.237 OA
ATOM     89  O   UNL A   1      32.690  33.988  27.995  1.00  0.00    -0.744 OA
ENDBRANCH  85  86
ENDBRANCH  53  78
BRANCH  65  90
ATOM     90  C   UNL A   1      39.972  34.261  37.053  1.00  0.00     0.058 A 
ATOM     91  C   UNL A   1      40.633  35.493  36.928  1.00  0.00     0.135 A 
ATOM     92  C   UNL A   1      39.138  34.074  38.166  1.00  0.00     0.135 A 
ATOM     93  F   UNL A   1      41.446  35.720  35.883  1.00  0.00    -0.206 F 
ATOM     94  C   UNL A   1      40.502  36.488  37.889  1.00  0.00     0.059 A 
ATOM     95  C   UNL A   1      38.971  35.065  39.127  1.00  0.00     0.059 A 
ATOM     96  F   UNL A   1      38.472  32.919  38.327  1.00  0.00    -0.206 F 
ATOM     97  C   UNL A   1      39.673  36.263  38.991  1.00  0.00     0.060 A 
BRANCH  97  98
ATOM     98  S   UNL A   1      39.509  37.560  40.235  1.00  0.00     0.124 S 
ATOM     99  O   UNL A   1      40.906  37.861  40.528  1.00  0.00    -0.237 OA
ATOM    100  O   UNL A   1      38.775  38.596  39.516  1.00  0.00    -0.237 OA
ATOM    101  O   UNL A   1      38.767  36.906  41.308  1.00  0.00    -0.744 OA
ENDBRANCH  97  98
ENDBRANCH  65  90
ENDBRANCH  39  40
ENDBRANCH  31  34
ENDBRANCH  29  30
ENDBRANCH  28  29
ENDBRANCH   1  28
TORSDOF 20
ENDMDL
MODEL 3
REMARK VINA RESULT:     -11.8      6.443     12.219
REMARK SMILES CCOc1cc(/C=N/O)cc(Cl)c1OCc1ccc(C(=O)NCCCNC(=O)c2ccc(-c3c4nc(c(-c5c(F)cc(S(=O)(=O)[O-])cc5F)c5ccc([nH]5)c(-c5c(F)cc(S(=O)(=O)[O-])cc5F)c5nc(c(-c6c(F)cc(S(=O)(=O)[O-])cc6F)c6ccc3[nH]6)C=C5)C=C4)cc2)cc1
REMARK SMILES IDX 23 1 22 2 20 3 21 4 19 6 16 7 17 8 96 9 18 10 95 11 15 12
REMARK SMILES IDX 14 13 13 14 4 15 5 16 6 17 11 18 10 19 12 20 3 21 2 22 1 23
REMARK SMILES IDX 7 24 8 25 9 26 24 28 25 29 26 30 27 31 28 33 29 34 30 35
REMARK SMILES IDX 94 36 31 37 93 38 32 39 33 40 34 41 87 42 35 43 92 44 86 45
REMARK SMILES IDX 88 46 36 47 91 48 85 49 84 50 37 52 71 53 50 54 70 55 51 56
REMARK SMILES IDX 54 57 69 58 89 59 52 60 53 61 68 63 90 64 55 65 38 66 39 67
REMARK SMILES IDX 48 68 40 69 41 70 47 71 49 72 42 73 43 74 44 75 45 76 46 77
REMARK SMILES IDX 72 78 73 79 82 80 74 81 75 82 81 83 83 84 76 85 77 86 78 87
REMARK SMILES IDX 79 88 80 89 56 90 57 91 66 92 58 93 59 94 65 95 67 96 60 97
REMARK SMILES IDX 61 98 62 99 63 100 64 101
REMARK H PARENT 22 5 9 27 26 32 88 51 54 62
REMARK Flexibility Score: inf
ROOT
ATOM      1  C   UNL A   1      38.319  22.479  26.079  1.00  0.00     0.118 C 
ENDROOT
BRANCH   1   2
ATOM      2  N   UNL A   1      37.554  21.297  25.728  1.00  0.00    -0.352 N 
ATOM      3  C   UNL A   1      36.245  21.156  25.347  1.00  0.00     0.251 C 
ATOM      4  O   UNL A   1      35.863  20.051  24.966  1.00  0.00    -0.269 OA
ATOM      5  H   UNL A   1      38.061  20.454  25.771  1.00  0.00     0.163 HD
BRANCH   3   6
ATOM      6  C   UNL A   1      35.289  22.294  25.338  1.00  0.00     0.039 A 
ATOM      7  C   UNL A   1      33.567  24.520  25.522  1.00  0.00    -0.011 A 
ATOM      8  C   UNL A   1      33.746  23.661  26.618  1.00  0.00     0.008 A 
ATOM      9  C   UNL A   1      34.220  24.223  24.322  1.00  0.00     0.008 A 
ATOM     10  C   UNL A   1      34.608  22.566  26.530  1.00  0.00     0.014 A 
ATOM     11  C   UNL A   1      35.100  23.140  24.242  1.00  0.00     0.014 A 
BRANCH   7  12
ATOM     12  C   UNL A   1      32.684  25.742  25.658  1.00  0.00     0.265 C 
BRANCH  12  13
ATOM     13  O   UNL A   1      33.051  26.899  24.895  1.00  0.00    -0.483 OA
BRANCH  13  14
ATOM     14  C   UNL A   1      32.109  27.759  24.392  1.00  0.00     0.180 A 
ATOM     15  C   UNL A   1      31.628  27.405  23.110  1.00  0.00     0.163 A 
ATOM     16  C   UNL A   1      30.670  28.188  22.465  1.00  0.00     0.060 A 
ATOM     17  C   UNL A   1      30.207  29.357  23.064  1.00  0.00     0.001 A 
ATOM     18  C   UNL A   1      31.570  28.899  25.014  1.00  0.00     0.087 A 
ATOM     19  C   UNL A   1      30.657  29.717  24.331  1.00  0.00     0.034 A 
ATOM     20  Cl  UNL A   1      31.826  29.321  26.671  1.00  0.00    -0.080 Cl
BRANCH  15  21
ATOM     21  O   UNL A   1      32.020  26.199  22.578  1.00  0.00    -0.490 OA
BRANCH  21  22
ATOM     22  C   UNL A   1      32.994  26.267  21.529  1.00  0.00     0.226 C 
ATOM     23  C   UNL A   1      32.515  25.601  20.246  1.00  0.00     0.049 C 
ENDBRANCH  21  22
ENDBRANCH  15  21
BRANCH  17  24
ATOM     24  C   UNL A   1      29.174  30.177  22.405  1.00  0.00     0.162 C 
ATOM     25  N   UNL A   1      28.532  29.753  21.364  1.00  0.00    -0.097 NA
BRANCH  25  26
ATOM     26  O   UNL A   1      27.604  30.722  20.972  1.00  0.00    -0.411 OA
ATOM     27  H   UNL A   1      27.413  31.444  21.536  1.00  0.00     0.330 HD
ENDBRANCH  25  26
ENDBRANCH  17  24
ENDBRANCH  13  14
ENDBRANCH  12  13
ENDBRANCH   7  12
ENDBRANCH   3   6
ENDBRANCH   1   2
BRANCH   1  28
ATOM     28  C   UNL A   1      39.715  22.117  26.580  1.00  0.00     0.042 C 
BRANCH  28  29
ATOM     29  C   UNL A   1      40.476  23.294  27.183  1.00  0.00     0.118 C 
BRANCH  29  30
ATOM     30  N   UNL A   1      41.169  24.066  26.165  1.00  0.00    -0.352 N 
ATOM     31  C   UNL A   1      41.458  25.404  26.111  1.00  0.00     0.251 C 
ATOM     32  H   UNL A   1      41.483  23.543  25.392  1.00  0.00     0.163 HD
ATOM     33  O   UNL A   1      41.830  25.883  25.042  1.00  0.00    -0.269 OA
BRANCH  31  34
ATOM     34  C   UNL A   1      41.333  26.272  27.305  1.00  0.00     0.039 A 
ATOM     35  C   UNL A   1      40.274  26.037  28.187  1.00  0.00     0.014 A 
ATOM     36  C   UNL A   1      42.182  27.363  27.519  1.00  0.00     0.014 A 
ATOM     37  C   UNL A   1      40.075  26.879  29.282  1.00  0.00     0.010 A 
ATOM     38  C   UNL A   1      42.026  28.162  28.652  1.00  0.00     0.010 A 
ATOM     39  C   UNL A   1      40.955  27.946  29.530  1.00  0.00    -0.014 A 
BRANCH  39  40
ATOM     40  C   UNL A   1      40.729  28.859  30.679  1.00  0.00     0.031 A 
ATOM     41  C   UNL A   1      41.569  28.732  31.924  1.00  0.00     0.074 A 
ATOM     42  C   UNL A   1      39.758  29.788  30.609  1.00  0.00     0.049 A 
ATOM     43  N   UNL A   1      41.525  29.438  33.025  1.00  0.00    -0.248 NA
ATOM     44  C   UNL A   1      42.572  27.654  31.946  1.00  0.00     0.031 C 
ATOM     45  C   UNL A   1      38.841  29.970  29.481  1.00  0.00     0.029 A 
ATOM     46  N   UNL A   1      39.376  30.755  31.505  1.00  0.00    -0.354 N 
ATOM     47  C   UNL A   1      42.479  28.884  33.872  1.00  0.00     0.074 A 
ATOM     48  C   UNL A   1      43.052  27.752  33.177  1.00  0.00     0.031 C 
ATOM     49  C   UNL A   1      38.021  31.001  29.743  1.00  0.00     0.029 A 
ATOM     50  C   UNL A   1      38.337  31.538  31.062  1.00  0.00     0.049 A 
ATOM     51  H   UNL A   1      39.807  30.876  32.383  1.00  0.00     0.167 HD
ATOM     52  C   UNL A   1      42.860  29.295  35.105  1.00  0.00     0.037 A 
ATOM     53  C   UNL A   1      37.713  32.577  31.652  1.00  0.00     0.037 A 
ATOM     54  C   UNL A   1      42.313  30.447  35.775  1.00  0.00     0.049 A 
ATOM     55  C   UNL A   1      38.187  33.043  33.001  1.00  0.00     0.074 A 
ATOM     56  C   UNL A   1      42.679  30.989  36.995  1.00  0.00     0.029 A 
ATOM     57  N   UNL A   1      41.287  31.238  35.279  1.00  0.00    -0.354 N 
ATOM     58  N   UNL A   1      39.139  32.550  33.757  1.00  0.00    -0.248 NA
ATOM     59  C   UNL A   1      37.512  34.217  33.572  1.00  0.00     0.031 C 
ATOM     60  C   UNL A   1      41.850  32.088  37.252  1.00  0.00     0.029 A 
ATOM     61  C   UNL A   1      40.996  32.254  36.174  1.00  0.00     0.049 A 
ATOM     62  H   UNL A   1      40.832  31.096  34.417  1.00  0.00     0.167 HD
ATOM     63  C   UNL A   1      39.190  33.364  34.883  1.00  0.00     0.074 A 
ATOM     64  C   UNL A   1      38.187  34.393  34.699  1.00  0.00     0.031 C 
ATOM     65  C   UNL A   1      39.992  33.268  35.973  1.00  0.00     0.037 A 
BRANCH  52  66
ATOM     66  C   UNL A   1      43.930  28.503  35.806  1.00  0.00     0.058 A 
ATOM     67  C   UNL A   1      43.614  27.447  36.675  1.00  0.00     0.135 A 
ATOM     68  C   UNL A   1      45.289  28.778  35.578  1.00  0.00     0.135 A 
ATOM     69  F   UNL A   1      42.332  27.152  36.942  1.00  0.00    -0.206 F 
ATOM     70  C   UNL A   1      44.605  26.709  37.315  1.00  0.00     0.059 A 
ATOM     71  C   UNL A   1      46.296  28.035  36.187  1.00  0.00     0.059 A 
ATOM     72  F   UNL A   1      45.647  29.777  34.757  1.00  0.00    -0.206 F 
ATOM     73  C   UNL A   1      45.944  27.011  37.064  1.00  0.00     0.060 A 
BRANCH  73  74
ATOM     74  S   UNL A   1      47.218  26.036  37.893  1.00  0.00     0.124 S 
ATOM     75  O   UNL A   1      47.534  26.886  39.038  1.00  0.00    -0.237 OA
ATOM     76  O   UNL A   1      46.515  24.796  38.200  1.00  0.00    -0.237 OA
ATOM     77  O   UNL A   1      48.269  25.924  36.886  1.00  0.00    -0.744 OA
ENDBRANCH  73  74
ENDBRANCH  52  66
BRANCH  53  78
ATOM     78  C   UNL A   1      36.597  33.266  30.954  1.00  0.00     0.058 A 
ATOM     79  C   UNL A   1      35.271  33.113  31.382  1.00  0.00     0.135 A 
ATOM     80  C   UNL A   1      36.837  34.099  29.850  1.00  0.00     0.135 A 
ATOM     81  F   UNL A   1      34.992  32.324  32.431  1.00  0.00    -0.206 F 
ATOM     82  C   UNL A   1      34.217  33.744  30.729  1.00  0.00     0.059 A 
ATOM     83  C   UNL A   1      35.802  34.760  29.195  1.00  0.00     0.059 A 
ATOM     84  F   UNL A   1      38.091  34.294  29.413  1.00  0.00    -0.206 F 
ATOM     85  C   UNL A   1      34.494  34.567  29.636  1.00  0.00     0.060 A 
BRANCH  85  86
ATOM     86  S   UNL A   1      33.126  35.421  28.824  1.00  0.00     0.124 S 
ATOM     87  O   UNL A   1      33.833  36.426  28.038  1.00  0.00    -0.237 OA
ATOM     88  O   UNL A   1      32.495  34.344  28.067  1.00  0.00    -0.237 OA
ATOM     89  O   UNL A   1      32.339  35.931  29.943  1.00  0.00    -0.744 OA
ENDBRANCH  85  86
ENDBRANCH  53  78
BRANCH  65  90
ATOM     90  C   UNL A   1      39.826  34.317  37.036  1.00  0.00     0.058 A 
ATOM     91  C   UNL A   1      38.985  34.117  38.141  1.00  0.00     0.135 A 
ATOM     92  C   UNL A   1      40.529  35.529  36.957  1.00  0.00     0.135 A 
ATOM     93  F   UNL A   1      38.287  32.976  38.261  1.00  0.00    -0.206 F 
ATOM     94  C   UNL A   1      38.816  35.097  39.113  1.00  0.00     0.059 A 
ATOM     95  C   UNL A   1      40.397  36.513  37.930  1.00  0.00     0.059 A 
ATOM     96  F   UNL A   1      41.358  35.765  35.926  1.00  0.00    -0.206 F 
ATOM     97  C   UNL A   1      39.523  36.296  38.995  1.00  0.00     0.060 A 
BRANCH  97  98
ATOM     98  S   UNL A   1      39.299  37.564  40.260  1.00  0.00     0.124 S 
ATOM     99  O   UNL A   1      40.640  38.133  40.344  1.00  0.00    -0.237 OA
ATOM    100  O   UNL A   1      38.281  38.425  39.667  1.00  0.00    -0.237 OA
ATOM    101  O   UNL A   1      38.863  36.803  41.428  1.00  0.00    -0.744 OA
ENDBRANCH  97  98
ENDBRANCH  65  90
ENDBRANCH  39  40
ENDBRANCH  31  34
ENDBRANCH  29  30
ENDBRANCH  28  29
ENDBRANCH   1  28
TORSDOF 20
ENDMDL
