MODEL 1
REMARK VINA RESULT:     -11.4      0.000      0.000
REMARK SMILES Cc1nc2nc(CNC(=O)OC(C)(C)C)nn2c(C)c1CCC(=O)NCCCNC(=O)c1ccc(-c2c3nc(c(-c4c(F)cc(S(=O)(=O)[O-])cc4F)c4ccc([nH]4)c(-c4c(F)cc(S(=O)(=O)[O-])cc4F)c4nc(c(-c5c(F)cc(S(=O)(=O)[O-])cc5F)c5ccc2[nH]5)C=C4)C=C3)cc1
REMARK SMILES IDX 23 1 24 2 25 3 22 5 21 6 20 7 1 8 2 9 3 10 4 11 18 12 5 13
REMARK SMILES IDX 17 14 19 15 6 16 16 17 7 18 8 19 9 20 10 22 11 23 12 24
REMARK SMILES IDX 13 25 14 26 15 27 26 28 27 29 28 30 29 31 30 32 31 34 32 35
REMARK SMILES IDX 33 36 97 37 34 38 96 39 35 40 36 41 37 42 90 43 38 44 95 45
REMARK SMILES IDX 89 46 91 47 39 48 94 49 88 50 87 51 40 53 74 54 53 55 73 56
REMARK SMILES IDX 54 57 57 58 72 59 92 60 55 61 56 62 71 64 93 65 58 66 41 67
REMARK SMILES IDX 42 68 51 69 43 70 44 71 50 72 52 73 45 74 46 75 47 76 48 77
REMARK SMILES IDX 49 78 75 79 76 80 85 81 77 82 78 83 84 84 86 85 79 86 80 87
REMARK SMILES IDX 81 88 82 89 83 90 59 91 60 92 69 93 61 94 62 95 68 96 70 97
REMARK SMILES IDX 63 98 64 99 65 100 66 101 67 102
REMARK H PARENT 25 4 8 21 29 33 91 52 57 63
REMARK Flexibility Score: inf
ROOT
ATOM      1  C   UNL A   1      35.280  33.775  29.437  1.00  0.00     0.220 C 
ATOM      2  O   UNL A   1      36.476  33.892  29.143  1.00  0.00    -0.275 OA
ATOM      3  N   UNL A   1      34.658  34.833  30.046  1.00  0.00    -0.356 N 
ATOM      4  H   UNL A   1      35.295  35.530  30.322  1.00  0.00     0.163 HD
ENDROOT
BRANCH   1   5
ATOM      5  C   UNL A   1      34.589  32.449  29.158  1.00  0.00     0.105 C 
BRANCH   5   6
ATOM      6  C   UNL A   1      34.540  32.122  27.638  1.00  0.00     0.049 C 
BRANCH   6   7
ATOM      7  C   UNL A   1      33.704  30.891  27.423  1.00  0.00    -0.005 A 
ATOM      8  C   UNL A   1      35.718  29.419  28.247  1.00  0.00     0.067 C 
ATOM      9  C   UNL A   1      34.390  29.545  27.504  1.00  0.00     0.046 A 
ATOM     10  N   UNL A   1      33.882  28.469  26.983  1.00  0.00    -0.216 NA
ATOM     11  C   UNL A   1      32.845  28.682  26.110  1.00  0.00     0.252 A 
ATOM     12  C   UNL A   1      32.450  30.905  26.884  1.00  0.00     0.048 A 
ATOM     13  N   UNL A   1      32.650  28.056  24.984  1.00  0.00    -0.192 NA
ATOM     14  N   UNL A   1      32.098  29.839  26.032  1.00  0.00    -0.201 N 
ATOM     15  C   UNL A   1      31.484  32.037  26.948  1.00  0.00     0.067 C 
ATOM     16  C   UNL A   1      31.766  28.716  24.182  1.00  0.00     0.172 A 
ATOM     17  N   UNL A   1      31.326  29.824  24.839  1.00  0.00    -0.148 NA
BRANCH  16  18
ATOM     18  C   UNL A   1      31.283  28.122  22.717  1.00  0.00     0.199 C 
BRANCH  18  19
ATOM     19  N   UNL A   1      32.095  27.092  21.754  1.00  0.00    -0.314 N 
ATOM     20  C   UNL A   1      33.052  26.067  21.570  1.00  0.00     0.408 C 
ATOM     21  H   UNL A   1      31.749  27.273  20.851  1.00  0.00     0.167 HD
ATOM     22  O   UNL A   1      33.091  25.551  20.439  1.00  0.00    -0.225 OA
BRANCH  20  23
ATOM     23  O   UNL A   1      33.912  25.649  22.540  1.00  0.00    -0.444 OA
BRANCH  23  24
ATOM     24  C   UNL A   1      33.826  24.526  23.554  1.00  0.00     0.106 C 
ATOM     25  C   UNL A   1      32.393  24.305  24.049  1.00  0.00     0.056 C 
ATOM     26  C   UNL A   1      34.438  23.212  23.053  1.00  0.00     0.056 C 
ATOM     27  C   UNL A   1      34.652  24.897  24.834  1.00  0.00     0.056 C 
ENDBRANCH  23  24
ENDBRANCH  20  23
ENDBRANCH  18  19
ENDBRANCH  16  18
ENDBRANCH   6   7
ENDBRANCH   5   6
ENDBRANCH   1   5
BRANCH   3  28
ATOM     28  C   UNL A   1      33.239  35.195  30.399  1.00  0.00     0.117 C 
BRANCH  28  29
ATOM     29  C   UNL A   1      33.071  36.221  31.572  1.00  0.00     0.042 C 
BRANCH  29  30
ATOM     30  C   UNL A   1      34.053  36.356  32.837  1.00  0.00     0.118 C 
BRANCH  30  31
ATOM     31  N   UNL A   1      34.555  35.024  33.713  1.00  0.00    -0.352 N 
ATOM     32  C   UNL A   1      35.406  33.789  33.773  1.00  0.00     0.251 C 
ATOM     33  H   UNL A   1      34.081  35.070  34.575  1.00  0.00     0.163 HD
ATOM     34  O   UNL A   1      35.305  33.183  34.854  1.00  0.00    -0.269 OA
BRANCH  32  35
ATOM     35  C   UNL A   1      36.452  33.090  32.731  1.00  0.00     0.039 A 
ATOM     36  C   UNL A   1      36.315  31.827  32.158  1.00  0.00     0.014 A 
ATOM     37  C   UNL A   1      37.595  33.689  32.206  1.00  0.00     0.014 A 
ATOM     38  C   UNL A   1      37.389  31.004  31.780  1.00  0.00     0.010 A 
ATOM     39  C   UNL A   1      38.740  32.897  31.864  1.00  0.00     0.010 A 
ATOM     40  C   UNL A   1      38.678  31.501  31.820  1.00  0.00    -0.014 A 
BRANCH  40  41
ATOM     41  C   UNL A   1      39.756  30.597  31.355  1.00  0.00     0.031 A 
ATOM     42  C   UNL A   1      40.598  30.284  32.522  1.00  0.00     0.074 A 
ATOM     43  C   UNL A   1      40.097  30.012  30.178  1.00  0.00     0.049 A 
ATOM     44  N   UNL A   1      41.707  30.852  32.858  1.00  0.00    -0.248 NA
ATOM     45  C   UNL A   1      39.981  29.443  33.553  1.00  0.00     0.031 C 
ATOM     46  C   UNL A   1      39.330  29.907  28.936  1.00  0.00     0.029 A 
ATOM     47  N   UNL A   1      41.238  29.285  29.881  1.00  0.00    -0.354 N 
ATOM     48  C   UNL A   1      42.017  30.275  34.076  1.00  0.00     0.074 A 
ATOM     49  C   UNL A   1      40.810  29.662  34.570  1.00  0.00     0.031 C 
ATOM     50  C   UNL A   1      39.911  28.986  28.123  1.00  0.00     0.029 A 
ATOM     51  C   UNL A   1      41.164  28.527  28.711  1.00  0.00     0.049 A 
ATOM     52  H   UNL A   1      42.041  29.302  30.451  1.00  0.00     0.167 HD
ATOM     53  C   UNL A   1      43.299  30.018  34.431  1.00  0.00     0.037 A 
ATOM     54  C   UNL A   1      42.037  27.568  28.290  1.00  0.00     0.037 A 
ATOM     55  C   UNL A   1      44.253  30.682  33.589  1.00  0.00     0.049 A 
ATOM     56  C   UNL A   1      43.365  27.838  28.899  1.00  0.00     0.074 A 
ATOM     57  C   UNL A   1      44.731  31.963  33.425  1.00  0.00     0.029 A 
ATOM     58  N   UNL A   1      44.611  29.969  32.477  1.00  0.00    -0.354 N 
ATOM     59  N   UNL A   1      44.117  28.857  28.592  1.00  0.00    -0.248 NA
ATOM     60  C   UNL A   1      43.808  27.059  30.052  1.00  0.00     0.031 C 
ATOM     61  C   UNL A   1      45.281  32.027  32.109  1.00  0.00     0.029 A 
ATOM     62  C   UNL A   1      45.121  30.787  31.500  1.00  0.00     0.049 A 
ATOM     63  H   UNL A   1      44.515  28.994  32.390  1.00  0.00     0.167 HD
ATOM     64  C   UNL A   1      44.855  29.089  29.734  1.00  0.00     0.074 A 
ATOM     65  C   UNL A   1      44.767  27.866  30.512  1.00  0.00     0.031 C 
ATOM     66  C   UNL A   1      45.160  30.359  30.117  1.00  0.00     0.037 A 
BRANCH  53  67
ATOM     67  C   UNL A   1      43.651  28.798  35.232  1.00  0.00     0.058 A 
ATOM     68  C   UNL A   1      44.268  28.936  36.483  1.00  0.00     0.135 A 
ATOM     69  C   UNL A   1      43.606  27.485  34.702  1.00  0.00     0.135 A 
ATOM     70  F   UNL A   1      44.420  30.150  37.036  1.00  0.00    -0.206 F 
ATOM     71  C   UNL A   1      44.791  27.839  37.167  1.00  0.00     0.059 A 
ATOM     72  C   UNL A   1      44.044  26.373  35.398  1.00  0.00     0.059 A 
ATOM     73  F   UNL A   1      43.225  27.238  33.441  1.00  0.00    -0.206 F 
ATOM     74  C   UNL A   1      44.666  26.562  36.618  1.00  0.00     0.060 A 
BRANCH  74  75
ATOM     75  S   UNL A   1      45.378  25.149  37.471  1.00  0.00     0.124 S 
ATOM     76  O   UNL A   1      46.803  25.369  37.252  1.00  0.00    -0.237 OA
ATOM     77  O   UNL A   1      44.900  25.344  38.836  1.00  0.00    -0.237 OA
ATOM     78  O   UNL A   1      44.798  24.007  36.770  1.00  0.00    -0.744 OA
ENDBRANCH  74  75
ENDBRANCH  53  67
BRANCH  54  79
ATOM     79  C   UNL A   1      41.803  26.273  27.575  1.00  0.00     0.058 A 
ATOM     80  C   UNL A   1      42.667  25.844  26.539  1.00  0.00     0.135 A 
ATOM     81  C   UNL A   1      40.956  25.285  28.106  1.00  0.00     0.135 A 
ATOM     82  F   UNL A   1      43.510  26.710  25.955  1.00  0.00    -0.206 F 
ATOM     83  C   UNL A   1      42.761  24.506  26.138  1.00  0.00     0.059 A 
ATOM     84  C   UNL A   1      41.022  23.945  27.711  1.00  0.00     0.059 A 
ATOM     85  F   UNL A   1      40.106  25.570  29.102  1.00  0.00    -0.206 F 
ATOM     86  C   UNL A   1      41.957  23.555  26.758  1.00  0.00     0.060 A 
BRANCH  86  87
ATOM     87  S   UNL A   1      42.239  21.799  26.417  1.00  0.00     0.124 S 
ATOM     88  O   UNL A   1      41.135  21.482  25.517  1.00  0.00    -0.237 OA
ATOM     89  O   UNL A   1      43.568  21.812  25.814  1.00  0.00    -0.237 OA
ATOM     90  O   UNL A   1      42.165  21.182  27.738  1.00  0.00    -0.744 OA
ENDBRANCH  86  87
ENDBRANCH  54  79
BRANCH  66  91
ATOM     91  C   UNL A   1      45.374  31.382  29.041  1.00  0.00     0.058 A 
ATOM     92  C   UNL A   1      46.596  31.648  28.404  1.00  0.00     0.135 A 
ATOM     93  C   UNL A   1      44.247  32.097  28.600  1.00  0.00     0.135 A 
ATOM     94  F   UNL A   1      47.705  30.960  28.718  1.00  0.00    -0.206 F 
ATOM     95  C   UNL A   1      46.695  32.603  27.390  1.00  0.00     0.059 A 
ATOM     96  C   UNL A   1      44.316  33.027  27.570  1.00  0.00     0.059 A 
ATOM     97  F   UNL A   1      43.045  31.866  29.155  1.00  0.00    -0.206 F 
ATOM     98  C   UNL A   1      45.548  33.282  26.975  1.00  0.00     0.060 A 
BRANCH  98  99
ATOM     99  S   UNL A   1      45.663  34.449  25.601  1.00  0.00     0.124 S 
ATOM    100  O   UNL A   1      47.061  34.323  25.204  1.00  0.00    -0.237 OA
ATOM    101  O   UNL A   1      44.685  33.918  24.655  1.00  0.00    -0.237 OA
ATOM    102  O   UNL A   1      45.299  35.728  26.207  1.00  0.00    -0.744 OA
ENDBRANCH  98  99
ENDBRANCH  66  91
ENDBRANCH  40  41
ENDBRANCH  32  35
ENDBRANCH  30  31
ENDBRANCH  29  30
ENDBRANCH  28  29
ENDBRANCH   3  28
TORSDOF 19
ENDMDL
MODEL 2
REMARK VINA RESULT:     -11.1      1.925      2.859
REMARK SMILES Cc1nc2nc(CNC(=O)OC(C)(C)C)nn2c(C)c1CCC(=O)NCCCNC(=O)c1ccc(-c2c3nc(c(-c4c(F)cc(S(=O)(=O)[O-])cc4F)c4ccc([nH]4)c(-c4c(F)cc(S(=O)(=O)[O-])cc4F)c4nc(c(-c5c(F)cc(S(=O)(=O)[O-])cc5F)c5ccc2[nH]5)C=C4)C=C3)cc1
REMARK SMILES IDX 23 1 24 2 25 3 22 5 21 6 20 7 1 8 2 9 3 10 4 11 18 12 5 13
REMARK SMILES IDX 17 14 19 15 6 16 16 17 7 18 8 19 9 20 10 22 11 23 12 24
REMARK SMILES IDX 13 25 14 26 15 27 26 28 27 29 28 30 29 31 30 32 31 34 32 35
REMARK SMILES IDX 33 36 97 37 34 38 96 39 35 40 36 41 37 42 90 43 38 44 95 45
REMARK SMILES IDX 89 46 91 47 39 48 94 49 88 50 87 51 40 53 74 54 53 55 73 56
REMARK SMILES IDX 54 57 57 58 72 59 92 60 55 61 56 62 71 64 93 65 58 66 41 67
REMARK SMILES IDX 42 68 51 69 43 70 44 71 50 72 52 73 45 74 46 75 47 76 48 77
REMARK SMILES IDX 49 78 75 79 76 80 85 81 77 82 78 83 84 84 86 85 79 86 80 87
REMARK SMILES IDX 81 88 82 89 83 90 59 91 60 92 69 93 61 94 62 95 68 96 70 97
REMARK SMILES IDX 63 98 64 99 65 100 66 101 67 102
REMARK H PARENT 25 4 8 21 29 33 91 52 57 63
REMARK Flexibility Score: inf
ROOT
ATOM      1  C   UNL A   1      33.508  30.590  27.485  1.00  0.00     0.220 C 
ATOM      2  O   UNL A   1      34.430  29.779  27.634  1.00  0.00    -0.275 OA
ATOM      3  N   UNL A   1      33.694  31.871  27.936  1.00  0.00    -0.356 N 
ATOM      4  H   UNL A   1      34.511  31.959  28.478  1.00  0.00     0.163 HD
ENDROOT
BRANCH   1   5
ATOM      5  C   UNL A   1      32.207  30.105  26.864  1.00  0.00     0.105 C 
BRANCH   5   6
ATOM      6  C   UNL A   1      32.077  30.526  25.372  1.00  0.00     0.049 C 
BRANCH   6   7
ATOM      7  C   UNL A   1      31.798  29.307  24.536  1.00  0.00    -0.005 A 
ATOM      8  C   UNL A   1      29.501  30.364  23.822  1.00  0.00     0.067 C 
ATOM      9  C   UNL A   1      30.406  29.143  23.966  1.00  0.00     0.046 A 
ATOM     10  N   UNL A   1      29.946  27.997  23.564  1.00  0.00    -0.216 NA
ATOM     11  C   UNL A   1      30.682  26.908  23.958  1.00  0.00     0.252 A 
ATOM     12  C   UNL A   1      32.609  28.211  24.492  1.00  0.00     0.048 A 
ATOM     13  N   UNL A   1      30.203  25.768  24.372  1.00  0.00    -0.192 NA
ATOM     14  N   UNL A   1      31.989  26.948  24.398  1.00  0.00    -0.201 N 
ATOM     15  C   UNL A   1      34.079  28.201  24.733  1.00  0.00     0.067 C 
ATOM     16  C   UNL A   1      31.146  25.026  25.021  1.00  0.00     0.172 A 
ATOM     17  N   UNL A   1      32.326  25.706  24.998  1.00  0.00    -0.148 NA
BRANCH  16  18
ATOM     18  C   UNL A   1      30.837  23.510  25.601  1.00  0.00     0.199 C 
BRANCH  18  19
ATOM     19  N   UNL A   1      31.910  22.310  25.844  1.00  0.00    -0.314 N 
ATOM     20  C   UNL A   1      33.227  21.863  26.100  1.00  0.00     0.408 C 
ATOM     21  H   UNL A   1      31.376  21.485  25.783  1.00  0.00     0.167 HD
ATOM     22  O   UNL A   1      33.356  20.652  26.351  1.00  0.00    -0.225 OA
BRANCH  20  23
ATOM     23  O   UNL A   1      34.322  22.671  26.065  1.00  0.00    -0.444 OA
BRANCH  23  24
ATOM     24  C   UNL A   1      35.391  22.884  25.011  1.00  0.00     0.106 C 
ATOM     25  C   UNL A   1      34.796  23.312  23.665  1.00  0.00     0.056 C 
ATOM     26  C   UNL A   1      36.490  23.857  25.455  1.00  0.00     0.056 C 
ATOM     27  C   UNL A   1      36.134  21.534  24.724  1.00  0.00     0.056 C 
ENDBRANCH  23  24
ENDBRANCH  20  23
ENDBRANCH  18  19
ENDBRANCH  16  18
ENDBRANCH   6   7
ENDBRANCH   5   6
ENDBRANCH   1   5
BRANCH   3  28
ATOM     28  C   UNL A   1      32.959  33.179  27.808  1.00  0.00     0.117 C 
BRANCH  28  29
ATOM     29  C   UNL A   1      33.721  34.442  28.338  1.00  0.00     0.042 C 
BRANCH  29  30
ATOM     30  C   UNL A   1      33.098  35.571  29.297  1.00  0.00     0.118 C 
BRANCH  30  31
ATOM     31  N   UNL A   1      33.764  35.931  30.787  1.00  0.00    -0.352 N 
ATOM     32  C   UNL A   1      34.730  35.554  31.872  1.00  0.00     0.251 C 
ATOM     33  H   UNL A   1      33.329  36.762  31.086  1.00  0.00     0.163 HD
ATOM     34  O   UNL A   1      34.737  36.363  32.816  1.00  0.00    -0.269 OA
BRANCH  32  35
ATOM     35  C   UNL A   1      35.786  34.323  32.062  1.00  0.00     0.039 A 
ATOM     36  C   UNL A   1      37.175  34.436  32.111  1.00  0.00     0.014 A 
ATOM     37  C   UNL A   1      35.445  32.989  32.279  1.00  0.00     0.014 A 
ATOM     38  C   UNL A   1      38.069  33.438  31.688  1.00  0.00     0.010 A 
ATOM     39  C   UNL A   1      36.296  31.935  31.811  1.00  0.00     0.010 A 
ATOM     40  C   UNL A   1      37.587  32.191  31.337  1.00  0.00    -0.014 A 
BRANCH  40  41
ATOM     41  C   UNL A   1      38.591  31.171  30.954  1.00  0.00     0.031 A 
ATOM     42  C   UNL A   1      39.414  30.900  32.144  1.00  0.00     0.074 A 
ATOM     43  C   UNL A   1      38.880  30.461  29.833  1.00  0.00     0.049 A 
ATOM     44  N   UNL A   1      40.565  31.411  32.430  1.00  0.00    -0.248 NA
ATOM     45  C   UNL A   1      38.742  30.203  33.246  1.00  0.00     0.031 C 
ATOM     46  C   UNL A   1      38.100  30.306  28.605  1.00  0.00     0.029 A 
ATOM     47  N   UNL A   1      39.962  29.628  29.602  1.00  0.00    -0.354 N 
ATOM     48  C   UNL A   1      40.838  30.922  33.694  1.00  0.00     0.074 A 
ATOM     49  C   UNL A   1      39.592  30.447  34.239  1.00  0.00     0.031 C 
ATOM     50  C   UNL A   1      38.606  29.275  27.877  1.00  0.00     0.029 A 
ATOM     51  C   UNL A   1      39.824  28.777  28.504  1.00  0.00     0.049 A 
ATOM     52  H   UNL A   1      40.767  29.634  30.169  1.00  0.00     0.167 HD
ATOM     53  C   UNL A   1      42.099  30.602  34.071  1.00  0.00     0.037 A 
ATOM     54  C   UNL A   1      40.621  27.722  28.170  1.00  0.00     0.037 A 
ATOM     55  C   UNL A   1      43.095  31.116  33.174  1.00  0.00     0.049 A 
ATOM     56  C   UNL A   1      41.969  27.945  28.753  1.00  0.00     0.074 A 
ATOM     57  C   UNL A   1      43.667  32.338  32.899  1.00  0.00     0.029 A 
ATOM     58  N   UNL A   1      43.392  30.283  32.130  1.00  0.00    -0.354 N 
ATOM     59  N   UNL A   1      42.793  28.873  28.358  1.00  0.00    -0.248 NA
ATOM     60  C   UNL A   1      42.359  27.239  29.971  1.00  0.00     0.031 C 
ATOM     61  C   UNL A   1      44.212  32.245  31.582  1.00  0.00     0.029 A 
ATOM     62  C   UNL A   1      43.956  30.971  31.085  1.00  0.00     0.049 A 
ATOM     63  H   UNL A   1      43.223  29.313  32.129  1.00  0.00     0.167 HD
ATOM     64  C   UNL A   1      43.554  29.149  29.475  1.00  0.00     0.074 A 
ATOM     65  C   UNL A   1      43.378  28.009  30.359  1.00  0.00     0.031 C 
ATOM     66  C   UNL A   1      43.955  30.421  29.745  1.00  0.00     0.037 A 
BRANCH  53  67
ATOM     67  C   UNL A   1      42.364  29.434  34.977  1.00  0.00     0.058 A 
ATOM     68  C   UNL A   1      43.150  29.603  36.125  1.00  0.00     0.135 A 
ATOM     69  C   UNL A   1      42.055  28.097  34.626  1.00  0.00     0.135 A 
ATOM     70  F   UNL A   1      43.552  30.828  36.500  1.00  0.00    -0.206 F 
ATOM     71  C   UNL A   1      43.586  28.516  36.882  1.00  0.00     0.059 A 
ATOM     72  C   UNL A   1      42.406  27.010  35.405  1.00  0.00     0.059 A 
ATOM     73  F   UNL A   1      41.482  27.782  33.456  1.00  0.00    -0.206 F 
ATOM     74  C   UNL A   1      43.201  27.225  36.516  1.00  0.00     0.060 A 
BRANCH  74  75
ATOM     75  S   UNL A   1      43.796  25.814  37.458  1.00  0.00     0.124 S 
ATOM     76  O   UNL A   1      43.788  26.350  38.814  1.00  0.00    -0.237 OA
ATOM     77  O   UNL A   1      42.788  24.801  37.161  1.00  0.00    -0.237 OA
ATOM     78  O   UNL A   1      45.115  25.561  36.884  1.00  0.00    -0.744 OA
ENDBRANCH  74  75
ENDBRANCH  53  67
BRANCH  54  79
ATOM     79  C   UNL A   1      40.286  26.390  27.571  1.00  0.00     0.058 A 
ATOM     80  C   UNL A   1      40.945  25.926  26.408  1.00  0.00     0.135 A 
ATOM     81  C   UNL A   1      39.583  25.415  28.300  1.00  0.00     0.135 A 
ATOM     82  F   UNL A   1      41.637  26.777  25.634  1.00  0.00    -0.206 F 
ATOM     83  C   UNL A   1      40.995  24.572  26.056  1.00  0.00     0.059 A 
ATOM     84  C   UNL A   1      39.606  24.059  27.959  1.00  0.00     0.059 A 
ATOM     85  F   UNL A   1      38.934  25.734  29.428  1.00  0.00    -0.206 F 
ATOM     86  C   UNL A   1      40.349  23.639  26.861  1.00  0.00     0.060 A 
BRANCH  86  87
ATOM     87  S   UNL A   1      40.605  21.874  26.550  1.00  0.00     0.124 S 
ATOM     88  O   UNL A   1      39.444  21.537  25.733  1.00  0.00    -0.237 OA
ATOM     89  O   UNL A   1      41.891  21.865  25.862  1.00  0.00    -0.237 OA
ATOM     90  O   UNL A   1      40.615  21.292  27.890  1.00  0.00    -0.744 OA
ENDBRANCH  86  87
ENDBRANCH  54  79
BRANCH  66  91
ATOM     91  C   UNL A   1      44.238  31.327  28.584  1.00  0.00     0.058 A 
ATOM     92  C   UNL A   1      45.204  31.098  27.592  1.00  0.00     0.135 A 
ATOM     93  C   UNL A   1      43.435  32.472  28.450  1.00  0.00     0.135 A 
ATOM     94  F   UNL A   1      45.965  29.992  27.608  1.00  0.00    -0.206 F 
ATOM     95  C   UNL A   1      45.379  31.986  26.528  1.00  0.00     0.059 A 
ATOM     96  C   UNL A   1      43.569  33.350  27.382  1.00  0.00     0.059 A 
ATOM     97  F   UNL A   1      42.475  32.729  29.355  1.00  0.00    -0.206 F 
ATOM     98  C   UNL A   1      44.551  33.105  26.427  1.00  0.00     0.060 A 
BRANCH  98  99
ATOM     99  S   UNL A   1      44.719  34.200  25.001  1.00  0.00     0.124 S 
ATOM    100  O   UNL A   1      46.071  34.720  25.168  1.00  0.00    -0.237 OA
ATOM    101  O   UNL A   1      44.525  33.286  23.878  1.00  0.00    -0.237 OA
ATOM    102  O   UNL A   1      43.648  35.176  25.191  1.00  0.00    -0.744 OA
ENDBRANCH  98  99
ENDBRANCH  66  91
ENDBRANCH  40  41
ENDBRANCH  32  35
ENDBRANCH  30  31
ENDBRANCH  29  30
ENDBRANCH  28  29
ENDBRANCH   3  28
TORSDOF 19
ENDMDL
MODEL 3
REMARK VINA RESULT:     -10.8      2.647     10.091
REMARK SMILES Cc1nc2nc(CNC(=O)OC(C)(C)C)nn2c(C)c1CCC(=O)NCCCNC(=O)c1ccc(-c2c3nc(c(-c4c(F)cc(S(=O)(=O)[O-])cc4F)c4ccc([nH]4)c(-c4c(F)cc(S(=O)(=O)[O-])cc4F)c4nc(c(-c5c(F)cc(S(=O)(=O)[O-])cc5F)c5ccc2[nH]5)C=C4)C=C3)cc1
REMARK SMILES IDX 23 1 24 2 25 3 22 5 21 6 20 7 1 8 2 9 3 10 4 11 18 12 5 13
REMARK SMILES IDX 17 14 19 15 6 16 16 17 7 18 8 19 9 20 10 22 11 23 12 24
REMARK SMILES IDX 13 25 14 26 15 27 26 28 27 29 28 30 29 31 30 32 31 34 32 35
REMARK SMILES IDX 33 36 97 37 34 38 96 39 35 40 36 41 37 42 90 43 38 44 95 45
REMARK SMILES IDX 89 46 91 47 39 48 94 49 88 50 87 51 40 53 74 54 53 55 73 56
REMARK SMILES IDX 54 57 57 58 72 59 92 60 55 61 56 62 71 64 93 65 58 66 41 67
REMARK SMILES IDX 42 68 51 69 43 70 44 71 50 72 52 73 45 74 46 75 47 76 48 77
REMARK SMILES IDX 49 78 75 79 76 80 85 81 77 82 78 83 84 84 86 85 79 86 80 87
REMARK SMILES IDX 81 88 82 89 83 90 59 91 60 92 69 93 61 94 62 95 68 96 70 97
REMARK SMILES IDX 63 98 64 99 65 100 66 101 67 102
REMARK H PARENT 25 4 8 21 29 33 91 52 57 63
REMARK Flexibility Score: inf
ROOT
ATOM      1  C   UNL A   1      35.993  23.001  23.860  1.00  0.00     0.220 C 
ATOM      2  O   UNL A   1      36.004  23.323  22.666  1.00  0.00    -0.275 OA
ATOM      3  N   UNL A   1      36.931  22.101  24.297  1.00  0.00    -0.356 N 
ATOM      4  H   UNL A   1      37.426  21.690  23.552  1.00  0.00     0.163 HD
ENDROOT
BRANCH   1   5
ATOM      5  C   UNL A   1      34.908  23.577  24.759  1.00  0.00     0.105 C 
BRANCH   5   6
ATOM      6  C   UNL A   1      33.490  23.082  24.354  1.00  0.00     0.049 C 
BRANCH   6   7
ATOM      7  C   UNL A   1      32.519  24.225  24.457  1.00  0.00    -0.005 A 
ATOM      8  C   UNL A   1      32.851  24.694  21.893  1.00  0.00     0.067 C 
ATOM      9  C   UNL A   1      32.400  25.161  23.275  1.00  0.00     0.046 A 
ATOM     10  N   UNL A   1      31.901  26.356  23.377  1.00  0.00    -0.216 NA
ATOM     11  C   UNL A   1      31.764  26.819  24.662  1.00  0.00     0.252 A 
ATOM     12  C   UNL A   1      31.954  24.644  25.627  1.00  0.00     0.048 A 
ATOM     13  N   UNL A   1      32.021  28.028  25.073  1.00  0.00    -0.192 NA
ATOM     14  N   UNL A   1      31.761  26.030  25.794  1.00  0.00    -0.201 N 
ATOM     15  C   UNL A   1      31.705  23.799  26.828  1.00  0.00     0.067 C 
ATOM     16  C   UNL A   1      32.136  28.091  26.430  1.00  0.00     0.172 A 
ATOM     17  N   UNL A   1      31.903  26.852  26.944  1.00  0.00    -0.148 NA
BRANCH  16  18
ATOM     18  C   UNL A   1      32.400  29.511  27.234  1.00  0.00     0.199 C 
BRANCH  18  19
ATOM     19  N   UNL A   1      33.819  30.281  27.434  1.00  0.00    -0.314 N 
ATOM     20  C   UNL A   1      34.596  31.308  28.019  1.00  0.00     0.408 C 
ATOM     21  H   UNL A   1      34.451  29.787  26.864  1.00  0.00     0.167 HD
ATOM     22  O   UNL A   1      35.825  31.237  27.838  1.00  0.00    -0.225 OA
BRANCH  20  23
ATOM     23  O   UNL A   1      34.072  32.344  28.731  1.00  0.00    -0.444 OA
BRANCH  23  24
ATOM     24  C   UNL A   1      33.606  33.725  28.315  1.00  0.00     0.106 C 
ATOM     25  C   UNL A   1      32.490  33.666  27.267  1.00  0.00     0.056 C 
ATOM     26  C   UNL A   1      33.193  34.604  29.502  1.00  0.00     0.056 C 
ATOM     27  C   UNL A   1      34.781  34.500  27.625  1.00  0.00     0.056 C 
ENDBRANCH  23  24
ENDBRANCH  20  23
ENDBRANCH  18  19
ENDBRANCH  16  18
ENDBRANCH   6   7
ENDBRANCH   5   6
ENDBRANCH   1   5
BRANCH   3  28
ATOM     28  C   UNL A   1      37.394  21.586  25.634  1.00  0.00     0.117 C 
BRANCH  28  29
ATOM     29  C   UNL A   1      38.788  22.113  26.119  1.00  0.00     0.042 C 
BRANCH  29  30
ATOM     30  C   UNL A   1      40.153  21.263  26.127  1.00  0.00     0.118 C 
BRANCH  30  31
ATOM     31  N   UNL A   1      41.593  21.899  25.567  1.00  0.00    -0.352 N 
ATOM     32  C   UNL A   1      42.498  23.092  25.456  1.00  0.00     0.251 C 
ATOM     33  H   UNL A   1      42.054  21.163  25.104  1.00  0.00     0.163 HD
ATOM     34  O   UNL A   1      43.553  22.843  24.848  1.00  0.00    -0.269 OA
BRANCH  32  35
ATOM     35  C   UNL A   1      42.400  24.634  25.985  1.00  0.00     0.039 A 
ATOM     36  C   UNL A   1      43.326  25.280  26.803  1.00  0.00     0.014 A 
ATOM     37  C   UNL A   1      41.411  25.550  25.631  1.00  0.00     0.014 A 
ATOM     38  C   UNL A   1      43.007  26.305  27.708  1.00  0.00     0.010 A 
ATOM     39  C   UNL A   1      41.009  26.577  26.547  1.00  0.00     0.010 A 
ATOM     40  C   UNL A   1      41.735  26.845  27.712  1.00  0.00    -0.014 A 
BRANCH  40  41
ATOM     41  C   UNL A   1      41.486  27.961  28.654  1.00  0.00     0.031 A 
ATOM     42  C   UNL A   1      42.492  29.000  28.377  1.00  0.00     0.074 A 
ATOM     43  C   UNL A   1      40.580  28.228  29.630  1.00  0.00     0.049 A 
ATOM     44  N   UNL A   1      43.606  29.192  29.001  1.00  0.00    -0.248 NA
ATOM     45  C   UNL A   1      42.353  29.704  27.098  1.00  0.00     0.031 C 
ATOM     46  C   UNL A   1      39.328  27.541  29.949  1.00  0.00     0.029 A 
ATOM     47  N   UNL A   1      40.572  29.285  30.525  1.00  0.00    -0.354 N 
ATOM     48  C   UNL A   1      44.218  30.199  28.277  1.00  0.00     0.074 A 
ATOM     49  C   UNL A   1      43.558  30.259  26.997  1.00  0.00     0.031 C 
ATOM     50  C   UNL A   1      38.589  28.315  30.786  1.00  0.00     0.029 A 
ATOM     51  C   UNL A   1      39.356  29.491  31.180  1.00  0.00     0.049 A 
ATOM     52  H   UNL A   1      41.363  29.849  30.688  1.00  0.00     0.167 HD
ATOM     53  C   UNL A   1      44.966  31.152  28.884  1.00  0.00     0.037 A 
ATOM     54  C   UNL A   1      38.998  30.565  31.940  1.00  0.00     0.037 A 
ATOM     55  C   UNL A   1      45.301  30.816  30.239  1.00  0.00     0.049 A 
ATOM     56  C   UNL A   1      40.231  31.193  32.480  1.00  0.00     0.074 A 
ATOM     57  C   UNL A   1      46.171  29.963  30.879  1.00  0.00     0.029 A 
ATOM     58  N   UNL A   1      44.373  31.217  31.161  1.00  0.00    -0.354 N 
ATOM     59  N   UNL A   1      41.004  30.641  33.372  1.00  0.00    -0.248 NA
ATOM     60  C   UNL A   1      40.756  32.410  31.865  1.00  0.00     0.031 C 
ATOM     61  C   UNL A   1      45.653  29.763  32.194  1.00  0.00     0.029 A 
ATOM     62  C   UNL A   1      44.478  30.496  32.323  1.00  0.00     0.049 A 
ATOM     63  H   UNL A   1      43.714  31.933  31.009  1.00  0.00     0.167 HD
ATOM     64  C   UNL A   1      42.249  31.180  33.122  1.00  0.00     0.074 A 
ATOM     65  C   UNL A   1      42.007  32.374  32.332  1.00  0.00     0.031 C 
ATOM     66  C   UNL A   1      43.372  30.423  33.256  1.00  0.00     0.037 A 
BRANCH  53  67
ATOM     67  C   UNL A   1      44.970  32.569  28.386  1.00  0.00     0.058 A 
ATOM     68  C   UNL A   1      46.167  33.157  27.955  1.00  0.00     0.135 A 
ATOM     69  C   UNL A   1      43.865  33.444  28.534  1.00  0.00     0.135 A 
ATOM     70  F   UNL A   1      47.285  32.422  27.850  1.00  0.00    -0.206 F 
ATOM     71  C   UNL A   1      46.255  34.520  27.676  1.00  0.00     0.059 A 
ATOM     72  C   UNL A   1      43.908  34.781  28.185  1.00  0.00     0.059 A 
ATOM     73  F   UNL A   1      42.724  33.057  29.119  1.00  0.00    -0.206 F 
ATOM     74  C   UNL A   1      45.117  35.320  27.788  1.00  0.00     0.060 A 
BRANCH  74  75
ATOM     75  S   UNL A   1      45.233  37.086  27.475  1.00  0.00     0.124 S 
ATOM     76  O   UNL A   1      43.941  37.355  26.853  1.00  0.00    -0.237 OA
ATOM     77  O   UNL A   1      45.423  37.622  28.819  1.00  0.00    -0.237 OA
ATOM     78  O   UNL A   1      46.394  37.195  26.595  1.00  0.00    -0.744 OA
ENDBRANCH  74  75
ENDBRANCH  53  67
BRANCH  54  79
ATOM     79  C   UNL A   1      37.685  31.272  32.084  1.00  0.00     0.058 A 
ATOM     80  C   UNL A   1      37.038  31.361  33.340  1.00  0.00     0.135 A 
ATOM     81  C   UNL A   1      37.214  32.153  31.095  1.00  0.00     0.135 A 
ATOM     82  F   UNL A   1      37.404  30.558  34.352  1.00  0.00    -0.206 F 
ATOM     83  C   UNL A   1      36.070  32.332  33.625  1.00  0.00     0.059 A 
ATOM     84  C   UNL A   1      36.238  33.121  31.353  1.00  0.00     0.059 A 
ATOM     85  F   UNL A   1      37.761  32.169  29.872  1.00  0.00    -0.206 F 
ATOM     86  C   UNL A   1      35.702  33.233  32.631  1.00  0.00     0.060 A 
BRANCH  86  87
ATOM     87  S   UNL A   1      34.635  34.632  33.056  1.00  0.00     0.124 S 
ATOM     88  O   UNL A   1      33.303  34.083  32.820  1.00  0.00    -0.237 OA
ATOM     89  O   UNL A   1      34.985  34.874  34.451  1.00  0.00    -0.237 OA
ATOM     90  O   UNL A   1      35.055  35.674  32.123  1.00  0.00    -0.744 OA
ENDBRANCH  86  87
ENDBRANCH  54  79
BRANCH  66  91
ATOM     91  C   UNL A   1      43.376  29.358  34.312  1.00  0.00     0.058 A 
ATOM     92  C   UNL A   1      43.761  29.541  35.649  1.00  0.00     0.135 A 
ATOM     93  C   UNL A   1      42.907  28.085  33.944  1.00  0.00     0.135 A 
ATOM     94  F   UNL A   1      44.155  30.743  36.098  1.00  0.00    -0.206 F 
ATOM     95  C   UNL A   1      43.706  28.494  36.572  1.00  0.00     0.059 A 
ATOM     96  C   UNL A   1      42.811  27.039  34.853  1.00  0.00     0.059 A 
ATOM     97  F   UNL A   1      42.499  27.858  32.684  1.00  0.00    -0.206 F 
ATOM     98  C   UNL A   1      43.222  27.249  36.167  1.00  0.00     0.060 A 
BRANCH  98  99
ATOM     99  S   UNL A   1      43.065  25.925  37.384  1.00  0.00     0.124 S 
ATOM    100  O   UNL A   1      41.637  25.633  37.343  1.00  0.00    -0.237 OA
ATOM    101  O   UNL A   1      43.941  24.891  36.838  1.00  0.00    -0.237 OA
ATOM    102  O   UNL A   1      43.541  26.540  38.622  1.00  0.00    -0.744 OA
ENDBRANCH  98  99
ENDBRANCH  66  91
ENDBRANCH  40  41
ENDBRANCH  32  35
ENDBRANCH  30  31
ENDBRANCH  29  30
ENDBRANCH  28  29
ENDBRANCH   3  28
TORSDOF 19
ENDMDL
