MODEL 1
REMARK VINA RESULT:     -13.5      0.000      0.000
REMARK SMILES CC1=C([C@H](NC(=O)c2cccc3ccccc23)C(=O)NCCCNC(=O)c2ccc(-c3c4nc(c(-c5c(F)cc(S(=O)(=O)[O-])cc5F)c5ccc([nH]5)c(-c5c(F)cc(S(=O)(=O)[O-])cc5F)c5nc(c(-c6c(F)cc(S(=O)(=O)[O-])cc6F)c6ccc3[nH]6)C=C5)C=C4)cc2)[C@H](C)N=N1
REMARK SMILES IDX 22 1 21 2 20 3 18 4 19 5 4 7 3 8 1 9 2 10 96 11 93 12 95 13
REMARK SMILES IDX 94 14 5 15 6 16 7 18 8 19 9 20 17 21 10 22 12 23 16 24 11 25
REMARK SMILES IDX 13 26 15 27 14 28 23 29 24 30 25 31 26 33 27 34 28 35 92 36
REMARK SMILES IDX 29 37 91 38 30 39 31 40 32 41 85 42 33 43 90 44 84 45 86 46
REMARK SMILES IDX 34 47 89 48 83 49 82 50 35 52 69 53 48 54 68 55 49 56 52 57
REMARK SMILES IDX 67 58 87 59 50 60 51 61 66 63 88 64 53 65 36 66 37 67 46 68
REMARK SMILES IDX 38 69 39 70 45 71 47 72 40 73 41 74 42 75 43 76 44 77 70 78
REMARK SMILES IDX 71 79 80 80 72 81 73 82 79 83 81 84 74 85 75 86 76 87 77 88
REMARK SMILES IDX 78 89 54 90 55 91 64 92 56 93 57 94 63 95 65 96 58 97 59 98
REMARK SMILES IDX 60 99 61 100 62 101
REMARK H PARENT 20 6 5 17 24 32 86 51 52 62
REMARK Flexibility Score: inf
ROOT
ATOM      1  C   UNL A   1      36.579  23.626  26.253  1.00  0.00     0.042 C 
ENDROOT
BRANCH   1   2
ATOM      2  C   UNL A   1      36.186  22.182  25.996  1.00  0.00     0.117 C 
BRANCH   2   3
ATOM      3  N   UNL A   1      36.156  21.818  24.598  1.00  0.00    -0.354 N 
ATOM      4  C   UNL A   1      35.798  22.667  23.588  1.00  0.00     0.247 C 
ATOM      5  O   UNL A   1      36.629  22.851  22.691  1.00  0.00    -0.272 OA
ATOM      6  H   UNL A   1      36.411  20.898  24.357  1.00  0.00     0.163 HD
BRANCH   4   7
ATOM      7  C   UNL A   1      34.344  23.255  23.471  1.00  0.00     0.202 C 
BRANCH   7   8
ATOM      8  C   UNL A   1      33.243  22.318  23.924  1.00  0.00     0.011 C 
ATOM      9  C   UNL A   1      32.554  23.420  26.129  1.00  0.00     0.069 C 
ATOM     10  C   UNL A   1      32.572  22.356  25.090  1.00  0.00     0.064 C 
ATOM     11  N   UNL A   1      31.920  21.181  25.376  1.00  0.00    -0.160 NA
ATOM     12  C   UNL A   1      32.847  20.994  23.349  1.00  0.00     0.156 C 
ATOM     13  N   UNL A   1      32.159  20.327  24.486  1.00  0.00    -0.181 NA
ATOM     14  C   UNL A   1      31.778  21.078  22.251  1.00  0.00     0.040 C 
ENDBRANCH   7   8
BRANCH   7  15
ATOM     15  N   UNL A   1      33.933  24.339  22.561  1.00  0.00    -0.337 N 
ATOM     16  C   UNL A   1      33.089  25.395  22.380  1.00  0.00     0.252 C 
ATOM     17  H   UNL A   1      34.495  24.272  21.755  1.00  0.00     0.165 HD
ATOM     18  O   UNL A   1      33.258  25.981  21.308  1.00  0.00    -0.269 OA
BRANCH  16  19
ATOM     19  C   UNL A   1      32.039  25.897  23.317  1.00  0.00     0.047 A 
ATOM     20  C   UNL A   1      30.697  25.750  22.980  1.00  0.00     0.014 A 
ATOM     21  C   UNL A   1      32.362  26.554  24.550  1.00  0.00    -0.006 A 
ATOM     22  C   UNL A   1      29.664  26.043  23.859  1.00  0.00     0.001 A 
ATOM     23  C   UNL A   1      31.295  26.885  25.432  1.00  0.00    -0.018 A 
ATOM     24  C   UNL A   1      33.652  27.019  24.928  1.00  0.00     0.009 A 
ATOM     25  C   UNL A   1      29.971  26.565  25.102  1.00  0.00     0.009 A 
ATOM     26  C   UNL A   1      31.525  27.653  26.585  1.00  0.00     0.009 A 
ATOM     27  C   UNL A   1      33.860  27.809  26.064  1.00  0.00     0.001 A 
ATOM     28  C   UNL A   1      32.794  28.135  26.886  1.00  0.00     0.001 A 
ENDBRANCH  16  19
ENDBRANCH   7  15
ENDBRANCH   4   7
ENDBRANCH   2   3
ENDBRANCH   1   2
BRANCH   1  29
ATOM     29  C   UNL A   1      38.091  23.831  26.152  1.00  0.00     0.118 C 
BRANCH  29  30
ATOM     30  N   UNL A   1      38.956  22.875  26.876  1.00  0.00    -0.352 N 
ATOM     31  C   UNL A   1      40.312  22.980  27.199  1.00  0.00     0.251 C 
ATOM     32  H   UNL A   1      38.514  22.047  27.172  1.00  0.00     0.163 HD
ATOM     33  O   UNL A   1      40.984  22.039  27.615  1.00  0.00    -0.269 OA
BRANCH  31  34
ATOM     34  C   UNL A   1      40.910  24.310  27.110  1.00  0.00     0.039 A 
ATOM     35  C   UNL A   1      40.437  25.331  26.279  1.00  0.00     0.014 A 
ATOM     36  C   UNL A   1      41.734  24.566  28.177  1.00  0.00     0.014 A 
ATOM     37  C   UNL A   1      40.660  26.654  26.672  1.00  0.00     0.010 A 
ATOM     38  C   UNL A   1      41.588  25.805  28.713  1.00  0.00     0.010 A 
ATOM     39  C   UNL A   1      41.179  26.890  27.951  1.00  0.00    -0.014 A 
BRANCH  39  40
ATOM     40  C   UNL A   1      41.234  28.197  28.611  1.00  0.00     0.031 A 
ATOM     41  C   UNL A   1      42.329  29.124  28.215  1.00  0.00     0.074 A 
ATOM     42  C   UNL A   1      40.210  28.664  29.369  1.00  0.00     0.049 A 
ATOM     43  N   UNL A   1      43.355  29.463  28.923  1.00  0.00    -0.248 NA
ATOM     44  C   UNL A   1      42.342  29.682  26.855  1.00  0.00     0.031 C 
ATOM     45  C   UNL A   1      38.912  28.031  29.682  1.00  0.00     0.029 A 
ATOM     46  N   UNL A   1      40.060  29.894  29.930  1.00  0.00    -0.354 N 
ATOM     47  C   UNL A   1      44.009  30.466  28.209  1.00  0.00     0.074 A 
ATOM     48  C   UNL A   1      43.463  30.411  26.878  1.00  0.00     0.031 C 
ATOM     49  C   UNL A   1      38.029  28.956  30.097  1.00  0.00     0.029 A 
ATOM     50  C   UNL A   1      38.770  30.167  30.362  1.00  0.00     0.049 A 
ATOM     51  H   UNL A   1      40.803  30.534  30.022  1.00  0.00     0.167 HD
ATOM     52  C   UNL A   1      44.763  31.408  28.847  1.00  0.00     0.037 A 
ATOM     53  C   UNL A   1      38.321  31.270  30.996  1.00  0.00     0.037 A 
ATOM     54  C   UNL A   1      45.006  31.028  30.221  1.00  0.00     0.049 A 
ATOM     55  C   UNL A   1      39.504  31.875  31.648  1.00  0.00     0.074 A 
ATOM     56  C   UNL A   1      45.584  29.941  30.847  1.00  0.00     0.029 A 
ATOM     57  N   UNL A   1      44.269  31.663  31.193  1.00  0.00    -0.354 N 
ATOM     58  N   UNL A   1      40.173  31.300  32.611  1.00  0.00    -0.248 NA
ATOM     59  C   UNL A   1      40.210  32.932  30.945  1.00  0.00     0.031 C 
ATOM     60  C   UNL A   1      44.779  29.708  32.004  1.00  0.00     0.029 A 
ATOM     61  C   UNL A   1      43.803  30.706  32.059  1.00  0.00     0.049 A 
ATOM     62  H   UNL A   1      44.104  32.632  31.256  1.00  0.00     0.167 HD
ATOM     63  C   UNL A   1      41.500  31.608  32.353  1.00  0.00     0.074 A 
ATOM     64  C   UNL A   1      41.446  32.717  31.403  1.00  0.00     0.031 C 
ATOM     65  C   UNL A   1      42.511  30.760  32.716  1.00  0.00     0.037 A 
BRANCH  52  66
ATOM     66  C   UNL A   1      44.987  32.832  28.371  1.00  0.00     0.058 A 
ATOM     67  C   UNL A   1      46.308  33.293  28.165  1.00  0.00     0.135 A 
ATOM     68  C   UNL A   1      43.996  33.839  28.370  1.00  0.00     0.135 A 
ATOM     69  F   UNL A   1      47.338  32.431  28.143  1.00  0.00    -0.206 F 
ATOM     70  C   UNL A   1      46.627  34.648  28.057  1.00  0.00     0.059 A 
ATOM     71  C   UNL A   1      44.286  35.191  28.207  1.00  0.00     0.059 A 
ATOM     72  F   UNL A   1      42.709  33.577  28.626  1.00  0.00    -0.206 F 
ATOM     73  C   UNL A   1      45.607  35.591  28.101  1.00  0.00     0.060 A 
BRANCH  73  74
ATOM     74  S   UNL A   1      46.019  37.346  28.090  1.00  0.00     0.124 S 
ATOM     75  O   UNL A   1      47.427  37.307  27.711  1.00  0.00    -0.237 OA
ATOM     76  O   UNL A   1      45.099  37.871  27.085  1.00  0.00    -0.237 OA
ATOM     77  O   UNL A   1      45.742  37.762  29.462  1.00  0.00    -0.744 OA
ENDBRANCH  73  74
ENDBRANCH  52  66
BRANCH  53  78
ATOM     78  C   UNL A   1      37.001  31.923  30.873  1.00  0.00     0.058 A 
ATOM     79  C   UNL A   1      36.058  31.815  31.906  1.00  0.00     0.135 A 
ATOM     80  C   UNL A   1      36.749  32.899  29.887  1.00  0.00     0.135 A 
ATOM     81  F   UNL A   1      36.220  30.904  32.876  1.00  0.00    -0.206 F 
ATOM     82  C   UNL A   1      34.978  32.691  32.012  1.00  0.00     0.059 A 
ATOM     83  C   UNL A   1      35.670  33.776  29.965  1.00  0.00     0.059 A 
ATOM     84  F   UNL A   1      37.602  33.095  28.867  1.00  0.00    -0.206 F 
ATOM     85  C   UNL A   1      34.813  33.692  31.056  1.00  0.00     0.060 A 
BRANCH  85  86
ATOM     86  S   UNL A   1      33.573  34.976  31.335  1.00  0.00     0.124 S 
ATOM     87  O   UNL A   1      32.828  34.952  30.082  1.00  0.00    -0.237 OA
ATOM     88  O   UNL A   1      32.868  34.469  32.508  1.00  0.00    -0.237 OA
ATOM     89  O   UNL A   1      34.374  36.175  31.565  1.00  0.00    -0.744 OA
ENDBRANCH  85  86
ENDBRANCH  53  78
BRANCH  65  90
ATOM     90  C   UNL A   1      42.202  29.658  33.704  1.00  0.00     0.058 A 
ATOM     91  C   UNL A   1      41.834  28.346  33.357  1.00  0.00     0.135 A 
ATOM     92  C   UNL A   1      42.426  29.909  35.067  1.00  0.00     0.135 A 
ATOM     93  F   UNL A   1      41.694  27.984  32.077  1.00  0.00    -0.206 F 
ATOM     94  C   UNL A   1      41.658  27.345  34.315  1.00  0.00     0.059 A 
ATOM     95  C   UNL A   1      42.286  28.919  36.039  1.00  0.00     0.059 A 
ATOM     96  F   UNL A   1      42.838  31.124  35.467  1.00  0.00    -0.206 F 
ATOM     97  C   UNL A   1      41.887  27.641  35.657  1.00  0.00     0.060 A 
BRANCH  97  98
ATOM     98  S   UNL A   1      41.728  26.328  36.888  1.00  0.00     0.124 S 
ATOM     99  O   UNL A   1      42.875  26.577  37.753  1.00  0.00    -0.237 OA
ATOM    100  O   UNL A   1      40.420  26.601  37.477  1.00  0.00    -0.237 OA
ATOM    101  O   UNL A   1      41.800  25.105  36.092  1.00  0.00    -0.744 OA
ENDBRANCH  97  98
ENDBRANCH  65  90
ENDBRANCH  39  40
ENDBRANCH  31  34
ENDBRANCH  29  30
ENDBRANCH   1  29
TORSDOF 16
ENDMDL
MODEL 2
REMARK VINA RESULT:     -13.4      1.295      1.693
REMARK SMILES CC1=C([C@H](NC(=O)c2cccc3ccccc23)C(=O)NCCCNC(=O)c2ccc(-c3c4nc(c(-c5c(F)cc(S(=O)(=O)[O-])cc5F)c5ccc([nH]5)c(-c5c(F)cc(S(=O)(=O)[O-])cc5F)c5nc(c(-c6c(F)cc(S(=O)(=O)[O-])cc6F)c6ccc3[nH]6)C=C5)C=C4)cc2)[C@H](C)N=N1
REMARK SMILES IDX 22 1 21 2 20 3 18 4 19 5 4 7 3 8 1 9 2 10 96 11 93 12 95 13
REMARK SMILES IDX 94 14 5 15 6 16 7 18 8 19 9 20 17 21 10 22 12 23 16 24 11 25
REMARK SMILES IDX 13 26 15 27 14 28 23 29 24 30 25 31 26 33 27 34 28 35 92 36
REMARK SMILES IDX 29 37 91 38 30 39 31 40 32 41 85 42 33 43 90 44 84 45 86 46
REMARK SMILES IDX 34 47 89 48 83 49 82 50 35 52 69 53 48 54 68 55 49 56 52 57
REMARK SMILES IDX 67 58 87 59 50 60 51 61 66 63 88 64 53 65 36 66 37 67 46 68
REMARK SMILES IDX 38 69 39 70 45 71 47 72 40 73 41 74 42 75 43 76 44 77 70 78
REMARK SMILES IDX 71 79 80 80 72 81 73 82 79 83 81 84 74 85 75 86 76 87 77 88
REMARK SMILES IDX 78 89 54 90 55 91 64 92 56 93 57 94 63 95 65 96 58 97 59 98
REMARK SMILES IDX 60 99 61 100 62 101
REMARK H PARENT 20 6 5 17 24 32 86 51 52 62
REMARK Flexibility Score: inf
ROOT
ATOM      1  C   UNL A   1      37.138  21.834  25.621  1.00  0.00     0.042 C 
ENDROOT
BRANCH   1   2
ATOM      2  C   UNL A   1      36.284  22.970  26.156  1.00  0.00     0.117 C 
BRANCH   2   3
ATOM      3  N   UNL A   1      35.679  23.788  25.129  1.00  0.00    -0.354 N 
ATOM      4  C   UNL A   1      34.451  24.377  25.236  1.00  0.00     0.247 C 
ATOM      5  O   UNL A   1      34.406  25.605  25.108  1.00  0.00    -0.272 OA
ATOM      6  H   UNL A   1      36.186  23.929  24.297  1.00  0.00     0.163 HD
BRANCH   4   7
ATOM      7  C   UNL A   1      33.129  23.532  25.348  1.00  0.00     0.202 C 
BRANCH   7   8
ATOM      8  C   UNL A   1      32.987  22.436  24.310  1.00  0.00     0.011 C 
ATOM      9  C   UNL A   1      32.848  23.825  22.164  1.00  0.00     0.069 C 
ATOM     10  C   UNL A   1      32.775  22.590  22.990  1.00  0.00     0.064 C 
ATOM     11  N   UNL A   1      32.315  21.447  22.382  1.00  0.00    -0.160 NA
ATOM     12  C   UNL A   1      32.755  20.973  24.523  1.00  0.00     0.156 C 
ATOM     13  N   UNL A   1      32.153  20.539  23.234  1.00  0.00    -0.181 NA
ATOM     14  C   UNL A   1      34.040  20.143  24.644  1.00  0.00     0.040 C 
ENDBRANCH   7   8
BRANCH   7  15
ATOM     15  N   UNL A   1      31.878  23.984  25.981  1.00  0.00    -0.337 N 
ATOM     16  C   UNL A   1      30.933  24.967  26.028  1.00  0.00     0.252 C 
ATOM     17  H   UNL A   1      31.619  23.299  26.639  1.00  0.00     0.165 HD
ATOM     18  O   UNL A   1      30.027  24.740  26.834  1.00  0.00    -0.269 OA
BRANCH  16  19
ATOM     19  C   UNL A   1      30.884  26.226  25.225  1.00  0.00     0.047 A 
ATOM     20  C   UNL A   1      30.386  26.188  23.925  1.00  0.00     0.014 A 
ATOM     21  C   UNL A   1      31.361  27.479  25.733  1.00  0.00    -0.006 A 
ATOM     22  C   UNL A   1      30.160  27.332  23.173  1.00  0.00     0.001 A 
ATOM     23  C   UNL A   1      31.160  28.644  24.940  1.00  0.00    -0.018 A 
ATOM     24  C   UNL A   1      32.130  27.654  26.916  1.00  0.00     0.009 A 
ATOM     25  C   UNL A   1      30.505  28.561  23.704  1.00  0.00     0.009 A 
ATOM     26  C   UNL A   1      31.725  29.874  25.311  1.00  0.00     0.009 A 
ATOM     27  C   UNL A   1      32.712  28.880  27.257  1.00  0.00     0.001 A 
ATOM     28  C   UNL A   1      32.517  29.988  26.447  1.00  0.00     0.001 A 
ENDBRANCH  16  19
ENDBRANCH   7  15
ENDBRANCH   4   7
ENDBRANCH   2   3
ENDBRANCH   1   2
BRANCH   1  29
ATOM     29  C   UNL A   1      38.626  22.189  25.625  1.00  0.00     0.118 C 
BRANCH  29  30
ATOM     30  N   UNL A   1      39.408  21.825  26.826  1.00  0.00    -0.352 N 
ATOM     31  C   UNL A   1      40.347  22.582  27.533  1.00  0.00     0.251 C 
ATOM     32  H   UNL A   1      39.244  20.920  27.178  1.00  0.00     0.163 HD
ATOM     33  O   UNL A   1      41.092  22.109  28.388  1.00  0.00    -0.269 OA
BRANCH  31  34
ATOM     34  C   UNL A   1      40.358  24.021  27.280  1.00  0.00     0.039 A 
ATOM     35  C   UNL A   1      39.210  24.817  27.215  1.00  0.00     0.014 A 
ATOM     36  C   UNL A   1      41.604  24.559  27.481  1.00  0.00     0.014 A 
ATOM     37  C   UNL A   1      39.327  26.167  27.558  1.00  0.00     0.010 A 
ATOM     38  C   UNL A   1      41.603  25.730  28.168  1.00  0.00     0.010 A 
ATOM     39  C   UNL A   1      40.531  26.610  28.117  1.00  0.00    -0.014 A 
BRANCH  39  40
ATOM     40  C   UNL A   1      40.736  27.911  28.759  1.00  0.00     0.031 A 
ATOM     41  C   UNL A   1      41.857  28.756  28.264  1.00  0.00     0.074 A 
ATOM     42  C   UNL A   1      39.816  28.453  29.597  1.00  0.00     0.049 A 
ATOM     43  N   UNL A   1      42.961  29.022  28.880  1.00  0.00    -0.248 NA
ATOM     44  C   UNL A   1      41.795  29.309  26.904  1.00  0.00     0.031 C 
ATOM     45  C   UNL A   1      38.508  27.915  30.025  1.00  0.00     0.029 A 
ATOM     46  N   UNL A   1      39.803  29.691  30.159  1.00  0.00    -0.354 N 
ATOM     47  C   UNL A   1      43.622  29.973  28.106  1.00  0.00     0.074 A 
ATOM     48  C   UNL A   1      42.962  29.955  26.826  1.00  0.00     0.031 C 
ATOM     49  C   UNL A   1      37.731  28.903  30.505  1.00  0.00     0.029 A 
ATOM     50  C   UNL A   1      38.577  30.057  30.696  1.00  0.00     0.049 A 
ATOM     51  H   UNL A   1      40.595  30.276  30.183  1.00  0.00     0.167 HD
ATOM     52  C   UNL A   1      44.493  30.860  28.669  1.00  0.00     0.037 A 
ATOM     53  C   UNL A   1      38.264  31.191  31.357  1.00  0.00     0.037 A 
ATOM     54  C   UNL A   1      44.824  30.467  30.021  1.00  0.00     0.049 A 
ATOM     55  C   UNL A   1      39.538  31.711  31.902  1.00  0.00     0.074 A 
ATOM     56  C   UNL A   1      45.374  29.342  30.605  1.00  0.00     0.029 A 
ATOM     57  N   UNL A   1      44.220  31.155  31.047  1.00  0.00    -0.354 N 
ATOM     58  N   UNL A   1      40.244  31.091  32.809  1.00  0.00    -0.248 NA
ATOM     59  C   UNL A   1      40.255  32.712  31.133  1.00  0.00     0.031 C 
ATOM     60  C   UNL A   1      44.656  29.170  31.828  1.00  0.00     0.029 A 
ATOM     61  C   UNL A   1      43.761  30.235  31.957  1.00  0.00     0.049 A 
ATOM     62  H   UNL A   1      44.130  32.133  31.116  1.00  0.00     0.167 HD
ATOM     63  C   UNL A   1      41.563  31.302  32.437  1.00  0.00     0.074 A 
ATOM     64  C   UNL A   1      41.507  32.410  31.487  1.00  0.00     0.031 C 
ATOM     65  C   UNL A   1      42.537  30.384  32.720  1.00  0.00     0.037 A 
BRANCH  52  66
ATOM     66  C   UNL A   1      44.778  32.264  28.165  1.00  0.00     0.058 A 
ATOM     67  C   UNL A   1      46.076  32.583  27.705  1.00  0.00     0.135 A 
ATOM     68  C   UNL A   1      43.923  33.371  28.363  1.00  0.00     0.135 A 
ATOM     69  F   UNL A   1      46.979  31.616  27.477  1.00  0.00    -0.206 F 
ATOM     70  C   UNL A   1      46.516  33.899  27.542  1.00  0.00     0.059 A 
ATOM     71  C   UNL A   1      44.325  34.688  28.151  1.00  0.00     0.059 A 
ATOM     72  F   UNL A   1      42.690  33.244  28.866  1.00  0.00    -0.206 F 
ATOM     73  C   UNL A   1      45.636  34.945  27.789  1.00  0.00     0.060 A 
BRANCH  73  74
ATOM     74  S   UNL A   1      46.231  36.644  27.705  1.00  0.00     0.124 S 
ATOM     75  O   UNL A   1      46.996  36.742  28.943  1.00  0.00    -0.237 OA
ATOM     76  O   UNL A   1      47.010  36.635  26.470  1.00  0.00    -0.237 OA
ATOM     77  O   UNL A   1      45.000  37.428  27.656  1.00  0.00    -0.744 OA
ENDBRANCH  73  74
ENDBRANCH  52  66
BRANCH  53  78
ATOM     78  C   UNL A   1      36.988  31.937  31.341  1.00  0.00     0.058 A 
ATOM     79  C   UNL A   1      36.231  32.071  32.513  1.00  0.00     0.135 A 
ATOM     80  C   UNL A   1      36.637  32.774  30.262  1.00  0.00     0.135 A 
ATOM     81  F   UNL A   1      36.496  31.303  33.580  1.00  0.00    -0.206 F 
ATOM     82  C   UNL A   1      35.245  33.049  32.646  1.00  0.00     0.059 A 
ATOM     83  C   UNL A   1      35.647  33.750  30.367  1.00  0.00     0.059 A 
ATOM     84  F   UNL A   1      37.313  32.737  29.102  1.00  0.00    -0.206 F 
ATOM     85  C   UNL A   1      34.986  33.908  31.579  1.00  0.00     0.060 A 
BRANCH  85  86
ATOM     86  S   UNL A   1      33.899  35.328  31.840  1.00  0.00     0.124 S 
ATOM     87  O   UNL A   1      32.752  34.712  32.498  1.00  0.00    -0.237 OA
ATOM     88  O   UNL A   1      34.725  36.195  32.673  1.00  0.00    -0.237 OA
ATOM     89  O   UNL A   1      33.655  35.819  30.486  1.00  0.00    -0.744 OA
ENDBRANCH  85  86
ENDBRANCH  53  78
BRANCH  65  90
ATOM     90  C   UNL A   1      42.235  29.310  33.740  1.00  0.00     0.058 A 
ATOM     91  C   UNL A   1      41.703  28.042  33.440  1.00  0.00     0.135 A 
ATOM     92  C   UNL A   1      42.635  29.526  35.068  1.00  0.00     0.135 A 
ATOM     93  F   UNL A   1      41.385  27.707  32.185  1.00  0.00    -0.206 F 
ATOM     94  C   UNL A   1      41.539  27.056  34.415  1.00  0.00     0.059 A 
ATOM     95  C   UNL A   1      42.509  28.546  36.052  1.00  0.00     0.059 A 
ATOM     96  F   UNL A   1      43.207  30.691  35.415  1.00  0.00    -0.206 F 
ATOM     97  C   UNL A   1      41.946  27.316  35.722  1.00  0.00     0.060 A 
BRANCH  97  98
ATOM     98  S   UNL A   1      41.799  26.015  36.966  1.00  0.00     0.124 S 
ATOM     99  O   UNL A   1      42.104  24.815  36.193  1.00  0.00    -0.237 OA
ATOM    100  O   UNL A   1      42.803  26.403  37.954  1.00  0.00    -0.237 OA
ATOM    101  O   UNL A   1      40.416  26.131  37.418  1.00  0.00    -0.744 OA
ENDBRANCH  97  98
ENDBRANCH  65  90
ENDBRANCH  39  40
ENDBRANCH  31  34
ENDBRANCH  29  30
ENDBRANCH   1  29
TORSDOF 16
ENDMDL
MODEL 3
REMARK VINA RESULT:     -13.3      3.266      9.196
REMARK SMILES CC1=C([C@H](NC(=O)c2cccc3ccccc23)C(=O)NCCCNC(=O)c2ccc(-c3c4nc(c(-c5c(F)cc(S(=O)(=O)[O-])cc5F)c5ccc([nH]5)c(-c5c(F)cc(S(=O)(=O)[O-])cc5F)c5nc(c(-c6c(F)cc(S(=O)(=O)[O-])cc6F)c6ccc3[nH]6)C=C5)C=C4)cc2)[C@H](C)N=N1
REMARK SMILES IDX 22 1 21 2 20 3 18 4 19 5 4 7 3 8 1 9 2 10 96 11 93 12 95 13
REMARK SMILES IDX 94 14 5 15 6 16 7 18 8 19 9 20 17 21 10 22 12 23 16 24 11 25
REMARK SMILES IDX 13 26 15 27 14 28 23 29 24 30 25 31 26 33 27 34 28 35 92 36
REMARK SMILES IDX 29 37 91 38 30 39 31 40 32 41 85 42 33 43 90 44 84 45 86 46
REMARK SMILES IDX 34 47 89 48 83 49 82 50 35 52 69 53 48 54 68 55 49 56 52 57
REMARK SMILES IDX 67 58 87 59 50 60 51 61 66 63 88 64 53 65 36 66 37 67 46 68
REMARK SMILES IDX 38 69 39 70 45 71 47 72 40 73 41 74 42 75 43 76 44 77 70 78
REMARK SMILES IDX 71 79 80 80 72 81 73 82 79 83 81 84 74 85 75 86 76 87 77 88
REMARK SMILES IDX 78 89 54 90 55 91 64 92 56 93 57 94 63 95 65 96 58 97 59 98
REMARK SMILES IDX 60 99 61 100 62 101
REMARK H PARENT 20 6 5 17 24 32 86 51 52 62
REMARK Flexibility Score: inf
ROOT
ATOM      1  C   UNL A   1      34.411  28.894  26.854  1.00  0.00     0.042 C 
ENDROOT
BRANCH   1   2
ATOM      2  C   UNL A   1      33.366  29.610  26.015  1.00  0.00     0.117 C 
BRANCH   2   3
ATOM      3  N   UNL A   1      32.005  29.360  26.429  1.00  0.00    -0.354 N 
ATOM      4  C   UNL A   1      31.562  28.176  26.949  1.00  0.00     0.247 C 
ATOM      5  O   UNL A   1      31.042  28.216  28.069  1.00  0.00    -0.272 OA
ATOM      6  H   UNL A   1      31.353  30.091  26.330  1.00  0.00     0.163 HD
BRANCH   4   7
ATOM      7  C   UNL A   1      31.555  26.848  26.106  1.00  0.00     0.202 C 
BRANCH   7   8
ATOM      8  C   UNL A   1      31.106  27.012  24.668  1.00  0.00     0.011 C 
ATOM      9  C   UNL A   1      33.329  26.713  23.434  1.00  0.00     0.069 C 
ATOM     10  C   UNL A   1      31.885  27.046  23.571  1.00  0.00     0.064 C 
ATOM     11  N   UNL A   1      31.251  27.578  22.475  1.00  0.00    -0.160 NA
ATOM     12  C   UNL A   1      29.774  27.459  24.150  1.00  0.00     0.156 C 
ATOM     13  N   UNL A   1      30.095  27.958  22.787  1.00  0.00    -0.181 NA
ATOM     14  C   UNL A   1      28.774  26.318  23.915  1.00  0.00     0.040 C 
ENDBRANCH   7   8
BRANCH   7  15
ATOM     15  N   UNL A   1      31.455  25.486  26.660  1.00  0.00    -0.337 N 
ATOM     16  C   UNL A   1      31.703  24.162  26.442  1.00  0.00     0.252 C 
ATOM     17  H   UNL A   1      31.038  25.563  27.549  1.00  0.00     0.165 HD
ATOM     18  O   UNL A   1      31.374  23.438  27.385  1.00  0.00    -0.269 OA
BRANCH  16  19
ATOM     19  C   UNL A   1      32.320  23.536  25.234  1.00  0.00     0.047 A 
ATOM     20  C   UNL A   1      31.508  22.865  24.324  1.00  0.00     0.014 A 
ATOM     21  C   UNL A   1      33.732  23.574  24.986  1.00  0.00    -0.006 A 
ATOM     22  C   UNL A   1      31.974  22.395  23.104  1.00  0.00     0.001 A 
ATOM     23  C   UNL A   1      34.208  23.056  23.749  1.00  0.00    -0.018 A 
ATOM     24  C   UNL A   1      34.725  23.977  25.919  1.00  0.00     0.009 A 
ATOM     25  C   UNL A   1      33.316  22.536  22.801  1.00  0.00     0.009 A 
ATOM     26  C   UNL A   1      35.585  22.934  23.502  1.00  0.00     0.009 A 
ATOM     27  C   UNL A   1      36.094  23.820  25.671  1.00  0.00     0.001 A 
ATOM     28  C   UNL A   1      36.522  23.287  24.465  1.00  0.00     0.001 A 
ENDBRANCH  16  19
ENDBRANCH   7  15
ENDBRANCH   4   7
ENDBRANCH   2   3
ENDBRANCH   1   2
BRANCH   1  29
ATOM     29  C   UNL A   1      35.601  29.799  27.177  1.00  0.00     0.118 C 
BRANCH  29  30
ATOM     30  N   UNL A   1      35.311  31.214  27.496  1.00  0.00    -0.352 N 
ATOM     31  C   UNL A   1      35.570  31.926  28.671  1.00  0.00     0.251 C 
ATOM     32  H   UNL A   1      34.873  31.727  26.779  1.00  0.00     0.163 HD
ATOM     33  O   UNL A   1      35.098  33.035  28.908  1.00  0.00    -0.269 OA
BRANCH  31  34
ATOM     34  C   UNL A   1      36.522  31.331  29.606  1.00  0.00     0.039 A 
ATOM     35  C   UNL A   1      36.446  30.016  30.075  1.00  0.00     0.014 A 
ATOM     36  C   UNL A   1      37.681  32.063  29.680  1.00  0.00     0.014 A 
ATOM     37  C   UNL A   1      37.635  29.382  30.448  1.00  0.00     0.010 A 
ATOM     38  C   UNL A   1      38.815  31.317  29.667  1.00  0.00     0.010 A 
ATOM     39  C   UNL A   1      38.848  30.022  30.165  1.00  0.00    -0.014 A 
BRANCH  39  40
ATOM     40  C   UNL A   1      40.172  29.399  30.252  1.00  0.00     0.031 A 
ATOM     41  C   UNL A   1      40.731  29.155  31.609  1.00  0.00     0.074 A 
ATOM     42  C   UNL A   1      40.775  28.837  29.174  1.00  0.00     0.049 A 
ATOM     43  N   UNL A   1      41.717  29.775  32.167  1.00  0.00    -0.248 NA
ATOM     44  C   UNL A   1      40.084  28.170  32.487  1.00  0.00     0.031 C 
ATOM     45  C   UNL A   1      40.290  28.724  27.783  1.00  0.00     0.029 A 
ATOM     46  N   UNL A   1      41.926  28.116  29.125  1.00  0.00    -0.354 N 
ATOM     47  C   UNL A   1      41.983  29.099  33.356  1.00  0.00     0.074 A 
ATOM     48  C   UNL A   1      40.833  28.264  33.590  1.00  0.00     0.031 C 
ATOM     49  C   UNL A   1      40.963  27.760  27.130  1.00  0.00     0.029 A 
ATOM     50  C   UNL A   1      42.101  27.407  27.944  1.00  0.00     0.049 A 
ATOM     51  H   UNL A   1      42.579  28.098  29.862  1.00  0.00     0.167 HD
ATOM     52  C   UNL A   1      43.230  29.108  33.910  1.00  0.00     0.037 A 
ATOM     53  C   UNL A   1      43.154  26.646  27.579  1.00  0.00     0.037 A 
ATOM     54  C   UNL A   1      44.064  30.110  33.282  1.00  0.00     0.049 A 
ATOM     55  C   UNL A   1      44.305  27.136  28.371  1.00  0.00     0.074 A 
ATOM     56  C   UNL A   1      43.982  31.477  33.104  1.00  0.00     0.029 A 
ATOM     57  N   UNL A   1      45.000  29.676  32.373  1.00  0.00    -0.354 N 
ATOM     58  N   UNL A   1      44.816  28.331  28.241  1.00  0.00    -0.248 NA
ATOM     59  C   UNL A   1      44.625  26.454  29.612  1.00  0.00     0.031 C 
ATOM     60  C   UNL A   1      44.491  31.711  31.789  1.00  0.00     0.029 A 
ATOM     61  C   UNL A   1      44.922  30.488  31.269  1.00  0.00     0.049 A 
ATOM     62  H   UNL A   1      45.617  28.918  32.493  1.00  0.00     0.167 HD
ATOM     63  C   UNL A   1      45.144  28.718  29.532  1.00  0.00     0.074 A 
ATOM     64  C   UNL A   1      45.129  27.478  30.305  1.00  0.00     0.031 C 
ATOM     65  C   UNL A   1      45.124  30.033  29.907  1.00  0.00     0.037 A 
BRANCH  52  66
ATOM     66  C   UNL A   1      43.832  27.999  34.755  1.00  0.00     0.058 A 
ATOM     67  C   UNL A   1      44.403  28.317  36.008  1.00  0.00     0.135 A 
ATOM     68  C   UNL A   1      44.116  26.699  34.280  1.00  0.00     0.135 A 
ATOM     69  F   UNL A   1      44.203  29.523  36.566  1.00  0.00    -0.206 F 
ATOM     70  C   UNL A   1      45.258  27.449  36.690  1.00  0.00     0.059 A 
ATOM     71  C   UNL A   1      44.920  25.797  34.972  1.00  0.00     0.059 A 
ATOM     72  F   UNL A   1      43.713  26.271  33.079  1.00  0.00    -0.206 F 
ATOM     73  C   UNL A   1      45.526  26.197  36.150  1.00  0.00     0.060 A 
BRANCH  73  74
ATOM     74  S   UNL A   1      46.726  25.121  36.957  1.00  0.00     0.124 S 
ATOM     75  O   UNL A   1      46.051  23.830  36.882  1.00  0.00    -0.237 OA
ATOM     76  O   UNL A   1      47.901  25.279  36.105  1.00  0.00    -0.237 OA
ATOM     77  O   UNL A   1      46.847  25.697  38.293  1.00  0.00    -0.744 OA
ENDBRANCH  73  74
ENDBRANCH  52  66
BRANCH  53  78
ATOM     78  C   UNL A   1      43.152  25.407  26.774  1.00  0.00     0.058 A 
ATOM     79  C   UNL A   1      43.811  25.365  25.537  1.00  0.00     0.135 A 
ATOM     80  C   UNL A   1      42.765  24.168  27.326  1.00  0.00     0.135 A 
ATOM     81  F   UNL A   1      44.202  26.501  24.941  1.00  0.00    -0.206 F 
ATOM     82  C   UNL A   1      44.157  24.160  24.926  1.00  0.00     0.059 A 
ATOM     83  C   UNL A   1      43.088  22.952  26.728  1.00  0.00     0.059 A 
ATOM     84  F   UNL A   1      42.146  24.099  28.516  1.00  0.00    -0.206 F 
ATOM     85  C   UNL A   1      43.823  22.958  25.548  1.00  0.00     0.060 A 
BRANCH  85  86
ATOM     86  S   UNL A   1      44.493  21.414  24.891  1.00  0.00     0.124 S 
ATOM     87  O   UNL A   1      45.768  21.317  25.591  1.00  0.00    -0.237 OA
ATOM     88  O   UNL A   1      43.473  20.447  25.284  1.00  0.00    -0.237 OA
ATOM     89  O   UNL A   1      44.583  21.669  23.456  1.00  0.00    -0.744 OA
ENDBRANCH  85  86
ENDBRANCH  53  78
BRANCH  65  90
ATOM     90  C   UNL A   1      45.083  31.087  28.824  1.00  0.00     0.058 A 
ATOM     91  C   UNL A   1      46.195  31.516  28.077  1.00  0.00     0.135 A 
ATOM     92  C   UNL A   1      43.831  31.583  28.429  1.00  0.00     0.135 A 
ATOM     93  F   UNL A   1      47.416  31.025  28.312  1.00  0.00    -0.206 F 
ATOM     94  C   UNL A   1      46.075  32.423  27.020  1.00  0.00     0.059 A 
ATOM     95  C   UNL A   1      43.682  32.465  27.360  1.00  0.00     0.059 A 
ATOM     96  F   UNL A   1      42.717  31.170  29.058  1.00  0.00    -0.206 F 
ATOM     97  C   UNL A   1      44.812  32.892  26.667  1.00  0.00     0.060 A 
BRANCH  97  98
ATOM     98  S   UNL A   1      44.651  34.009  25.256  1.00  0.00     0.124 S 
ATOM     99  O   UNL A   1      46.017  34.492  25.089  1.00  0.00    -0.237 OA
ATOM    100  O   UNL A   1      44.160  33.122  24.203  1.00  0.00    -0.237 OA
ATOM    101  O   UNL A   1      43.688  35.005  25.718  1.00  0.00    -0.744 OA
ENDBRANCH  97  98
ENDBRANCH  65  90
ENDBRANCH  39  40
ENDBRANCH  31  34
ENDBRANCH  29  30
ENDBRANCH   1  29
TORSDOF 16
ENDMDL
