MODEL 1
REMARK VINA RESULT:     -11.9      0.000      0.000
REMARK SMILES Cc1cc(C(=O)N[C@H](CC(C)C)C(=O)NCCCNC(=O)c2ccc(-c3c4nc(c(-c5c(F)cc(S(=O)(=O)[O-])cc5F)c5ccc([nH]5)c(-c5c(F)cc(S(=O)(=O)[O-])cc5F)c5nc(c(-c6c(F)cc(S(=O)(=O)[O-])cc6F)c6ccc3[nH]6)C=C5)C=C4)cc2)sc1Br
REMARK SMILES IDX 17 1 16 2 15 3 13 4 14 5 8 7 7 8 5 9 6 10 4 12 1 13 2 14
REMARK SMILES IDX 3 15 89 16 88 17 90 18 9 19 10 20 11 21 12 22 18 23 19 24
REMARK SMILES IDX 20 25 21 27 22 28 23 29 87 30 24 31 86 32 25 33 26 34 27 35
REMARK SMILES IDX 80 36 28 37 85 38 79 39 81 40 29 41 84 42 78 43 77 44 30 46
REMARK SMILES IDX 64 47 43 48 63 49 44 50 47 51 62 52 82 53 45 54 46 55 61 57
REMARK SMILES IDX 83 58 48 59 31 60 32 61 41 62 33 63 34 64 40 65 42 66 35 67
REMARK SMILES IDX 36 68 37 69 38 70 39 71 65 72 66 73 75 74 67 75 68 76 74 77
REMARK SMILES IDX 76 78 69 79 70 80 71 81 72 82 73 83 49 84 50 85 59 86 51 87
REMARK SMILES IDX 52 88 58 89 60 90 53 91 54 92 55 93 56 94 57 95
REMARK H PARENT 15 6 7 11 19 26 81 45 47 56
REMARK Flexibility Score: inf
ROOT
ATOM      1  C   UNL A   1      38.373  21.975  25.814  1.00  0.00     0.042 C 
ENDROOT
BRANCH   1   2
ATOM      2  C   UNL A   1      37.106  22.821  25.704  1.00  0.00     0.117 C 
BRANCH   2   3
ATOM      3  N   UNL A   1      36.062  22.338  26.593  1.00  0.00    -0.354 N 
ATOM      4  C   UNL A   1      34.873  21.743  26.304  1.00  0.00     0.242 C 
ATOM      5  O   UNL A   1      34.081  21.557  27.232  1.00  0.00    -0.273 OA
ATOM      6  H   UNL A   1      36.243  22.463  27.552  1.00  0.00     0.163 HD
BRANCH   4   7
ATOM      7  C   UNL A   1      34.448  21.443  24.855  1.00  0.00     0.171 C 
BRANCH   7   8
ATOM      8  N   UNL A   1      33.084  21.826  24.461  1.00  0.00    -0.340 N 
ATOM      9  C   UNL A   1      32.528  22.977  23.939  1.00  0.00     0.262 C 
ATOM     10  O   UNL A   1      31.433  22.801  23.393  1.00  0.00    -0.268 OA
ATOM     11  H   UNL A   1      32.426  21.107  24.597  1.00  0.00     0.164 HD
BRANCH   9  12
ATOM     12  C   UNL A   1      33.092  24.300  24.168  1.00  0.00     0.093 A 
ATOM     13  C   UNL A   1      33.761  27.399  26.194  1.00  0.00     0.046 C 
ATOM     14  C   UNL A   1      33.659  26.397  25.087  1.00  0.00    -0.025 A 
ATOM     15  C   UNL A   1      33.515  24.976  25.299  1.00  0.00     0.030 A 
ATOM     16  C   UNL A   1      33.657  26.665  23.739  1.00  0.00     0.074 A 
ATOM     17  S   UNL A   1      33.316  25.310  22.783  1.00  0.00    -0.123 S 
ATOM     18  Br  UNL A   1      33.958  28.359  22.983  1.00  0.00    -0.039 Br
ENDBRANCH   9  12
ENDBRANCH   7   8
BRANCH   7  19
ATOM     19  C   UNL A   1      34.675  19.911  24.735  1.00  0.00     0.038 C 
BRANCH  19  20
ATOM     20  C   UNL A   1      33.482  18.997  24.423  1.00  0.00    -0.015 C 
ATOM     21  C   UNL A   1      33.903  17.741  23.668  1.00  0.00     0.007 C 
ATOM     22  C   UNL A   1      32.811  18.609  25.749  1.00  0.00     0.007 C 
ENDBRANCH  19  20
ENDBRANCH   7  19
ENDBRANCH   4   7
ENDBRANCH   2   3
ENDBRANCH   1   2
BRANCH   1  23
ATOM     23  C   UNL A   1      39.501  22.732  26.488  1.00  0.00     0.118 C 
BRANCH  23  24
ATOM     24  N   UNL A   1      40.818  22.253  26.063  1.00  0.00    -0.352 N 
ATOM     25  C   UNL A   1      41.939  23.006  25.754  1.00  0.00     0.251 C 
ATOM     26  H   UNL A   1      40.920  21.276  25.987  1.00  0.00     0.163 HD
ATOM     27  O   UNL A   1      42.841  22.552  25.079  1.00  0.00    -0.269 OA
BRANCH  25  28
ATOM     28  C   UNL A   1      41.996  24.378  26.285  1.00  0.00     0.039 A 
ATOM     29  C   UNL A   1      41.333  25.437  25.659  1.00  0.00     0.014 A 
ATOM     30  C   UNL A   1      42.665  24.554  27.491  1.00  0.00     0.014 A 
ATOM     31  C   UNL A   1      41.285  26.667  26.310  1.00  0.00     0.010 A 
ATOM     32  C   UNL A   1      42.444  25.693  28.211  1.00  0.00     0.010 A 
ATOM     33  C   UNL A   1      41.830  26.780  27.597  1.00  0.00    -0.014 A 
BRANCH  33  34
ATOM     34  C   UNL A   1      41.718  28.009  28.370  1.00  0.00     0.031 A 
ATOM     35  C   UNL A   1      42.801  29.003  28.143  1.00  0.00     0.074 A 
ATOM     36  C   UNL A   1      40.584  28.317  29.037  1.00  0.00     0.049 A 
ATOM     37  N   UNL A   1      43.717  29.381  28.972  1.00  0.00    -0.248 NA
ATOM     38  C   UNL A   1      42.984  29.538  26.783  1.00  0.00     0.031 C 
ATOM     39  C   UNL A   1      39.310  27.584  29.071  1.00  0.00     0.029 A 
ATOM     40  N   UNL A   1      40.288  29.441  29.738  1.00  0.00    -0.354 N 
ATOM     41  C   UNL A   1      44.441  30.377  28.320  1.00  0.00     0.074 A 
ATOM     42  C   UNL A   1      44.086  30.277  26.929  1.00  0.00     0.031 C 
ATOM     43  C   UNL A   1      38.331  28.394  29.528  1.00  0.00     0.029 A 
ATOM     44  C   UNL A   1      38.934  29.627  29.992  1.00  0.00     0.049 A 
ATOM     45  H   UNL A   1      40.978  30.074  30.043  1.00  0.00     0.167 HD
ATOM     46  C   UNL A   1      45.083  31.360  29.015  1.00  0.00     0.037 A 
ATOM     47  C   UNL A   1      38.355  30.737  30.513  1.00  0.00     0.037 A 
ATOM     48  C   UNL A   1      45.180  31.020  30.415  1.00  0.00     0.049 A 
ATOM     49  C   UNL A   1      39.435  31.488  31.212  1.00  0.00     0.074 A 
ATOM     50  C   UNL A   1      45.735  29.969  31.120  1.00  0.00     0.029 A 
ATOM     51  N   UNL A   1      44.294  31.621  31.281  1.00  0.00    -0.354 N 
ATOM     52  N   UNL A   1      40.068  31.034  32.263  1.00  0.00    -0.248 NA
ATOM     53  C   UNL A   1      40.148  32.505  30.452  1.00  0.00     0.031 C 
ATOM     54  C   UNL A   1      44.796  29.687  32.155  1.00  0.00     0.029 A 
ATOM     55  C   UNL A   1      43.771  30.632  32.076  1.00  0.00     0.049 A 
ATOM     56  H   UNL A   1      44.078  32.580  31.322  1.00  0.00     0.167 HD
ATOM     57  C   UNL A   1      41.397  31.381  32.062  1.00  0.00     0.074 A 
ATOM     58  C   UNL A   1      41.372  32.352  30.968  1.00  0.00     0.031 C 
ATOM     59  C   UNL A   1      42.416  30.638  32.590  1.00  0.00     0.037 A 
BRANCH  46  60
ATOM     60  C   UNL A   1      45.301  32.774  28.523  1.00  0.00     0.058 A 
ATOM     61  C   UNL A   1      46.614  33.292  28.474  1.00  0.00     0.135 A 
ATOM     62  C   UNL A   1      44.271  33.726  28.363  1.00  0.00     0.135 A 
ATOM     63  F   UNL A   1      47.675  32.481  28.611  1.00  0.00    -0.206 F 
ATOM     64  C   UNL A   1      46.878  34.658  28.363  1.00  0.00     0.059 A 
ATOM     65  C   UNL A   1      44.512  35.085  28.195  1.00  0.00     0.059 A 
ATOM     66  F   UNL A   1      42.976  33.405  28.462  1.00  0.00    -0.206 F 
ATOM     67  C   UNL A   1      45.816  35.549  28.242  1.00  0.00     0.060 A 
BRANCH  67  68
ATOM     68  S   UNL A   1      46.144  37.319  28.215  1.00  0.00     0.124 S 
ATOM     69  O   UNL A   1      45.599  37.734  29.503  1.00  0.00    -0.237 OA
ATOM     70  O   UNL A   1      47.597  37.356  28.092  1.00  0.00    -0.237 OA
ATOM     71  O   UNL A   1      45.409  37.779  27.040  1.00  0.00    -0.744 OA
ENDBRANCH  67  68
ENDBRANCH  46  60
BRANCH  47  72
ATOM     72  C   UNL A   1      37.054  31.343  30.120  1.00  0.00     0.058 A 
ATOM     73  C   UNL A   1      36.192  31.906  31.077  1.00  0.00     0.135 A 
ATOM     74  C   UNL A   1      36.752  31.630  28.772  1.00  0.00     0.135 A 
ATOM     75  F   UNL A   1      36.414  31.701  32.384  1.00  0.00    -0.206 F 
ATOM     76  C   UNL A   1      35.127  32.744  30.723  1.00  0.00     0.059 A 
ATOM     77  C   UNL A   1      35.691  32.453  28.395  1.00  0.00     0.059 A 
ATOM     78  F   UNL A   1      37.536  31.192  27.776  1.00  0.00    -0.206 F 
ATOM     79  C   UNL A   1      34.897  33.030  29.378  1.00  0.00     0.060 A 
BRANCH  79  80
ATOM     80  S   UNL A   1      33.643  34.252  28.923  1.00  0.00     0.124 S 
ATOM     81  O   UNL A   1      33.086  34.611  30.223  1.00  0.00    -0.237 OA
ATOM     82  O   UNL A   1      34.441  35.281  28.265  1.00  0.00    -0.237 OA
ATOM     83  O   UNL A   1      32.746  33.507  28.043  1.00  0.00    -0.744 OA
ENDBRANCH  79  80
ENDBRANCH  47  72
BRANCH  59  84
ATOM     84  C   UNL A   1      42.088  29.586  33.622  1.00  0.00     0.058 A 
ATOM     85  C   UNL A   1      41.785  28.244  33.328  1.00  0.00     0.135 A 
ATOM     86  C   UNL A   1      42.264  29.914  34.975  1.00  0.00     0.135 A 
ATOM     87  F   UNL A   1      41.704  27.816  32.063  1.00  0.00    -0.206 F 
ATOM     88  C   UNL A   1      41.626  27.284  34.332  1.00  0.00     0.059 A 
ATOM     89  C   UNL A   1      42.141  28.969  35.990  1.00  0.00     0.059 A 
ATOM     90  F   UNL A   1      42.618  31.162  35.322  1.00  0.00    -0.206 F 
ATOM     91  C   UNL A   1      41.809  27.656  35.662  1.00  0.00     0.060 A 
BRANCH  91  92
ATOM     92  S   UNL A   1      41.678  26.402  36.955  1.00  0.00     0.124 S 
ATOM     93  O   UNL A   1      40.413  26.751  37.593  1.00  0.00    -0.237 OA
ATOM     94  O   UNL A   1      41.681  25.157  36.191  1.00  0.00    -0.237 OA
ATOM     95  O   UNL A   1      42.870  26.625  37.769  1.00  0.00    -0.744 OA
ENDBRANCH  91  92
ENDBRANCH  59  84
ENDBRANCH  33  34
ENDBRANCH  25  28
ENDBRANCH  23  24
ENDBRANCH   1  23
TORSDOF 17
ENDMDL
MODEL 2
REMARK VINA RESULT:     -11.9      1.848      2.634
REMARK SMILES Cc1cc(C(=O)N[C@H](CC(C)C)C(=O)NCCCNC(=O)c2ccc(-c3c4nc(c(-c5c(F)cc(S(=O)(=O)[O-])cc5F)c5ccc([nH]5)c(-c5c(F)cc(S(=O)(=O)[O-])cc5F)c5nc(c(-c6c(F)cc(S(=O)(=O)[O-])cc6F)c6ccc3[nH]6)C=C5)C=C4)cc2)sc1Br
REMARK SMILES IDX 17 1 16 2 15 3 13 4 14 5 8 7 7 8 5 9 6 10 4 12 1 13 2 14
REMARK SMILES IDX 3 15 89 16 88 17 90 18 9 19 10 20 11 21 12 22 18 23 19 24
REMARK SMILES IDX 20 25 21 27 22 28 23 29 87 30 24 31 86 32 25 33 26 34 27 35
REMARK SMILES IDX 80 36 28 37 85 38 79 39 81 40 29 41 84 42 78 43 77 44 30 46
REMARK SMILES IDX 64 47 43 48 63 49 44 50 47 51 62 52 82 53 45 54 46 55 61 57
REMARK SMILES IDX 83 58 48 59 31 60 32 61 41 62 33 63 34 64 40 65 42 66 35 67
REMARK SMILES IDX 36 68 37 69 38 70 39 71 65 72 66 73 75 74 67 75 68 76 74 77
REMARK SMILES IDX 76 78 69 79 70 80 71 81 72 82 73 83 49 84 50 85 59 86 51 87
REMARK SMILES IDX 52 88 58 89 60 90 53 91 54 92 55 93 56 94 57 95
REMARK H PARENT 15 6 7 11 19 26 81 45 47 56
REMARK Flexibility Score: inf
ROOT
ATOM      1  C   UNL A   1      36.367  22.385  25.015  1.00  0.00     0.042 C 
ENDROOT
BRANCH   1   2
ATOM      2  C   UNL A   1      35.385  22.042  26.134  1.00  0.00     0.117 C 
BRANCH   2   3
ATOM      3  N   UNL A   1      34.331  21.157  25.668  1.00  0.00    -0.354 N 
ATOM      4  C   UNL A   1      33.045  21.436  25.321  1.00  0.00     0.242 C 
ATOM      5  O   UNL A   1      32.290  20.486  25.097  1.00  0.00    -0.273 OA
ATOM      6  H   UNL A   1      34.587  20.210  25.592  1.00  0.00     0.163 HD
BRANCH   4   7
ATOM      7  C   UNL A   1      32.491  22.872  25.348  1.00  0.00     0.171 C 
BRANCH   7   8
ATOM      8  N   UNL A   1      31.478  23.183  26.368  1.00  0.00    -0.340 N 
ATOM      9  C   UNL A   1      30.475  24.126  26.461  1.00  0.00     0.262 C 
ATOM     10  O   UNL A   1      29.598  23.845  27.285  1.00  0.00    -0.268 OA
ATOM     11  H   UNL A   1      31.524  22.590  27.152  1.00  0.00     0.164 HD
BRANCH   9  12
ATOM     12  C   UNL A   1      30.538  25.414  25.784  1.00  0.00     0.093 A 
ATOM     13  C   UNL A   1      30.214  27.708  22.820  1.00  0.00     0.046 C 
ATOM     14  C   UNL A   1      30.518  27.131  24.167  1.00  0.00    -0.025 A 
ATOM     15  C   UNL A   1      29.865  25.962  24.706  1.00  0.00     0.030 A 
ATOM     16  C   UNL A   1      31.456  27.590  25.062  1.00  0.00     0.074 A 
ATOM     17  S   UNL A   1      31.671  26.569  26.395  1.00  0.00    -0.123 S 
ATOM     18  Br  UNL A   1      32.454  29.168  24.852  1.00  0.00    -0.039 Br
ENDBRANCH   9  12
ENDBRANCH   7   8
BRANCH   7  19
ATOM     19  C   UNL A   1      31.939  23.060  23.909  1.00  0.00     0.038 C 
BRANCH  19  20
ATOM     20  C   UNL A   1      32.619  24.064  22.968  1.00  0.00    -0.015 C 
ATOM     21  C   UNL A   1      33.708  24.864  23.672  1.00  0.00     0.007 C 
ATOM     22  C   UNL A   1      33.223  23.286  21.788  1.00  0.00     0.007 C 
ENDBRANCH  19  20
ENDBRANCH   7  19
ENDBRANCH   4   7
ENDBRANCH   2   3
ENDBRANCH   1   2
BRANCH   1  23
ATOM     23  C   UNL A   1      37.618  23.057  25.547  1.00  0.00     0.118 C 
BRANCH  23  24
ATOM     24  N   UNL A   1      38.502  22.112  26.235  1.00  0.00    -0.352 N 
ATOM     25  C   UNL A   1      39.719  22.373  26.841  1.00  0.00     0.251 C 
ATOM     26  H   UNL A   1      38.193  21.177  26.269  1.00  0.00     0.163 HD
ATOM     27  O   UNL A   1      40.523  21.488  27.054  1.00  0.00    -0.269 OA
BRANCH  25  28
ATOM     28  C   UNL A   1      39.995  23.767  27.227  1.00  0.00     0.039 A 
ATOM     29  C   UNL A   1      39.002  24.749  27.192  1.00  0.00     0.014 A 
ATOM     30  C   UNL A   1      41.267  24.040  27.715  1.00  0.00     0.014 A 
ATOM     31  C   UNL A   1      39.287  26.000  27.735  1.00  0.00     0.010 A 
ATOM     32  C   UNL A   1      41.474  25.191  28.421  1.00  0.00     0.010 A 
ATOM     33  C   UNL A   1      40.523  26.205  28.365  1.00  0.00    -0.014 A 
BRANCH  33  34
ATOM     34  C   UNL A   1      40.838  27.455  29.042  1.00  0.00     0.031 A 
ATOM     35  C   UNL A   1      41.923  28.259  28.418  1.00  0.00     0.074 A 
ATOM     36  C   UNL A   1      40.030  27.955  30.003  1.00  0.00     0.049 A 
ATOM     37  N   UNL A   1      43.099  28.508  28.892  1.00  0.00    -0.248 NA
ATOM     38  C   UNL A   1      41.738  28.726  27.032  1.00  0.00     0.031 C 
ATOM     39  C   UNL A   1      38.743  27.433  30.484  1.00  0.00     0.029 A 
ATOM     40  N   UNL A   1      40.136  29.128  30.676  1.00  0.00    -0.354 N 
ATOM     41  C   UNL A   1      43.712  29.361  27.976  1.00  0.00     0.074 A 
ATOM     42  C   UNL A   1      42.923  29.284  26.775  1.00  0.00     0.031 C 
ATOM     43  C   UNL A   1      38.085  28.399  31.161  1.00  0.00     0.029 A 
ATOM     44  C   UNL A   1      38.973  29.532  31.323  1.00  0.00     0.049 A 
ATOM     45  H   UNL A   1      40.969  29.651  30.706  1.00  0.00     0.167 HD
ATOM     46  C   UNL A   1      44.674  30.247  28.364  1.00  0.00     0.037 A 
ATOM     47  C   UNL A   1      38.754  30.732  31.915  1.00  0.00     0.037 A 
ATOM     48  C   UNL A   1      45.161  29.931  29.686  1.00  0.00     0.049 A 
ATOM     49  C   UNL A   1      40.095  31.320  32.188  1.00  0.00     0.074 A 
ATOM     50  C   UNL A   1      45.756  28.823  30.259  1.00  0.00     0.029 A 
ATOM     51  N   UNL A   1      44.691  30.685  30.737  1.00  0.00    -0.354 N 
ATOM     52  N   UNL A   1      40.957  30.798  33.021  1.00  0.00    -0.248 NA
ATOM     53  C   UNL A   1      40.666  32.193  31.172  1.00  0.00     0.031 C 
ATOM     54  C   UNL A   1      45.164  28.719  31.553  1.00  0.00     0.029 A 
ATOM     55  C   UNL A   1      44.312  29.812  31.726  1.00  0.00     0.049 A 
ATOM     56  H   UNL A   1      44.638  31.667  30.773  1.00  0.00     0.167 HD
ATOM     57  C   UNL A   1      42.189  30.925  32.393  1.00  0.00     0.074 A 
ATOM     58  C   UNL A   1      41.956  31.861  31.293  1.00  0.00     0.031 C 
ATOM     59  C   UNL A   1      43.207  30.044  32.632  1.00  0.00     0.037 A 
BRANCH  46  60
ATOM     60  C   UNL A   1      44.924  31.597  27.727  1.00  0.00     0.058 A 
ATOM     61  C   UNL A   1      46.148  31.830  27.063  1.00  0.00     0.135 A 
ATOM     62  C   UNL A   1      44.142  32.747  27.973  1.00  0.00     0.135 A 
ATOM     63  F   UNL A   1      46.973  30.811  26.772  1.00  0.00    -0.206 F 
ATOM     64  C   UNL A   1      46.598  33.112  26.748  1.00  0.00     0.059 A 
ATOM     65  C   UNL A   1      44.546  34.029  27.619  1.00  0.00     0.059 A 
ATOM     66  F   UNL A   1      42.995  32.701  28.660  1.00  0.00    -0.206 F 
ATOM     67  C   UNL A   1      45.796  34.209  27.048  1.00  0.00     0.060 A 
BRANCH  67  68
ATOM     68  S   UNL A   1      46.420  35.871  26.752  1.00  0.00     0.124 S 
ATOM     69  O   UNL A   1      47.331  36.043  27.878  1.00  0.00    -0.237 OA
ATOM     70  O   UNL A   1      47.042  35.731  25.439  1.00  0.00    -0.237 OA
ATOM     71  O   UNL A   1      45.213  36.693  26.784  1.00  0.00    -0.744 OA
ENDBRANCH  67  68
ENDBRANCH  46  60
BRANCH  47  72
ATOM     72  C   UNL A   1      37.495  31.527  31.902  1.00  0.00     0.058 A 
ATOM     73  C   UNL A   1      36.808  31.826  33.091  1.00  0.00     0.135 A 
ATOM     74  C   UNL A   1      37.087  32.241  30.755  1.00  0.00     0.135 A 
ATOM     75  F   UNL A   1      37.141  31.207  34.233  1.00  0.00    -0.206 F 
ATOM     76  C   UNL A   1      35.813  32.810  33.152  1.00  0.00     0.059 A 
ATOM     77  C   UNL A   1      36.092  33.218  30.789  1.00  0.00     0.059 A 
ATOM     78  F   UNL A   1      37.708  32.078  29.578  1.00  0.00    -0.206 F 
ATOM     79  C   UNL A   1      35.477  33.517  31.998  1.00  0.00     0.060 A 
BRANCH  79  80
ATOM     80  S   UNL A   1      34.327  34.911  32.105  1.00  0.00     0.124 S 
ATOM     81  O   UNL A   1      33.208  34.324  32.833  1.00  0.00    -0.237 OA
ATOM     82  O   UNL A   1      35.113  35.902  32.833  1.00  0.00    -0.237 OA
ATOM     83  O   UNL A   1      34.060  35.239  30.707  1.00  0.00    -0.744 OA
ENDBRANCH  79  80
ENDBRANCH  47  72
BRANCH  59  84
ATOM     84  C   UNL A   1      43.077  29.083  33.790  1.00  0.00     0.058 A 
ATOM     85  C   UNL A   1      43.337  29.410  35.134  1.00  0.00     0.135 A 
ATOM     86  C   UNL A   1      42.492  27.832  33.544  1.00  0.00     0.135 A 
ATOM     87  F   UNL A   1      43.794  30.620  35.474  1.00  0.00    -0.206 F 
ATOM     88  C   UNL A   1      43.065  28.520  36.177  1.00  0.00     0.059 A 
ATOM     89  C   UNL A   1      42.184  26.941  34.570  1.00  0.00     0.059 A 
ATOM     90  F   UNL A   1      42.158  27.482  32.291  1.00  0.00    -0.206 F 
ATOM     91  C   UNL A   1      42.486  27.287  35.885  1.00  0.00     0.060 A 
BRANCH  91  92
ATOM     92  S   UNL A   1      42.066  26.167  37.238  1.00  0.00     0.124 S 
ATOM     93  O   UNL A   1      43.119  26.449  38.207  1.00  0.00    -0.237 OA
ATOM     94  O   UNL A   1      40.725  26.608  37.612  1.00  0.00    -0.237 OA
ATOM     95  O   UNL A   1      42.126  24.846  36.618  1.00  0.00    -0.744 OA
ENDBRANCH  91  92
ENDBRANCH  59  84
ENDBRANCH  33  34
ENDBRANCH  25  28
ENDBRANCH  23  24
ENDBRANCH   1  23
TORSDOF 17
ENDMDL
MODEL 3
REMARK VINA RESULT:     -11.7      3.405      8.180
REMARK SMILES Cc1cc(C(=O)N[C@H](CC(C)C)C(=O)NCCCNC(=O)c2ccc(-c3c4nc(c(-c5c(F)cc(S(=O)(=O)[O-])cc5F)c5ccc([nH]5)c(-c5c(F)cc(S(=O)(=O)[O-])cc5F)c5nc(c(-c6c(F)cc(S(=O)(=O)[O-])cc6F)c6ccc3[nH]6)C=C5)C=C4)cc2)sc1Br
REMARK SMILES IDX 17 1 16 2 15 3 13 4 14 5 8 7 7 8 5 9 6 10 4 12 1 13 2 14
REMARK SMILES IDX 3 15 89 16 88 17 90 18 9 19 10 20 11 21 12 22 18 23 19 24
REMARK SMILES IDX 20 25 21 27 22 28 23 29 87 30 24 31 86 32 25 33 26 34 27 35
REMARK SMILES IDX 80 36 28 37 85 38 79 39 81 40 29 41 84 42 78 43 77 44 30 46
REMARK SMILES IDX 64 47 43 48 63 49 44 50 47 51 62 52 82 53 45 54 46 55 61 57
REMARK SMILES IDX 83 58 48 59 31 60 32 61 41 62 33 63 34 64 40 65 42 66 35 67
REMARK SMILES IDX 36 68 37 69 38 70 39 71 65 72 66 73 75 74 67 75 68 76 74 77
REMARK SMILES IDX 76 78 69 79 70 80 71 81 72 82 73 83 49 84 50 85 59 86 51 87
REMARK SMILES IDX 52 88 58 89 60 90 53 91 54 92 55 93 56 94 57 95
REMARK H PARENT 15 6 7 11 19 26 81 45 47 56
REMARK Flexibility Score: inf
ROOT
ATOM      1  C   UNL A   1      37.611  19.843  24.891  1.00  0.00     0.042 C 
ENDROOT
BRANCH   1   2
ATOM      2  C   UNL A   1      36.389  20.707  25.201  1.00  0.00     0.117 C 
BRANCH   2   3
ATOM      3  N   UNL A   1      35.153  19.961  25.040  1.00  0.00    -0.354 N 
ATOM      4  C   UNL A   1      33.863  20.397  25.029  1.00  0.00     0.242 C 
ATOM      5  O   UNL A   1      32.968  19.548  25.027  1.00  0.00    -0.273 OA
ATOM      6  H   UNL A   1      35.265  18.990  24.922  1.00  0.00     0.163 HD
BRANCH   4   7
ATOM      7  C   UNL A   1      33.511  21.889  25.167  1.00  0.00     0.171 C 
BRANCH   7   8
ATOM      8  N   UNL A   1      32.623  22.270  26.276  1.00  0.00    -0.340 N 
ATOM      9  C   UNL A   1      31.866  23.392  26.550  1.00  0.00     0.262 C 
ATOM     10  O   UNL A   1      30.969  23.200  27.378  1.00  0.00    -0.268 OA
ATOM     11  H   UNL A   1      32.551  21.577  26.970  1.00  0.00     0.164 HD
BRANCH   9  12
ATOM     12  C   UNL A   1      32.206  24.716  26.048  1.00  0.00     0.093 A 
ATOM     13  C   UNL A   1      34.029  28.006  26.120  1.00  0.00     0.046 C 
ATOM     14  C   UNL A   1      33.090  26.888  25.793  1.00  0.00    -0.025 A 
ATOM     15  C   UNL A   1      33.340  25.505  26.125  1.00  0.00     0.030 A 
ATOM     16  C   UNL A   1      31.869  26.999  25.171  1.00  0.00     0.074 A 
ATOM     17  S   UNL A   1      30.988  25.554  25.151  1.00  0.00    -0.123 S 
ATOM     18  Br  UNL A   1      31.183  28.586  24.435  1.00  0.00    -0.039 Br
ENDBRANCH   9  12
ENDBRANCH   7   8
BRANCH   7  19
ATOM     19  C   UNL A   1      32.890  22.230  23.785  1.00  0.00     0.038 C 
BRANCH  19  20
ATOM     20  C   UNL A   1      33.722  23.015  22.761  1.00  0.00    -0.015 C 
ATOM     21  C   UNL A   1      32.913  24.116  22.086  1.00  0.00     0.007 C 
ATOM     22  C   UNL A   1      34.931  23.625  23.487  1.00  0.00     0.007 C 
ENDBRANCH  19  20
ENDBRANCH   7  19
ENDBRANCH   4   7
ENDBRANCH   2   3
ENDBRANCH   1   2
BRANCH   1  23
ATOM     23  C   UNL A   1      38.833  20.295  25.667  1.00  0.00     0.118 C 
BRANCH  23  24
ATOM     24  N   UNL A   1      39.853  19.246  25.749  1.00  0.00    -0.352 N 
ATOM     25  C   UNL A   1      41.215  19.398  25.949  1.00  0.00     0.251 C 
ATOM     26  H   UNL A   1      39.531  18.321  25.648  1.00  0.00     0.163 HD
ATOM     27  O   UNL A   1      42.001  18.524  25.643  1.00  0.00    -0.269 OA
BRANCH  25  28
ATOM     28  C   UNL A   1      41.670  20.659  26.557  1.00  0.00     0.039 A 
ATOM     29  C   UNL A   1      42.177  21.707  25.785  1.00  0.00     0.014 A 
ATOM     30  C   UNL A   1      41.486  20.793  27.928  1.00  0.00     0.014 A 
ATOM     31  C   UNL A   1      42.423  22.930  26.405  1.00  0.00     0.010 A 
ATOM     32  C   UNL A   1      41.537  22.040  28.486  1.00  0.00     0.010 A 
ATOM     33  C   UNL A   1      42.082  23.091  27.756  1.00  0.00    -0.014 A 
BRANCH  33  34
ATOM     34  C   UNL A   1      42.217  24.374  28.430  1.00  0.00     0.031 A 
ATOM     35  C   UNL A   1      41.065  25.301  28.268  1.00  0.00     0.074 A 
ATOM     36  C   UNL A   1      43.195  24.590  29.338  1.00  0.00     0.049 A 
ATOM     37  N   UNL A   1      41.034  26.423  27.627  1.00  0.00    -0.248 NA
ATOM     38  C   UNL A   1      39.743  24.864  28.751  1.00  0.00     0.031 C 
ATOM     39  C   UNL A   1      44.201  23.646  29.846  1.00  0.00     0.029 A 
ATOM     40  N   UNL A   1      43.418  25.689  30.102  1.00  0.00    -0.354 N 
ATOM     41  C   UNL A   1      39.759  26.948  27.831  1.00  0.00     0.074 A 
ATOM     42  C   UNL A   1      38.961  25.863  28.337  1.00  0.00     0.031 C 
ATOM     43  C   UNL A   1      44.738  24.125  30.989  1.00  0.00     0.029 A 
ATOM     44  C   UNL A   1      44.258  25.478  31.189  1.00  0.00     0.049 A 
ATOM     45  H   UNL A   1      43.018  26.566  29.902  1.00  0.00     0.167 HD
ATOM     46  C   UNL A   1      39.531  28.293  27.798  1.00  0.00     0.037 A 
ATOM     47  C   UNL A   1      44.505  26.348  32.199  1.00  0.00     0.037 A 
ATOM     48  C   UNL A   1      40.653  28.990  27.215  1.00  0.00     0.049 A 
ATOM     49  C   UNL A   1      44.139  27.700  31.691  1.00  0.00     0.074 A 
ATOM     50  C   UNL A   1      41.302  28.932  25.996  1.00  0.00     0.029 A 
ATOM     51  N   UNL A   1      41.527  29.623  28.070  1.00  0.00    -0.354 N 
ATOM     52  N   UNL A   1      44.761  28.295  30.707  1.00  0.00    -0.248 NA
ATOM     53  C   UNL A   1      42.782  28.167  31.939  1.00  0.00     0.031 C 
ATOM     54  C   UNL A   1      42.687  29.055  26.313  1.00  0.00     0.029 A 
ATOM     55  C   UNL A   1      42.796  29.267  27.689  1.00  0.00     0.049 A 
ATOM     56  H   UNL A   1      41.286  30.219  28.815  1.00  0.00     0.167 HD
ATOM     57  C   UNL A   1      43.758  28.891  29.954  1.00  0.00     0.074 A 
ATOM     58  C   UNL A   1      42.569  28.843  30.805  1.00  0.00     0.031 C 
ATOM     59  C   UNL A   1      43.902  29.100  28.610  1.00  0.00     0.037 A 
BRANCH  46  60
ATOM     60  C   UNL A   1      38.478  29.018  28.607  1.00  0.00     0.058 A 
ATOM     61  C   UNL A   1      37.633  29.948  27.964  1.00  0.00     0.135 A 
ATOM     62  C   UNL A   1      38.444  29.047  30.019  1.00  0.00     0.135 A 
ATOM     63  F   UNL A   1      37.580  30.010  26.623  1.00  0.00    -0.206 F 
ATOM     64  C   UNL A   1      36.881  30.889  28.666  1.00  0.00     0.059 A 
ATOM     65  C   UNL A   1      37.659  29.940  30.740  1.00  0.00     0.059 A 
ATOM     66  F   UNL A   1      39.242  28.283  30.772  1.00  0.00    -0.206 F 
ATOM     67  C   UNL A   1      36.916  30.889  30.057  1.00  0.00     0.060 A 
BRANCH  67  68
ATOM     68  S   UNL A   1      36.042  32.173  30.966  1.00  0.00     0.124 S 
ATOM     69  O   UNL A   1      36.944  33.307  30.805  1.00  0.00    -0.237 OA
ATOM     70  O   UNL A   1      34.778  32.251  30.241  1.00  0.00    -0.237 OA
ATOM     71  O   UNL A   1      35.950  31.624  32.317  1.00  0.00    -0.744 OA
ENDBRANCH  67  68
ENDBRANCH  46  60
BRANCH  47  72
ATOM     72  C   UNL A   1      44.668  26.030  33.644  1.00  0.00     0.058 A 
ATOM     73  C   UNL A   1      45.928  26.084  34.266  1.00  0.00     0.135 A 
ATOM     74  C   UNL A   1      43.556  25.933  34.507  1.00  0.00     0.135 A 
ATOM     75  F   UNL A   1      47.040  26.195  33.524  1.00  0.00    -0.206 F 
ATOM     76  C   UNL A   1      46.073  26.094  35.659  1.00  0.00     0.059 A 
ATOM     77  C   UNL A   1      43.677  25.930  35.896  1.00  0.00     0.059 A 
ATOM     78  F   UNL A   1      42.304  25.929  34.028  1.00  0.00    -0.206 F 
ATOM     79  C   UNL A   1      44.939  26.038  36.468  1.00  0.00     0.060 A 
BRANCH  79  80
ATOM     80  S   UNL A   1      45.104  26.235  38.259  1.00  0.00     0.124 S 
ATOM     81  O   UNL A   1      46.445  26.800  38.377  1.00  0.00    -0.237 OA
ATOM     82  O   UNL A   1      44.002  27.138  38.573  1.00  0.00    -0.237 OA
ATOM     83  O   UNL A   1      44.953  24.874  38.765  1.00  0.00    -0.744 OA
ENDBRANCH  79  80
ENDBRANCH  47  72
BRANCH  59  84
ATOM     84  C   UNL A   1      45.269  28.924  27.991  1.00  0.00     0.058 A 
ATOM     85  C   UNL A   1      46.295  29.885  28.034  1.00  0.00     0.135 A 
ATOM     86  C   UNL A   1      45.606  27.658  27.491  1.00  0.00     0.135 A 
ATOM     87  F   UNL A   1      46.095  31.085  28.591  1.00  0.00    -0.206 F 
ATOM     88  C   UNL A   1      47.583  29.612  27.566  1.00  0.00     0.059 A 
ATOM     89  C   UNL A   1      46.891  27.353  27.047  1.00  0.00     0.059 A 
ATOM     90  F   UNL A   1      44.692  26.674  27.481  1.00  0.00    -0.206 F 
ATOM     91  C   UNL A   1      47.873  28.340  27.075  1.00  0.00     0.060 A 
BRANCH  91  92
ATOM     92  S   UNL A   1      49.556  27.963  26.539  1.00  0.00     0.124 S 
ATOM     93  O   UNL A   1      49.478  26.532  26.269  1.00  0.00    -0.237 OA
ATOM     94  O   UNL A   1      49.716  28.821  25.368  1.00  0.00    -0.237 OA
ATOM     95  O   UNL A   1      50.373  28.338  27.690  1.00  0.00    -0.744 OA
ENDBRANCH  91  92
ENDBRANCH  59  84
ENDBRANCH  33  34
ENDBRANCH  25  28
ENDBRANCH  23  24
ENDBRANCH   1  23
TORSDOF 17
ENDMDL
