MODEL 1
REMARK VINA RESULT:     -11.9      0.000      0.000
REMARK SMILES COc1cccc(N2C(=O)/C(=C/c3ccccc3C(=O)NCCCNC(=O)c3ccc(-c4c5nc(c(-c6c(F)cc(S(=O)(=O)[O-])cc6F)c6ccc([nH]6)c(-c6c(F)cc(S(=O)(=O)[O-])cc6F)c6nc(c(-c7c(F)cc(S(=O)(=O)[O-])cc7F)c7ccc4[nH]7)C=C6)C=C5)cc3)SC2=S)c1
REMARK SMILES IDX 23 1 22 2 21 3 19 4 20 5 18 7 13 8 14 9 15 10 17 11 16 12
REMARK SMILES IDX 12 13 8 14 9 15 95 16 10 17 11 18 94 19 96 20 7 21 3 22 4 23
REMARK SMILES IDX 97 24 5 25 6 26 2 27 1 28 24 29 25 30 26 31 27 33 28 34
REMARK SMILES IDX 29 35 93 36 30 37 92 38 31 39 32 40 33 41 86 42 34 43 91 44
REMARK SMILES IDX 85 45 87 46 35 47 90 48 84 49 83 50 36 52 70 53 49 54 69 55
REMARK SMILES IDX 50 56 53 57 68 58 88 59 51 60 52 61 67 63 89 64 54 65 37 66
REMARK SMILES IDX 38 67 47 68 39 69 40 70 46 71 48 72 41 73 42 74 43 75 44 76
REMARK SMILES IDX 45 77 71 78 72 79 81 80 73 81 74 82 80 83 82 84 75 85 76 86
REMARK SMILES IDX 77 87 78 88 79 89 55 90 56 91 65 92 57 93 58 94 64 95 66 96
REMARK SMILES IDX 59 97 60 98 61 99 62 100 63 101
REMARK H PARENT 21 6 25 32 87 51 53 62
REMARK Flexibility Score: inf
ROOT
ATOM      1  C   UNL A   1      37.314  22.991  24.860  1.00  0.00     0.042 C 
ENDROOT
BRANCH   1   2
ATOM      2  C   UNL A   1      36.034  23.665  25.300  1.00  0.00     0.118 C 
BRANCH   2   3
ATOM      3  N   UNL A   1      35.456  23.255  26.553  1.00  0.00    -0.352 N 
ATOM      4  C   UNL A   1      34.548  22.231  26.739  1.00  0.00     0.251 C 
ATOM      5  O   UNL A   1      34.236  21.912  27.885  1.00  0.00    -0.269 OA
ATOM      6  H   UNL A   1      35.735  23.753  27.356  1.00  0.00     0.163 HD
BRANCH   4   7
ATOM      7  C   UNL A   1      33.837  21.598  25.584  1.00  0.00     0.047 A 
ATOM      8  C   UNL A   1      32.690  22.081  24.909  1.00  0.00    -0.012 A 
ATOM      9  C   UNL A   1      32.051  21.220  23.995  1.00  0.00     0.009 A 
ATOM     10  C   UNL A   1      32.578  19.964  23.683  1.00  0.00     0.001 A 
ATOM     11  C   UNL A   1      34.386  20.354  25.215  1.00  0.00     0.014 A 
ATOM     12  C   UNL A   1      33.764  19.543  24.269  1.00  0.00     0.001 A 
BRANCH   8  13
ATOM     13  C   UNL A   1      31.995  23.367  25.137  1.00  0.00     0.030 C 
ATOM     14  N   UNL A   1      32.221  26.877  24.466  1.00  0.00    -0.261 N 
ATOM     15  C   UNL A   1      31.565  25.795  25.041  1.00  0.00     0.270 C 
ATOM     16  C   UNL A   1      33.035  26.593  23.380  1.00  0.00     0.152 C 
ATOM     17  O   UNL A   1      30.756  25.794  25.961  1.00  0.00    -0.268 OA
ATOM     18  C   UNL A   1      32.106  24.524  24.465  1.00  0.00     0.081 C 
ATOM     19  S   UNL A   1      33.034  24.856  23.070  1.00  0.00    -0.054 SA
ATOM     20  S   UNL A   1      33.867  27.640  22.375  1.00  0.00    -0.051 S 
BRANCH  14  21
ATOM     21  C   UNL A   1      32.091  28.185  25.021  1.00  0.00     0.054 A 
ATOM     22  C   UNL A   1      32.736  29.864  26.649  1.00  0.00     0.120 A 
ATOM     23  C   UNL A   1      31.779  30.737  26.122  1.00  0.00     0.046 A 
ATOM     24  C   UNL A   1      32.927  28.607  26.065  1.00  0.00     0.073 A 
ATOM     25  C   UNL A   1      30.979  30.346  25.051  1.00  0.00     0.006 A 
ATOM     26  C   UNL A   1      31.115  29.063  24.520  1.00  0.00     0.027 A 
BRANCH  22  27
ATOM     27  O   UNL A   1      33.397  30.356  27.743  1.00  0.00    -0.497 OA
ATOM     28  C   UNL A   1      34.660  30.965  27.511  1.00  0.00     0.278 C 
ENDBRANCH  22  27
ENDBRANCH  14  21
ENDBRANCH   8  13
ENDBRANCH   4   7
ENDBRANCH   2   3
ENDBRANCH   1   2
BRANCH   1  29
ATOM     29  C   UNL A   1      38.084  22.293  25.978  1.00  0.00     0.118 C 
BRANCH  29  30
ATOM     30  N   UNL A   1      39.540  22.339  25.842  1.00  0.00    -0.352 N 
ATOM     31  C   UNL A   1      40.482  23.283  26.162  1.00  0.00     0.251 C 
ATOM     32  H   UNL A   1      39.922  21.527  25.438  1.00  0.00     0.163 HD
ATOM     33  O   UNL A   1      41.648  23.062  25.845  1.00  0.00    -0.269 OA
BRANCH  31  34
ATOM     34  C   UNL A   1      40.135  24.587  26.752  1.00  0.00     0.039 A 
ATOM     35  C   UNL A   1      39.365  24.563  27.923  1.00  0.00     0.014 A 
ATOM     36  C   UNL A   1      40.678  25.782  26.301  1.00  0.00     0.014 A 
ATOM     37  C   UNL A   1      39.338  25.676  28.747  1.00  0.00     0.010 A 
ATOM     38  C   UNL A   1      40.788  26.836  27.189  1.00  0.00     0.010 A 
ATOM     39  C   UNL A   1      40.165  26.762  28.441  1.00  0.00    -0.014 A 
BRANCH  39  40
ATOM     40  C   UNL A   1      40.487  27.771  29.467  1.00  0.00     0.031 A 
ATOM     41  C   UNL A   1      39.586  28.949  29.655  1.00  0.00     0.074 A 
ATOM     42  C   UNL A   1      41.654  27.649  30.134  1.00  0.00     0.049 A 
ATOM     43  N   UNL A   1      39.736  29.975  30.446  1.00  0.00    -0.248 NA
ATOM     44  C   UNL A   1      38.380  29.010  28.810  1.00  0.00     0.031 C 
ATOM     45  C   UNL A   1      42.641  26.578  29.931  1.00  0.00     0.029 A 
ATOM     46  N   UNL A   1      42.218  28.423  31.113  1.00  0.00    -0.354 N 
ATOM     47  C   UNL A   1      38.654  30.805  30.185  1.00  0.00     0.074 A 
ATOM     48  C   UNL A   1      37.899  30.205  29.111  1.00  0.00     0.031 C 
ATOM     49  C   UNL A   1      43.656  26.735  30.793  1.00  0.00     0.029 A 
ATOM     50  C   UNL A   1      43.422  27.941  31.574  1.00  0.00     0.049 A 
ATOM     51  H   UNL A   1      41.802  29.247  31.454  1.00  0.00     0.167 HD
ATOM     52  C   UNL A   1      38.312  31.950  30.818  1.00  0.00     0.037 A 
ATOM     53  C   UNL A   1      44.243  28.425  32.525  1.00  0.00     0.037 A 
ATOM     54  C   UNL A   1      39.076  32.501  31.904  1.00  0.00     0.049 A 
ATOM     55  C   UNL A   1      43.819  29.680  33.235  1.00  0.00     0.074 A 
ATOM     56  C   UNL A   1      38.806  33.620  32.667  1.00  0.00     0.029 A 
ATOM     57  N   UNL A   1      40.266  31.963  32.381  1.00  0.00    -0.354 N 
ATOM     58  N   UNL A   1      42.748  30.415  33.035  1.00  0.00    -0.248 NA
ATOM     59  C   UNL A   1      44.698  30.171  34.301  1.00  0.00     0.031 C 
ATOM     60  C   UNL A   1      39.855  33.785  33.577  1.00  0.00     0.029 A 
ATOM     61  C   UNL A   1      40.752  32.737  33.419  1.00  0.00     0.049 A 
ATOM     62  H   UNL A   1      40.698  31.151  32.031  1.00  0.00     0.167 HD
ATOM     63  C   UNL A   1      42.811  31.440  33.969  1.00  0.00     0.074 A 
ATOM     64  C   UNL A   1      44.018  31.219  34.743  1.00  0.00     0.031 C 
ATOM     65  C   UNL A   1      41.954  32.472  34.170  1.00  0.00     0.037 A 
BRANCH  52  66
ATOM     66  C   UNL A   1      37.065  32.651  30.361  1.00  0.00     0.058 A 
ATOM     67  C   UNL A   1      35.825  32.433  30.985  1.00  0.00     0.135 A 
ATOM     68  C   UNL A   1      37.107  33.562  29.293  1.00  0.00     0.135 A 
ATOM     69  F   UNL A   1      35.720  31.553  31.993  1.00  0.00    -0.206 F 
ATOM     70  C   UNL A   1      34.669  33.071  30.551  1.00  0.00     0.059 A 
ATOM     71  C   UNL A   1      35.968  34.235  28.862  1.00  0.00     0.059 A 
ATOM     72  F   UNL A   1      38.262  33.799  28.652  1.00  0.00    -0.206 F 
ATOM     73  C   UNL A   1      34.751  33.974  29.490  1.00  0.00     0.060 A 
BRANCH  73  74
ATOM     74  S   UNL A   1      33.243  34.809  28.955  1.00  0.00     0.124 S 
ATOM     75  O   UNL A   1      32.525  34.952  30.218  1.00  0.00    -0.237 OA
ATOM     76  O   UNL A   1      33.760  36.044  28.377  1.00  0.00    -0.237 OA
ATOM     77  O   UNL A   1      32.656  33.872  28.003  1.00  0.00    -0.744 OA
ENDBRANCH  73  74
ENDBRANCH  52  66
BRANCH  53  78
ATOM     78  C   UNL A   1      45.503  27.713  32.874  1.00  0.00     0.058 A 
ATOM     79  C   UNL A   1      46.724  28.070  32.280  1.00  0.00     0.135 A 
ATOM     80  C   UNL A   1      45.521  26.674  33.818  1.00  0.00     0.135 A 
ATOM     81  F   UNL A   1      46.766  29.060  31.375  1.00  0.00    -0.206 F 
ATOM     82  C   UNL A   1      47.909  27.403  32.583  1.00  0.00     0.059 A 
ATOM     83  C   UNL A   1      46.697  26.011  34.159  1.00  0.00     0.059 A 
ATOM     84  F   UNL A   1      44.388  26.309  34.438  1.00  0.00    -0.206 F 
ATOM     85  C   UNL A   1      47.884  26.373  33.524  1.00  0.00     0.060 A 
BRANCH  85  86
ATOM     86  S   UNL A   1      49.429  25.526  33.924  1.00  0.00     0.124 S 
ATOM     87  O   UNL A   1      50.361  26.167  33.003  1.00  0.00    -0.237 OA
ATOM     88  O   UNL A   1      49.600  25.850  35.337  1.00  0.00    -0.237 OA
ATOM     89  O   UNL A   1      49.127  24.125  33.642  1.00  0.00    -0.744 OA
ENDBRANCH  85  86
ENDBRANCH  53  78
BRANCH  65  90
ATOM     90  C   UNL A   1      42.276  33.413  35.294  1.00  0.00     0.058 A 
ATOM     91  C   UNL A   1      41.862  33.159  36.608  1.00  0.00     0.135 A 
ATOM     92  C   UNL A   1      43.067  34.549  35.055  1.00  0.00     0.135 A 
ATOM     93  F   UNL A   1      41.098  32.090  36.883  1.00  0.00    -0.206 F 
ATOM     94  C   UNL A   1      42.202  34.012  37.650  1.00  0.00     0.059 A 
ATOM     95  C   UNL A   1      43.447  35.397  36.086  1.00  0.00     0.059 A 
ATOM     96  F   UNL A   1      43.497  34.827  33.814  1.00  0.00    -0.206 F 
ATOM     97  C   UNL A   1      43.000  35.127  37.379  1.00  0.00     0.060 A 
BRANCH  97  98
ATOM     98  S   UNL A   1      43.472  36.201  38.749  1.00  0.00     0.124 S 
ATOM     99  O   UNL A   1      44.806  35.704  39.065  1.00  0.00    -0.237 OA
ATOM    100  O   UNL A   1      43.414  37.526  38.139  1.00  0.00    -0.237 OA
ATOM    101  O   UNL A   1      42.447  35.936  39.756  1.00  0.00    -0.744 OA
ENDBRANCH  97  98
ENDBRANCH  65  90
ENDBRANCH  39  40
ENDBRANCH  31  34
ENDBRANCH  29  30
ENDBRANCH   1  29
TORSDOF 16
ENDMDL
MODEL 2
REMARK VINA RESULT:     -11.9      0.698      8.126
REMARK SMILES COc1cccc(N2C(=O)/C(=C/c3ccccc3C(=O)NCCCNC(=O)c3ccc(-c4c5nc(c(-c6c(F)cc(S(=O)(=O)[O-])cc6F)c6ccc([nH]6)c(-c6c(F)cc(S(=O)(=O)[O-])cc6F)c6nc(c(-c7c(F)cc(S(=O)(=O)[O-])cc7F)c7ccc4[nH]7)C=C6)C=C5)cc3)SC2=S)c1
REMARK SMILES IDX 23 1 22 2 21 3 19 4 20 5 18 7 13 8 14 9 15 10 17 11 16 12
REMARK SMILES IDX 12 13 8 14 9 15 95 16 10 17 11 18 94 19 96 20 7 21 3 22 4 23
REMARK SMILES IDX 97 24 5 25 6 26 2 27 1 28 24 29 25 30 26 31 27 33 28 34
REMARK SMILES IDX 29 35 93 36 30 37 92 38 31 39 32 40 33 41 86 42 34 43 91 44
REMARK SMILES IDX 85 45 87 46 35 47 90 48 84 49 83 50 36 52 70 53 49 54 69 55
REMARK SMILES IDX 50 56 53 57 68 58 88 59 51 60 52 61 67 63 89 64 54 65 37 66
REMARK SMILES IDX 38 67 47 68 39 69 40 70 46 71 48 72 41 73 42 74 43 75 44 76
REMARK SMILES IDX 45 77 71 78 72 79 81 80 73 81 74 82 80 83 82 84 75 85 76 86
REMARK SMILES IDX 77 87 78 88 79 89 55 90 56 91 65 92 57 93 58 94 64 95 66 96
REMARK SMILES IDX 59 97 60 98 61 99 62 100 63 101
REMARK H PARENT 21 6 25 32 87 51 53 62
REMARK Flexibility Score: inf
ROOT
ATOM      1  C   UNL A   1      37.432  23.076  24.927  1.00  0.00     0.042 C 
ENDROOT
BRANCH   1   2
ATOM      2  C   UNL A   1      35.926  23.114  25.066  1.00  0.00     0.118 C 
BRANCH   2   3
ATOM      3  N   UNL A   1      35.361  22.758  26.341  1.00  0.00    -0.352 N 
ATOM      4  C   UNL A   1      34.490  21.715  26.588  1.00  0.00     0.251 C 
ATOM      5  O   UNL A   1      34.187  21.454  27.751  1.00  0.00    -0.269 OA
ATOM      6  H   UNL A   1      35.619  23.313  27.113  1.00  0.00     0.163 HD
BRANCH   4   7
ATOM      7  C   UNL A   1      33.804  20.989  25.473  1.00  0.00     0.047 A 
ATOM      8  C   UNL A   1      32.640  21.386  24.774  1.00  0.00    -0.012 A 
ATOM      9  C   UNL A   1      32.035  20.449  23.912  1.00  0.00     0.009 A 
ATOM     10  C   UNL A   1      32.612  19.199  23.672  1.00  0.00     0.001 A 
ATOM     11  C   UNL A   1      34.403  19.748  25.175  1.00  0.00     0.014 A 
ATOM     12  C   UNL A   1      33.814  18.860  24.278  1.00  0.00     0.001 A 
BRANCH   8  13
ATOM     13  C   UNL A   1      31.893  22.654  24.930  1.00  0.00     0.030 C 
ATOM     14  N   UNL A   1      31.999  26.134  24.095  1.00  0.00    -0.261 N 
ATOM     15  C   UNL A   1      31.375  25.056  24.712  1.00  0.00     0.270 C 
ATOM     16  C   UNL A   1      32.841  25.831  23.035  1.00  0.00     0.152 C 
ATOM     17  O   UNL A   1      30.551  25.069  25.618  1.00  0.00    -0.268 OA
ATOM     18  C   UNL A   1      31.971  23.781  24.205  1.00  0.00     0.081 C 
ATOM     19  S   UNL A   1      32.910  24.082  22.810  1.00  0.00    -0.054 SA
ATOM     20  S   UNL A   1      33.650  26.859  21.994  1.00  0.00    -0.051 S 
BRANCH  14  21
ATOM     21  C   UNL A   1      31.811  27.461  24.584  1.00  0.00     0.054 A 
ATOM     22  C   UNL A   1      32.252  29.190  26.229  1.00  0.00     0.120 A 
ATOM     23  C   UNL A   1      31.385  30.051  25.550  1.00  0.00     0.046 A 
ATOM     24  C   UNL A   1      32.505  27.912  25.717  1.00  0.00     0.073 A 
ATOM     25  C   UNL A   1      30.732  29.630  24.394  1.00  0.00     0.006 A 
ATOM     26  C   UNL A   1      30.922  28.329  23.929  1.00  0.00     0.027 A 
BRANCH  22  27
ATOM     27  O   UNL A   1      32.766  29.713  27.386  1.00  0.00    -0.497 OA
ATOM     28  C   UNL A   1      33.678  30.794  27.253  1.00  0.00     0.278 C 
ENDBRANCH  22  27
ENDBRANCH  14  21
ENDBRANCH   8  13
ENDBRANCH   4   7
ENDBRANCH   2   3
ENDBRANCH   1   2
BRANCH   1  29
ATOM     29  C   UNL A   1      38.134  22.098  25.865  1.00  0.00     0.118 C 
BRANCH  29  30
ATOM     30  N   UNL A   1      39.594  22.100  25.774  1.00  0.00    -0.352 N 
ATOM     31  C   UNL A   1      40.551  23.031  26.089  1.00  0.00     0.251 C 
ATOM     32  H   UNL A   1      39.965  21.264  25.413  1.00  0.00     0.163 HD
ATOM     33  O   UNL A   1      41.720  22.768  25.817  1.00  0.00    -0.269 OA
BRANCH  31  34
ATOM     34  C   UNL A   1      40.221  24.365  26.618  1.00  0.00     0.039 A 
ATOM     35  C   UNL A   1      39.454  24.405  27.790  1.00  0.00     0.014 A 
ATOM     36  C   UNL A   1      40.778  25.532  26.110  1.00  0.00     0.014 A 
ATOM     37  C   UNL A   1      39.443  25.556  28.561  1.00  0.00     0.010 A 
ATOM     38  C   UNL A   1      40.903  26.624  26.948  1.00  0.00     0.010 A 
ATOM     39  C   UNL A   1      40.283  26.617  28.203  1.00  0.00    -0.014 A 
BRANCH  39  40
ATOM     40  C   UNL A   1      40.620  27.668  29.180  1.00  0.00     0.031 A 
ATOM     41  C   UNL A   1      41.843  27.527  30.027  1.00  0.00     0.074 A 
ATOM     42  C   UNL A   1      39.742  28.680  29.352  1.00  0.00     0.049 A 
ATOM     43  N   UNL A   1      42.266  28.300  30.988  1.00  0.00    -0.248 NA
ATOM     44  C   UNL A   1      42.680  26.335  29.798  1.00  0.00     0.031 C 
ATOM     45  C   UNL A   1      38.469  28.833  28.634  1.00  0.00     0.029 A 
ATOM     46  N   UNL A   1      39.776  29.770  30.180  1.00  0.00    -0.354 N 
ATOM     47  C   UNL A   1      43.406  27.683  31.485  1.00  0.00     0.074 A 
ATOM     48  C   UNL A   1      43.567  26.436  30.775  1.00  0.00     0.031 C 
ATOM     49  C   UNL A   1      37.874  29.973  29.013  1.00  0.00     0.029 A 
ATOM     50  C   UNL A   1      38.693  30.608  30.035  1.00  0.00     0.049 A 
ATOM     51  H   UNL A   1      40.506  29.939  30.818  1.00  0.00     0.167 HD
ATOM     52  C   UNL A   1      44.258  28.145  32.428  1.00  0.00     0.037 A 
ATOM     53  C   UNL A   1      38.400  31.762  30.664  1.00  0.00     0.037 A 
ATOM     54  C   UNL A   1      44.078  29.406  33.093  1.00  0.00     0.049 A 
ATOM     55  C   UNL A   1      39.382  32.268  31.683  1.00  0.00     0.074 A 
ATOM     56  C   UNL A   1      44.898  30.015  34.024  1.00  0.00     0.029 A 
ATOM     57  N   UNL A   1      42.996  30.256  32.891  1.00  0.00    -0.354 N 
ATOM     58  N   UNL A   1      40.503  31.714  32.087  1.00  0.00    -0.248 NA
ATOM     59  C   UNL A   1      39.074  33.549  32.326  1.00  0.00     0.031 C 
ATOM     60  C   UNL A   1      44.290  31.211  34.417  1.00  0.00     0.029 A 
ATOM     61  C   UNL A   1      43.119  31.377  33.691  1.00  0.00     0.049 A 
ATOM     62  H   UNL A   1      42.253  30.084  32.269  1.00  0.00     0.167 HD
ATOM     63  C   UNL A   1      41.049  32.594  33.011  1.00  0.00     0.074 A 
ATOM     64  C   UNL A   1      40.141  33.722  33.093  1.00  0.00     0.031 C 
ATOM     65  C   UNL A   1      42.194  32.483  33.731  1.00  0.00     0.037 A 
BRANCH  52  66
ATOM     66  C   UNL A   1      45.446  27.292  32.769  1.00  0.00     0.058 A 
ATOM     67  C   UNL A   1      46.668  27.423  32.087  1.00  0.00     0.135 A 
ATOM     68  C   UNL A   1      45.372  26.339  33.798  1.00  0.00     0.135 A 
ATOM     69  F   UNL A   1      46.789  28.299  31.077  1.00  0.00    -0.206 F 
ATOM     70  C   UNL A   1      47.762  26.623  32.393  1.00  0.00     0.059 A 
ATOM     71  C   UNL A   1      46.465  25.549  34.141  1.00  0.00     0.059 A 
ATOM     72  F   UNL A   1      44.226  26.162  34.474  1.00  0.00    -0.206 F 
ATOM     73  C   UNL A   1      47.652  25.690  33.425  1.00  0.00     0.060 A 
BRANCH  73  74
ATOM     74  S   UNL A   1      49.090  24.675  33.822  1.00  0.00     0.124 S 
ATOM     75  O   UNL A   1      49.727  24.547  32.515  1.00  0.00    -0.237 OA
ATOM     76  O   UNL A   1      49.797  25.504  34.792  1.00  0.00    -0.237 OA
ATOM     77  O   UNL A   1      48.505  23.450  34.357  1.00  0.00    -0.744 OA
ENDBRANCH  73  74
ENDBRANCH  52  66
BRANCH  53  78
ATOM     78  C   UNL A   1      37.162  32.517  30.325  1.00  0.00     0.058 A 
ATOM     79  C   UNL A   1      37.166  33.506  29.330  1.00  0.00     0.135 A 
ATOM     80  C   UNL A   1      35.944  32.256  30.975  1.00  0.00     0.135 A 
ATOM     81  F   UNL A   1      38.302  33.791  28.673  1.00  0.00    -0.206 F 
ATOM     82  C   UNL A   1      36.021  34.232  29.012  1.00  0.00     0.059 A 
ATOM     83  C   UNL A   1      34.778  32.948  30.656  1.00  0.00     0.059 A 
ATOM     84  F   UNL A   1      35.874  31.302  31.916  1.00  0.00    -0.206 F 
ATOM     85  C   UNL A   1      34.831  33.946  29.683  1.00  0.00     0.060 A 
BRANCH  85  86
ATOM     86  S   UNL A   1      33.346  34.880  29.252  1.00  0.00     0.124 S 
ATOM     87  O   UNL A   1      32.738  34.017  28.246  1.00  0.00    -0.237 OA
ATOM     88  O   UNL A   1      32.650  34.959  30.532  1.00  0.00    -0.237 OA
ATOM     89  O   UNL A   1      33.878  36.147  28.756  1.00  0.00    -0.744 OA
ENDBRANCH  85  86
ENDBRANCH  53  78
BRANCH  65  90
ATOM     90  C   UNL A   1      42.540  33.628  34.636  1.00  0.00     0.058 A 
ATOM     91  C   UNL A   1      43.154  34.791  34.149  1.00  0.00     0.135 A 
ATOM     92  C   UNL A   1      42.192  33.580  35.996  1.00  0.00     0.135 A 
ATOM     93  F   UNL A   1      43.511  34.879  32.859  1.00  0.00    -0.206 F 
ATOM     94  C   UNL A   1      43.431  35.865  34.986  1.00  0.00     0.059 A 
ATOM     95  C   UNL A   1      42.430  34.655  36.843  1.00  0.00     0.059 A 
ATOM     96  F   UNL A   1      41.593  32.492  36.504  1.00  0.00    -0.206 F 
ATOM     97  C   UNL A   1      43.061  35.788  36.331  1.00  0.00     0.060 A 
BRANCH  97  98
ATOM     98  S   UNL A   1      43.386  37.207  37.396  1.00  0.00     0.124 S 
ATOM     99  O   UNL A   1      43.776  38.221  36.421  1.00  0.00    -0.237 OA
ATOM    100  O   UNL A   1      42.095  37.412  38.044  1.00  0.00    -0.237 OA
ATOM    101  O   UNL A   1      44.454  36.735  38.273  1.00  0.00    -0.744 OA
ENDBRANCH  97  98
ENDBRANCH  65  90
ENDBRANCH  39  40
ENDBRANCH  31  34
ENDBRANCH  29  30
ENDBRANCH   1  29
TORSDOF 16
ENDMDL
MODEL 3
REMARK VINA RESULT:     -11.9      2.423      8.547
REMARK SMILES COc1cccc(N2C(=O)/C(=C/c3ccccc3C(=O)NCCCNC(=O)c3ccc(-c4c5nc(c(-c6c(F)cc(S(=O)(=O)[O-])cc6F)c6ccc([nH]6)c(-c6c(F)cc(S(=O)(=O)[O-])cc6F)c6nc(c(-c7c(F)cc(S(=O)(=O)[O-])cc7F)c7ccc4[nH]7)C=C6)C=C5)cc3)SC2=S)c1
REMARK SMILES IDX 23 1 22 2 21 3 19 4 20 5 18 7 13 8 14 9 15 10 17 11 16 12
REMARK SMILES IDX 12 13 8 14 9 15 95 16 10 17 11 18 94 19 96 20 7 21 3 22 4 23
REMARK SMILES IDX 97 24 5 25 6 26 2 27 1 28 24 29 25 30 26 31 27 33 28 34
REMARK SMILES IDX 29 35 93 36 30 37 92 38 31 39 32 40 33 41 86 42 34 43 91 44
REMARK SMILES IDX 85 45 87 46 35 47 90 48 84 49 83 50 36 52 70 53 49 54 69 55
REMARK SMILES IDX 50 56 53 57 68 58 88 59 51 60 52 61 67 63 89 64 54 65 37 66
REMARK SMILES IDX 38 67 47 68 39 69 40 70 46 71 48 72 41 73 42 74 43 75 44 76
REMARK SMILES IDX 45 77 71 78 72 79 81 80 73 81 74 82 80 83 82 84 75 85 76 86
REMARK SMILES IDX 77 87 78 88 79 89 55 90 56 91 65 92 57 93 58 94 64 95 66 96
REMARK SMILES IDX 59 97 60 98 61 99 62 100 63 101
REMARK H PARENT 21 6 25 32 87 51 53 62
REMARK Flexibility Score: inf
ROOT
ATOM      1  C   UNL A   1      38.432  23.549  26.633  1.00  0.00     0.042 C 
ENDROOT
BRANCH   1   2
ATOM      2  C   UNL A   1      37.172  23.627  25.801  1.00  0.00     0.118 C 
BRANCH   2   3
ATOM      3  N   UNL A   1      37.299  23.482  24.374  1.00  0.00    -0.352 N 
ATOM      4  C   UNL A   1      36.380  22.899  23.525  1.00  0.00     0.251 C 
ATOM      5  O   UNL A   1      36.567  22.958  22.311  1.00  0.00    -0.269 OA
ATOM      6  H   UNL A   1      38.123  23.833  23.963  1.00  0.00     0.163 HD
BRANCH   4   7
ATOM      7  C   UNL A   1      35.240  22.082  24.050  1.00  0.00     0.047 A 
ATOM      8  C   UNL A   1      33.860  22.388  23.988  1.00  0.00    -0.012 A 
ATOM      9  C   UNL A   1      32.973  21.591  24.740  1.00  0.00     0.009 A 
ATOM     10  C   UNL A   1      33.417  20.474  25.450  1.00  0.00     0.001 A 
ATOM     11  C   UNL A   1      35.663  20.918  24.723  1.00  0.00     0.014 A 
ATOM     12  C   UNL A   1      34.758  20.117  25.416  1.00  0.00     0.001 A 
BRANCH   8  13
ATOM     13  C   UNL A   1      33.230  23.541  23.307  1.00  0.00     0.030 C 
ATOM     14  N   UNL A   1      31.442  26.579  23.932  1.00  0.00    -0.261 N 
ATOM     15  C   UNL A   1      32.006  25.667  23.048  1.00  0.00     0.270 C 
ATOM     16  C   UNL A   1      31.979  26.606  25.211  1.00  0.00     0.152 C 
ATOM     17  O   UNL A   1      31.749  25.496  21.863  1.00  0.00    -0.268 OA
ATOM     18  C   UNL A   1      32.924  24.754  23.796  1.00  0.00     0.081 C 
ATOM     19  S   UNL A   1      33.241  25.381  25.353  1.00  0.00    -0.054 SA
ATOM     20  S   UNL A   1      31.646  27.641  26.482  1.00  0.00    -0.051 S 
BRANCH  14  21
ATOM     21  C   UNL A   1      30.336  27.389  23.537  1.00  0.00     0.054 A 
ATOM     22  C   UNL A   1      29.450  29.431  22.571  1.00  0.00     0.120 A 
ATOM     23  C   UNL A   1      28.150  28.978  22.817  1.00  0.00     0.046 A 
ATOM     24  C   UNL A   1      30.542  28.613  22.884  1.00  0.00     0.073 A 
ATOM     25  C   UNL A   1      27.934  27.740  23.416  1.00  0.00     0.006 A 
ATOM     26  C   UNL A   1      29.025  26.960  23.802  1.00  0.00     0.027 A 
BRANCH  22  27
ATOM     27  O   UNL A   1      29.511  30.693  22.043  1.00  0.00    -0.497 OA
ATOM     28  C   UNL A   1      28.490  31.056  21.125  1.00  0.00     0.278 C 
ENDBRANCH  22  27
ENDBRANCH  14  21
ENDBRANCH   8  13
ENDBRANCH   4   7
ENDBRANCH   2   3
ENDBRANCH   1   2
BRANCH   1  29
ATOM     29  C   UNL A   1      39.125  24.889  26.866  1.00  0.00     0.118 C 
BRANCH  29  30
ATOM     30  N   UNL A   1      40.178  25.212  25.902  1.00  0.00    -0.352 N 
ATOM     31  C   UNL A   1      41.386  25.850  26.014  1.00  0.00     0.251 C 
ATOM     32  H   UNL A   1      39.978  24.909  24.988  1.00  0.00     0.163 HD
ATOM     33  O   UNL A   1      42.029  26.048  24.985  1.00  0.00    -0.269 OA
BRANCH  31  34
ATOM     34  C   UNL A   1      41.877  26.411  27.284  1.00  0.00     0.039 A 
ATOM     35  C   UNL A   1      42.450  27.688  27.228  1.00  0.00     0.014 A 
ATOM     36  C   UNL A   1      41.634  25.811  28.512  1.00  0.00     0.014 A 
ATOM     37  C   UNL A   1      42.561  28.440  28.386  1.00  0.00     0.010 A 
ATOM     38  C   UNL A   1      41.591  26.608  29.641  1.00  0.00     0.010 A 
ATOM     39  C   UNL A   1      42.001  27.944  29.569  1.00  0.00    -0.014 A 
BRANCH  39  40
ATOM     40  C   UNL A   1      41.723  28.846  30.702  1.00  0.00     0.031 A 
ATOM     41  C   UNL A   1      42.561  28.762  31.937  1.00  0.00     0.074 A 
ATOM     42  C   UNL A   1      40.642  29.651  30.623  1.00  0.00     0.049 A 
ATOM     43  N   UNL A   1      42.428  29.411  33.061  1.00  0.00    -0.248 NA
ATOM     44  C   UNL A   1      43.665  27.786  31.930  1.00  0.00     0.031 C 
ATOM     45  C   UNL A   1      39.711  29.715  29.487  1.00  0.00     0.029 A 
ATOM     46  N   UNL A   1      40.134  30.566  31.506  1.00  0.00    -0.354 N 
ATOM     47  C   UNL A   1      43.421  28.914  33.894  1.00  0.00     0.074 A 
ATOM     48  C   UNL A   1      44.097  27.858  33.179  1.00  0.00     0.031 C 
ATOM     49  C   UNL A   1      38.783  30.654  29.722  1.00  0.00     0.029 A 
ATOM     50  C   UNL A   1      39.018  31.224  31.040  1.00  0.00     0.049 A 
ATOM     51  H   UNL A   1      40.530  30.738  32.390  1.00  0.00     0.167 HD
ATOM     52  C   UNL A   1      43.753  29.335  35.135  1.00  0.00     0.037 A 
ATOM     53  C   UNL A   1      38.272  32.183  31.620  1.00  0.00     0.037 A 
ATOM     54  C   UNL A   1      43.072  30.410  35.804  1.00  0.00     0.049 A 
ATOM     55  C   UNL A   1      38.685  32.655  32.986  1.00  0.00     0.074 A 
ATOM     56  C   UNL A   1      43.348  30.971  37.036  1.00  0.00     0.029 A 
ATOM     57  N   UNL A   1      41.975  31.090  35.286  1.00  0.00    -0.354 N 
ATOM     58  N   UNL A   1      39.680  32.233  33.733  1.00  0.00    -0.248 NA
ATOM     59  C   UNL A   1      37.892  33.732  33.586  1.00  0.00     0.031 C 
ATOM     60  C   UNL A   1      42.390  31.960  37.283  1.00  0.00     0.029 A 
ATOM     61  C   UNL A   1      41.552  32.055  36.181  1.00  0.00     0.049 A 
ATOM     62  H   UNL A   1      41.562  30.910  34.411  1.00  0.00     0.167 HD
ATOM     63  C   UNL A   1      39.649  33.012  34.881  1.00  0.00     0.074 A 
ATOM     64  C   UNL A   1      38.546  33.941  34.720  1.00  0.00     0.031 C 
ATOM     65  C   UNL A   1      40.454  32.967  35.973  1.00  0.00     0.037 A 
BRANCH  52  66
ATOM     66  C   UNL A   1      44.898  28.645  35.821  1.00  0.00     0.058 A 
ATOM     67  C   UNL A   1      46.225  29.076  35.655  1.00  0.00     0.135 A 
ATOM     68  C   UNL A   1      44.669  27.546  36.664  1.00  0.00     0.135 A 
ATOM     69  F   UNL A   1      46.506  30.105  34.840  1.00  0.00    -0.206 F 
ATOM     70  C   UNL A   1      47.284  28.427  36.278  1.00  0.00     0.059 A 
ATOM     71  C   UNL A   1      45.712  26.901  37.322  1.00  0.00     0.059 A 
ATOM     72  F   UNL A   1      43.422  27.083  36.849  1.00  0.00    -0.206 F 
ATOM     73  C   UNL A   1      47.018  27.342  37.113  1.00  0.00     0.060 A 
BRANCH  73  74
ATOM     74  S   UNL A   1      48.404  26.526  37.929  1.00  0.00     0.124 S 
ATOM     75  O   UNL A   1      48.284  27.038  39.290  1.00  0.00    -0.237 OA
ATOM     76  O   UNL A   1      48.082  25.114  37.753  1.00  0.00    -0.237 OA
ATOM     77  O   UNL A   1      49.565  26.999  37.182  1.00  0.00    -0.744 OA
ENDBRANCH  73  74
ENDBRANCH  52  66
BRANCH  53  78
ATOM     78  C   UNL A   1      37.103  32.769  30.907  1.00  0.00     0.058 A 
ATOM     79  C   UNL A   1      37.270  33.799  29.969  1.00  0.00     0.135 A 
ATOM     80  C   UNL A   1      35.798  32.304  31.134  1.00  0.00     0.135 A 
ATOM     81  F   UNL A   1      38.497  34.278  29.709  1.00  0.00    -0.206 F 
ATOM     82  C   UNL A   1      36.186  34.369  29.306  1.00  0.00     0.059 A 
ATOM     83  C   UNL A   1      34.700  32.838  30.463  1.00  0.00     0.059 A 
ATOM     84  F   UNL A   1      35.581  31.302  32.001  1.00  0.00    -0.206 F 
ATOM     85  C   UNL A   1      34.904  33.882  29.561  1.00  0.00     0.060 A 
BRANCH  85  86
ATOM     86  S   UNL A   1      33.506  34.615  28.683  1.00  0.00     0.124 S 
ATOM     87  O   UNL A   1      34.136  35.755  28.028  1.00  0.00    -0.237 OA
ATOM     88  O   UNL A   1      33.087  33.525  27.807  1.00  0.00    -0.237 OA
ATOM     89  O   UNL A   1      32.569  34.942  29.755  1.00  0.00    -0.744 OA
ENDBRANCH  85  86
ENDBRANCH  53  78
BRANCH  65  90
ATOM     90  C   UNL A   1      40.190  33.974  37.053  1.00  0.00     0.058 A 
ATOM     91  C   UNL A   1      40.751  35.258  37.014  1.00  0.00     0.135 A 
ATOM     92  C   UNL A   1      39.312  33.664  38.104  1.00  0.00     0.135 A 
ATOM     93  F   UNL A   1      41.602  35.597  36.033  1.00  0.00    -0.206 F 
ATOM     94  C   UNL A   1      40.466  36.200  37.996  1.00  0.00     0.059 A 
ATOM     95  C   UNL A   1      38.988  34.600  39.077  1.00  0.00     0.059 A 
ATOM     96  F   UNL A   1      38.743  32.451  38.176  1.00  0.00    -0.206 F 
ATOM     97  C   UNL A   1      39.579  35.861  39.021  1.00  0.00     0.060 A 
BRANCH  97  98
ATOM     98  S   UNL A   1      39.184  37.108  40.262  1.00  0.00     0.124 S 
ATOM     99  O   UNL A   1      40.509  37.442  40.775  1.00  0.00    -0.237 OA
ATOM    100  O   UNL A   1      38.531  38.143  39.467  1.00  0.00    -0.237 OA
ATOM    101  O   UNL A   1      38.311  36.396  41.192  1.00  0.00    -0.744 OA
ENDBRANCH  97  98
ENDBRANCH  65  90
ENDBRANCH  39  40
ENDBRANCH  31  34
ENDBRANCH  29  30
ENDBRANCH   1  29
TORSDOF 16
ENDMDL
