MODEL 1
REMARK VINA RESULT:     -12.8      0.000      0.000
REMARK SMILES COc1cc(C)cc2c1O[C@H](C(F)(F)F)C(C(=O)NCCCNC(=O)c1ccc(-c3c4nc(c(-c5c(F)cc(S(=O)(=O)[O-])cc5F)c5ccc([nH]5)c(-c5c(F)cc(S(=O)(=O)[O-])cc5F)c5nc(c(-c6c(F)cc(S(=O)(=O)[O-])cc6F)c6ccc3[nH]6)C=C5)C=C4)cc1)=C2
REMARK SMILES IDX 22 1 21 2 20 3 19 4 17 5 18 6 16 8 3 9 4 10 9 11 5 12 8 13
REMARK SMILES IDX 10 14 6 15 7 16 92 17 11 18 2 19 1 20 12 21 13 22 14 23
REMARK SMILES IDX 15 24 23 25 24 26 25 28 26 29 27 30 91 31 28 32 90 33 29 34
REMARK SMILES IDX 30 35 31 36 84 37 32 38 89 39 83 40 85 41 33 42 88 43 82 44
REMARK SMILES IDX 81 45 34 47 68 48 47 49 67 50 48 51 51 52 66 53 86 54 49 55
REMARK SMILES IDX 50 56 65 58 87 59 52 60 35 61 36 62 45 63 37 64 38 65 44 66
REMARK SMILES IDX 46 67 39 68 40 69 41 70 42 71 43 72 69 73 70 74 79 75 71 76
REMARK SMILES IDX 72 77 78 78 80 79 73 80 74 81 75 82 76 83 77 84 53 85 54 86
REMARK SMILES IDX 63 87 55 88 56 89 62 90 64 91 57 92 58 93 59 94 60 95 61 96
REMARK H PARENT 19 7 23 27 85 46 51 57
REMARK Flexibility Score: inf
ROOT
ATOM      1  C   UNL A   1      35.390  31.044  28.285  1.00  0.00     0.118 C 
ENDROOT
BRANCH   1   2
ATOM      2  C   UNL A   1      34.629  29.896  27.634  1.00  0.00     0.042 C 
BRANCH   2   3
ATOM      3  C   UNL A   1      33.412  30.374  26.857  1.00  0.00     0.118 C 
BRANCH   3   4
ATOM      4  N   UNL A   1      33.466  29.977  25.457  1.00  0.00    -0.352 N 
ATOM      5  C   UNL A   1      33.176  28.878  24.726  1.00  0.00     0.251 C 
ATOM      6  O   UNL A   1      33.389  28.987  23.513  1.00  0.00    -0.270 OA
ATOM      7  H   UNL A   1      33.807  30.707  24.891  1.00  0.00     0.163 HD
BRANCH   5   8
ATOM      8  C   UNL A   1      32.627  27.601  25.265  1.00  0.00     0.067 C 
ATOM      9  C   UNL A   1      31.277  23.972  26.881  1.00  0.00     0.161 A 
ATOM     10  C   UNL A   1      32.122  22.861  26.893  1.00  0.00     0.054 A 
ATOM     11  C   UNL A   1      31.743  25.202  26.411  1.00  0.00     0.169 A 
ATOM     12  C   UNL A   1      33.453  22.985  26.475  1.00  0.00    -0.047 A 
ATOM     13  C   UNL A   1      33.065  25.337  25.983  1.00  0.00     0.021 A 
ATOM     14  O   UNL A   1      30.884  26.266  26.439  1.00  0.00    -0.471 OA
ATOM     15  C   UNL A   1      34.374  21.800  26.480  1.00  0.00     0.044 C 
ATOM     16  C   UNL A   1      33.918  24.229  26.023  1.00  0.00     0.015 A 
ATOM     17  C   UNL A   1      33.533  26.635  25.511  1.00  0.00     0.025 C 
ATOM     18  C   UNL A   1      31.165  27.333  25.496  1.00  0.00     0.314 C 
BRANCH   9  19
ATOM     19  O   UNL A   1      29.953  23.861  27.222  1.00  0.00    -0.493 OA
ATOM     20  C   UNL A   1      29.514  22.505  27.210  1.00  0.00     0.278 C 
ENDBRANCH   9  19
BRANCH  18  21
ATOM     21  C   UNL A   1      30.392  27.073  24.189  1.00  0.00     0.429 C 
ATOM     22  F   UNL A   1      29.313  26.284  24.419  1.00  0.00    -0.167 F 
ATOM     23  F   UNL A   1      29.916  28.213  23.633  1.00  0.00    -0.167 F 
ATOM     24  F   UNL A   1      31.145  26.469  23.242  1.00  0.00    -0.167 F 
ENDBRANCH  18  21
ENDBRANCH   5   8
ENDBRANCH   3   4
ENDBRANCH   2   3
ENDBRANCH   1   2
BRANCH   1  25
ATOM     25  N   UNL A   1      35.442  30.916  29.741  1.00  0.00    -0.352 N 
ATOM     26  C   UNL A   1      36.352  30.276  30.547  1.00  0.00     0.251 C 
ATOM     27  H   UNL A   1      34.706  31.360  30.220  1.00  0.00     0.163 HD
ATOM     28  O   UNL A   1      36.088  30.092  31.733  1.00  0.00    -0.269 OA
BRANCH  26  29
ATOM     29  C   UNL A   1      37.634  29.799  29.988  1.00  0.00     0.039 A 
ATOM     30  C   UNL A   1      38.534  29.102  30.792  1.00  0.00     0.014 A 
ATOM     31  C   UNL A   1      37.941  30.044  28.646  1.00  0.00     0.014 A 
ATOM     32  C   UNL A   1      39.810  28.830  30.319  1.00  0.00     0.010 A 
ATOM     33  C   UNL A   1      39.188  29.667  28.137  1.00  0.00     0.010 A 
ATOM     34  C   UNL A   1      40.153  29.102  28.985  1.00  0.00    -0.014 A 
BRANCH  34  35
ATOM     35  C   UNL A   1      41.526  28.776  28.519  1.00  0.00     0.031 A 
ATOM     36  C   UNL A   1      42.638  29.787  28.620  1.00  0.00     0.074 A 
ATOM     37  C   UNL A   1      41.786  27.525  28.090  1.00  0.00     0.049 A 
ATOM     38  N   UNL A   1      43.903  29.650  28.311  1.00  0.00    -0.248 NA
ATOM     39  C   UNL A   1      42.290  31.123  29.129  1.00  0.00     0.031 C 
ATOM     40  C   UNL A   1      40.787  26.458  27.959  1.00  0.00     0.029 A 
ATOM     41  N   UNL A   1      42.962  26.919  27.730  1.00  0.00    -0.354 N 
ATOM     42  C   UNL A   1      44.495  30.882  28.565  1.00  0.00     0.074 A 
ATOM     43  C   UNL A   1      43.448  31.765  29.032  1.00  0.00     0.031 C 
ATOM     44  C   UNL A   1      41.405  25.314  27.631  1.00  0.00     0.029 A 
ATOM     45  C   UNL A   1      42.828  25.578  27.454  1.00  0.00     0.049 A 
ATOM     46  H   UNL A   1      43.820  27.399  27.674  1.00  0.00     0.167 HD
ATOM     47  C   UNL A   1      45.795  31.239  28.433  1.00  0.00     0.037 A 
ATOM     48  C   UNL A   1      43.745  24.662  27.091  1.00  0.00     0.037 A 
ATOM     49  C   UNL A   1      46.836  30.344  27.996  1.00  0.00     0.049 A 
ATOM     50  C   UNL A   1      45.175  25.089  26.932  1.00  0.00     0.074 A 
ATOM     51  C   UNL A   1      48.185  30.610  27.834  1.00  0.00     0.029 A 
ATOM     52  N   UNL A   1      46.648  29.010  27.664  1.00  0.00    -0.354 N 
ATOM     53  N   UNL A   1      45.709  26.266  27.154  1.00  0.00    -0.248 NA
ATOM     54  C   UNL A   1      46.122  24.074  26.453  1.00  0.00     0.031 C 
ATOM     55  C   UNL A   1      48.807  29.444  27.373  1.00  0.00     0.029 A 
ATOM     56  C   UNL A   1      47.854  28.443  27.285  1.00  0.00     0.049 A 
ATOM     57  H   UNL A   1      45.786  28.538  27.693  1.00  0.00     0.167 HD
ATOM     58  C   UNL A   1      47.056  26.134  26.844  1.00  0.00     0.074 A 
ATOM     59  C   UNL A   1      47.259  24.757  26.440  1.00  0.00     0.031 C 
ATOM     60  C   UNL A   1      48.034  27.071  26.882  1.00  0.00     0.037 A 
BRANCH  47  61
ATOM     61  C   UNL A   1      46.171  32.659  28.756  1.00  0.00     0.058 A 
ATOM     62  C   UNL A   1      46.057  33.685  27.807  1.00  0.00     0.135 A 
ATOM     63  C   UNL A   1      46.596  33.008  30.049  1.00  0.00     0.135 A 
ATOM     64  F   UNL A   1      45.672  33.404  26.551  1.00  0.00    -0.206 F 
ATOM     65  C   UNL A   1      46.363  35.005  28.121  1.00  0.00     0.059 A 
ATOM     66  C   UNL A   1      46.887  34.324  30.393  1.00  0.00     0.059 A 
ATOM     67  F   UNL A   1      46.725  32.064  30.995  1.00  0.00    -0.206 F 
ATOM     68  C   UNL A   1      46.776  35.316  29.419  1.00  0.00     0.060 A 
BRANCH  68  69
ATOM     69  S   UNL A   1      47.155  37.037  29.813  1.00  0.00     0.124 S 
ATOM     70  O   UNL A   1      48.284  37.297  28.926  1.00  0.00    -0.237 OA
ATOM     71  O   UNL A   1      45.909  37.717  29.469  1.00  0.00    -0.237 OA
ATOM     72  O   UNL A   1      47.471  36.999  31.238  1.00  0.00    -0.744 OA
ENDBRANCH  68  69
ENDBRANCH  47  61
BRANCH  48  73
ATOM     73  C   UNL A   1      43.326  23.256  26.856  1.00  0.00     0.058 A 
ATOM     74  C   UNL A   1      43.235  22.737  25.557  1.00  0.00     0.135 A 
ATOM     75  C   UNL A   1      43.056  22.389  27.928  1.00  0.00     0.135 A 
ATOM     76  F   UNL A   1      43.477  23.528  24.501  1.00  0.00    -0.206 F 
ATOM     77  C   UNL A   1      42.896  21.408  25.327  1.00  0.00     0.059 A 
ATOM     78  C   UNL A   1      42.741  21.051  27.725  1.00  0.00     0.059 A 
ATOM     79  F   UNL A   1      43.145  22.835  29.191  1.00  0.00    -0.206 F 
ATOM     80  C   UNL A   1      42.658  20.571  26.418  1.00  0.00     0.060 A 
BRANCH  80  81
ATOM     81  S   UNL A   1      42.293  18.828  26.113  1.00  0.00     0.124 S 
ATOM     82  O   UNL A   1      43.256  18.506  25.068  1.00  0.00    -0.237 OA
ATOM     83  O   UNL A   1      42.544  18.230  27.421  1.00  0.00    -0.237 OA
ATOM     84  O   UNL A   1      40.893  18.846  25.701  1.00  0.00    -0.744 OA
ENDBRANCH  80  81
ENDBRANCH  48  73
BRANCH  60  85
ATOM     85  C   UNL A   1      49.413  26.640  26.479  1.00  0.00     0.058 A 
ATOM     86  C   UNL A   1      50.263  25.983  27.380  1.00  0.00     0.135 A 
ATOM     87  C   UNL A   1      49.864  26.828  25.163  1.00  0.00     0.135 A 
ATOM     88  F   UNL A   1      49.880  25.788  28.653  1.00  0.00    -0.206 F 
ATOM     89  C   UNL A   1      51.521  25.534  26.994  1.00  0.00     0.059 A 
ATOM     90  C   UNL A   1      51.109  26.369  24.748  1.00  0.00     0.059 A 
ATOM     91  F   UNL A   1      49.082  27.445  24.263  1.00  0.00    -0.206 F 
ATOM     92  C   UNL A   1      51.933  25.728  25.673  1.00  0.00     0.060 A 
BRANCH  92  93
ATOM     93  S   UNL A   1      53.550  25.098  25.173  1.00  0.00     0.124 S 
ATOM     94  O   UNL A   1      54.429  25.746  26.140  1.00  0.00    -0.237 OA
ATOM     95  O   UNL A   1      53.386  23.656  25.332  1.00  0.00    -0.237 OA
ATOM     96  O   UNL A   1      53.682  25.560  23.794  1.00  0.00    -0.744 OA
ENDBRANCH  92  93
ENDBRANCH  60  85
ENDBRANCH  34  35
ENDBRANCH  26  29
ENDBRANCH   1  25
TORSDOF 15
ENDMDL
MODEL 2
REMARK VINA RESULT:     -12.8      6.584     11.989
REMARK SMILES COc1cc(C)cc2c1O[C@H](C(F)(F)F)C(C(=O)NCCCNC(=O)c1ccc(-c3c4nc(c(-c5c(F)cc(S(=O)(=O)[O-])cc5F)c5ccc([nH]5)c(-c5c(F)cc(S(=O)(=O)[O-])cc5F)c5nc(c(-c6c(F)cc(S(=O)(=O)[O-])cc6F)c6ccc3[nH]6)C=C5)C=C4)cc1)=C2
REMARK SMILES IDX 22 1 21 2 20 3 19 4 17 5 18 6 16 8 3 9 4 10 9 11 5 12 8 13
REMARK SMILES IDX 10 14 6 15 7 16 92 17 11 18 2 19 1 20 12 21 13 22 14 23
REMARK SMILES IDX 15 24 23 25 24 26 25 28 26 29 27 30 91 31 28 32 90 33 29 34
REMARK SMILES IDX 30 35 31 36 84 37 32 38 89 39 83 40 85 41 33 42 88 43 82 44
REMARK SMILES IDX 81 45 34 47 68 48 47 49 67 50 48 51 51 52 66 53 86 54 49 55
REMARK SMILES IDX 50 56 65 58 87 59 52 60 35 61 36 62 45 63 37 64 38 65 44 66
REMARK SMILES IDX 46 67 39 68 40 69 41 70 42 71 43 72 69 73 70 74 79 75 71 76
REMARK SMILES IDX 72 77 78 78 80 79 73 80 74 81 75 82 76 83 77 84 53 85 54 86
REMARK SMILES IDX 63 87 55 88 56 89 62 90 64 91 57 92 58 93 59 94 60 95 61 96
REMARK H PARENT 19 7 23 27 85 46 51 57
REMARK Flexibility Score: inf
ROOT
ATOM      1  C   UNL A   1      39.453  23.318  26.874  1.00  0.00     0.118 C 
ENDROOT
BRANCH   1   2
ATOM      2  C   UNL A   1      38.237  23.368  25.958  1.00  0.00     0.042 C 
BRANCH   2   3
ATOM      3  C   UNL A   1      37.727  21.982  25.595  1.00  0.00     0.118 C 
BRANCH   3   4
ATOM      4  N   UNL A   1      36.418  21.712  26.174  1.00  0.00    -0.352 N 
ATOM      5  C   UNL A   1      35.157  22.182  26.039  1.00  0.00     0.251 C 
ATOM      6  O   UNL A   1      34.318  21.639  26.767  1.00  0.00    -0.270 OA
ATOM      7  H   UNL A   1      36.465  20.994  26.846  1.00  0.00     0.163 HD
BRANCH   5   8
ATOM      8  C   UNL A   1      34.732  23.258  25.099  1.00  0.00     0.067 C 
ATOM      9  C   UNL A   1      33.637  26.433  22.586  1.00  0.00     0.161 A 
ATOM     10  C   UNL A   1      33.206  27.640  23.140  1.00  0.00     0.054 A 
ATOM     11  C   UNL A   1      34.071  25.397  23.415  1.00  0.00     0.169 A 
ATOM     12  C   UNL A   1      33.250  27.833  24.526  1.00  0.00    -0.047 A 
ATOM     13  C   UNL A   1      34.111  25.572  24.799  1.00  0.00     0.021 A 
ATOM     14  O   UNL A   1      34.502  24.241  22.824  1.00  0.00    -0.471 OA
ATOM     15  C   UNL A   1      32.790  29.124  25.139  1.00  0.00     0.044 C 
ATOM     16  C   UNL A   1      33.707  26.793  25.350  1.00  0.00     0.015 A 
ATOM     17  C   UNL A   1      34.584  24.481  25.643  1.00  0.00     0.025 C 
ATOM     18  C   UNL A   1      34.428  23.045  23.642  1.00  0.00     0.314 C 
BRANCH   9  19
ATOM     19  O   UNL A   1      33.541  26.197  21.238  1.00  0.00    -0.493 OA
ATOM     20  C   UNL A   1      32.263  25.675  20.880  1.00  0.00     0.278 C 
ENDBRANCH   9  19
BRANCH  18  21
ATOM     21  C   UNL A   1      33.071  22.353  23.409  1.00  0.00     0.429 C 
ATOM     22  F   UNL A   1      32.136  22.833  24.265  1.00  0.00    -0.167 F 
ATOM     23  F   UNL A   1      32.588  22.566  22.161  1.00  0.00    -0.167 F 
ATOM     24  F   UNL A   1      33.128  21.012  23.575  1.00  0.00    -0.167 F 
ENDBRANCH  18  21
ENDBRANCH   5   8
ENDBRANCH   3   4
ENDBRANCH   2   3
ENDBRANCH   1   2
BRANCH   1  25
ATOM     25  N   UNL A   1      40.666  23.789  26.206  1.00  0.00    -0.352 N 
ATOM     26  C   UNL A   1      41.330  24.988  26.303  1.00  0.00     0.251 C 
ATOM     27  H   UNL A   1      41.073  23.141  25.585  1.00  0.00     0.163 HD
ATOM     28  O   UNL A   1      42.201  25.269  25.483  1.00  0.00    -0.269 OA
BRANCH  26  29
ATOM     29  C   UNL A   1      40.987  25.941  27.380  1.00  0.00     0.039 A 
ATOM     30  C   UNL A   1      41.605  27.189  27.435  1.00  0.00     0.014 A 
ATOM     31  C   UNL A   1      40.034  25.590  28.341  1.00  0.00     0.014 A 
ATOM     32  C   UNL A   1      41.426  27.995  28.550  1.00  0.00     0.010 A 
ATOM     33  C   UNL A   1      39.770  26.456  29.407  1.00  0.00     0.010 A 
ATOM     34  C   UNL A   1      40.502  27.644  29.548  1.00  0.00    -0.014 A 
BRANCH  34  35
ATOM     35  C   UNL A   1      40.332  28.550  30.714  1.00  0.00     0.031 A 
ATOM     36  C   UNL A   1      41.283  28.497  31.880  1.00  0.00     0.074 A 
ATOM     37  C   UNL A   1      39.364  29.488  30.671  1.00  0.00     0.049 A 
ATOM     38  N   UNL A   1      41.310  29.248  32.952  1.00  0.00    -0.248 NA
ATOM     39  C   UNL A   1      42.335  27.469  31.846  1.00  0.00     0.031 C 
ATOM     40  C   UNL A   1      38.389  29.640  29.585  1.00  0.00     0.029 A 
ATOM     41  N   UNL A   1      39.065  30.517  31.526  1.00  0.00    -0.354 N 
ATOM     42  C   UNL A   1      42.363  28.774  33.726  1.00  0.00     0.074 A 
ATOM     43  C   UNL A   1      42.937  27.652  33.015  1.00  0.00     0.031 C 
ATOM     44  C   UNL A   1      37.660  30.744  29.799  1.00  0.00     0.029 A 
ATOM     45  C   UNL A   1      38.060  31.337  31.070  1.00  0.00     0.049 A 
ATOM     46  H   UNL A   1      39.526  30.654  32.386  1.00  0.00     0.167 HD
ATOM     47  C   UNL A   1      42.816  29.240  34.914  1.00  0.00     0.037 A 
ATOM     48  C   UNL A   1      37.513  32.440  31.614  1.00  0.00     0.037 A 
ATOM     49  C   UNL A   1      42.258  30.376  35.601  1.00  0.00     0.049 A 
ATOM     50  C   UNL A   1      38.020  32.922  32.941  1.00  0.00     0.074 A 
ATOM     51  C   UNL A   1      42.649  30.930  36.808  1.00  0.00     0.029 A 
ATOM     52  N   UNL A   1      41.198  31.142  35.136  1.00  0.00    -0.354 N 
ATOM     53  N   UNL A   1      39.001  32.443  33.668  1.00  0.00    -0.248 NA
ATOM     54  C   UNL A   1      37.336  34.079  33.533  1.00  0.00     0.031 C 
ATOM     55  C   UNL A   1      41.805  32.009  37.088  1.00  0.00     0.029 A 
ATOM     56  C   UNL A   1      40.913  32.153  36.038  1.00  0.00     0.049 A 
ATOM     57  H   UNL A   1      40.719  30.988  34.290  1.00  0.00     0.167 HD
ATOM     58  C   UNL A   1      39.054  33.240  34.803  1.00  0.00     0.074 A 
ATOM     59  C   UNL A   1      38.020  34.246  34.658  1.00  0.00     0.031 C 
ATOM     60  C   UNL A   1      39.877  33.142  35.875  1.00  0.00     0.037 A 
BRANCH  47  61
ATOM     61  C   UNL A   1      43.969  28.520  35.559  1.00  0.00     0.058 A 
ATOM     62  C   UNL A   1      45.300  28.872  35.290  1.00  0.00     0.135 A 
ATOM     63  C   UNL A   1      43.738  27.505  36.502  1.00  0.00     0.135 A 
ATOM     64  F   UNL A   1      45.578  29.823  34.384  1.00  0.00    -0.206 F 
ATOM     65  C   UNL A   1      46.363  28.233  35.921  1.00  0.00     0.059 A 
ATOM     66  C   UNL A   1      44.784  26.868  37.162  1.00  0.00     0.059 A 
ATOM     67  F   UNL A   1      42.483  27.128  36.795  1.00  0.00    -0.206 F 
ATOM     68  C   UNL A   1      46.095  27.234  36.858  1.00  0.00     0.060 A 
BRANCH  68  69
ATOM     69  S   UNL A   1      47.487  26.427  37.680  1.00  0.00     0.124 S 
ATOM     70  O   UNL A   1      46.829  25.293  38.320  1.00  0.00    -0.237 OA
ATOM     71  O   UNL A   1      48.363  26.100  36.559  1.00  0.00    -0.237 OA
ATOM     72  O   UNL A   1      47.990  27.455  38.586  1.00  0.00    -0.744 OA
ENDBRANCH  68  69
ENDBRANCH  47  61
BRANCH  48  73
ATOM     73  C   UNL A   1      36.425  33.152  30.895  1.00  0.00     0.058 A 
ATOM     74  C   UNL A   1      35.096  33.066  31.329  1.00  0.00     0.135 A 
ATOM     75  C   UNL A   1      36.701  33.974  29.789  1.00  0.00     0.135 A 
ATOM     76  F   UNL A   1      34.782  32.289  32.377  1.00  0.00    -0.206 F 
ATOM     77  C   UNL A   1      34.076  33.770  30.697  1.00  0.00     0.059 A 
ATOM     78  C   UNL A   1      35.705  34.708  29.157  1.00  0.00     0.059 A 
ATOM     79  F   UNL A   1      37.962  34.102  29.345  1.00  0.00    -0.206 F 
ATOM     80  C   UNL A   1      34.392  34.595  29.616  1.00  0.00     0.060 A 
BRANCH  80  81
ATOM     81  S   UNL A   1      33.076  35.565  28.849  1.00  0.00     0.124 S 
ATOM     82  O   UNL A   1      32.369  36.075  30.017  1.00  0.00    -0.237 OA
ATOM     83  O   UNL A   1      33.831  36.549  28.079  1.00  0.00    -0.237 OA
ATOM     84  O   UNL A   1      32.354  34.579  28.052  1.00  0.00    -0.744 OA
ENDBRANCH  80  81
ENDBRANCH  48  73
BRANCH  60  85
ATOM     85  C   UNL A   1      39.699  34.149  36.973  1.00  0.00     0.058 A 
ATOM     86  C   UNL A   1      38.932  33.857  38.111  1.00  0.00     0.135 A 
ATOM     87  C   UNL A   1      40.352  35.390  36.917  1.00  0.00     0.135 A 
ATOM     88  F   UNL A   1      38.281  32.687  38.206  1.00  0.00    -0.206 F 
ATOM     89  C   UNL A   1      38.810  34.768  39.154  1.00  0.00     0.059 A 
ATOM     90  C   UNL A   1      40.262  36.308  37.958  1.00  0.00     0.059 A 
ATOM     91  F   UNL A   1      41.104  35.710  35.851  1.00  0.00    -0.206 F 
ATOM     92  C   UNL A   1      39.483  35.990  39.070  1.00  0.00     0.060 A 
BRANCH  92  93
ATOM     93  S   UNL A   1      39.353  37.143  40.453  1.00  0.00     0.124 S 
ATOM     94  O   UNL A   1      38.610  38.243  39.849  1.00  0.00    -0.237 OA
ATOM     95  O   UNL A   1      38.626  36.357  41.447  1.00  0.00    -0.237 OA
ATOM     96  O   UNL A   1      40.744  37.431  40.786  1.00  0.00    -0.744 OA
ENDBRANCH  92  93
ENDBRANCH  60  85
ENDBRANCH  34  35
ENDBRANCH  26  29
ENDBRANCH   1  25
TORSDOF 15
ENDMDL
MODEL 3
REMARK VINA RESULT:     -12.6      6.150      8.217
REMARK SMILES COc1cc(C)cc2c1O[C@H](C(F)(F)F)C(C(=O)NCCCNC(=O)c1ccc(-c3c4nc(c(-c5c(F)cc(S(=O)(=O)[O-])cc5F)c5ccc([nH]5)c(-c5c(F)cc(S(=O)(=O)[O-])cc5F)c5nc(c(-c6c(F)cc(S(=O)(=O)[O-])cc6F)c6ccc3[nH]6)C=C5)C=C4)cc1)=C2
REMARK SMILES IDX 22 1 21 2 20 3 19 4 17 5 18 6 16 8 3 9 4 10 9 11 5 12 8 13
REMARK SMILES IDX 10 14 6 15 7 16 92 17 11 18 2 19 1 20 12 21 13 22 14 23
REMARK SMILES IDX 15 24 23 25 24 26 25 28 26 29 27 30 91 31 28 32 90 33 29 34
REMARK SMILES IDX 30 35 31 36 84 37 32 38 89 39 83 40 85 41 33 42 88 43 82 44
REMARK SMILES IDX 81 45 34 47 68 48 47 49 67 50 48 51 51 52 66 53 86 54 49 55
REMARK SMILES IDX 50 56 65 58 87 59 52 60 35 61 36 62 45 63 37 64 38 65 44 66
REMARK SMILES IDX 46 67 39 68 40 69 41 70 42 71 43 72 69 73 70 74 79 75 71 76
REMARK SMILES IDX 72 77 78 78 80 79 73 80 74 81 75 82 76 83 77 84 53 85 54 86
REMARK SMILES IDX 63 87 55 88 56 89 62 90 64 91 57 92 58 93 59 94 60 95 61 96
REMARK H PARENT 19 7 23 27 85 46 51 57
REMARK Flexibility Score: inf
ROOT
ATOM      1  C   UNL A   1      32.967  32.799  27.465  1.00  0.00     0.118 C 
ENDROOT
BRANCH   1   2
ATOM      2  C   UNL A   1      31.752  32.111  26.856  1.00  0.00     0.042 C 
BRANCH   2   3
ATOM      3  C   UNL A   1      31.941  30.608  26.728  1.00  0.00     0.118 C 
BRANCH   3   4
ATOM      4  N   UNL A   1      32.386  30.223  25.396  1.00  0.00    -0.352 N 
ATOM      5  C   UNL A   1      32.619  29.075  24.721  1.00  0.00     0.251 C 
ATOM      6  O   UNL A   1      33.007  29.225  23.556  1.00  0.00    -0.270 OA
ATOM      7  H   UNL A   1      32.564  31.013  24.836  1.00  0.00     0.163 HD
BRANCH   5   8
ATOM      8  C   UNL A   1      32.435  27.699  25.265  1.00  0.00     0.067 C 
ATOM      9  C   UNL A   1      32.129  23.833  26.865  1.00  0.00     0.161 A 
ATOM     10  C   UNL A   1      33.179  22.928  26.700  1.00  0.00     0.054 A 
ATOM     11  C   UNL A   1      32.252  25.144  26.398  1.00  0.00     0.169 A 
ATOM     12  C   UNL A   1      34.377  23.343  26.106  1.00  0.00    -0.047 A 
ATOM     13  C   UNL A   1      33.438  25.568  25.796  1.00  0.00     0.021 A 
ATOM     14  O   UNL A   1      31.204  25.999  26.602  1.00  0.00    -0.471 OA
ATOM     15  C   UNL A   1      35.516  22.384  25.920  1.00  0.00     0.044 C 
ATOM     16  C   UNL A   1      34.500  24.667  25.658  1.00  0.00     0.015 A 
ATOM     17  C   UNL A   1      33.549  26.945  25.331  1.00  0.00     0.025 C 
ATOM     18  C   UNL A   1      31.112  27.120  25.685  1.00  0.00     0.314 C 
BRANCH   9  19
ATOM     19  O   UNL A   1      30.923  23.434  27.383  1.00  0.00    -0.493 OA
ATOM     20  C   UNL A   1      30.187  22.635  26.460  1.00  0.00     0.278 C 
ENDBRANCH   9  19
BRANCH  18  21
ATOM     21  C   UNL A   1      30.226  26.727  24.489  1.00  0.00     0.429 C 
ATOM     22  F   UNL A   1      29.188  25.955  24.894  1.00  0.00    -0.167 F 
ATOM     23  F   UNL A   1      29.679  27.804  23.873  1.00  0.00    -0.167 F 
ATOM     24  F   UNL A   1      30.897  26.041  23.536  1.00  0.00    -0.167 F 
ENDBRANCH  18  21
ENDBRANCH   5   8
ENDBRANCH   3   4
ENDBRANCH   2   3
ENDBRANCH   1   2
BRANCH   1  25
ATOM     25  N   UNL A   1      32.694  34.193  27.814  1.00  0.00    -0.352 N 
ATOM     26  C   UNL A   1      33.201  34.975  28.824  1.00  0.00     0.251 C 
ATOM     27  H   UNL A   1      32.041  34.643  27.231  1.00  0.00     0.163 HD
ATOM     28  O   UNL A   1      32.668  36.051  29.084  1.00  0.00    -0.269 OA
BRANCH  26  29
ATOM     29  C   UNL A   1      34.371  34.517  29.602  1.00  0.00     0.039 A 
ATOM     30  C   UNL A   1      35.656  34.644  29.077  1.00  0.00     0.014 A 
ATOM     31  C   UNL A   1      34.186  33.960  30.871  1.00  0.00     0.014 A 
ATOM     32  C   UNL A   1      36.724  34.038  29.722  1.00  0.00     0.010 A 
ATOM     33  C   UNL A   1      35.283  33.450  31.573  1.00  0.00     0.010 A 
ATOM     34  C   UNL A   1      36.556  33.438  30.981  1.00  0.00    -0.014 A 
BRANCH  34  35
ATOM     35  C   UNL A   1      37.734  32.819  31.641  1.00  0.00     0.031 A 
ATOM     36  C   UNL A   1      38.211  33.302  32.985  1.00  0.00     0.074 A 
ATOM     37  C   UNL A   1      38.317  31.751  31.060  1.00  0.00     0.049 A 
ATOM     38  N   UNL A   1      39.187  32.841  33.725  1.00  0.00    -0.248 NA
ATOM     39  C   UNL A   1      37.507  34.451  33.577  1.00  0.00     0.031 C 
ATOM     40  C   UNL A   1      37.933  31.188  29.760  1.00  0.00     0.029 A 
ATOM     41  N   UNL A   1      39.316  30.919  31.495  1.00  0.00    -0.354 N 
ATOM     42  C   UNL A   1      39.230  33.652  34.853  1.00  0.00     0.074 A 
ATOM     43  C   UNL A   1      38.197  34.652  34.693  1.00  0.00     0.031 C 
ATOM     44  C   UNL A   1      38.626  30.062  29.546  1.00  0.00     0.029 A 
ATOM     45  C   UNL A   1      39.557  29.860  30.651  1.00  0.00     0.049 A 
ATOM     46  H   UNL A   1      39.814  31.067  32.332  1.00  0.00     0.167 HD
ATOM     47  C   UNL A   1      40.047  33.561  35.930  1.00  0.00     0.037 A 
ATOM     48  C   UNL A   1      40.432  28.842  30.748  1.00  0.00     0.037 A 
ATOM     49  C   UNL A   1      41.053  32.544  36.095  1.00  0.00     0.049 A 
ATOM     50  C   UNL A   1      41.341  28.779  31.941  1.00  0.00     0.074 A 
ATOM     51  C   UNL A   1      41.929  32.364  37.152  1.00  0.00     0.029 A 
ATOM     52  N   UNL A   1      41.309  31.526  35.187  1.00  0.00    -0.354 N 
ATOM     53  N   UNL A   1      41.381  29.571  32.985  1.00  0.00    -0.248 NA
ATOM     54  C   UNL A   1      42.336  27.699  31.961  1.00  0.00     0.031 C 
ATOM     55  C   UNL A   1      42.736  31.258  36.867  1.00  0.00     0.029 A 
ATOM     56  C   UNL A   1      42.338  30.724  35.652  1.00  0.00     0.049 A 
ATOM     57  H   UNL A   1      40.830  31.394  34.337  1.00  0.00     0.167 HD
ATOM     58  C   UNL A   1      42.404  29.085  33.788  1.00  0.00     0.074 A 
ATOM     59  C   UNL A   1      42.943  27.917  33.120  1.00  0.00     0.031 C 
ATOM     60  C   UNL A   1      42.862  29.569  34.969  1.00  0.00     0.037 A 
BRANCH  47  61
ATOM     61  C   UNL A   1      39.899  34.593  37.014  1.00  0.00     0.058 A 
ATOM     62  C   UNL A   1      40.519  35.848  36.925  1.00  0.00     0.135 A 
ATOM     63  C   UNL A   1      39.081  34.344  38.128  1.00  0.00     0.135 A 
ATOM     64  F   UNL A   1      41.326  36.132  35.891  1.00  0.00    -0.206 F 
ATOM     65  C   UNL A   1      40.344  36.817  37.909  1.00  0.00     0.059 A 
ATOM     66  C   UNL A   1      38.874  35.305  39.113  1.00  0.00     0.059 A 
ATOM     67  F   UNL A   1      38.466  33.158  38.264  1.00  0.00    -0.206 F 
ATOM     68  C   UNL A   1      39.517  36.536  38.999  1.00  0.00     0.060 A 
BRANCH  68  69
ATOM     69  S   UNL A   1      39.290  37.811  40.258  1.00  0.00     0.124 S 
ATOM     70  O   UNL A   1      40.612  38.430  40.287  1.00  0.00    -0.237 OA
ATOM     71  O   UNL A   1      38.222  38.626  39.687  1.00  0.00    -0.237 OA
ATOM     72  O   UNL A   1      38.926  37.052  41.450  1.00  0.00    -0.744 OA
ENDBRANCH  68  69
ENDBRANCH  47  61
BRANCH  48  73
ATOM     73  C   UNL A   1      40.483  27.812  29.680  1.00  0.00     0.058 A 
ATOM     74  C   UNL A   1      39.532  26.783  29.623  1.00  0.00     0.135 A 
ATOM     75  C   UNL A   1      41.452  27.864  28.665  1.00  0.00     0.135 A 
ATOM     76  F   UNL A   1      38.590  26.688  30.574  1.00  0.00    -0.206 F 
ATOM     77  C   UNL A   1      39.537  25.844  28.597  1.00  0.00     0.059 A 
ATOM     78  C   UNL A   1      41.462  26.953  27.616  1.00  0.00     0.059 A 
ATOM     79  F   UNL A   1      42.375  28.839  28.667  1.00  0.00    -0.206 F 
ATOM     80  C   UNL A   1      40.502  25.942  27.593  1.00  0.00     0.060 A 
BRANCH  80  81
ATOM     81  S   UNL A   1      40.455  24.764  26.225  1.00  0.00     0.124 S 
ATOM     82  O   UNL A   1      40.994  25.565  25.132  1.00  0.00    -0.237 OA
ATOM     83  O   UNL A   1      41.314  23.691  26.715  1.00  0.00    -0.237 OA
ATOM     84  O   UNL A   1      39.039  24.425  26.122  1.00  0.00    -0.744 OA
ENDBRANCH  80  81
ENDBRANCH  48  73
BRANCH  60  85
ATOM     85  C   UNL A   1      43.999  28.835  35.616  1.00  0.00     0.058 A 
ATOM     86  C   UNL A   1      45.332  29.194  35.370  1.00  0.00     0.135 A 
ATOM     87  C   UNL A   1      43.752  27.808  36.540  1.00  0.00     0.135 A 
ATOM     88  F   UNL A   1      45.619  30.165  34.487  1.00  0.00    -0.206 F 
ATOM     89  C   UNL A   1      46.386  28.552  36.010  1.00  0.00     0.059 A 
ATOM     90  C   UNL A   1      44.789  27.165  37.209  1.00  0.00     0.059 A 
ATOM     91  F   UNL A   1      42.492  27.434  36.815  1.00  0.00    -0.206 F 
ATOM     92  C   UNL A   1      46.104  27.541  36.932  1.00  0.00     0.060 A 
BRANCH  92  93
ATOM     93  S   UNL A   1      47.479  26.748  37.790  1.00  0.00     0.124 S 
ATOM     94  O   UNL A   1      47.125  25.338  37.674  1.00  0.00    -0.237 OA
ATOM     95  O   UNL A   1      48.630  27.180  37.002  1.00  0.00    -0.237 OA
ATOM     96  O   UNL A   1      47.405  27.306  39.137  1.00  0.00    -0.744 OA
ENDBRANCH  92  93
ENDBRANCH  60  85
ENDBRANCH  34  35
ENDBRANCH  26  29
ENDBRANCH   1  25
TORSDOF 15
ENDMDL
