MODEL 1
REMARK VINA RESULT:     -12.1      0.000      0.000
REMARK SMILES O=C(CC1(CC(=O)NNc2ccc([N+](=O)[O-])cc2)CCCC1)NCCCNC(=O)c1ccc(-c2c3nc(c(-c4c(F)cc(S(=O)(=O)[O-])cc4F)c4ccc([nH]4)c(-c4c(F)cc(S(=O)(=O)[O-])cc4F)c4nc(c(-c5c(F)cc(S(=O)(=O)[O-])cc5F)c5ccc2[nH]5)C=C4)C=C3)cc1
REMARK SMILES IDX 1 1 2 2 23 3 3 5 4 6 19 7 22 8 20 9 21 10 5 11 6 12 7 13
REMARK SMILES IDX 8 14 9 16 10 18 11 19 18 20 12 21 17 22 13 23 14 24 15 25
REMARK SMILES IDX 16 26 24 27 25 28 26 29 27 30 28 31 29 33 30 34 31 35 95 36
REMARK SMILES IDX 32 37 94 38 33 39 34 40 35 41 88 42 36 43 93 44 87 45 89 46
REMARK SMILES IDX 37 47 92 48 86 49 85 50 38 52 72 53 51 54 71 55 52 56 55 57
REMARK SMILES IDX 70 58 90 59 53 60 54 61 69 63 91 64 56 65 39 66 40 67 49 68
REMARK SMILES IDX 41 69 42 70 48 71 50 72 43 73 44 74 45 75 46 76 47 77 73 78
REMARK SMILES IDX 74 79 83 80 75 81 76 82 82 83 84 84 77 85 78 86 79 87 80 88
REMARK SMILES IDX 81 89 57 90 58 91 67 92 59 93 60 94 66 95 68 96 61 97 62 98
REMARK SMILES IDX 63 99 64 100 65 101
REMARK H PARENT 23 4 8 15 9 17 27 32 89 51 55 62
REMARK Flexibility Score: inf
ROOT
ATOM      1  O   UNL A   1      31.193  28.806  24.939  1.00  0.00    -0.275 OA
ATOM      2  C   UNL A   1      31.358  28.010  25.858  1.00  0.00     0.220 C 
ATOM      3  N   UNL A   1      31.967  28.331  27.047  1.00  0.00    -0.356 N 
ATOM      4  H   UNL A   1      31.952  27.683  27.787  1.00  0.00     0.163 HD
ENDROOT
BRANCH   2   5
ATOM      5  C   UNL A   1      30.982  26.546  25.723  1.00  0.00     0.107 C 
BRANCH   5   6
ATOM      6  C   UNL A   1      32.105  25.629  25.165  1.00  0.00    -0.012 C 
ATOM      7  C   UNL A   1      31.679  24.774  23.945  1.00  0.00     0.008 C 
ATOM      8  C   UNL A   1      33.257  26.434  24.535  1.00  0.00     0.008 C 
ATOM      9  C   UNL A   1      32.980  24.388  23.242  1.00  0.00     0.001 C 
ATOM     10  C   UNL A   1      34.006  25.444  23.645  1.00  0.00     0.001 C 
BRANCH   6  11
ATOM     11  C   UNL A   1      32.601  24.670  26.291  1.00  0.00     0.109 C 
BRANCH  11  12
ATOM     12  C   UNL A   1      31.691  23.486  26.595  1.00  0.00     0.238 C 
ATOM     13  O   UNL A   1      30.594  23.645  27.134  1.00  0.00    -0.273 OA
ATOM     14  N   UNL A   1      32.091  22.223  26.242  1.00  0.00    -0.270 N 
ATOM     15  H   UNL A   1      31.472  21.474  26.401  1.00  0.00     0.191 HD
BRANCH  14  16
ATOM     16  N   UNL A   1      33.324  21.951  25.670  1.00  0.00    -0.299 N 
ATOM     17  H   UNL A   1      34.004  22.649  25.529  1.00  0.00     0.188 HD
BRANCH  16  18
ATOM     18  C   UNL A   1      33.531  20.611  25.307  1.00  0.00     0.055 A 
ATOM     19  C   UNL A   1      34.834  20.161  25.058  1.00  0.00     0.034 A 
ATOM     20  C   UNL A   1      32.454  19.757  25.038  1.00  0.00     0.034 A 
ATOM     21  C   UNL A   1      35.070  18.870  24.578  1.00  0.00     0.088 A 
ATOM     22  C   UNL A   1      32.674  18.466  24.548  1.00  0.00     0.088 A 
ATOM     23  C   UNL A   1      33.984  18.029  24.313  1.00  0.00     0.269 A 
BRANCH  23  24
ATOM     24  N   UNL A   1      34.216  16.694  23.746  1.00  0.00     0.062 N 
ATOM     25  O   UNL A   1      33.983  16.532  22.541  1.00  0.00    -0.258 OA
ATOM     26  O   UNL A   1      34.609  15.805  24.515  1.00  0.00    -0.258 OA
ENDBRANCH  23  24
ENDBRANCH  16  18
ENDBRANCH  14  16
ENDBRANCH  11  12
ENDBRANCH   6  11
ENDBRANCH   5   6
ENDBRANCH   2   5
BRANCH   3  27
ATOM     27  C   UNL A   1      32.634  29.605  27.236  1.00  0.00     0.117 C 
BRANCH  27  28
ATOM     28  C   UNL A   1      34.102  29.573  26.838  1.00  0.00     0.042 C 
BRANCH  28  29
ATOM     29  C   UNL A   1      35.070  29.277  27.978  1.00  0.00     0.118 C 
BRANCH  29  30
ATOM     30  N   UNL A   1      35.233  30.382  28.913  1.00  0.00    -0.352 N 
ATOM     31  C   UNL A   1      36.370  30.782  29.584  1.00  0.00     0.251 C 
ATOM     32  H   UNL A   1      34.424  30.915  29.089  1.00  0.00     0.163 HD
ATOM     33  O   UNL A   1      36.315  31.677  30.416  1.00  0.00    -0.269 OA
BRANCH  31  34
ATOM     34  C   UNL A   1      37.648  30.086  29.314  1.00  0.00     0.039 A 
ATOM     35  C   UNL A   1      38.070  29.933  27.990  1.00  0.00     0.014 A 
ATOM     36  C   UNL A   1      38.452  29.645  30.367  1.00  0.00     0.014 A 
ATOM     37  C   UNL A   1      39.345  29.424  27.728  1.00  0.00     0.010 A 
ATOM     38  C   UNL A   1      39.745  29.201  30.105  1.00  0.00     0.010 A 
ATOM     39  C   UNL A   1      40.211  29.102  28.785  1.00  0.00    -0.014 A 
BRANCH  39  40
ATOM     40  C   UNL A   1      41.620  28.688  28.549  1.00  0.00     0.031 A 
ATOM     41  C   UNL A   1      42.712  29.720  28.533  1.00  0.00     0.074 A 
ATOM     42  C   UNL A   1      41.900  27.404  28.244  1.00  0.00     0.049 A 
ATOM     43  N   UNL A   1      43.965  29.594  28.181  1.00  0.00    -0.248 NA
ATOM     44  C   UNL A   1      42.336  31.085  28.937  1.00  0.00     0.031 C 
ATOM     45  C   UNL A   1      40.925  26.313  28.190  1.00  0.00     0.029 A 
ATOM     46  N   UNL A   1      43.085  26.805  27.894  1.00  0.00    -0.354 N 
ATOM     47  C   UNL A   1      44.520  30.863  28.293  1.00  0.00     0.074 A 
ATOM     48  C   UNL A   1      43.458  31.753  28.712  1.00  0.00     0.031 C 
ATOM     49  C   UNL A   1      41.552  25.179  27.837  1.00  0.00     0.029 A 
ATOM     50  C   UNL A   1      42.962  25.468  27.595  1.00  0.00     0.049 A 
ATOM     51  H   UNL A   1      43.943  27.287  27.861  1.00  0.00     0.167 HD
ATOM     52  C   UNL A   1      45.801  31.247  28.082  1.00  0.00     0.037 A 
ATOM     53  C   UNL A   1      43.875  24.579  27.156  1.00  0.00     0.037 A 
ATOM     54  C   UNL A   1      46.862  30.352  27.700  1.00  0.00     0.049 A 
ATOM     55  C   UNL A   1      45.295  25.028  26.936  1.00  0.00     0.074 A 
ATOM     56  C   UNL A   1      48.203  30.638  27.512  1.00  0.00     0.029 A 
ATOM     57  N   UNL A   1      46.703  28.996  27.454  1.00  0.00    -0.354 N 
ATOM     58  N   UNL A   1      45.811  26.224  27.085  1.00  0.00    -0.248 NA
ATOM     59  C   UNL A   1      46.256  24.009  26.490  1.00  0.00     0.031 C 
ATOM     60  C   UNL A   1      48.850  29.461  27.122  1.00  0.00     0.029 A 
ATOM     61  C   UNL A   1      47.920  28.434  27.108  1.00  0.00     0.049 A 
ATOM     62  H   UNL A   1      45.851  28.506  27.516  1.00  0.00     0.167 HD
ATOM     63  C   UNL A   1      47.163  26.095  26.785  1.00  0.00     0.074 A 
ATOM     64  C   UNL A   1      47.385  24.705  26.444  1.00  0.00     0.031 C 
ATOM     65  C   UNL A   1      48.131  27.042  26.796  1.00  0.00     0.037 A 
BRANCH  52  66
ATOM     66  C   UNL A   1      46.129  32.703  28.263  1.00  0.00     0.058 A 
ATOM     67  C   UNL A   1      46.012  33.619  27.207  1.00  0.00     0.135 A 
ATOM     68  C   UNL A   1      46.535  33.192  29.516  1.00  0.00     0.135 A 
ATOM     69  F   UNL A   1      45.643  33.201  25.986  1.00  0.00    -0.206 F 
ATOM     70  C   UNL A   1      46.316  34.966  27.377  1.00  0.00     0.059 A 
ATOM     71  C   UNL A   1      46.819  34.540  29.714  1.00  0.00     0.059 A 
ATOM     72  F   UNL A   1      46.663  32.358  30.559  1.00  0.00    -0.206 F 
ATOM     73  C   UNL A   1      46.722  35.417  28.634  1.00  0.00     0.060 A 
BRANCH  73  74
ATOM     74  S   UNL A   1      47.116  37.166  28.839  1.00  0.00     0.124 S 
ATOM     75  O   UNL A   1      48.490  37.212  28.346  1.00  0.00    -0.237 OA
ATOM     76  O   UNL A   1      46.118  37.813  27.994  1.00  0.00    -0.237 OA
ATOM     77  O   UNL A   1      46.956  37.384  30.273  1.00  0.00    -0.744 OA
ENDBRANCH  73  74
ENDBRANCH  52  66
BRANCH  53  78
ATOM     78  C   UNL A   1      43.478  23.167  26.911  1.00  0.00     0.058 A 
ATOM     79  C   UNL A   1      43.362  22.671  25.605  1.00  0.00     0.135 A 
ATOM     80  C   UNL A   1      43.224  22.284  27.972  1.00  0.00     0.135 A 
ATOM     81  F   UNL A   1      43.587  23.480  24.558  1.00  0.00    -0.206 F 
ATOM     82  C   UNL A   1      42.993  21.352  25.355  1.00  0.00     0.059 A 
ATOM     83  C   UNL A   1      42.877  20.955  27.749  1.00  0.00     0.059 A 
ATOM     84  F   UNL A   1      43.338  22.707  29.240  1.00  0.00    -0.206 F 
ATOM     85  C   UNL A   1      42.756  20.502  26.436  1.00  0.00     0.060 A 
BRANCH  85  86
ATOM     86  S   UNL A   1      42.329  18.778  26.103  1.00  0.00     0.124 S 
ATOM     87  O   UNL A   1      42.561  18.162  27.404  1.00  0.00    -0.237 OA
ATOM     88  O   UNL A   1      40.934  18.882  25.684  1.00  0.00    -0.237 OA
ATOM     89  O   UNL A   1      43.264  18.400  25.048  1.00  0.00    -0.744 OA
ENDBRANCH  85  86
ENDBRANCH  53  78
BRANCH  65  90
ATOM     90  C   UNL A   1      49.535  26.611  26.483  1.00  0.00     0.058 A 
ATOM     91  C   UNL A   1      50.359  26.017  27.450  1.00  0.00     0.135 A 
ATOM     92  C   UNL A   1      50.028  26.716  25.172  1.00  0.00     0.135 A 
ATOM     93  F   UNL A   1      49.936  25.900  28.718  1.00  0.00    -0.206 F 
ATOM     94  C   UNL A   1      51.626  25.542  27.128  1.00  0.00     0.059 A 
ATOM     95  C   UNL A   1      51.283  26.230  24.823  1.00  0.00     0.059 A 
ATOM     96  F   UNL A   1      49.275  27.272  24.209  1.00  0.00    -0.206 F 
ATOM     97  C   UNL A   1      52.078  25.647  25.810  1.00  0.00     0.060 A 
BRANCH  97  98
ATOM     98  S   UNL A   1      53.696  24.965  25.390  1.00  0.00     0.124 S 
ATOM     99  O   UNL A   1      54.004  25.679  24.155  1.00  0.00    -0.237 OA
ATOM    100  O   UNL A   1      54.502  25.331  26.551  1.00  0.00    -0.237 OA
ATOM    101  O   UNL A   1      53.435  23.537  25.242  1.00  0.00    -0.744 OA
ENDBRANCH  97  98
ENDBRANCH  65  90
ENDBRANCH  39  40
ENDBRANCH  31  34
ENDBRANCH  29  30
ENDBRANCH  28  29
ENDBRANCH  27  28
ENDBRANCH   3  27
TORSDOF 19
ENDMDL
MODEL 2
REMARK VINA RESULT:     -12.0      4.882     10.178
REMARK SMILES O=C(CC1(CC(=O)NNc2ccc([N+](=O)[O-])cc2)CCCC1)NCCCNC(=O)c1ccc(-c2c3nc(c(-c4c(F)cc(S(=O)(=O)[O-])cc4F)c4ccc([nH]4)c(-c4c(F)cc(S(=O)(=O)[O-])cc4F)c4nc(c(-c5c(F)cc(S(=O)(=O)[O-])cc5F)c5ccc2[nH]5)C=C4)C=C3)cc1
REMARK SMILES IDX 1 1 2 2 23 3 3 5 4 6 19 7 22 8 20 9 21 10 5 11 6 12 7 13
REMARK SMILES IDX 8 14 9 16 10 18 11 19 18 20 12 21 17 22 13 23 14 24 15 25
REMARK SMILES IDX 16 26 24 27 25 28 26 29 27 30 28 31 29 33 30 34 31 35 95 36
REMARK SMILES IDX 32 37 94 38 33 39 34 40 35 41 88 42 36 43 93 44 87 45 89 46
REMARK SMILES IDX 37 47 92 48 86 49 85 50 38 52 72 53 51 54 71 55 52 56 55 57
REMARK SMILES IDX 70 58 90 59 53 60 54 61 69 63 91 64 56 65 39 66 40 67 49 68
REMARK SMILES IDX 41 69 42 70 48 71 50 72 43 73 44 74 45 75 46 76 47 77 73 78
REMARK SMILES IDX 74 79 83 80 75 81 76 82 82 83 84 84 77 85 78 86 79 87 80 88
REMARK SMILES IDX 81 89 57 90 58 91 67 92 59 93 60 94 66 95 68 96 61 97 62 98
REMARK SMILES IDX 63 99 64 100 65 101
REMARK H PARENT 23 4 8 15 9 17 27 32 89 51 55 62
REMARK Flexibility Score: inf
ROOT
ATOM      1  O   UNL A   1      33.406  24.813  22.039  1.00  0.00    -0.275 OA
ATOM      2  C   UNL A   1      33.263  24.719  23.254  1.00  0.00     0.220 C 
ATOM      3  N   UNL A   1      34.164  24.093  24.083  1.00  0.00    -0.356 N 
ATOM      4  H   UNL A   1      34.052  24.166  25.058  1.00  0.00     0.163 HD
ENDROOT
BRANCH   2   5
ATOM      5  C   UNL A   1      32.008  25.210  23.951  1.00  0.00     0.107 C 
BRANCH   5   6
ATOM      6  C   UNL A   1      32.249  25.931  25.305  1.00  0.00    -0.012 C 
ATOM      7  C   UNL A   1      33.571  26.736  25.370  1.00  0.00     0.008 C 
ATOM      8  C   UNL A   1      31.236  27.066  25.550  1.00  0.00     0.008 C 
ATOM      9  C   UNL A   1      33.376  27.756  26.490  1.00  0.00     0.001 C 
ATOM     10  C   UNL A   1      31.867  27.948  26.627  1.00  0.00     0.001 C 
BRANCH   6  11
ATOM     11  C   UNL A   1      32.252  24.882  26.460  1.00  0.00     0.109 C 
BRANCH  11  12
ATOM     12  C   UNL A   1      31.050  23.946  26.502  1.00  0.00     0.238 C 
ATOM     13  O   UNL A   1      29.900  24.385  26.551  1.00  0.00    -0.273 OA
ATOM     14  N   UNL A   1      31.253  22.590  26.459  1.00  0.00    -0.270 N 
ATOM     15  H   UNL A   1      30.466  21.999  26.439  1.00  0.00     0.191 HD
BRANCH  14  16
ATOM     16  N   UNL A   1      32.513  22.013  26.443  1.00  0.00    -0.299 N 
ATOM     17  H   UNL A   1      33.234  22.306  27.046  1.00  0.00     0.188 HD
BRANCH  16  18
ATOM     18  C   UNL A   1      32.685  20.982  25.506  1.00  0.00     0.055 A 
ATOM     19  C   UNL A   1      32.186  21.143  24.208  1.00  0.00     0.034 A 
ATOM     20  C   UNL A   1      33.207  19.738  25.884  1.00  0.00     0.034 A 
ATOM     21  C   UNL A   1      32.230  20.095  23.284  1.00  0.00     0.088 A 
ATOM     22  C   UNL A   1      33.249  18.677  24.975  1.00  0.00     0.088 A 
ATOM     23  C   UNL A   1      32.753  18.859  23.676  1.00  0.00     0.269 A 
BRANCH  23  24
ATOM     24  N   UNL A   1      32.744  17.731  22.736  1.00  0.00     0.062 N 
ATOM     25  O   UNL A   1      32.171  17.891  21.650  1.00  0.00    -0.258 OA
ATOM     26  O   UNL A   1      33.292  16.680  23.097  1.00  0.00    -0.258 OA
ENDBRANCH  23  24
ENDBRANCH  16  18
ENDBRANCH  14  16
ENDBRANCH  11  12
ENDBRANCH   6  11
ENDBRANCH   5   6
ENDBRANCH   2   5
BRANCH   3  27
ATOM     27  C   UNL A   1      35.275  23.328  23.553  1.00  0.00     0.117 C 
BRANCH  27  28
ATOM     28  C   UNL A   1      36.020  22.544  24.623  1.00  0.00     0.042 C 
BRANCH  28  29
ATOM     29  C   UNL A   1      37.185  23.286  25.269  1.00  0.00     0.118 C 
BRANCH  29  30
ATOM     30  N   UNL A   1      38.406  22.499  25.361  1.00  0.00    -0.352 N 
ATOM     31  C   UNL A   1      39.607  22.838  25.950  1.00  0.00     0.251 C 
ATOM     32  H   UNL A   1      38.370  21.606  24.948  1.00  0.00     0.163 HD
ATOM     33  O   UNL A   1      40.574  22.096  25.853  1.00  0.00    -0.269 OA
BRANCH  31  34
ATOM     34  C   UNL A   1      39.720  24.130  26.664  1.00  0.00     0.039 A 
ATOM     35  C   UNL A   1      39.084  24.279  27.900  1.00  0.00     0.014 A 
ATOM     36  C   UNL A   1      40.502  25.162  26.142  1.00  0.00     0.014 A 
ATOM     37  C   UNL A   1      39.313  25.430  28.658  1.00  0.00     0.010 A 
ATOM     38  C   UNL A   1      40.781  26.277  26.928  1.00  0.00     0.010 A 
ATOM     39  C   UNL A   1      40.203  26.415  28.201  1.00  0.00    -0.014 A 
BRANCH  39  40
ATOM     40  C   UNL A   1      40.577  27.586  29.036  1.00  0.00     0.031 A 
ATOM     41  C   UNL A   1      41.823  27.541  29.876  1.00  0.00     0.074 A 
ATOM     42  C   UNL A   1      39.744  28.643  29.123  1.00  0.00     0.049 A 
ATOM     43  N   UNL A   1      42.233  28.377  30.794  1.00  0.00    -0.248 NA
ATOM     44  C   UNL A   1      42.710  26.382  29.678  1.00  0.00     0.031 C 
ATOM     45  C   UNL A   1      38.486  28.794  28.389  1.00  0.00     0.029 A 
ATOM     46  N   UNL A   1      39.816  29.781  29.889  1.00  0.00    -0.354 N 
ATOM     47  C   UNL A   1      43.408  27.835  31.302  1.00  0.00     0.074 A 
ATOM     48  C   UNL A   1      43.626  26.580  30.615  1.00  0.00     0.031 C 
ATOM     49  C   UNL A   1      37.911  29.957  28.733  1.00  0.00     0.029 A 
ATOM     50  C   UNL A   1      38.732  30.615  29.745  1.00  0.00     0.049 A 
ATOM     51  H   UNL A   1      40.573  29.981  30.485  1.00  0.00     0.167 HD
ATOM     52  C   UNL A   1      44.237  28.345  32.244  1.00  0.00     0.037 A 
ATOM     53  C   UNL A   1      38.423  31.769  30.370  1.00  0.00     0.037 A 
ATOM     54  C   UNL A   1      44.035  29.611  32.898  1.00  0.00     0.049 A 
ATOM     55  C   UNL A   1      39.363  32.320  31.407  1.00  0.00     0.074 A 
ATOM     56  C   UNL A   1      44.846  30.237  33.829  1.00  0.00     0.029 A 
ATOM     57  N   UNL A   1      42.948  30.447  32.688  1.00  0.00    -0.354 N 
ATOM     58  N   UNL A   1      40.489  31.813  31.848  1.00  0.00    -0.248 NA
ATOM     59  C   UNL A   1      38.993  33.598  32.032  1.00  0.00     0.031 C 
ATOM     60  C   UNL A   1      44.234  31.437  34.205  1.00  0.00     0.029 A 
ATOM     61  C   UNL A   1      43.063  31.579  33.477  1.00  0.00     0.049 A 
ATOM     62  H   UNL A   1      42.205  30.263  32.069  1.00  0.00     0.167 HD
ATOM     63  C   UNL A   1      40.980  32.726  32.775  1.00  0.00     0.074 A 
ATOM     64  C   UNL A   1      40.027  33.816  32.834  1.00  0.00     0.031 C 
ATOM     65  C   UNL A   1      42.119  32.668  33.506  1.00  0.00     0.037 A 
BRANCH  52  66
ATOM     66  C   UNL A   1      45.444  27.533  32.621  1.00  0.00     0.058 A 
ATOM     67  C   UNL A   1      45.416  26.630  33.694  1.00  0.00     0.135 A 
ATOM     68  C   UNL A   1      46.633  27.638  31.881  1.00  0.00     0.135 A 
ATOM     69  F   UNL A   1      44.309  26.503  34.443  1.00  0.00    -0.206 F 
ATOM     70  C   UNL A   1      46.535  25.880  34.041  1.00  0.00     0.059 A 
ATOM     71  C   UNL A   1      47.756  26.877  32.195  1.00  0.00     0.059 A 
ATOM     72  F   UNL A   1      46.714  28.486  30.845  1.00  0.00    -0.206 F 
ATOM     73  C   UNL A   1      47.702  26.013  33.287  1.00  0.00     0.060 A 
BRANCH  73  74
ATOM     74  S   UNL A   1      49.146  25.035  33.751  1.00  0.00     0.124 S 
ATOM     75  O   UNL A   1      48.518  23.864  34.358  1.00  0.00    -0.237 OA
ATOM     76  O   UNL A   1      49.797  24.807  32.466  1.00  0.00    -0.237 OA
ATOM     77  O   UNL A   1      49.866  25.909  34.671  1.00  0.00    -0.744 OA
ENDBRANCH  73  74
ENDBRANCH  52  66
BRANCH  53  78
ATOM     78  C   UNL A   1      37.171  32.490  30.019  1.00  0.00     0.058 A 
ATOM     79  C   UNL A   1      35.964  32.191  30.667  1.00  0.00     0.135 A 
ATOM     80  C   UNL A   1      37.157  33.500  29.044  1.00  0.00     0.135 A 
ATOM     81  F   UNL A   1      35.926  31.226  31.600  1.00  0.00    -0.206 F 
ATOM     82  C   UNL A   1      34.783  32.856  30.354  1.00  0.00     0.059 A 
ATOM     83  C   UNL A   1      35.994  34.196  28.730  1.00  0.00     0.059 A 
ATOM     84  F   UNL A   1      38.290  33.835  28.408  1.00  0.00    -0.206 F 
ATOM     85  C   UNL A   1      34.810  33.860  29.385  1.00  0.00     0.060 A 
BRANCH  85  86
ATOM     86  S   UNL A   1      33.283  34.754  29.022  1.00  0.00     0.124 S 
ATOM     87  O   UNL A   1      32.717  34.923  30.355  1.00  0.00    -0.237 OA
ATOM     88  O   UNL A   1      33.782  35.967  28.381  1.00  0.00    -0.237 OA
ATOM     89  O   UNL A   1      32.562  33.841  28.140  1.00  0.00    -0.744 OA
ENDBRANCH  85  86
ENDBRANCH  53  78
BRANCH  65  90
ATOM     90  C   UNL A   1      42.438  33.833  34.398  1.00  0.00     0.058 A 
ATOM     91  C   UNL A   1      42.084  33.844  35.755  1.00  0.00     0.135 A 
ATOM     92  C   UNL A   1      43.187  34.914  33.904  1.00  0.00     0.135 A 
ATOM     93  F   UNL A   1      41.362  32.838  36.273  1.00  0.00    -0.206 F 
ATOM     94  C   UNL A   1      42.460  34.889  36.593  1.00  0.00     0.059 A 
ATOM     95  C   UNL A   1      43.592  35.958  34.728  1.00  0.00     0.059 A 
ATOM     96  F   UNL A   1      43.556  34.946  32.613  1.00  0.00    -0.206 F 
ATOM     97  C   UNL A   1      43.219  35.939  36.072  1.00  0.00     0.060 A 
BRANCH  97  98
ATOM     98  S   UNL A   1      43.760  37.255  37.184  1.00  0.00     0.124 S 
ATOM     99  O   UNL A   1      42.631  37.345  38.104  1.00  0.00    -0.237 OA
ATOM    100  O   UNL A   1      44.991  36.706  37.745  1.00  0.00    -0.237 OA
ATOM    101  O   UNL A   1      43.939  38.399  36.296  1.00  0.00    -0.744 OA
ENDBRANCH  97  98
ENDBRANCH  65  90
ENDBRANCH  39  40
ENDBRANCH  31  34
ENDBRANCH  29  30
ENDBRANCH  28  29
ENDBRANCH  27  28
ENDBRANCH   3  27
TORSDOF 19
ENDMDL
MODEL 3
REMARK VINA RESULT:     -11.9      6.333     11.575
REMARK SMILES O=C(CC1(CC(=O)NNc2ccc([N+](=O)[O-])cc2)CCCC1)NCCCNC(=O)c1ccc(-c2c3nc(c(-c4c(F)cc(S(=O)(=O)[O-])cc4F)c4ccc([nH]4)c(-c4c(F)cc(S(=O)(=O)[O-])cc4F)c4nc(c(-c5c(F)cc(S(=O)(=O)[O-])cc5F)c5ccc2[nH]5)C=C4)C=C3)cc1
REMARK SMILES IDX 1 1 2 2 23 3 3 5 4 6 19 7 22 8 20 9 21 10 5 11 6 12 7 13
REMARK SMILES IDX 8 14 9 16 10 18 11 19 18 20 12 21 17 22 13 23 14 24 15 25
REMARK SMILES IDX 16 26 24 27 25 28 26 29 27 30 28 31 29 33 30 34 31 35 95 36
REMARK SMILES IDX 32 37 94 38 33 39 34 40 35 41 88 42 36 43 93 44 87 45 89 46
REMARK SMILES IDX 37 47 92 48 86 49 85 50 38 52 72 53 51 54 71 55 52 56 55 57
REMARK SMILES IDX 70 58 90 59 53 60 54 61 69 63 91 64 56 65 39 66 40 67 49 68
REMARK SMILES IDX 41 69 42 70 48 71 50 72 43 73 44 74 45 75 46 76 47 77 73 78
REMARK SMILES IDX 74 79 83 80 75 81 76 82 82 83 84 84 77 85 78 86 79 87 80 88
REMARK SMILES IDX 81 89 57 90 58 91 67 92 59 93 60 94 66 95 68 96 61 97 62 98
REMARK SMILES IDX 63 99 64 100 65 101
REMARK H PARENT 23 4 8 15 9 17 27 32 89 51 55 62
REMARK Flexibility Score: inf
ROOT
ATOM      1  O   UNL A   1      35.370  21.453  25.711  1.00  0.00    -0.275 OA
ATOM      2  C   UNL A   1      35.729  22.073  24.715  1.00  0.00     0.220 C 
ATOM      3  N   UNL A   1      37.041  22.363  24.426  1.00  0.00    -0.356 N 
ATOM      4  H   UNL A   1      37.268  22.749  23.550  1.00  0.00     0.163 HD
ENDROOT
BRANCH   2   5
ATOM      5  C   UNL A   1      34.729  22.670  23.743  1.00  0.00     0.107 C 
BRANCH   5   6
ATOM      6  C   UNL A   1      33.913  23.871  24.295  1.00  0.00    -0.012 C 
ATOM      7  C   UNL A   1      34.544  24.549  25.538  1.00  0.00     0.008 C 
ATOM      8  C   UNL A   1      33.899  25.065  23.322  1.00  0.00     0.008 C 
ATOM      9  C   UNL A   1      33.939  25.951  25.591  1.00  0.00     0.001 C 
ATOM     10  C   UNL A   1      33.496  26.273  24.166  1.00  0.00     0.001 C 
BRANCH   6  11
ATOM     11  C   UNL A   1      32.475  23.396  24.669  1.00  0.00     0.109 C 
BRANCH  11  12
ATOM     12  C   UNL A   1      32.370  22.545  25.929  1.00  0.00     0.238 C 
ATOM     13  O   UNL A   1      32.346  23.061  27.047  1.00  0.00    -0.273 OA
ATOM     14  N   UNL A   1      32.277  21.182  25.813  1.00  0.00    -0.270 N 
ATOM     15  H   UNL A   1      32.162  20.649  26.633  1.00  0.00     0.191 HD
BRANCH  14  16
ATOM     16  N   UNL A   1      32.337  20.519  24.598  1.00  0.00    -0.299 N 
ATOM     17  H   UNL A   1      32.059  20.942  23.753  1.00  0.00     0.188 HD
BRANCH  16  18
ATOM     18  C   UNL A   1      32.822  19.203  24.658  1.00  0.00     0.055 A 
ATOM     19  C   UNL A   1      32.171  18.268  25.473  1.00  0.00     0.034 A 
ATOM     20  C   UNL A   1      34.029  18.845  24.045  1.00  0.00     0.034 A 
ATOM     21  C   UNL A   1      32.692  16.984  25.655  1.00  0.00     0.088 A 
ATOM     22  C   UNL A   1      34.569  17.568  24.225  1.00  0.00     0.088 A 
ATOM     23  C   UNL A   1      33.899  16.642  25.036  1.00  0.00     0.269 A 
BRANCH  23  24
ATOM     24  N   UNL A   1      34.491  15.319  25.272  1.00  0.00     0.062 N 
ATOM     25  O   UNL A   1      35.726  15.232  25.272  1.00  0.00    -0.258 OA
ATOM     26  O   UNL A   1      33.716  14.365  25.433  1.00  0.00    -0.258 OA
ENDBRANCH  23  24
ENDBRANCH  16  18
ENDBRANCH  14  16
ENDBRANCH  11  12
ENDBRANCH   6  11
ENDBRANCH   5   6
ENDBRANCH   2   5
BRANCH   3  27
ATOM     27  C   UNL A   1      38.100  22.112  25.385  1.00  0.00     0.117 C 
BRANCH  27  28
ATOM     28  C   UNL A   1      38.395  23.312  26.272  1.00  0.00     0.042 C 
BRANCH  28  29
ATOM     29  C   UNL A   1      39.676  23.205  27.091  1.00  0.00     0.118 C 
BRANCH  29  30
ATOM     30  N   UNL A   1      40.888  23.459  26.325  1.00  0.00    -0.352 N 
ATOM     31  C   UNL A   1      41.683  24.587  26.318  1.00  0.00     0.251 C 
ATOM     32  H   UNL A   1      41.178  22.729  25.731  1.00  0.00     0.163 HD
ATOM     33  O   UNL A   1      42.619  24.680  25.537  1.00  0.00    -0.269 OA
BRANCH  31  34
ATOM     34  C   UNL A   1      41.363  25.698  27.242  1.00  0.00     0.039 A 
ATOM     35  C   UNL A   1      40.410  25.495  28.243  1.00  0.00     0.014 A 
ATOM     36  C   UNL A   1      42.050  26.911  27.155  1.00  0.00     0.014 A 
ATOM     37  C   UNL A   1      40.214  26.477  29.218  1.00  0.00     0.010 A 
ATOM     38  C   UNL A   1      41.901  27.859  28.165  1.00  0.00     0.010 A 
ATOM     39  C   UNL A   1      40.995  27.644  29.216  1.00  0.00    -0.014 A 
BRANCH  39  40
ATOM     40  C   UNL A   1      40.913  28.647  30.310  1.00  0.00     0.031 A 
ATOM     41  C   UNL A   1      41.802  28.517  31.515  1.00  0.00     0.074 A 
ATOM     42  C   UNL A   1      39.968  29.610  30.270  1.00  0.00     0.049 A 
ATOM     43  N   UNL A   1      41.771  29.178  32.642  1.00  0.00    -0.248 NA
ATOM     44  C   UNL A   1      42.847  27.481  31.455  1.00  0.00     0.031 C 
ATOM     45  C   UNL A   1      39.020  29.821  29.175  1.00  0.00     0.029 A 
ATOM     46  N   UNL A   1      39.633  30.574  31.188  1.00  0.00    -0.354 N 
ATOM     47  C   UNL A   1      42.768  28.624  33.435  1.00  0.00     0.074 A 
ATOM     48  C   UNL A   1      43.363  27.547  32.673  1.00  0.00     0.031 C 
ATOM     49  C   UNL A   1      38.217  30.853  29.480  1.00  0.00     0.029 A 
ATOM     50  C   UNL A   1      38.560  31.348  30.810  1.00  0.00     0.049 A 
ATOM     51  H   UNL A   1      40.115  30.700  32.036  1.00  0.00     0.167 HD
ATOM     52  C   UNL A   1      43.162  28.990  34.678  1.00  0.00     0.037 A 
ATOM     53  C   UNL A   1      37.913  32.332  31.466  1.00  0.00     0.037 A 
ATOM     54  C   UNL A   1      42.590  30.084  35.418  1.00  0.00     0.049 A 
ATOM     55  C   UNL A   1      38.373  32.726  32.844  1.00  0.00     0.074 A 
ATOM     56  C   UNL A   1      42.956  30.563  36.664  1.00  0.00     0.029 A 
ATOM     57  N   UNL A   1      41.537  30.872  34.979  1.00  0.00    -0.354 N 
ATOM     58  N   UNL A   1      39.344  32.216  33.563  1.00  0.00    -0.248 NA
ATOM     59  C   UNL A   1      37.653  33.827  33.499  1.00  0.00     0.031 C 
ATOM     60  C   UNL A   1      42.103  31.623  36.991  1.00  0.00     0.029 A 
ATOM     61  C   UNL A   1      41.234  31.830  35.932  1.00  0.00     0.049 A 
ATOM     62  H   UNL A   1      41.073  30.767  34.116  1.00  0.00     0.167 HD
ATOM     63  C   UNL A   1      39.374  32.956  34.740  1.00  0.00     0.074 A 
ATOM     64  C   UNL A   1      38.324  33.948  34.638  1.00  0.00     0.031 C 
ATOM     65  C   UNL A   1      40.202  32.828  35.805  1.00  0.00     0.037 A 
BRANCH  52  66
ATOM     66  C   UNL A   1      44.268  28.199  35.317  1.00  0.00     0.058 A 
ATOM     67  C   UNL A   1      45.614  28.569  35.175  1.00  0.00     0.135 A 
ATOM     68  C   UNL A   1      43.977  27.074  36.107  1.00  0.00     0.135 A 
ATOM     69  F   UNL A   1      45.948  29.627  34.418  1.00  0.00    -0.206 F 
ATOM     70  C   UNL A   1      46.636  27.835  35.767  1.00  0.00     0.059 A 
ATOM     71  C   UNL A   1      44.983  26.341  36.730  1.00  0.00     0.059 A 
ATOM     72  F   UNL A   1      42.707  26.676  36.276  1.00  0.00    -0.206 F 
ATOM     73  C   UNL A   1      46.311  26.721  36.541  1.00  0.00     0.060 A 
BRANCH  73  74
ATOM     74  S   UNL A   1      47.648  25.777  37.301  1.00  0.00     0.124 S 
ATOM     75  O   UNL A   1      47.939  26.589  38.480  1.00  0.00    -0.237 OA
ATOM     76  O   UNL A   1      47.015  24.489  37.562  1.00  0.00    -0.237 OA
ATOM     77  O   UNL A   1      48.684  25.768  36.274  1.00  0.00    -0.744 OA
ENDBRANCH  73  74
ENDBRANCH  52  66
BRANCH  53  78
ATOM     78  C   UNL A   1      36.768  33.026  30.820  1.00  0.00     0.058 A 
ATOM     79  C   UNL A   1      36.983  34.037  29.873  1.00  0.00     0.135 A 
ATOM     80  C   UNL A   1      35.440  32.683  31.121  1.00  0.00     0.135 A 
ATOM     81  F   UNL A   1      38.235  34.405  29.558  1.00  0.00    -0.206 F 
ATOM     82  C   UNL A   1      35.924  34.696  29.256  1.00  0.00     0.059 A 
ATOM     83  C   UNL A   1      34.365  33.311  30.501  1.00  0.00     0.059 A 
ATOM     84  F   UNL A   1      35.183  31.710  32.009  1.00  0.00    -0.206 F 
ATOM     85  C   UNL A   1      34.618  34.323  29.576  1.00  0.00     0.060 A 
BRANCH  85  86
ATOM     86  S   UNL A   1      33.250  35.148  28.732  1.00  0.00     0.124 S 
ATOM     87  O   UNL A   1      32.486  35.675  29.856  1.00  0.00    -0.237 OA
ATOM     88  O   UNL A   1      33.946  36.136  27.912  1.00  0.00    -0.237 OA
ATOM     89  O   UNL A   1      32.615  34.065  27.987  1.00  0.00    -0.744 OA
ENDBRANCH  85  86
ENDBRANCH  53  78
BRANCH  65  90
ATOM     90  C   UNL A   1      40.051  33.810  36.931  1.00  0.00     0.058 A 
ATOM     91  C   UNL A   1      40.822  34.979  37.001  1.00  0.00     0.135 A 
ATOM     92  C   UNL A   1      39.056  33.618  37.904  1.00  0.00     0.135 A 
ATOM     93  F   UNL A   1      41.790  35.205  36.099  1.00  0.00    -0.206 F 
ATOM     94  C   UNL A   1      40.614  35.925  38.000  1.00  0.00     0.059 A 
ATOM     95  C   UNL A   1      38.817  34.560  38.898  1.00  0.00     0.059 A 
ATOM     96  F   UNL A   1      38.286  32.518  37.876  1.00  0.00    -0.206 F 
ATOM     97  C   UNL A   1      39.605  35.710  38.941  1.00  0.00     0.060 A 
BRANCH  97  98
ATOM     98  S   UNL A   1      39.299  36.977  40.191  1.00  0.00     0.124 S 
ATOM     99  O   UNL A   1      38.580  37.985  39.418  1.00  0.00    -0.237 OA
ATOM    100  O   UNL A   1      38.505  36.255  41.181  1.00  0.00    -0.237 OA
ATOM    101  O   UNL A   1      40.639  37.355  40.626  1.00  0.00    -0.744 OA
ENDBRANCH  97  98
ENDBRANCH  65  90
ENDBRANCH  39  40
ENDBRANCH  31  34
ENDBRANCH  29  30
ENDBRANCH  28  29
ENDBRANCH  27  28
ENDBRANCH   3  27
TORSDOF 19
ENDMDL
