MODEL 1
REMARK VINA RESULT:     -13.8      0.000      0.000
REMARK SMILES O=C(NCCCNC(=O)c1ccc(-c2c3nc(c(-c4c(F)cc(S(=O)(=O)[O-])cc4F)c4ccc([nH]4)c(-c4c(F)cc(S(=O)(=O)[O-])cc4F)c4nc(c(-c5c(F)cc(S(=O)(=O)[O-])cc5F)c5ccc2[nH]5)C=C4)C=C3)cc1)C1=Cc2cc(Cl)cc(-c3ccc(Cl)cc3)c2O[C@@H]1C(F)(F)F
REMARK SMILES IDX 6 1 5 2 4 3 3 4 1 5 2 6 76 8 77 9 93 10 78 11 92 12 79 13
REMARK SMILES IDX 91 14 80 15 83 16 81 17 82 18 94 19 95 20 96 21 97 22 84 23
REMARK SMILES IDX 85 24 90 25 86 26 89 27 87 28 88 29 7 30 8 31 9 33 10 34
REMARK SMILES IDX 11 35 75 36 12 37 74 38 13 39 14 40 15 41 68 42 16 43 73 44
REMARK SMILES IDX 67 45 69 46 17 47 72 48 66 49 65 50 18 52 52 53 31 54 51 55
REMARK SMILES IDX 32 56 35 57 50 58 70 59 33 60 34 61 49 63 71 64 36 65 19 66
REMARK SMILES IDX 20 67 29 68 21 69 22 70 28 71 30 72 23 73 24 74 25 75 26 76
REMARK SMILES IDX 27 77 53 78 54 79 63 80 55 81 56 82 62 83 64 84 57 85 58 86
REMARK SMILES IDX 59 87 60 88 61 89 37 90 38 91 47 92 39 93 40 94 46 95 48 96
REMARK SMILES IDX 41 97 42 98 43 99 44 100 45 101
REMARK H PARENT 3 7 7 32 69 51 35 62
REMARK Flexibility Score: inf
ROOT
ATOM      1  C   UNL A   1      33.465  29.829  26.874  1.00  0.00     0.118 C 
ENDROOT
BRANCH   1   2
ATOM      2  C   UNL A   1      32.959  28.508  27.452  1.00  0.00     0.042 C 
BRANCH   2   3
ATOM      3  C   UNL A   1      32.657  27.464  26.376  1.00  0.00     0.118 C 
BRANCH   3   4
ATOM      4  N   UNL A   1      31.838  26.353  26.877  1.00  0.00    -0.352 N 
ATOM      5  O   UNL A   1      31.316  24.178  27.287  1.00  0.00    -0.270 OA
ATOM      6  C   UNL A   1      31.936  25.006  26.633  1.00  0.00     0.251 C 
ATOM      7  H   UNL A   1      31.105  26.614  27.480  1.00  0.00     0.163 HD
BRANCH   6   8
ATOM      8  C   UNL A   1      32.887  24.597  25.592  1.00  0.00     0.067 C 
ATOM      9  C   UNL A   1      34.185  24.840  25.807  1.00  0.00     0.025 C 
ATOM     10  C   UNL A   1      32.402  23.648  24.546  1.00  0.00     0.314 C 
ATOM     11  C   UNL A   1      35.083  23.782  25.339  1.00  0.00     0.019 A 
ATOM     12  O   UNL A   1      33.206  22.442  24.522  1.00  0.00    -0.475 OA
ATOM     13  C   UNL A   1      36.427  23.851  25.714  1.00  0.00     0.032 A 
ATOM     14  C   UNL A   1      34.528  22.562  24.895  1.00  0.00     0.135 A 
ATOM     15  C   UNL A   1      37.188  22.689  25.742  1.00  0.00     0.042 A 
ATOM     16  C   UNL A   1      35.278  21.376  24.980  1.00  0.00     0.026 A 
ATOM     17  Cl  UNL A   1      38.799  22.746  26.338  1.00  0.00    -0.084 Cl
ATOM     18  C   UNL A   1      36.616  21.462  25.407  1.00  0.00     0.033 A 
BRANCH  10  19
ATOM     19  C   UNL A   1      32.308  24.315  23.162  1.00  0.00     0.429 C 
ATOM     20  F   UNL A   1      32.915  23.560  22.214  1.00  0.00    -0.167 F 
ATOM     21  F   UNL A   1      31.023  24.471  22.764  1.00  0.00    -0.167 F 
ATOM     22  F   UNL A   1      32.888  25.538  23.128  1.00  0.00    -0.167 F 
ENDBRANCH  10  19
BRANCH  16  23
ATOM     23  C   UNL A   1      34.669  20.043  24.832  1.00  0.00    -0.015 A 
ATOM     24  C   UNL A   1      33.297  19.869  25.087  1.00  0.00     0.010 A 
ATOM     25  C   UNL A   1      35.429  18.913  24.514  1.00  0.00     0.010 A 
ATOM     26  C   UNL A   1      32.708  18.606  25.094  1.00  0.00     0.021 A 
ATOM     27  C   UNL A   1      34.839  17.642  24.505  1.00  0.00     0.021 A 
ATOM     28  C   UNL A   1      33.487  17.493  24.812  1.00  0.00     0.041 A 
ATOM     29  Cl  UNL A   1      32.782  15.926  24.859  1.00  0.00    -0.084 Cl
ENDBRANCH  16  23
ENDBRANCH   6   8
ENDBRANCH   3   4
ENDBRANCH   2   3
ENDBRANCH   1   2
BRANCH   1  30
ATOM     30  N   UNL A   1      33.654  30.899  27.843  1.00  0.00    -0.352 N 
ATOM     31  C   UNL A   1      34.752  31.153  28.646  1.00  0.00     0.251 C 
ATOM     32  H   UNL A   1      32.899  31.524  27.941  1.00  0.00     0.163 HD
ATOM     33  O   UNL A   1      34.741  32.108  29.419  1.00  0.00    -0.269 OA
BRANCH  31  34
ATOM     34  C   UNL A   1      35.883  30.197  28.668  1.00  0.00     0.039 A 
ATOM     35  C   UNL A   1      36.678  30.096  27.520  1.00  0.00     0.014 A 
ATOM     36  C   UNL A   1      36.262  29.543  29.838  1.00  0.00     0.014 A 
ATOM     37  C   UNL A   1      37.939  29.505  27.605  1.00  0.00     0.010 A 
ATOM     38  C   UNL A   1      37.557  29.054  29.950  1.00  0.00     0.010 A 
ATOM     39  C   UNL A   1      38.428  29.085  28.850  1.00  0.00    -0.014 A 
BRANCH  39  40
ATOM     40  C   UNL A   1      39.866  28.781  29.068  1.00  0.00     0.031 A 
ATOM     41  C   UNL A   1      40.801  29.865  29.520  1.00  0.00     0.074 A 
ATOM     42  C   UNL A   1      40.344  27.572  28.703  1.00  0.00     0.049 A 
ATOM     43  N   UNL A   1      42.108  29.869  29.547  1.00  0.00    -0.248 NA
ATOM     44  C   UNL A   1      40.184  31.130  29.948  1.00  0.00     0.031 C 
ATOM     45  C   UNL A   1      39.542  26.462  28.177  1.00  0.00     0.029 A 
ATOM     46  N   UNL A   1      41.624  27.078  28.695  1.00  0.00    -0.354 N 
ATOM     47  C   UNL A   1      42.471  31.149  29.948  1.00  0.00     0.074 A 
ATOM     48  C   UNL A   1      41.247  31.903  30.116  1.00  0.00     0.031 C 
ATOM     49  C   UNL A   1      40.340  25.413  27.927  1.00  0.00     0.029 A 
ATOM     50  C   UNL A   1      41.718  25.787  28.224  1.00  0.00     0.049 A 
ATOM     51  H   UNL A   1      42.404  27.597  28.998  1.00  0.00     0.167 HD
ATOM     52  C   UNL A   1      43.713  31.643  30.169  1.00  0.00     0.037 A 
ATOM     53  C   UNL A   1      42.793  24.997  28.040  1.00  0.00     0.037 A 
ATOM     54  C   UNL A   1      44.915  30.863  30.054  1.00  0.00     0.049 A 
ATOM     55  C   UNL A   1      44.154  25.543  28.369  1.00  0.00     0.074 A 
ATOM     56  C   UNL A   1      46.220  31.244  30.313  1.00  0.00     0.029 A 
ATOM     57  N   UNL A   1      44.955  29.532  29.663  1.00  0.00    -0.354 N 
ATOM     58  N   UNL A   1      44.477  26.747  28.779  1.00  0.00    -0.248 NA
ATOM     59  C   UNL A   1      45.296  24.632  28.211  1.00  0.00     0.031 C 
ATOM     60  C   UNL A   1      47.051  30.145  30.069  1.00  0.00     0.029 A 
ATOM     61  C   UNL A   1      46.261  29.072  29.682  1.00  0.00     0.049 A 
ATOM     62  H   UNL A   1      44.171  28.993  29.409  1.00  0.00     0.167 HD
ATOM     63  C   UNL A   1      45.855  26.730  28.953  1.00  0.00     0.074 A 
ATOM     64  C   UNL A   1      46.304  25.397  28.608  1.00  0.00     0.031 C 
ATOM     65  C   UNL A   1      46.675  27.731  29.359  1.00  0.00     0.037 A 
BRANCH  52  66
ATOM     66  C   UNL A   1      43.818  33.089  30.567  1.00  0.00     0.058 A 
ATOM     67  C   UNL A   1      44.029  34.100  29.617  1.00  0.00     0.135 A 
ATOM     68  C   UNL A   1      43.717  33.469  31.915  1.00  0.00     0.135 A 
ATOM     69  F   UNL A   1      44.150  33.788  28.316  1.00  0.00    -0.206 F 
ATOM     70  C   UNL A   1      44.186  35.429  29.991  1.00  0.00     0.059 A 
ATOM     71  C   UNL A   1      43.843  34.798  32.310  1.00  0.00     0.059 A 
ATOM     72  F   UNL A   1      43.514  32.543  32.866  1.00  0.00    -0.206 F 
ATOM     73  C   UNL A   1      44.101  35.768  31.342  1.00  0.00     0.060 A 
BRANCH  73  74
ATOM     74  S   UNL A   1      44.340  37.492  31.819  1.00  0.00     0.124 S 
ATOM     75  O   UNL A   1      45.791  37.549  31.975  1.00  0.00    -0.237 OA
ATOM     76  O   UNL A   1      43.798  38.216  30.673  1.00  0.00    -0.237 OA
ATOM     77  O   UNL A   1      43.570  37.611  33.054  1.00  0.00    -0.744 OA
ENDBRANCH  73  74
ENDBRANCH  52  66
BRANCH  53  78
ATOM     78  C   UNL A   1      42.622  23.602  27.552  1.00  0.00     0.058 A 
ATOM     79  C   UNL A   1      42.657  23.318  26.179  1.00  0.00     0.135 A 
ATOM     80  C   UNL A   1      42.447  22.528  28.438  1.00  0.00     0.135 A 
ATOM     81  F   UNL A   1      42.820  24.312  25.294  1.00  0.00    -0.206 F 
ATOM     82  C   UNL A   1      42.511  22.021  25.699  1.00  0.00     0.059 A 
ATOM     83  C   UNL A   1      42.319  21.220  27.982  1.00  0.00     0.059 A 
ATOM     84  F   UNL A   1      42.428  22.745  29.763  1.00  0.00    -0.206 F 
ATOM     85  C   UNL A   1      42.342  20.976  26.609  1.00  0.00     0.060 A 
BRANCH  85  86
ATOM     86  S   UNL A   1      42.204  19.288  25.979  1.00  0.00     0.124 S 
ATOM     87  O   UNL A   1      42.730  18.515  27.097  1.00  0.00    -0.237 OA
ATOM     88  O   UNL A   1      40.770  19.166  25.735  1.00  0.00    -0.237 OA
ATOM     89  O   UNL A   1      43.035  19.312  24.779  1.00  0.00    -0.744 OA
ENDBRANCH  85  86
ENDBRANCH  53  78
BRANCH  65  90
ATOM     90  C   UNL A   1      48.134  27.413  29.494  1.00  0.00     0.058 A 
ATOM     91  C   UNL A   1      49.041  27.690  28.462  1.00  0.00     0.135 A 
ATOM     92  C   UNL A   1      48.637  26.911  30.705  1.00  0.00     0.135 A 
ATOM     93  F   UNL A   1      48.603  28.162  27.285  1.00  0.00    -0.206 F 
ATOM     94  C   UNL A   1      50.405  27.479  28.626  1.00  0.00     0.059 A 
ATOM     95  C   UNL A   1      49.999  26.710  30.896  1.00  0.00     0.059 A 
ATOM     96  F   UNL A   1      47.804  26.636  31.721  1.00  0.00    -0.206 F 
ATOM     97  C   UNL A   1      50.875  26.997  29.850  1.00  0.00     0.060 A 
BRANCH  97  98
ATOM     98  S   UNL A   1      52.655  26.801  30.078  1.00  0.00     0.124 S 
ATOM     99  O   UNL A   1      53.069  26.316  28.766  1.00  0.00    -0.237 OA
ATOM    100  O   UNL A   1      53.080  28.156  30.417  1.00  0.00    -0.237 OA
ATOM    101  O   UNL A   1      52.751  25.831  31.166  1.00  0.00    -0.744 OA
ENDBRANCH  97  98
ENDBRANCH  65  90
ENDBRANCH  39  40
ENDBRANCH  31  34
ENDBRANCH   1  30
TORSDOF 15
ENDMDL
MODEL 2
REMARK VINA RESULT:     -13.5      3.945      9.917
REMARK SMILES O=C(NCCCNC(=O)c1ccc(-c2c3nc(c(-c4c(F)cc(S(=O)(=O)[O-])cc4F)c4ccc([nH]4)c(-c4c(F)cc(S(=O)(=O)[O-])cc4F)c4nc(c(-c5c(F)cc(S(=O)(=O)[O-])cc5F)c5ccc2[nH]5)C=C4)C=C3)cc1)C1=Cc2cc(Cl)cc(-c3ccc(Cl)cc3)c2O[C@@H]1C(F)(F)F
REMARK SMILES IDX 6 1 5 2 4 3 3 4 1 5 2 6 76 8 77 9 93 10 78 11 92 12 79 13
REMARK SMILES IDX 91 14 80 15 83 16 81 17 82 18 94 19 95 20 96 21 97 22 84 23
REMARK SMILES IDX 85 24 90 25 86 26 89 27 87 28 88 29 7 30 8 31 9 33 10 34
REMARK SMILES IDX 11 35 75 36 12 37 74 38 13 39 14 40 15 41 68 42 16 43 73 44
REMARK SMILES IDX 67 45 69 46 17 47 72 48 66 49 65 50 18 52 52 53 31 54 51 55
REMARK SMILES IDX 32 56 35 57 50 58 70 59 33 60 34 61 49 63 71 64 36 65 19 66
REMARK SMILES IDX 20 67 29 68 21 69 22 70 28 71 30 72 23 73 24 74 25 75 26 76
REMARK SMILES IDX 27 77 53 78 54 79 63 80 55 81 56 82 62 83 64 84 57 85 58 86
REMARK SMILES IDX 59 87 60 88 61 89 37 90 38 91 47 92 39 93 40 94 46 95 48 96
REMARK SMILES IDX 41 97 42 98 43 99 44 100 45 101
REMARK H PARENT 3 7 7 32 69 51 35 62
REMARK Flexibility Score: inf
ROOT
ATOM      1  C   UNL A   1      37.449  22.752  25.096  1.00  0.00     0.118 C 
ENDROOT
BRANCH   1   2
ATOM      2  C   UNL A   1      36.269  22.201  25.894  1.00  0.00     0.042 C 
BRANCH   2   3
ATOM      3  C   UNL A   1      35.003  23.047  25.746  1.00  0.00     0.118 C 
BRANCH   3   4
ATOM      4  N   UNL A   1      34.811  23.551  24.381  1.00  0.00    -0.352 N 
ATOM      5  O   UNL A   1      34.243  25.070  22.788  1.00  0.00    -0.270 OA
ATOM      6  C   UNL A   1      34.139  24.661  23.937  1.00  0.00     0.251 C 
ATOM      7  H   UNL A   1      35.229  23.007  23.674  1.00  0.00     0.163 HD
BRANCH   6   8
ATOM      8  C   UNL A   1      33.343  25.386  24.934  1.00  0.00     0.067 C 
ATOM      9  C   UNL A   1      33.991  26.198  25.775  1.00  0.00     0.025 C 
ATOM     10  C   UNL A   1      31.864  25.443  24.730  1.00  0.00     0.314 C 
ATOM     11  C   UNL A   1      33.282  27.441  26.084  1.00  0.00     0.019 A 
ATOM     12  O   UNL A   1      31.400  26.813  24.650  1.00  0.00    -0.475 OA
ATOM     13  C   UNL A   1      33.975  28.437  26.776  1.00  0.00     0.032 A 
ATOM     14  C   UNL A   1      32.114  27.759  25.355  1.00  0.00     0.135 A 
ATOM     15  C   UNL A   1      33.565  29.760  26.660  1.00  0.00     0.042 A 
ATOM     16  C   UNL A   1      31.734  29.102  25.187  1.00  0.00     0.026 A 
ATOM     17  Cl  UNL A   1      34.498  31.003  27.394  1.00  0.00    -0.084 Cl
ATOM     18  C   UNL A   1      32.476  30.094  25.856  1.00  0.00     0.033 A 
BRANCH  10  19
ATOM     19  C   UNL A   1      31.104  24.630  25.795  1.00  0.00     0.429 C 
ATOM     20  F   UNL A   1      29.976  25.273  26.185  1.00  0.00    -0.167 F 
ATOM     21  F   UNL A   1      30.714  23.422  25.322  1.00  0.00    -0.167 F 
ATOM     22  F   UNL A   1      31.840  24.406  26.908  1.00  0.00    -0.167 F 
ENDBRANCH  10  19
BRANCH  16  23
ATOM     23  C   UNL A   1      30.726  29.521  24.199  1.00  0.00    -0.015 A 
ATOM     24  C   UNL A   1      30.597  28.815  22.990  1.00  0.00     0.010 A 
ATOM     25  C   UNL A   1      29.931  30.656  24.387  1.00  0.00     0.010 A 
ATOM     26  C   UNL A   1      29.756  29.257  21.969  1.00  0.00     0.021 A 
ATOM     27  C   UNL A   1      29.073  31.097  23.371  1.00  0.00     0.021 A 
ATOM     28  C   UNL A   1      29.003  30.406  22.162  1.00  0.00     0.041 A 
ATOM     29  Cl  UNL A   1      27.994  30.984  20.895  1.00  0.00    -0.084 Cl
ENDBRANCH  16  23
ENDBRANCH   6   8
ENDBRANCH   3   4
ENDBRANCH   2   3
ENDBRANCH   1   2
BRANCH   1  30
ATOM     30  N   UNL A   1      38.752  22.216  25.465  1.00  0.00    -0.352 N 
ATOM     31  C   UNL A   1      39.736  22.799  26.245  1.00  0.00     0.251 C 
ATOM     32  H   UNL A   1      38.961  21.321  25.112  1.00  0.00     0.163 HD
ATOM     33  O   UNL A   1      40.788  22.201  26.455  1.00  0.00    -0.269 OA
BRANCH  31  34
ATOM     34  C   UNL A   1      39.572  24.194  26.713  1.00  0.00     0.039 A 
ATOM     35  C   UNL A   1      38.853  24.409  27.895  1.00  0.00     0.014 A 
ATOM     36  C   UNL A   1      40.247  25.251  26.107  1.00  0.00     0.014 A 
ATOM     37  C   UNL A   1      38.976  25.627  28.565  1.00  0.00     0.010 A 
ATOM     38  C   UNL A   1      40.457  26.421  26.825  1.00  0.00     0.010 A 
ATOM     39  C   UNL A   1      39.871  26.595  28.089  1.00  0.00    -0.014 A 
BRANCH  39  40
ATOM     40  C   UNL A   1      40.307  27.742  28.926  1.00  0.00     0.031 A 
ATOM     41  C   UNL A   1      41.575  27.650  29.724  1.00  0.00     0.074 A 
ATOM     42  C   UNL A   1      39.474  28.794  29.084  1.00  0.00     0.049 A 
ATOM     43  N   UNL A   1      42.009  28.429  30.679  1.00  0.00    -0.248 NA
ATOM     44  C   UNL A   1      42.445  26.495  29.445  1.00  0.00     0.031 C 
ATOM     45  C   UNL A   1      38.176  28.960  28.420  1.00  0.00     0.029 A 
ATOM     46  N   UNL A   1      39.580  29.913  29.872  1.00  0.00    -0.354 N 
ATOM     47  C   UNL A   1      43.174  27.836  31.148  1.00  0.00     0.074 A 
ATOM     48  C   UNL A   1      43.359  26.613  30.397  1.00  0.00     0.031 C 
ATOM     49  C   UNL A   1      37.624  30.121  28.803  1.00  0.00     0.029 A 
ATOM     50  C   UNL A   1      38.498  30.760  29.779  1.00  0.00     0.049 A 
ATOM     51  H   UNL A   1      40.356  30.093  30.450  1.00  0.00     0.167 HD
ATOM     52  C   UNL A   1      44.020  28.282  32.107  1.00  0.00     0.037 A 
ATOM     53  C   UNL A   1      38.235  31.917  30.417  1.00  0.00     0.037 A 
ATOM     54  C   UNL A   1      43.854  29.529  32.802  1.00  0.00     0.049 A 
ATOM     55  C   UNL A   1      39.229  32.431  31.420  1.00  0.00     0.074 A 
ATOM     56  C   UNL A   1      44.681  30.108  33.748  1.00  0.00     0.029 A 
ATOM     57  N   UNL A   1      42.792  30.402  32.609  1.00  0.00    -0.354 N 
ATOM     58  N   UNL A   1      40.344  31.873  31.827  1.00  0.00    -0.248 NA
ATOM     59  C   UNL A   1      38.934  33.725  32.050  1.00  0.00     0.031 C 
ATOM     60  C   UNL A   1      44.114  31.327  34.135  1.00  0.00     0.029 A 
ATOM     61  C   UNL A   1      42.946  31.520  33.412  1.00  0.00     0.049 A 
ATOM     62  H   UNL A   1      42.039  30.249  31.993  1.00  0.00     0.167 HD
ATOM     63  C   UNL A   1      40.898  32.759  32.743  1.00  0.00     0.074 A 
ATOM     64  C   UNL A   1      39.997  33.891  32.826  1.00  0.00     0.031 C 
ATOM     65  C   UNL A   1      42.046  32.644  33.454  1.00  0.00     0.037 A 
BRANCH  52  66
ATOM     66  C   UNL A   1      45.201  27.414  32.442  1.00  0.00     0.058 A 
ATOM     67  C   UNL A   1      45.116  26.399  33.408  1.00  0.00     0.135 A 
ATOM     68  C   UNL A   1      46.434  27.603  31.798  1.00  0.00     0.135 A 
ATOM     69  F   UNL A   1      43.964  26.187  34.065  1.00  0.00    -0.206 F 
ATOM     70  C   UNL A   1      46.223  25.635  33.761  1.00  0.00     0.059 A 
ATOM     71  C   UNL A   1      47.549  26.832  32.116  1.00  0.00     0.059 A 
ATOM     72  F   UNL A   1      46.571  28.558  30.865  1.00  0.00    -0.206 F 
ATOM     73  C   UNL A   1      47.439  25.866  33.115  1.00  0.00     0.060 A 
BRANCH  73  74
ATOM     74  S   UNL A   1      48.877  24.892  33.605  1.00  0.00     0.124 S 
ATOM     75  O   UNL A   1      49.509  25.780  34.577  1.00  0.00    -0.237 OA
ATOM     76  O   UNL A   1      48.270  23.684  34.154  1.00  0.00    -0.237 OA
ATOM     77  O   UNL A   1      49.605  24.711  32.353  1.00  0.00    -0.744 OA
ENDBRANCH  73  74
ENDBRANCH  52  66
BRANCH  53  78
ATOM     78  C   UNL A   1      36.997  32.680  30.101  1.00  0.00     0.058 A 
ATOM     79  C   UNL A   1      35.821  32.463  30.834  1.00  0.00     0.135 A 
ATOM     80  C   UNL A   1      36.967  33.651  29.090  1.00  0.00     0.135 A 
ATOM     81  F   UNL A   1      35.799  31.543  31.810  1.00  0.00    -0.206 F 
ATOM     82  C   UNL A   1      34.654  33.171  30.566  1.00  0.00     0.059 A 
ATOM     83  C   UNL A   1      35.817  34.386  28.816  1.00  0.00     0.059 A 
ATOM     84  F   UNL A   1      38.073  33.911  28.374  1.00  0.00    -0.206 F 
ATOM     85  C   UNL A   1      34.661  34.132  29.554  1.00  0.00     0.060 A 
BRANCH  85  86
ATOM     86  S   UNL A   1      33.155  35.083  29.248  1.00  0.00     0.124 S 
ATOM     87  O   UNL A   1      32.494  34.264  28.239  1.00  0.00    -0.237 OA
ATOM     88  O   UNL A   1      32.529  35.103  30.566  1.00  0.00    -0.237 OA
ATOM     89  O   UNL A   1      33.664  36.370  28.785  1.00  0.00    -0.744 OA
ENDBRANCH  85  86
ENDBRANCH  53  78
BRANCH  65  90
ATOM     90  C   UNL A   1      42.418  33.786  34.350  1.00  0.00     0.058 A 
ATOM     91  C   UNL A   1      42.133  33.763  35.722  1.00  0.00     0.135 A 
ATOM     92  C   UNL A   1      43.150  34.872  33.842  1.00  0.00     0.135 A 
ATOM     93  F   UNL A   1      41.428  32.749  36.248  1.00  0.00    -0.206 F 
ATOM     94  C   UNL A   1      42.561  34.781  36.565  1.00  0.00     0.059 A 
ATOM     95  C   UNL A   1      43.604  35.892  34.671  1.00  0.00     0.059 A 
ATOM     96  F   UNL A   1      43.450  34.933  32.536  1.00  0.00    -0.206 F 
ATOM     97  C   UNL A   1      43.303  35.838  36.032  1.00  0.00     0.060 A 
BRANCH  97  98
ATOM     98  S   UNL A   1      43.920  37.115  37.148  1.00  0.00     0.124 S 
ATOM     99  O   UNL A   1      44.946  36.388  37.888  1.00  0.00    -0.237 OA
ATOM    100  O   UNL A   1      44.408  38.133  36.223  1.00  0.00    -0.237 OA
ATOM    101  O   UNL A   1      42.737  37.491  37.917  1.00  0.00    -0.744 OA
ENDBRANCH  97  98
ENDBRANCH  65  90
ENDBRANCH  39  40
ENDBRANCH  31  34
ENDBRANCH   1  30
TORSDOF 15
ENDMDL
MODEL 3
REMARK VINA RESULT:     -12.8      3.700      8.561
REMARK SMILES O=C(NCCCNC(=O)c1ccc(-c2c3nc(c(-c4c(F)cc(S(=O)(=O)[O-])cc4F)c4ccc([nH]4)c(-c4c(F)cc(S(=O)(=O)[O-])cc4F)c4nc(c(-c5c(F)cc(S(=O)(=O)[O-])cc5F)c5ccc2[nH]5)C=C4)C=C3)cc1)C1=Cc2cc(Cl)cc(-c3ccc(Cl)cc3)c2O[C@@H]1C(F)(F)F
REMARK SMILES IDX 6 1 5 2 4 3 3 4 1 5 2 6 76 8 77 9 93 10 78 11 92 12 79 13
REMARK SMILES IDX 91 14 80 15 83 16 81 17 82 18 94 19 95 20 96 21 97 22 84 23
REMARK SMILES IDX 85 24 90 25 86 26 89 27 87 28 88 29 7 30 8 31 9 33 10 34
REMARK SMILES IDX 11 35 75 36 12 37 74 38 13 39 14 40 15 41 68 42 16 43 73 44
REMARK SMILES IDX 67 45 69 46 17 47 72 48 66 49 65 50 18 52 52 53 31 54 51 55
REMARK SMILES IDX 32 56 35 57 50 58 70 59 33 60 34 61 49 63 71 64 36 65 19 66
REMARK SMILES IDX 20 67 29 68 21 69 22 70 28 71 30 72 23 73 24 74 25 75 26 76
REMARK SMILES IDX 27 77 53 78 54 79 63 80 55 81 56 82 62 83 64 84 57 85 58 86
REMARK SMILES IDX 59 87 60 88 61 89 37 90 38 91 47 92 39 93 40 94 46 95 48 96
REMARK SMILES IDX 41 97 42 98 43 99 44 100 45 101
REMARK H PARENT 3 7 7 32 69 51 35 62
REMARK Flexibility Score: inf
ROOT
ATOM      1  C   UNL A   1      37.189  22.995  25.178  1.00  0.00     0.118 C 
ENDROOT
BRANCH   1   2
ATOM      2  C   UNL A   1      36.075  22.325  25.980  1.00  0.00     0.042 C 
BRANCH   2   3
ATOM      3  C   UNL A   1      34.679  22.806  25.578  1.00  0.00     0.118 C 
BRANCH   3   4
ATOM      4  N   UNL A   1      34.658  23.454  24.261  1.00  0.00    -0.352 N 
ATOM      5  O   UNL A   1      34.399  25.172  22.795  1.00  0.00    -0.270 OA
ATOM      6  C   UNL A   1      34.156  24.674  23.886  1.00  0.00     0.251 C 
ATOM      7  H   UNL A   1      35.067  22.931  23.533  1.00  0.00     0.163 HD
BRANCH   6   8
ATOM      8  C   UNL A   1      33.370  25.395  24.894  1.00  0.00     0.067 C 
ATOM      9  C   UNL A   1      34.030  26.194  25.740  1.00  0.00     0.025 C 
ATOM     10  C   UNL A   1      31.891  25.466  24.698  1.00  0.00     0.314 C 
ATOM     11  C   UNL A   1      33.332  27.440  26.064  1.00  0.00     0.019 A 
ATOM     12  O   UNL A   1      31.438  26.842  24.633  1.00  0.00    -0.475 OA
ATOM     13  C   UNL A   1      34.036  28.423  26.763  1.00  0.00     0.032 A 
ATOM     14  C   UNL A   1      32.164  27.775  25.344  1.00  0.00     0.135 A 
ATOM     15  C   UNL A   1      33.637  29.750  26.662  1.00  0.00     0.042 A 
ATOM     16  C   UNL A   1      31.793  29.122  25.192  1.00  0.00     0.026 A 
ATOM     17  Cl  UNL A   1      34.584  30.978  27.404  1.00  0.00    -0.084 Cl
ATOM     18  C   UNL A   1      32.547  30.102  25.866  1.00  0.00     0.033 A 
BRANCH  10  19
ATOM     19  C   UNL A   1      31.130  24.650  25.758  1.00  0.00     0.429 C 
ATOM     20  F   UNL A   1      31.778  24.671  26.949  1.00  0.00    -0.167 F 
ATOM     21  F   UNL A   1      29.892  25.151  25.986  1.00  0.00    -0.167 F 
ATOM     22  F   UNL A   1      30.978  23.351  25.410  1.00  0.00    -0.167 F 
ENDBRANCH  10  19
BRANCH  16  23
ATOM     23  C   UNL A   1      30.785  29.559  24.212  1.00  0.00    -0.015 A 
ATOM     24  C   UNL A   1      30.718  28.937  22.953  1.00  0.00     0.010 A 
ATOM     25  C   UNL A   1      29.927  30.635  24.462  1.00  0.00     0.010 A 
ATOM     26  C   UNL A   1      29.875  29.407  21.947  1.00  0.00     0.021 A 
ATOM     27  C   UNL A   1      29.067  31.103  23.460  1.00  0.00     0.021 A 
ATOM     28  C   UNL A   1      29.058  30.499  22.203  1.00  0.00     0.041 A 
ATOM     29  Cl  UNL A   1      28.045  31.115  20.958  1.00  0.00    -0.084 Cl
ENDBRANCH  16  23
ENDBRANCH   6   8
ENDBRANCH   3   4
ENDBRANCH   2   3
ENDBRANCH   1   2
BRANCH   1  30
ATOM     30  N   UNL A   1      38.519  22.436  25.378  1.00  0.00    -0.352 N 
ATOM     31  C   UNL A   1      39.571  22.953  26.114  1.00  0.00     0.251 C 
ATOM     32  H   UNL A   1      38.693  21.578  24.928  1.00  0.00     0.163 HD
ATOM     33  O   UNL A   1      40.637  22.345  26.172  1.00  0.00    -0.269 OA
BRANCH  31  34
ATOM     34  C   UNL A   1      39.453  24.299  26.719  1.00  0.00     0.039 A 
ATOM     35  C   UNL A   1      38.750  24.417  27.923  1.00  0.00     0.014 A 
ATOM     36  C   UNL A   1      40.157  25.390  26.214  1.00  0.00     0.014 A 
ATOM     37  C   UNL A   1      38.914  25.559  28.709  1.00  0.00     0.010 A 
ATOM     38  C   UNL A   1      40.407  26.476  27.042  1.00  0.00     0.010 A 
ATOM     39  C   UNL A   1      39.835  26.542  28.322  1.00  0.00    -0.014 A 
BRANCH  39  40
ATOM     40  C   UNL A   1      40.312  27.587  29.264  1.00  0.00     0.031 A 
ATOM     41  C   UNL A   1      39.472  28.805  29.520  1.00  0.00     0.074 A 
ATOM     42  C   UNL A   1      41.567  27.506  29.756  1.00  0.00     0.049 A 
ATOM     43  N   UNL A   1      39.798  29.923  30.114  1.00  0.00    -0.248 NA
ATOM     44  C   UNL A   1      38.100  28.781  28.989  1.00  0.00     0.031 C 
ATOM     45  C   UNL A   1      42.507  26.405  29.514  1.00  0.00     0.029 A 
ATOM     46  N   UNL A   1      42.282  28.373  30.543  1.00  0.00    -0.354 N 
ATOM     47  C   UNL A   1      38.691  30.753  29.988  1.00  0.00     0.074 A 
ATOM     48  C   UNL A   1      37.699  30.022  29.228  1.00  0.00     0.031 C 
ATOM     49  C   UNL A   1      43.656  26.650  30.160  1.00  0.00     0.029 A 
ATOM     50  C   UNL A   1      43.561  27.945  30.821  1.00  0.00     0.049 A 
ATOM     51  H   UNL A   1      41.915  29.223  30.878  1.00  0.00     0.167 HD
ATOM     52  C   UNL A   1      38.515  32.004  30.474  1.00  0.00     0.037 A 
ATOM     53  C   UNL A   1      44.550  28.535  31.520  1.00  0.00     0.037 A 
ATOM     54  C   UNL A   1      39.488  32.693  31.278  1.00  0.00     0.049 A 
ATOM     55  C   UNL A   1      44.301  29.891  32.119  1.00  0.00     0.074 A 
ATOM     56  C   UNL A   1      39.390  33.937  31.875  1.00  0.00     0.029 A 
ATOM     57  N   UNL A   1      40.735  32.183  31.614  1.00  0.00    -0.354 N 
ATOM     58  N   UNL A   1      43.234  30.648  32.017  1.00  0.00    -0.248 NA
ATOM     59  C   UNL A   1      45.382  30.475  32.924  1.00  0.00     0.031 C 
ATOM     60  C   UNL A   1      40.583  34.185  32.563  1.00  0.00     0.029 A 
ATOM     61  C   UNL A   1      41.414  33.084  32.417  1.00  0.00     0.049 A 
ATOM     62  H   UNL A   1      41.085  31.310  31.323  1.00  0.00     0.167 HD
ATOM     63  C   UNL A   1      43.506  31.787  32.765  1.00  0.00     0.074 A 
ATOM     64  C   UNL A   1      44.834  31.617  33.318  1.00  0.00     0.031 C 
ATOM     65  C   UNL A   1      42.726  32.876  32.973  1.00  0.00     0.037 A 
BRANCH  52  66
ATOM     66  C   UNL A   1      37.216  32.691  30.156  1.00  0.00     0.058 A 
ATOM     67  C   UNL A   1      37.101  33.581  29.077  1.00  0.00     0.135 A 
ATOM     68  C   UNL A   1      36.076  32.466  30.943  1.00  0.00     0.135 A 
ATOM     69  F   UNL A   1      38.166  33.844  28.302  1.00  0.00    -0.206 F 
ATOM     70  C   UNL A   1      35.917  34.262  28.817  1.00  0.00     0.059 A 
ATOM     71  C   UNL A   1      34.871  33.115  30.685  1.00  0.00     0.059 A 
ATOM     72  F   UNL A   1      36.129  31.624  31.987  1.00  0.00    -0.206 F 
ATOM     73  C   UNL A   1      34.810  34.029  29.634  1.00  0.00     0.060 A 
BRANCH  73  74
ATOM     74  S   UNL A   1      33.288  34.944  29.309  1.00  0.00     0.124 S 
ATOM     75  O   UNL A   1      33.811  36.179  28.732  1.00  0.00    -0.237 OA
ATOM     76  O   UNL A   1      32.580  34.064  28.384  1.00  0.00    -0.237 OA
ATOM     77  O   UNL A   1      32.683  35.075  30.631  1.00  0.00    -0.744 OA
ENDBRANCH  73  74
ENDBRANCH  52  66
BRANCH  53  78
ATOM     78  C   UNL A   1      45.846  27.834  31.718  1.00  0.00     0.058 A 
ATOM     79  C   UNL A   1      46.002  26.904  32.757  1.00  0.00     0.135 A 
ATOM     80  C   UNL A   1      46.940  28.052  30.867  1.00  0.00     0.135 A 
ATOM     81  F   UNL A   1      44.985  26.663  33.597  1.00  0.00    -0.206 F 
ATOM     82  C   UNL A   1      47.200  26.226  32.956  1.00  0.00     0.059 A 
ATOM     83  C   UNL A   1      48.143  27.371  31.034  1.00  0.00     0.059 A 
ATOM     84  F   UNL A   1      46.835  28.916  29.845  1.00  0.00    -0.206 F 
ATOM     85  C   UNL A   1      48.267  26.466  32.088  1.00  0.00     0.060 A 
BRANCH  85  86
ATOM     86  S   UNL A   1      49.803  25.544  32.322  1.00  0.00     0.124 S 
ATOM     87  O   UNL A   1      49.398  24.549  33.308  1.00  0.00    -0.237 OA
ATOM     88  O   UNL A   1      50.069  25.041  30.978  1.00  0.00    -0.237 OA
ATOM     89  O   UNL A   1      50.734  26.563  32.796  1.00  0.00    -0.744 OA
ENDBRANCH  85  86
ENDBRANCH  53  78
BRANCH  65  90
ATOM     90  C   UNL A   1      43.269  33.950  33.867  1.00  0.00     0.058 A 
ATOM     91  C   UNL A   1      43.934  35.068  33.346  1.00  0.00     0.135 A 
ATOM     92  C   UNL A   1      43.037  33.900  35.251  1.00  0.00     0.135 A 
ATOM     93  F   UNL A   1      44.185  35.153  32.030  1.00  0.00    -0.206 F 
ATOM     94  C   UNL A   1      44.354  36.106  34.170  1.00  0.00     0.059 A 
ATOM     95  C   UNL A   1      43.432  34.935  36.091  1.00  0.00     0.059 A 
ATOM     96  F   UNL A   1      42.399  32.850  35.792  1.00  0.00    -0.206 F 
ATOM     97  C   UNL A   1      44.092  36.034  35.540  1.00  0.00     0.060 A 
BRANCH  97  98
ATOM     98  S   UNL A   1      44.572  37.422  36.589  1.00  0.00     0.124 S 
ATOM     99  O   UNL A   1      44.909  38.438  35.597  1.00  0.00    -0.237 OA
ATOM    100  O   UNL A   1      43.358  37.668  37.361  1.00  0.00    -0.237 OA
ATOM    101  O   UNL A   1      45.697  36.893  37.354  1.00  0.00    -0.744 OA
ENDBRANCH  97  98
ENDBRANCH  65  90
ENDBRANCH  39  40
ENDBRANCH  31  34
ENDBRANCH   1  30
TORSDOF 15
ENDMDL
