MODEL 1
REMARK VINA RESULT:     -11.3      0.000      0.000
REMARK SMILES CN1N=C(CC(=O)NCCCNC(=O)c2ccc(-c3c4nc(c(-c5c(F)cc(S(=O)(=O)[O-])cc5F)c5ccc([nH]5)c(-c5c(F)cc(S(=O)(=O)[O-])cc5F)c5nc(c(-c6c(F)cc(S(=O)(=O)[O-])cc6F)c6ccc3[nH]6)C=C5)C=C4)cc2)CC1=O
REMARK SMILES IDX 11 1 10 2 9 3 8 4 6 5 7 6 5 8 4 9 1 10 2 11 3 12 82 13 81 14
REMARK SMILES IDX 83 15 12 16 13 17 14 19 15 20 16 21 80 22 17 23 79 24 18 25
REMARK SMILES IDX 19 26 20 27 73 28 21 29 78 30 72 31 74 32 22 33 77 34 71 35
REMARK SMILES IDX 70 36 23 38 57 39 36 40 56 41 37 42 40 43 55 44 75 45 38 46
REMARK SMILES IDX 39 47 54 49 76 50 41 51 24 52 25 53 34 54 26 55 27 56 33 57
REMARK SMILES IDX 35 58 28 59 29 60 30 61 31 62 32 63 58 64 59 65 68 66 60 67
REMARK SMILES IDX 61 68 67 69 69 70 62 71 63 72 64 73 65 74 66 75 42 76 43 77
REMARK SMILES IDX 52 78 44 79 45 80 51 81 53 82 46 83 47 84 48 85 49 86 50 87
REMARK H PARENT 8 7 12 18 74 37 40 48
REMARK Flexibility Score: inf
ROOT
ATOM      1  C   UNL A   1      36.781  33.134  30.072  1.00  0.00     0.118 C 
ENDROOT
BRANCH   1   2
ATOM      2  C   UNL A   1      36.478  33.172  28.577  1.00  0.00     0.042 C 
BRANCH   2   3
ATOM      3  C   UNL A   1      35.031  33.525  28.249  1.00  0.00     0.117 C 
BRANCH   3   4
ATOM      4  N   UNL A   1      34.856  34.938  27.975  1.00  0.00    -0.356 N 
ATOM      5  C   UNL A   1      33.979  35.823  28.530  1.00  0.00     0.225 C 
ATOM      6  O   UNL A   1      34.010  36.997  28.158  1.00  0.00    -0.275 OA
ATOM      7  H   UNL A   1      35.457  35.312  27.290  1.00  0.00     0.163 HD
BRANCH   5   8
ATOM      8  C   UNL A   1      33.068  35.372  29.640  1.00  0.00     0.153 C 
BRANCH   8   9
ATOM      9  C   UNL A   1      33.542  35.690  31.017  1.00  0.00     0.057 C 
ATOM     10  C   UNL A   1      35.077  34.901  34.070  1.00  0.00     0.177 C 
ATOM     11  N   UNL A   1      34.377  35.530  32.978  1.00  0.00    -0.237 N 
ATOM     12  N   UNL A   1      34.166  34.859  31.794  1.00  0.00    -0.179 NA
ATOM     13  C   UNL A   1      33.884  36.831  32.999  1.00  0.00     0.248 C 
ATOM     14  C   UNL A   1      33.280  37.027  31.644  1.00  0.00     0.156 C 
ATOM     15  O   UNL A   1      33.919  37.656  33.895  1.00  0.00    -0.273 OA
ENDBRANCH   8   9
ENDBRANCH   5   8
ENDBRANCH   3   4
ENDBRANCH   2   3
ENDBRANCH   1   2
BRANCH   1  16
ATOM     16  N   UNL A   1      36.232  31.950  30.716  1.00  0.00    -0.352 N 
ATOM     17  C   UNL A   1      36.688  30.658  30.743  1.00  0.00     0.251 C 
ATOM     18  H   UNL A   1      35.397  32.103  31.215  1.00  0.00     0.163 HD
ATOM     19  O   UNL A   1      35.945  29.781  31.178  1.00  0.00    -0.269 OA
BRANCH  17  20
ATOM     20  C   UNL A   1      38.043  30.308  30.259  1.00  0.00     0.039 A 
ATOM     21  C   UNL A   1      38.229  30.100  28.888  1.00  0.00     0.014 A 
ATOM     22  C   UNL A   1      39.111  30.109  31.138  1.00  0.00     0.014 A 
ATOM     23  C   UNL A   1      39.480  29.716  28.403  1.00  0.00     0.010 A 
ATOM     24  C   UNL A   1      40.380  29.810  30.643  1.00  0.00     0.010 A 
ATOM     25  C   UNL A   1      40.572  29.581  29.275  1.00  0.00    -0.014 A 
BRANCH  25  26
ATOM     26  C   UNL A   1      41.902  29.152  28.767  1.00  0.00     0.031 A 
ATOM     27  C   UNL A   1      43.035  30.142  28.675  1.00  0.00     0.074 A 
ATOM     28  C   UNL A   1      42.085  27.878  28.366  1.00  0.00     0.049 A 
ATOM     29  N   UNL A   1      44.262  29.960  28.258  1.00  0.00    -0.248 NA
ATOM     30  C   UNL A   1      42.744  31.528  29.081  1.00  0.00     0.031 C 
ATOM     31  C   UNL A   1      41.054  26.839  28.354  1.00  0.00     0.029 A 
ATOM     32  N   UNL A   1      43.204  27.240  27.893  1.00  0.00    -0.354 N 
ATOM     33  C   UNL A   1      44.881  31.203  28.341  1.00  0.00     0.074 A 
ATOM     34  C   UNL A   1      43.878  32.144  28.786  1.00  0.00     0.031 C 
ATOM     35  C   UNL A   1      41.596  25.685  27.929  1.00  0.00     0.029 A 
ATOM     36  C   UNL A   1      43.002  25.910  27.609  1.00  0.00     0.049 A 
ATOM     37  H   UNL A   1      44.070  27.691  27.769  1.00  0.00     0.167 HD
ATOM     38  C   UNL A   1      46.175  31.527  28.097  1.00  0.00     0.037 A 
ATOM     39  C   UNL A   1      43.855  24.975  27.146  1.00  0.00     0.037 A 
ATOM     40  C   UNL A   1      47.175  30.579  27.679  1.00  0.00     0.049 A 
ATOM     41  C   UNL A   1      45.291  25.354  26.902  1.00  0.00     0.074 A 
ATOM     42  C   UNL A   1      48.524  30.793  27.453  1.00  0.00     0.029 A 
ATOM     43  N   UNL A   1      46.937  29.236  27.424  1.00  0.00    -0.354 N 
ATOM     44  N   UNL A   1      45.874  26.521  27.045  1.00  0.00    -0.248 NA
ATOM     45  C   UNL A   1      46.189  24.284  26.451  1.00  0.00     0.031 C 
ATOM     46  C   UNL A   1      49.092  29.590  27.021  1.00  0.00     0.029 A 
ATOM     47  C   UNL A   1      48.110  28.613  27.032  1.00  0.00     0.049 A 
ATOM     48  H   UNL A   1      46.063  28.792  27.511  1.00  0.00     0.167 HD
ATOM     49  C   UNL A   1      47.214  26.318  26.731  1.00  0.00     0.074 A 
ATOM     50  C   UNL A   1      47.356  24.913  26.410  1.00  0.00     0.031 C 
ATOM     51  C   UNL A   1      48.235  27.211  26.715  1.00  0.00     0.037 A 
BRANCH  38  52
ATOM     52  C   UNL A   1      46.580  32.965  28.284  1.00  0.00     0.058 A 
ATOM     53  C   UNL A   1      46.501  33.898  27.236  1.00  0.00     0.135 A 
ATOM     54  C   UNL A   1      47.030  33.426  29.533  1.00  0.00     0.135 A 
ATOM     55  F   UNL A   1      46.094  33.511  26.016  1.00  0.00    -0.206 F 
ATOM     56  C   UNL A   1      46.883  35.224  27.408  1.00  0.00     0.059 A 
ATOM     57  C   UNL A   1      47.388  34.757  29.736  1.00  0.00     0.059 A 
ATOM     58  F   UNL A   1      47.126  32.581  30.571  1.00  0.00    -0.206 F 
ATOM     59  C   UNL A   1      47.327  35.644  28.663  1.00  0.00     0.060 A 
BRANCH  59  60
ATOM     60  S   UNL A   1      47.817  37.369  28.870  1.00  0.00     0.124 S 
ATOM     61  O   UNL A   1      49.091  37.397  28.159  1.00  0.00    -0.237 OA
ATOM     62  O   UNL A   1      46.718  38.085  28.229  1.00  0.00    -0.237 OA
ATOM     63  O   UNL A   1      47.904  37.527  30.319  1.00  0.00    -0.744 OA
ENDBRANCH  59  60
ENDBRANCH  38  52
BRANCH  39  64
ATOM     64  C   UNL A   1      43.383  23.582  26.923  1.00  0.00     0.058 A 
ATOM     65  C   UNL A   1      43.142  23.100  25.628  1.00  0.00     0.135 A 
ATOM     66  C   UNL A   1      43.169  22.704  27.997  1.00  0.00     0.135 A 
ATOM     67  F   UNL A   1      43.328  23.901  24.568  1.00  0.00    -0.206 F 
ATOM     68  C   UNL A   1      42.686  21.805  25.404  1.00  0.00     0.059 A 
ATOM     69  C   UNL A   1      42.740  21.396  27.797  1.00  0.00     0.059 A 
ATOM     70  F   UNL A   1      43.403  23.110  29.254  1.00  0.00    -0.206 F 
ATOM     71  C   UNL A   1      42.488  20.960  26.498  1.00  0.00     0.060 A 
BRANCH  71  72
ATOM     72  S   UNL A   1      41.935  19.268  26.194  1.00  0.00     0.124 S 
ATOM     73  O   UNL A   1      42.720  18.908  25.020  1.00  0.00    -0.237 OA
ATOM     74  O   UNL A   1      42.301  18.597  27.437  1.00  0.00    -0.237 OA
ATOM     75  O   UNL A   1      40.500  19.418  25.972  1.00  0.00    -0.744 OA
ENDBRANCH  71  72
ENDBRANCH  39  64
BRANCH  51  76
ATOM     76  C   UNL A   1      49.603  26.682  26.376  1.00  0.00     0.058 A 
ATOM     77  C   UNL A   1      50.412  26.047  27.333  1.00  0.00     0.135 A 
ATOM     78  C   UNL A   1      50.107  26.803  25.071  1.00  0.00     0.135 A 
ATOM     79  F   UNL A   1      49.980  25.904  28.596  1.00  0.00    -0.206 F 
ATOM     80  C   UNL A   1      51.691  25.599  27.020  1.00  0.00     0.059 A 
ATOM     81  C   UNL A   1      51.370  26.332  24.728  1.00  0.00     0.059 A 
ATOM     82  F   UNL A   1      49.369  27.385  24.112  1.00  0.00    -0.206 F 
ATOM     83  C   UNL A   1      52.164  25.752  25.716  1.00  0.00     0.060 A 
BRANCH  83  84
ATOM     84  S   UNL A   1      53.830  25.180  25.323  1.00  0.00     0.124 S 
ATOM     85  O   UNL A   1      53.672  23.733  25.418  1.00  0.00    -0.237 OA
ATOM     86  O   UNL A   1      54.034  25.708  23.977  1.00  0.00    -0.237 OA
ATOM     87  O   UNL A   1      54.654  25.791  26.361  1.00  0.00    -0.744 OA
ENDBRANCH  83  84
ENDBRANCH  51  76
ENDBRANCH  25  26
ENDBRANCH  17  20
ENDBRANCH   1  16
TORSDOF 14
ENDMDL
MODEL 2
REMARK VINA RESULT:     -11.3      6.376     14.514
REMARK SMILES CN1N=C(CC(=O)NCCCNC(=O)c2ccc(-c3c4nc(c(-c5c(F)cc(S(=O)(=O)[O-])cc5F)c5ccc([nH]5)c(-c5c(F)cc(S(=O)(=O)[O-])cc5F)c5nc(c(-c6c(F)cc(S(=O)(=O)[O-])cc6F)c6ccc3[nH]6)C=C5)C=C4)cc2)CC1=O
REMARK SMILES IDX 11 1 10 2 9 3 8 4 6 5 7 6 5 8 4 9 1 10 2 11 3 12 82 13 81 14
REMARK SMILES IDX 83 15 12 16 13 17 14 19 15 20 16 21 80 22 17 23 79 24 18 25
REMARK SMILES IDX 19 26 20 27 73 28 21 29 78 30 72 31 74 32 22 33 77 34 71 35
REMARK SMILES IDX 70 36 23 38 57 39 36 40 56 41 37 42 40 43 55 44 75 45 38 46
REMARK SMILES IDX 39 47 54 49 76 50 41 51 24 52 25 53 34 54 26 55 27 56 33 57
REMARK SMILES IDX 35 58 28 59 29 60 30 61 31 62 32 63 58 64 59 65 68 66 60 67
REMARK SMILES IDX 61 68 67 69 69 70 62 71 63 72 64 73 65 74 66 75 42 76 43 77
REMARK SMILES IDX 52 78 44 79 45 80 51 81 53 82 46 83 47 84 48 85 49 86 50 87
REMARK H PARENT 8 7 12 18 74 37 40 48
REMARK Flexibility Score: inf
ROOT
ATOM      1  C   UNL A   1      40.521  23.149  27.096  1.00  0.00     0.118 C 
ENDROOT
BRANCH   1   2
ATOM      2  C   UNL A   1      41.358  21.995  27.639  1.00  0.00     0.042 C 
BRANCH   2   3
ATOM      3  C   UNL A   1      40.794  20.616  27.314  1.00  0.00     0.117 C 
BRANCH   3   4
ATOM      4  N   UNL A   1      41.600  19.546  27.868  1.00  0.00    -0.356 N 
ATOM      5  C   UNL A   1      42.416  18.659  27.228  1.00  0.00     0.225 C 
ATOM      6  O   UNL A   1      43.029  17.830  27.900  1.00  0.00    -0.275 OA
ATOM      7  H   UNL A   1      41.551  19.444  28.847  1.00  0.00     0.163 HD
BRANCH   5   8
ATOM      8  C   UNL A   1      42.620  18.776  25.741  1.00  0.00     0.153 C 
BRANCH   8   9
ATOM      9  C   UNL A   1      43.830  19.541  25.326  1.00  0.00     0.057 C 
ATOM     10  C   UNL A   1      45.500  22.423  24.228  1.00  0.00     0.177 C 
ATOM     11  N   UNL A   1      45.130  21.090  24.635  1.00  0.00    -0.237 N 
ATOM     12  N   UNL A   1      43.833  20.795  24.992  1.00  0.00    -0.179 NA
ATOM     13  C   UNL A   1      46.012  20.018  24.726  1.00  0.00     0.248 C 
ATOM     14  C   UNL A   1      45.172  18.880  25.215  1.00  0.00     0.156 C 
ATOM     15  O   UNL A   1      47.205  19.975  24.479  1.00  0.00    -0.273 OA
ENDBRANCH   8   9
ENDBRANCH   5   8
ENDBRANCH   3   4
ENDBRANCH   2   3
ENDBRANCH   1   2
BRANCH   1  16
ATOM     16  N   UNL A   1      41.231  23.918  26.086  1.00  0.00    -0.352 N 
ATOM     17  C   UNL A   1      41.552  25.251  26.043  1.00  0.00     0.251 C 
ATOM     18  H   UNL A   1      41.531  23.397  25.307  1.00  0.00     0.163 HD
ATOM     19  O   UNL A   1      41.974  25.720  24.989  1.00  0.00    -0.269 OA
BRANCH  17  20
ATOM     20  C   UNL A   1      41.396  26.121  27.232  1.00  0.00     0.039 A 
ATOM     21  C   UNL A   1      40.311  25.896  28.085  1.00  0.00     0.014 A 
ATOM     22  C   UNL A   1      42.256  27.195  27.476  1.00  0.00     0.014 A 
ATOM     23  C   UNL A   1      40.103  26.731  29.185  1.00  0.00     0.010 A 
ATOM     24  C   UNL A   1      42.098  27.973  28.622  1.00  0.00     0.010 A 
ATOM     25  C   UNL A   1      41.004  27.769  29.472  1.00  0.00    -0.014 A 
BRANCH  25  26
ATOM     26  C   UNL A   1      40.776  28.674  30.630  1.00  0.00     0.031 A 
ATOM     27  C   UNL A   1      41.615  28.538  31.875  1.00  0.00     0.074 A 
ATOM     28  C   UNL A   1      39.800  29.602  30.571  1.00  0.00     0.049 A 
ATOM     29  N   UNL A   1      41.566  29.230  32.985  1.00  0.00    -0.248 NA
ATOM     30  C   UNL A   1      42.625  27.467  31.885  1.00  0.00     0.031 C 
ATOM     31  C   UNL A   1      38.885  29.797  29.444  1.00  0.00     0.029 A 
ATOM     32  N   UNL A   1      39.416  30.556  31.478  1.00  0.00    -0.354 N 
ATOM     33  C   UNL A   1      42.525  28.673  33.823  1.00  0.00     0.074 A 
ATOM     34  C   UNL A   1      43.096  27.545  33.120  1.00  0.00     0.031 C 
ATOM     35  C   UNL A   1      38.069  30.829  29.713  1.00  0.00     0.029 A 
ATOM     36  C   UNL A   1      38.379  31.348  31.042  1.00  0.00     0.049 A 
ATOM     37  H   UNL A   1      39.842  30.665  32.359  1.00  0.00     0.167 HD
ATOM     38  C   UNL A   1      42.917  29.079  35.056  1.00  0.00     0.037 A 
ATOM     39  C   UNL A   1      37.754  32.379  31.642  1.00  0.00     0.037 A 
ATOM     40  C   UNL A   1      42.362  30.218  35.741  1.00  0.00     0.049 A 
ATOM     41  C   UNL A   1      38.220  32.824  33.002  1.00  0.00     0.074 A 
ATOM     42  C   UNL A   1      42.722  30.744  36.969  1.00  0.00     0.029 A 
ATOM     43  N   UNL A   1      41.331  31.008  35.256  1.00  0.00    -0.354 N 
ATOM     44  N   UNL A   1      39.171  32.323  33.755  1.00  0.00    -0.248 NA
ATOM     45  C   UNL A   1      37.539  33.987  33.586  1.00  0.00     0.031 C 
ATOM     46  C   UNL A   1      41.880  31.826  37.246  1.00  0.00     0.029 A 
ATOM     47  C   UNL A   1      41.032  32.010  36.165  1.00  0.00     0.049 A 
ATOM     48  H   UNL A   1      40.877  30.878  34.392  1.00  0.00     0.167 HD
ATOM     49  C   UNL A   1      39.223  33.130  34.887  1.00  0.00     0.074 A 
ATOM     50  C   UNL A   1      38.221  34.160  34.710  1.00  0.00     0.031 C 
ATOM     51  C   UNL A   1      40.030  33.029  35.974  1.00  0.00     0.037 A 
BRANCH  38  52
ATOM     52  C   UNL A   1      44.003  28.288  35.738  1.00  0.00     0.058 A 
ATOM     53  C   UNL A   1      43.707  27.247  36.634  1.00  0.00     0.135 A 
ATOM     54  C   UNL A   1      45.356  28.556  35.475  1.00  0.00     0.135 A 
ATOM     55  F   UNL A   1      42.431  26.957  36.936  1.00  0.00    -0.206 F 
ATOM     56  C   UNL A   1      44.710  26.523  37.269  1.00  0.00     0.059 A 
ATOM     57  C   UNL A   1      46.377  27.823  36.076  1.00  0.00     0.059 A 
ATOM     58  F   UNL A   1      45.699  29.538  34.628  1.00  0.00    -0.206 F 
ATOM     59  C   UNL A   1      46.044  26.819  36.984  1.00  0.00     0.060 A 
BRANCH  59  60
ATOM     60  S   UNL A   1      47.334  25.868  37.815  1.00  0.00     0.124 S 
ATOM     61  O   UNL A   1      47.684  24.893  36.787  1.00  0.00    -0.237 OA
ATOM     62  O   UNL A   1      48.342  26.885  38.093  1.00  0.00    -0.237 OA
ATOM     63  O   UNL A   1      46.654  25.325  38.988  1.00  0.00    -0.744 OA
ENDBRANCH  59  60
ENDBRANCH  38  52
BRANCH  39  64
ATOM     64  C   UNL A   1      36.646  33.086  30.944  1.00  0.00     0.058 A 
ATOM     65  C   UNL A   1      35.313  32.918  31.349  1.00  0.00     0.135 A 
ATOM     66  C   UNL A   1      36.897  33.946  29.863  1.00  0.00     0.135 A 
ATOM     67  F   UNL A   1      35.021  32.104  32.374  1.00  0.00    -0.206 F 
ATOM     68  C   UNL A   1      34.266  33.560  30.696  1.00  0.00     0.059 A 
ATOM     69  C   UNL A   1      35.869  34.621  29.212  1.00  0.00     0.059 A 
ATOM     70  F   UNL A   1      38.156  34.155  29.449  1.00  0.00    -0.206 F 
ATOM     71  C   UNL A   1      34.555  34.410  29.628  1.00  0.00     0.060 A 
BRANCH  71  72
ATOM     72  S   UNL A   1      33.192  35.271  28.814  1.00  0.00     0.124 S 
ATOM     73  O   UNL A   1      32.450  35.793  29.955  1.00  0.00    -0.237 OA
ATOM     74  O   UNL A   1      33.894  36.259  28.002  1.00  0.00    -0.237 OA
ATOM     75  O   UNL A   1      32.528  34.211  28.061  1.00  0.00    -0.744 OA
ENDBRANCH  71  72
ENDBRANCH  39  64
BRANCH  51  76
ATOM     76  C   UNL A   1      39.886  34.088  37.034  1.00  0.00     0.058 A 
ATOM     77  C   UNL A   1      39.097  33.892  38.178  1.00  0.00     0.135 A 
ATOM     78  C   UNL A   1      40.558  35.315  36.905  1.00  0.00     0.135 A 
ATOM     79  F   UNL A   1      38.432  32.738  38.352  1.00  0.00    -0.206 F 
ATOM     80  C   UNL A   1      38.937  34.893  39.131  1.00  0.00     0.059 A 
ATOM     81  C   UNL A   1      40.439  36.318  37.862  1.00  0.00     0.059 A 
ATOM     82  F   UNL A   1      41.341  35.550  35.840  1.00  0.00    -0.206 F 
ATOM     83  C   UNL A   1      39.607  36.106  38.960  1.00  0.00     0.060 A 
BRANCH  83  84
ATOM     84  S   UNL A   1      39.383  37.403  40.195  1.00  0.00     0.124 S 
ATOM     85  O   UNL A   1      38.768  36.661  41.290  1.00  0.00    -0.237 OA
ATOM     86  O   UNL A   1      40.751  37.857  40.425  1.00  0.00    -0.237 OA
ATOM     87  O   UNL A   1      38.515  38.365  39.524  1.00  0.00    -0.744 OA
ENDBRANCH  83  84
ENDBRANCH  51  76
ENDBRANCH  25  26
ENDBRANCH  17  20
ENDBRANCH   1  16
TORSDOF 14
ENDMDL
MODEL 3
REMARK VINA RESULT:     -11.1      6.257     14.535
REMARK SMILES CN1N=C(CC(=O)NCCCNC(=O)c2ccc(-c3c4nc(c(-c5c(F)cc(S(=O)(=O)[O-])cc5F)c5ccc([nH]5)c(-c5c(F)cc(S(=O)(=O)[O-])cc5F)c5nc(c(-c6c(F)cc(S(=O)(=O)[O-])cc6F)c6ccc3[nH]6)C=C5)C=C4)cc2)CC1=O
REMARK SMILES IDX 11 1 10 2 9 3 8 4 6 5 7 6 5 8 4 9 1 10 2 11 3 12 82 13 81 14
REMARK SMILES IDX 83 15 12 16 13 17 14 19 15 20 16 21 80 22 17 23 79 24 18 25
REMARK SMILES IDX 19 26 20 27 73 28 21 29 78 30 72 31 74 32 22 33 77 34 71 35
REMARK SMILES IDX 70 36 23 38 57 39 36 40 56 41 37 42 40 43 55 44 75 45 38 46
REMARK SMILES IDX 39 47 54 49 76 50 41 51 24 52 25 53 34 54 26 55 27 56 33 57
REMARK SMILES IDX 35 58 28 59 29 60 30 61 31 62 32 63 58 64 59 65 68 66 60 67
REMARK SMILES IDX 61 68 67 69 69 70 62 71 63 72 64 73 65 74 66 75 42 76 43 77
REMARK SMILES IDX 52 78 44 79 45 80 51 81 53 82 46 83 47 84 48 85 49 86 50 87
REMARK H PARENT 8 7 12 18 74 37 40 48
REMARK Flexibility Score: inf
ROOT
ATOM      1  C   UNL A   1      43.089  23.744  27.476  1.00  0.00     0.118 C 
ENDROOT
BRANCH   1   2
ATOM      2  C   UNL A   1      44.568  24.069  27.662  1.00  0.00     0.042 C 
BRANCH   2   3
ATOM      3  C   UNL A   1      45.509  23.001  27.115  1.00  0.00     0.117 C 
BRANCH   3   4
ATOM      4  N   UNL A   1      46.312  23.487  26.010  1.00  0.00    -0.356 N 
ATOM      5  C   UNL A   1      46.118  23.331  24.669  1.00  0.00     0.225 C 
ATOM      6  O   UNL A   1      46.923  23.845  23.892  1.00  0.00    -0.275 OA
ATOM      7  H   UNL A   1      47.112  24.002  26.264  1.00  0.00     0.163 HD
BRANCH   5   8
ATOM      8  C   UNL A   1      44.885  22.624  24.172  1.00  0.00     0.153 C 
BRANCH   8   9
ATOM      9  C   UNL A   1      44.758  21.200  24.594  1.00  0.00     0.057 C 
ATOM     10  C   UNL A   1      43.009  18.457  25.904  1.00  0.00     0.177 C 
ATOM     11  N   UNL A   1      44.000  19.360  25.372  1.00  0.00    -0.237 N 
ATOM     12  N   UNL A   1      43.676  20.663  25.068  1.00  0.00    -0.179 NA
ATOM     13  C   UNL A   1      45.320  19.015  25.102  1.00  0.00     0.248 C 
ATOM     14  C   UNL A   1      45.928  20.262  24.541  1.00  0.00     0.156 C 
ATOM     15  O   UNL A   1      45.890  17.951  25.266  1.00  0.00    -0.273 OA
ENDBRANCH   8   9
ENDBRANCH   5   8
ENDBRANCH   3   4
ENDBRANCH   2   3
ENDBRANCH   1   2
BRANCH   1  16
ATOM     16  N   UNL A   1      42.536  24.358  26.279  1.00  0.00    -0.352 N 
ATOM     17  C   UNL A   1      41.698  25.434  26.135  1.00  0.00     0.251 C 
ATOM     18  H   UNL A   1      42.809  23.933  25.434  1.00  0.00     0.163 HD
ATOM     19  O   UNL A   1      41.196  25.644  25.033  1.00  0.00    -0.269 OA
BRANCH  17  20
ATOM     20  C   UNL A   1      41.393  26.332  27.272  1.00  0.00     0.039 A 
ATOM     21  C   UNL A   1      42.168  27.485  27.438  1.00  0.00     0.014 A 
ATOM     22  C   UNL A   1      40.410  26.019  28.215  1.00  0.00     0.014 A 
ATOM     23  C   UNL A   1      41.943  28.326  28.529  1.00  0.00     0.010 A 
ATOM     24  C   UNL A   1      40.130  26.903  29.256  1.00  0.00     0.010 A 
ATOM     25  C   UNL A   1      40.912  28.051  29.442  1.00  0.00    -0.014 A 
BRANCH  25  26
ATOM     26  C   UNL A   1      40.681  28.931  30.618  1.00  0.00     0.031 A 
ATOM     27  C   UNL A   1      41.527  28.779  31.856  1.00  0.00     0.074 A 
ATOM     28  C   UNL A   1      39.697  29.851  30.581  1.00  0.00     0.049 A 
ATOM     29  N   UNL A   1      41.477  29.448  32.980  1.00  0.00    -0.248 NA
ATOM     30  C   UNL A   1      42.546  27.717  31.841  1.00  0.00     0.031 C 
ATOM     31  C   UNL A   1      38.775  30.060  29.462  1.00  0.00     0.029 A 
ATOM     32  N   UNL A   1      39.308  30.784  31.508  1.00  0.00    -0.354 N 
ATOM     33  C   UNL A   1      42.445  28.883  33.803  1.00  0.00     0.074 A 
ATOM     34  C   UNL A   1      43.022  27.775  33.076  1.00  0.00     0.031 C 
ATOM     35  C   UNL A   1      37.951  31.079  29.755  1.00  0.00     0.029 A 
ATOM     36  C   UNL A   1      38.263  31.575  31.092  1.00  0.00     0.049 A 
ATOM     37  H   UNL A   1      39.737  30.880  32.389  1.00  0.00     0.167 HD
ATOM     38  C   UNL A   1      42.839  29.269  35.042  1.00  0.00     0.037 A 
ATOM     39  C   UNL A   1      37.630  32.588  31.715  1.00  0.00     0.037 A 
ATOM     40  C   UNL A   1      42.277  30.389  35.751  1.00  0.00     0.049 A 
ATOM     41  C   UNL A   1      38.099  33.011  33.082  1.00  0.00     0.074 A 
ATOM     42  C   UNL A   1      42.638  30.895  36.988  1.00  0.00     0.029 A 
ATOM     43  N   UNL A   1      41.236  31.180  35.286  1.00  0.00    -0.354 N 
ATOM     44  N   UNL A   1      39.058  32.504  33.820  1.00  0.00    -0.248 NA
ATOM     45  C   UNL A   1      37.411  34.156  33.691  1.00  0.00     0.031 C 
ATOM     46  C   UNL A   1      41.787  31.964  37.289  1.00  0.00     0.029 A 
ATOM     47  C   UNL A   1      40.933  32.161  36.216  1.00  0.00     0.049 A 
ATOM     48  H   UNL A   1      40.780  31.062  34.421  1.00  0.00     0.167 HD
ATOM     49  C   UNL A   1      39.108  33.289  34.968  1.00  0.00     0.074 A 
ATOM     50  C   UNL A   1      38.096  34.313  34.815  1.00  0.00     0.031 C 
ATOM     51  C   UNL A   1      39.921  33.174  36.049  1.00  0.00     0.037 A 
BRANCH  38  52
ATOM     52  C   UNL A   1      43.934  28.475  35.703  1.00  0.00     0.058 A 
ATOM     53  C   UNL A   1      45.291  28.798  35.527  1.00  0.00     0.135 A 
ATOM     54  C   UNL A   1      43.627  27.394  36.545  1.00  0.00     0.135 A 
ATOM     55  F   UNL A   1      45.645  29.812  34.720  1.00  0.00    -0.206 F 
ATOM     56  C   UNL A   1      46.302  28.060  36.132  1.00  0.00     0.059 A 
ATOM     57  C   UNL A   1      44.622  26.660  37.186  1.00  0.00     0.059 A 
ATOM     58  F   UNL A   1      42.350  27.039  36.752  1.00  0.00    -0.206 F 
ATOM     59  C   UNL A   1      45.957  26.990  36.960  1.00  0.00     0.060 A 
BRANCH  59  60
ATOM     60  S   UNL A   1      47.282  26.044  37.740  1.00  0.00     0.124 S 
ATOM     61  O   UNL A   1      48.454  26.546  37.031  1.00  0.00    -0.237 OA
ATOM     62  O   UNL A   1      47.169  26.442  39.139  1.00  0.00    -0.237 OA
ATOM     63  O   UNL A   1      46.923  24.658  37.455  1.00  0.00    -0.744 OA
ENDBRANCH  59  60
ENDBRANCH  38  52
BRANCH  39  64
ATOM     64  C   UNL A   1      36.513  33.298  31.036  1.00  0.00     0.058 A 
ATOM     65  C   UNL A   1      36.755  34.160  29.955  1.00  0.00     0.135 A 
ATOM     66  C   UNL A   1      35.183  33.127  31.449  1.00  0.00     0.135 A 
ATOM     67  F   UNL A   1      38.010  34.360  29.525  1.00  0.00    -0.206 F 
ATOM     68  C   UNL A   1      35.723  34.843  29.321  1.00  0.00     0.059 A 
ATOM     69  C   UNL A   1      34.130  33.777  30.812  1.00  0.00     0.059 A 
ATOM     70  F   UNL A   1      34.896  32.299  32.465  1.00  0.00    -0.206 F 
ATOM     71  C   UNL A   1      34.412  34.644  29.758  1.00  0.00     0.060 A 
BRANCH  71  72
ATOM     72  S   UNL A   1      33.075  35.504  28.901  1.00  0.00     0.124 S 
ATOM     73  O   UNL A   1      32.297  36.024  30.019  1.00  0.00    -0.237 OA
ATOM     74  O   UNL A   1      33.802  36.494  28.113  1.00  0.00    -0.237 OA
ATOM     75  O   UNL A   1      32.437  34.444  28.126  1.00  0.00    -0.744 OA
ENDBRANCH  71  72
ENDBRANCH  39  64
BRANCH  51  76
ATOM     76  C   UNL A   1      39.772  34.212  37.130  1.00  0.00     0.058 A 
ATOM     77  C   UNL A   1      40.393  35.468  37.045  1.00  0.00     0.135 A 
ATOM     78  C   UNL A   1      38.988  33.945  38.264  1.00  0.00     0.135 A 
ATOM     79  F   UNL A   1      41.155  35.776  35.983  1.00  0.00    -0.206 F 
ATOM     80  C   UNL A   1      40.284  36.403  38.069  1.00  0.00     0.059 A 
ATOM     81  C   UNL A   1      38.837  34.878  39.285  1.00  0.00     0.059 A 
ATOM     82  F   UNL A   1      38.357  32.766  38.389  1.00  0.00    -0.206 F 
ATOM     83  C   UNL A   1      39.509  36.096  39.189  1.00  0.00     0.060 A 
BRANCH  83  84
ATOM     84  S   UNL A   1      39.383  37.310  40.518  1.00  0.00     0.124 S 
ATOM     85  O   UNL A   1      38.321  38.178  40.022  1.00  0.00    -0.237 OA
ATOM     86  O   UNL A   1      39.039  36.481  41.669  1.00  0.00    -0.237 OA
ATOM     87  O   UNL A   1      40.715  37.908  40.560  1.00  0.00    -0.744 OA
ENDBRANCH  83  84
ENDBRANCH  51  76
ENDBRANCH  25  26
ENDBRANCH  17  20
ENDBRANCH   1  16
TORSDOF 14
ENDMDL
