MODEL 1
REMARK VINA RESULT:     -13.1      0.000      0.000
REMARK SMILES Cc1c(C(=O)NCCCNC(=O)c2ccc(-c3c4nc(c(-c5c(F)cc(S(=O)(=O)[O-])cc5F)c5ccc([nH]5)c(-c5c(F)cc(S(=O)(=O)[O-])cc5F)c5nc(c(-c6c(F)cc(S(=O)(=O)[O-])cc6F)c6ccc3[nH]6)C=C5)C=C4)cc2)sc2ncnc(NCc3cn4c(n3)SCC4)c12
REMARK SMILES IDX 8 1 7 2 6 3 4 4 5 5 3 7 1 8 2 9 95 10 79 11 80 12 84 13
REMARK SMILES IDX 81 14 83 15 82 16 85 17 86 19 87 20 88 21 91 22 89 23 90 24
REMARK SMILES IDX 94 25 92 26 93 27 9 28 10 29 11 30 12 32 13 33 14 34 78 35
REMARK SMILES IDX 15 36 77 37 16 38 17 39 18 40 71 41 19 42 76 43 70 44 72 45
REMARK SMILES IDX 20 46 75 47 69 48 68 49 21 51 55 52 34 53 54 54 35 55 38 56
REMARK SMILES IDX 53 57 73 58 36 59 37 60 52 62 74 63 39 64 22 65 23 66 32 67
REMARK SMILES IDX 24 68 25 69 31 70 33 71 26 72 27 73 28 74 29 75 30 76 56 77
REMARK SMILES IDX 57 78 66 79 58 80 59 81 65 82 67 83 60 84 61 85 62 86 63 87
REMARK SMILES IDX 64 88 40 89 41 90 50 91 42 92 43 93 49 94 51 95 44 96 45 97
REMARK SMILES IDX 46 98 47 99 48 100
REMARK H PARENT 6 6 85 18 10 31 72 50 38 61
REMARK Flexibility Score: inf
ROOT
ATOM      1  C   UNL A   1      38.467  22.181  25.806  1.00  0.00     0.042 C 
ENDROOT
BRANCH   1   2
ATOM      2  C   UNL A   1      37.394  23.267  25.676  1.00  0.00     0.118 C 
BRANCH   2   3
ATOM      3  N   UNL A   1      36.216  22.925  26.448  1.00  0.00    -0.351 N 
ATOM      4  C   UNL A   1      34.881  23.174  26.247  1.00  0.00     0.261 C 
ATOM      5  O   UNL A   1      34.142  22.772  27.148  1.00  0.00    -0.268 OA
ATOM      6  H   UNL A   1      36.410  22.420  27.271  1.00  0.00     0.163 HD
BRANCH   4   7
ATOM      7  C   UNL A   1      34.367  23.786  25.024  1.00  0.00     0.098 A 
ATOM      8  C   UNL A   1      33.535  25.873  26.149  1.00  0.00     0.047 C 
ATOM      9  C   UNL A   1      33.790  25.058  24.919  1.00  0.00    -0.014 A 
ATOM     10  C   UNL A   1      33.458  25.413  23.531  1.00  0.00     0.057 A 
ATOM     11  S   UNL A   1      34.488  23.042  23.505  1.00  0.00    -0.110 S 
ATOM     12  C   UNL A   1      33.634  24.279  22.741  1.00  0.00     0.129 A 
ATOM     13  C   UNL A   1      32.982  26.545  22.812  1.00  0.00     0.138 A 
ATOM     14  N   UNL A   1      33.260  24.085  21.468  1.00  0.00    -0.225 NA
ATOM     15  N   UNL A   1      32.588  26.361  21.519  1.00  0.00    -0.219 NA
ATOM     16  C   UNL A   1      32.707  25.164  20.940  1.00  0.00     0.225 A 
BRANCH  13  17
ATOM     17  N   UNL A   1      32.825  27.859  23.166  1.00  0.00    -0.364 N 
ATOM     18  H   UNL A   1      33.450  28.471  22.716  1.00  0.00     0.162 HD
BRANCH  17  19
ATOM     19  C   UNL A   1      31.914  28.511  24.071  1.00  0.00     0.172 C 
BRANCH  19  20
ATOM     20  C   UNL A   1      30.711  29.199  23.513  1.00  0.00     0.079 A 
ATOM     21  C   UNL A   1      29.971  28.864  22.384  1.00  0.00     0.113 A 
ATOM     22  N   UNL A   1      30.194  30.329  24.128  1.00  0.00    -0.226 NA
ATOM     23  N   UNL A   1      29.030  29.833  22.316  1.00  0.00    -0.325 N 
ATOM     24  C   UNL A   1      29.191  30.671  23.372  1.00  0.00     0.168 A 
ATOM     25  C   UNL A   1      28.133  30.274  21.270  1.00  0.00     0.135 C 
ATOM     26  S   UNL A   1      28.272  32.115  23.213  1.00  0.00    -0.086 SA
ATOM     27  C   UNL A   1      28.083  31.797  21.412  1.00  0.00     0.100 C 
ENDBRANCH  19  20
ENDBRANCH  17  19
ENDBRANCH  13  17
ENDBRANCH   4   7
ENDBRANCH   2   3
ENDBRANCH   1   2
BRANCH   1  28
ATOM     28  C   UNL A   1      39.619  22.657  26.674  1.00  0.00     0.118 C 
BRANCH  28  29
ATOM     29  N   UNL A   1      40.916  22.284  26.099  1.00  0.00    -0.352 N 
ATOM     30  C   UNL A   1      41.959  23.110  25.749  1.00  0.00     0.251 C 
ATOM     31  H   UNL A   1      41.058  21.322  25.947  1.00  0.00     0.163 HD
ATOM     32  O   UNL A   1      42.846  22.714  24.992  1.00  0.00    -0.269 OA
BRANCH  30  33
ATOM     33  C   UNL A   1      41.992  24.467  26.305  1.00  0.00     0.039 A 
ATOM     34  C   UNL A   1      41.358  25.537  25.667  1.00  0.00     0.014 A 
ATOM     35  C   UNL A   1      42.638  24.636  27.527  1.00  0.00     0.014 A 
ATOM     36  C   UNL A   1      41.324  26.770  26.313  1.00  0.00     0.010 A 
ATOM     37  C   UNL A   1      42.446  25.790  28.235  1.00  0.00     0.010 A 
ATOM     38  C   UNL A   1      41.858  26.879  27.607  1.00  0.00    -0.014 A 
BRANCH  38  39
ATOM     39  C   UNL A   1      41.708  28.097  28.391  1.00  0.00     0.031 A 
ATOM     40  C   UNL A   1      42.806  29.082  28.183  1.00  0.00     0.074 A 
ATOM     41  C   UNL A   1      40.554  28.387  29.035  1.00  0.00     0.049 A 
ATOM     42  N   UNL A   1      43.710  29.448  29.029  1.00  0.00    -0.248 NA
ATOM     43  C   UNL A   1      43.041  29.587  26.816  1.00  0.00     0.031 C 
ATOM     44  C   UNL A   1      39.297  27.624  29.044  1.00  0.00     0.029 A 
ATOM     45  N   UNL A   1      40.218  29.498  29.743  1.00  0.00    -0.354 N 
ATOM     46  C   UNL A   1      44.467  30.420  28.379  1.00  0.00     0.074 A 
ATOM     47  C   UNL A   1      44.156  30.301  26.979  1.00  0.00     0.031 C 
ATOM     48  C   UNL A   1      38.291  28.400  29.503  1.00  0.00     0.029 A 
ATOM     49  C   UNL A   1      38.853  29.644  29.990  1.00  0.00     0.049 A 
ATOM     50  H   UNL A   1      40.887  30.149  30.056  1.00  0.00     0.167 HD
ATOM     51  C   UNL A   1      45.082  31.416  29.077  1.00  0.00     0.037 A 
ATOM     52  C   UNL A   1      38.241  30.727  30.538  1.00  0.00     0.037 A 
ATOM     53  C   UNL A   1      45.121  31.109  30.484  1.00  0.00     0.049 A 
ATOM     54  C   UNL A   1      39.303  31.485  31.254  1.00  0.00     0.074 A 
ATOM     55  C   UNL A   1      45.692  30.107  31.245  1.00  0.00     0.029 A 
ATOM     56  N   UNL A   1      44.150  31.679  31.272  1.00  0.00    -0.354 N 
ATOM     57  N   UNL A   1      39.948  31.022  32.291  1.00  0.00    -0.248 NA
ATOM     58  C   UNL A   1      39.982  32.539  30.517  1.00  0.00     0.031 C 
ATOM     59  C   UNL A   1      44.730  29.821  32.258  1.00  0.00     0.029 A 
ATOM     60  C   UNL A   1      43.664  30.711  32.115  1.00  0.00     0.049 A 
ATOM     61  H   UNL A   1      43.856  32.618  31.239  1.00  0.00     0.167 HD
ATOM     62  C   UNL A   1      41.267  31.406  32.093  1.00  0.00     0.074 A 
ATOM     63  C   UNL A   1      41.211  32.399  31.019  1.00  0.00     0.031 C 
ATOM     64  C   UNL A   1      42.301  30.676  32.607  1.00  0.00     0.037 A 
BRANCH  51  65
ATOM     65  C   UNL A   1      45.300  32.819  28.559  1.00  0.00     0.058 A 
ATOM     66  C   UNL A   1      46.612  33.334  28.490  1.00  0.00     0.135 A 
ATOM     67  C   UNL A   1      44.266  33.767  28.388  1.00  0.00     0.135 A 
ATOM     68  F   UNL A   1      47.672  32.527  28.654  1.00  0.00    -0.206 F 
ATOM     69  C   UNL A   1      46.873  34.694  28.322  1.00  0.00     0.059 A 
ATOM     70  C   UNL A   1      44.505  35.117  28.166  1.00  0.00     0.059 A 
ATOM     71  F   UNL A   1      42.974  33.447  28.526  1.00  0.00    -0.206 F 
ATOM     72  C   UNL A   1      45.810  35.580  28.169  1.00  0.00     0.060 A 
BRANCH  72  73
ATOM     73  S   UNL A   1      46.144  37.344  28.030  1.00  0.00     0.124 S 
ATOM     74  O   UNL A   1      47.300  37.495  28.906  1.00  0.00    -0.237 OA
ATOM     75  O   UNL A   1      46.401  37.489  26.600  1.00  0.00    -0.237 OA
ATOM     76  O   UNL A   1      44.908  37.960  28.504  1.00  0.00    -0.744 OA
ENDBRANCH  72  73
ENDBRANCH  51  65
BRANCH  52  77
ATOM     77  C   UNL A   1      36.935  31.345  30.167  1.00  0.00     0.058 A 
ATOM     78  C   UNL A   1      36.097  31.914  31.145  1.00  0.00     0.135 A 
ATOM     79  C   UNL A   1      36.622  31.663  28.830  1.00  0.00     0.135 A 
ATOM     80  F   UNL A   1      36.325  31.678  32.446  1.00  0.00    -0.206 F 
ATOM     81  C   UNL A   1      35.058  32.797  30.824  1.00  0.00     0.059 A 
ATOM     82  C   UNL A   1      35.587  32.536  28.485  1.00  0.00     0.059 A 
ATOM     83  F   UNL A   1      37.376  31.208  27.818  1.00  0.00    -0.206 F 
ATOM     84  C   UNL A   1      34.827  33.124  29.489  1.00  0.00     0.060 A 
BRANCH  84  85
ATOM     85  S   UNL A   1      33.613  34.405  29.083  1.00  0.00     0.124 S 
ATOM     86  O   UNL A   1      33.044  34.709  30.391  1.00  0.00    -0.237 OA
ATOM     87  O   UNL A   1      34.451  35.447  28.495  1.00  0.00    -0.237 OA
ATOM     88  O   UNL A   1      32.710  33.737  28.151  1.00  0.00    -0.744 OA
ENDBRANCH  84  85
ENDBRANCH  52  77
BRANCH  64  89
ATOM     89  C   UNL A   1      41.986  29.608  33.630  1.00  0.00     0.058 A 
ATOM     90  C   UNL A   1      41.702  28.263  33.326  1.00  0.00     0.135 A 
ATOM     91  C   UNL A   1      42.150  29.932  34.984  1.00  0.00     0.135 A 
ATOM     92  F   UNL A   1      41.619  27.845  32.057  1.00  0.00    -0.206 F 
ATOM     93  C   UNL A   1      41.562  27.294  34.326  1.00  0.00     0.059 A 
ATOM     94  C   UNL A   1      42.045  28.979  35.993  1.00  0.00     0.059 A 
ATOM     95  F   UNL A   1      42.478  31.186  35.337  1.00  0.00    -0.206 F 
ATOM     96  C   UNL A   1      41.741  27.662  35.658  1.00  0.00     0.060 A 
BRANCH  96  97
ATOM     97  S   UNL A   1      41.635  26.401  36.947  1.00  0.00     0.124 S 
ATOM     98  O   UNL A   1      41.624  25.165  36.170  1.00  0.00    -0.237 OA
ATOM     99  O   UNL A   1      42.842  26.645  37.731  1.00  0.00    -0.237 OA
ATOM    100  O   UNL A   1      40.383  26.715  37.633  1.00  0.00    -0.744 OA
ENDBRANCH  96  97
ENDBRANCH  64  89
ENDBRANCH  38  39
ENDBRANCH  30  33
ENDBRANCH  28  29
ENDBRANCH   1  28
TORSDOF 16
ENDMDL
MODEL 2
REMARK VINA RESULT:     -12.4      2.035      2.547
REMARK SMILES Cc1c(C(=O)NCCCNC(=O)c2ccc(-c3c4nc(c(-c5c(F)cc(S(=O)(=O)[O-])cc5F)c5ccc([nH]5)c(-c5c(F)cc(S(=O)(=O)[O-])cc5F)c5nc(c(-c6c(F)cc(S(=O)(=O)[O-])cc6F)c6ccc3[nH]6)C=C5)C=C4)cc2)sc2ncnc(NCc3cn4c(n3)SCC4)c12
REMARK SMILES IDX 8 1 7 2 6 3 4 4 5 5 3 7 1 8 2 9 95 10 79 11 80 12 84 13
REMARK SMILES IDX 81 14 83 15 82 16 85 17 86 19 87 20 88 21 91 22 89 23 90 24
REMARK SMILES IDX 94 25 92 26 93 27 9 28 10 29 11 30 12 32 13 33 14 34 78 35
REMARK SMILES IDX 15 36 77 37 16 38 17 39 18 40 71 41 19 42 76 43 70 44 72 45
REMARK SMILES IDX 20 46 75 47 69 48 68 49 21 51 55 52 34 53 54 54 35 55 38 56
REMARK SMILES IDX 53 57 73 58 36 59 37 60 52 62 74 63 39 64 22 65 23 66 32 67
REMARK SMILES IDX 24 68 25 69 31 70 33 71 26 72 27 73 28 74 29 75 30 76 56 77
REMARK SMILES IDX 57 78 66 79 58 80 59 81 65 82 67 83 60 84 61 85 62 86 63 87
REMARK SMILES IDX 64 88 40 89 41 90 50 91 42 92 43 93 49 94 51 95 44 96 45 97
REMARK SMILES IDX 46 98 47 99 48 100
REMARK H PARENT 6 6 85 18 10 31 72 50 38 61
REMARK Flexibility Score: inf
ROOT
ATOM      1  C   UNL A   1      36.948  22.217  24.582  1.00  0.00     0.042 C 
ENDROOT
BRANCH   1   2
ATOM      2  C   UNL A   1      36.071  21.095  25.149  1.00  0.00     0.118 C 
BRANCH   2   3
ATOM      3  N   UNL A   1      35.533  21.464  26.443  1.00  0.00    -0.351 N 
ATOM      4  C   UNL A   1      34.508  22.300  26.808  1.00  0.00     0.261 C 
ATOM      5  O   UNL A   1      34.350  22.421  28.025  1.00  0.00    -0.268 OA
ATOM      6  H   UNL A   1      35.989  21.034  27.204  1.00  0.00     0.163 HD
BRANCH   4   7
ATOM      7  C   UNL A   1      33.616  22.929  25.835  1.00  0.00     0.098 A 
ATOM      8  C   UNL A   1      34.849  25.116  25.779  1.00  0.00     0.047 C 
ATOM      9  C   UNL A   1      33.767  24.207  25.284  1.00  0.00    -0.014 A 
ATOM     10  C   UNL A   1      32.749  24.505  24.265  1.00  0.00     0.057 A 
ATOM     11  S   UNL A   1      32.285  22.124  25.158  1.00  0.00    -0.110 S 
ATOM     12  C   UNL A   1      31.799  23.487  24.293  1.00  0.00     0.129 A 
ATOM     13  C   UNL A   1      32.461  25.535  23.326  1.00  0.00     0.138 A 
ATOM     14  N   UNL A   1      30.604  23.448  23.686  1.00  0.00    -0.225 NA
ATOM     15  N   UNL A   1      31.244  25.514  22.709  1.00  0.00    -0.219 NA
ATOM     16  C   UNL A   1      30.385  24.520  22.944  1.00  0.00     0.225 A 
BRANCH  13  17
ATOM     17  N   UNL A   1      33.190  26.607  22.885  1.00  0.00    -0.364 N 
ATOM     18  H   UNL A   1      34.011  26.361  22.402  1.00  0.00     0.162 HD
BRANCH  17  19
ATOM     19  C   UNL A   1      32.978  28.028  22.996  1.00  0.00     0.172 C 
BRANCH  19  20
ATOM     20  C   UNL A   1      33.071  28.668  24.342  1.00  0.00     0.079 A 
ATOM     21  C   UNL A   1      32.192  29.571  24.931  1.00  0.00     0.113 A 
ATOM     22  N   UNL A   1      34.137  28.393  25.185  1.00  0.00    -0.226 NA
ATOM     23  N   UNL A   1      32.770  29.857  26.120  1.00  0.00    -0.325 N 
ATOM     24  C   UNL A   1      33.911  29.130  26.233  1.00  0.00     0.168 A 
ATOM     25  C   UNL A   1      32.572  30.909  27.094  1.00  0.00     0.135 C 
ATOM     26  S   UNL A   1      34.896  29.651  27.543  1.00  0.00    -0.086 SA
ATOM     27  C   UNL A   1      33.976  31.241  27.602  1.00  0.00     0.100 C 
ENDBRANCH  19  20
ENDBRANCH  17  19
ENDBRANCH  13  17
ENDBRANCH   4   7
ENDBRANCH   2   3
ENDBRANCH   1   2
BRANCH   1  28
ATOM     28  C   UNL A   1      37.708  22.925  25.690  1.00  0.00     0.118 C 
BRANCH  28  29
ATOM     29  N   UNL A   1      38.704  22.044  26.308  1.00  0.00    -0.352 N 
ATOM     30  C   UNL A   1      39.895  22.393  26.901  1.00  0.00     0.251 C 
ATOM     31  H   UNL A   1      38.493  21.083  26.299  1.00  0.00     0.163 HD
ATOM     32  O   UNL A   1      40.774  21.551  27.088  1.00  0.00    -0.269 OA
BRANCH  30  33
ATOM     33  C   UNL A   1      40.088  23.788  27.313  1.00  0.00     0.039 A 
ATOM     34  C   UNL A   1      39.036  24.707  27.303  1.00  0.00     0.014 A 
ATOM     35  C   UNL A   1      41.355  24.147  27.766  1.00  0.00     0.014 A 
ATOM     36  C   UNL A   1      39.259  25.979  27.823  1.00  0.00     0.010 A 
ATOM     37  C   UNL A   1      41.520  25.326  28.438  1.00  0.00     0.010 A 
ATOM     38  C   UNL A   1      40.503  26.271  28.404  1.00  0.00    -0.014 A 
BRANCH  38  39
ATOM     39  C   UNL A   1      40.740  27.526  29.104  1.00  0.00     0.031 A 
ATOM     40  C   UNL A   1      41.856  28.329  28.531  1.00  0.00     0.074 A 
ATOM     41  C   UNL A   1      39.860  28.007  30.013  1.00  0.00     0.049 A 
ATOM     42  N   UNL A   1      43.001  28.589  29.070  1.00  0.00    -0.248 NA
ATOM     43  C   UNL A   1      41.765  28.743  27.117  1.00  0.00     0.031 C 
ATOM     44  C   UNL A   1      38.567  27.439  30.420  1.00  0.00     0.029 A 
ATOM     45  N   UNL A   1      39.885  29.181  30.697  1.00  0.00    -0.354 N 
ATOM     46  C   UNL A   1      43.667  29.413  28.167  1.00  0.00     0.074 A 
ATOM     47  C   UNL A   1      42.966  29.290  26.917  1.00  0.00     0.031 C 
ATOM     48  C   UNL A   1      37.840  28.372  31.074  1.00  0.00     0.029 A 
ATOM     49  C   UNL A   1      38.675  29.536  31.293  1.00  0.00     0.049 A 
ATOM     50  H   UNL A   1      40.694  29.737  30.767  1.00  0.00     0.167 HD
ATOM     51  C   UNL A   1      44.579  30.333  28.593  1.00  0.00     0.037 A 
ATOM     52  C   UNL A   1      38.389  30.718  31.902  1.00  0.00     0.037 A 
ATOM     53  C   UNL A   1      44.968  30.076  29.956  1.00  0.00     0.049 A 
ATOM     54  C   UNL A   1      39.699  31.337  32.243  1.00  0.00     0.074 A 
ATOM     55  C   UNL A   1      45.591  29.030  30.609  1.00  0.00     0.029 A 
ATOM     56  N   UNL A   1      44.340  30.812  30.932  1.00  0.00    -0.354 N 
ATOM     57  N   UNL A   1      40.541  30.822  33.099  1.00  0.00    -0.248 NA
ATOM     58  C   UNL A   1      40.277  32.250  31.271  1.00  0.00     0.031 C 
ATOM     59  C   UNL A   1      44.921  28.927  31.863  1.00  0.00     0.029 A 
ATOM     60  C   UNL A   1      43.985  29.959  31.947  1.00  0.00     0.049 A 
ATOM     61  H   UNL A   1      44.175  31.782  30.908  1.00  0.00     0.167 HD
ATOM     62  C   UNL A   1      41.791  30.999  32.522  1.00  0.00     0.074 A 
ATOM     63  C   UNL A   1      41.569  31.949  31.431  1.00  0.00     0.031 C 
ATOM     64  C   UNL A   1      42.822  30.144  32.791  1.00  0.00     0.037 A 
BRANCH  51  65
ATOM     65  C   UNL A   1      44.826  31.668  27.929  1.00  0.00     0.058 A 
ATOM     66  C   UNL A   1      46.063  31.904  27.293  1.00  0.00     0.135 A 
ATOM     67  C   UNL A   1      44.018  32.809  28.127  1.00  0.00     0.135 A 
ATOM     68  F   UNL A   1      46.920  30.895  27.069  1.00  0.00    -0.206 F 
ATOM     69  C   UNL A   1      46.486  33.184  26.934  1.00  0.00     0.059 A 
ATOM     70  C   UNL A   1      44.396  34.085  27.727  1.00  0.00     0.059 A 
ATOM     71  F   UNL A   1      42.864  32.759  28.803  1.00  0.00    -0.206 F 
ATOM     72  C   UNL A   1      45.647  34.271  27.163  1.00  0.00     0.060 A 
BRANCH  72  73
ATOM     73  S   UNL A   1      46.224  35.931  26.771  1.00  0.00     0.124 S 
ATOM     74  O   UNL A   1      44.965  36.660  26.660  1.00  0.00    -0.237 OA
ATOM     75  O   UNL A   1      47.046  36.246  27.935  1.00  0.00    -0.237 OA
ATOM     76  O   UNL A   1      46.959  35.746  25.523  1.00  0.00    -0.744 OA
ENDBRANCH  72  73
ENDBRANCH  51  65
BRANCH  52  77
ATOM     77  C   UNL A   1      37.125  31.508  31.853  1.00  0.00     0.058 A 
ATOM     78  C   UNL A   1      36.522  31.988  33.032  1.00  0.00     0.135 A 
ATOM     79  C   UNL A   1      36.649  32.067  30.649  1.00  0.00     0.135 A 
ATOM     80  F   UNL A   1      36.918  31.524  34.227  1.00  0.00    -0.206 F 
ATOM     81  C   UNL A   1      35.558  33.005  33.023  1.00  0.00     0.059 A 
ATOM     82  C   UNL A   1      35.686  33.078  30.615  1.00  0.00     0.059 A 
ATOM     83  F   UNL A   1      37.179  31.712  29.468  1.00  0.00    -0.206 F 
ATOM     84  C   UNL A   1      35.165  33.564  31.809  1.00  0.00     0.060 A 
BRANCH  84  85
ATOM     85  S   UNL A   1      34.065  35.003  31.806  1.00  0.00     0.124 S 
ATOM     86  O   UNL A   1      34.897  36.022  32.435  1.00  0.00    -0.237 OA
ATOM     87  O   UNL A   1      33.803  35.186  30.381  1.00  0.00    -0.237 OA
ATOM     88  O   UNL A   1      32.920  34.559  32.595  1.00  0.00    -0.744 OA
ENDBRANCH  84  85
ENDBRANCH  52  77
BRANCH  64  89
ATOM     89  C   UNL A   1      42.666  29.173  33.939  1.00  0.00     0.058 A 
ATOM     90  C   UNL A   1      42.013  27.928  33.858  1.00  0.00     0.135 A 
ATOM     91  C   UNL A   1      43.363  29.447  35.125  1.00  0.00     0.135 A 
ATOM     92  F   UNL A   1      41.400  27.544  32.731  1.00  0.00    -0.206 F 
ATOM     93  C   UNL A   1      42.030  27.014  34.917  1.00  0.00     0.059 A 
ATOM     94  C   UNL A   1      43.419  28.541  36.179  1.00  0.00     0.059 A 
ATOM     95  F   UNL A   1      44.055  30.592  35.245  1.00  0.00    -0.206 F 
ATOM     96  C   UNL A   1      42.742  27.329  36.073  1.00  0.00     0.060 A 
BRANCH  96  97
ATOM     97  S   UNL A   1      42.830  26.121  37.414  1.00  0.00     0.124 S 
ATOM     98  O   UNL A   1      41.435  26.022  37.833  1.00  0.00    -0.237 OA
ATOM     99  O   UNL A   1      43.374  24.943  36.745  1.00  0.00    -0.237 OA
ATOM    100  O   UNL A   1      43.728  26.747  38.382  1.00  0.00    -0.744 OA
ENDBRANCH  96  97
ENDBRANCH  64  89
ENDBRANCH  38  39
ENDBRANCH  30  33
ENDBRANCH  28  29
ENDBRANCH   1  28
TORSDOF 16
ENDMDL
MODEL 3
REMARK VINA RESULT:     -12.4      2.873      9.614
REMARK SMILES Cc1c(C(=O)NCCCNC(=O)c2ccc(-c3c4nc(c(-c5c(F)cc(S(=O)(=O)[O-])cc5F)c5ccc([nH]5)c(-c5c(F)cc(S(=O)(=O)[O-])cc5F)c5nc(c(-c6c(F)cc(S(=O)(=O)[O-])cc6F)c6ccc3[nH]6)C=C5)C=C4)cc2)sc2ncnc(NCc3cn4c(n3)SCC4)c12
REMARK SMILES IDX 8 1 7 2 6 3 4 4 5 5 3 7 1 8 2 9 95 10 79 11 80 12 84 13
REMARK SMILES IDX 81 14 83 15 82 16 85 17 86 19 87 20 88 21 91 22 89 23 90 24
REMARK SMILES IDX 94 25 92 26 93 27 9 28 10 29 11 30 12 32 13 33 14 34 78 35
REMARK SMILES IDX 15 36 77 37 16 38 17 39 18 40 71 41 19 42 76 43 70 44 72 45
REMARK SMILES IDX 20 46 75 47 69 48 68 49 21 51 55 52 34 53 54 54 35 55 38 56
REMARK SMILES IDX 53 57 73 58 36 59 37 60 52 62 74 63 39 64 22 65 23 66 32 67
REMARK SMILES IDX 24 68 25 69 31 70 33 71 26 72 27 73 28 74 29 75 30 76 56 77
REMARK SMILES IDX 57 78 66 79 58 80 59 81 65 82 67 83 60 84 61 85 62 86 63 87
REMARK SMILES IDX 64 88 40 89 41 90 50 91 42 92 43 93 49 94 51 95 44 96 45 97
REMARK SMILES IDX 46 98 47 99 48 100
REMARK H PARENT 6 6 85 18 10 31 72 50 38 61
REMARK Flexibility Score: inf
ROOT
ATOM      1  C   UNL A   1      33.237  29.337  26.316  1.00  0.00     0.042 C 
ENDROOT
BRANCH   1   2
ATOM      2  C   UNL A   1      33.270  29.240  24.787  1.00  0.00     0.118 C 
BRANCH   2   3
ATOM      3  N   UNL A   1      31.931  29.307  24.236  1.00  0.00    -0.351 N 
ATOM      4  C   UNL A   1      30.961  28.352  24.059  1.00  0.00     0.261 C 
ATOM      5  O   UNL A   1      29.937  28.755  23.503  1.00  0.00    -0.268 OA
ATOM      6  H   UNL A   1      31.668  30.206  23.930  1.00  0.00     0.163 HD
BRANCH   4   7
ATOM      7  C   UNL A   1      31.093  26.988  24.566  1.00  0.00     0.098 A 
ATOM      8  C   UNL A   1      31.876  26.011  22.388  1.00  0.00     0.047 C 
ATOM      9  C   UNL A   1      31.569  25.884  23.849  1.00  0.00    -0.014 A 
ATOM     10  C   UNL A   1      31.663  24.672  24.676  1.00  0.00     0.057 A 
ATOM     11  S   UNL A   1      30.758  26.572  26.176  1.00  0.00    -0.110 S 
ATOM     12  C   UNL A   1      31.052  24.935  25.899  1.00  0.00     0.129 A 
ATOM     13  C   UNL A   1      32.152  23.341  24.553  1.00  0.00     0.138 A 
ATOM     14  N   UNL A   1      30.728  24.070  26.871  1.00  0.00    -0.225 NA
ATOM     15  N   UNL A   1      31.823  22.446  25.529  1.00  0.00    -0.219 NA
ATOM     16  C   UNL A   1      31.113  22.837  26.591  1.00  0.00     0.225 A 
BRANCH  13  17
ATOM     17  N   UNL A   1      32.930  22.732  23.604  1.00  0.00    -0.364 N 
ATOM     18  H   UNL A   1      32.480  21.995  23.132  1.00  0.00     0.162 HD
BRANCH  17  19
ATOM     19  C   UNL A   1      34.282  22.969  23.168  1.00  0.00     0.172 C 
BRANCH  19  20
ATOM     20  C   UNL A   1      35.378  22.966  24.184  1.00  0.00     0.079 A 
ATOM     21  C   UNL A   1      35.733  23.975  25.074  1.00  0.00     0.113 A 
ATOM     22  N   UNL A   1      36.205  21.863  24.329  1.00  0.00    -0.226 NA
ATOM     23  N   UNL A   1      36.806  23.469  25.724  1.00  0.00    -0.325 N 
ATOM     24  C   UNL A   1      37.043  22.214  25.260  1.00  0.00     0.168 A 
ATOM     25  C   UNL A   1      37.837  24.060  26.550  1.00  0.00     0.135 C 
ATOM     26  S   UNL A   1      38.567  21.602  25.768  1.00  0.00    -0.086 SA
ATOM     27  C   UNL A   1      39.117  23.308  26.178  1.00  0.00     0.100 C 
ENDBRANCH  19  20
ENDBRANCH  17  19
ENDBRANCH  13  17
ENDBRANCH   4   7
ENDBRANCH   2   3
ENDBRANCH   1   2
BRANCH   1  28
ATOM     28  C   UNL A   1      34.552  29.872  26.855  1.00  0.00     0.118 C 
BRANCH  28  29
ATOM     29  N   UNL A   1      34.369  31.150  27.551  1.00  0.00    -0.352 N 
ATOM     30  C   UNL A   1      35.011  31.601  28.682  1.00  0.00     0.251 C 
ATOM     31  H   UNL A   1      33.705  31.762  27.160  1.00  0.00     0.163 HD
ATOM     32  O   UNL A   1      34.545  32.532  29.338  1.00  0.00    -0.269 OA
BRANCH  30  33
ATOM     33  C   UNL A   1      36.266  30.951  29.077  1.00  0.00     0.039 A 
ATOM     34  C   UNL A   1      36.360  29.565  29.223  1.00  0.00     0.014 A 
ATOM     35  C   UNL A   1      37.377  31.772  29.252  1.00  0.00     0.014 A 
ATOM     36  C   UNL A   1      37.609  29.007  29.479  1.00  0.00     0.010 A 
ATOM     37  C   UNL A   1      38.622  31.212  29.321  1.00  0.00     0.010 A 
ATOM     38  C   UNL A   1      38.738  29.842  29.509  1.00  0.00    -0.014 A 
BRANCH  38  39
ATOM     39  C   UNL A   1      40.085  29.297  29.612  1.00  0.00     0.031 A 
ATOM     40  C   UNL A   1      40.551  29.118  31.015  1.00  0.00     0.074 A 
ATOM     41  C   UNL A   1      40.723  28.776  28.539  1.00  0.00     0.049 A 
ATOM     42  N   UNL A   1      41.489  29.764  31.625  1.00  0.00    -0.248 NA
ATOM     43  C   UNL A   1      39.764  28.245  31.907  1.00  0.00     0.031 C 
ATOM     44  C   UNL A   1      40.220  28.620  27.166  1.00  0.00     0.029 A 
ATOM     45  N   UNL A   1      41.936  28.167  28.470  1.00  0.00    -0.354 N 
ATOM     46  C   UNL A   1      41.578  29.197  32.894  1.00  0.00     0.074 A 
ATOM     47  C   UNL A   1      40.369  28.439  33.081  1.00  0.00     0.031 C 
ATOM     48  C   UNL A   1      41.004  27.757  26.483  1.00  0.00     0.029 A 
ATOM     49  C   UNL A   1      42.159  27.440  27.300  1.00  0.00     0.049 A 
ATOM     50  H   UNL A   1      42.604  28.233  29.189  1.00  0.00     0.167 HD
ATOM     51  C   UNL A   1      42.758  29.180  33.576  1.00  0.00     0.037 A 
ATOM     52  C   UNL A   1      43.216  26.623  27.045  1.00  0.00     0.037 A 
ATOM     53  C   UNL A   1      43.707  30.086  32.982  1.00  0.00     0.049 A 
ATOM     54  C   UNL A   1      44.288  27.023  27.996  1.00  0.00     0.074 A 
ATOM     55  C   UNL A   1      43.750  31.451  32.772  1.00  0.00     0.029 A 
ATOM     56  N   UNL A   1      44.636  29.542  32.127  1.00  0.00    -0.354 N 
ATOM     57  N   UNL A   1      44.875  28.190  27.975  1.00  0.00    -0.248 NA
ATOM     58  C   UNL A   1      44.353  26.315  29.264  1.00  0.00     0.031 C 
ATOM     59  C   UNL A   1      44.350  31.608  31.488  1.00  0.00     0.029 A 
ATOM     60  C   UNL A   1      44.716  30.345  31.018  1.00  0.00     0.049 A 
ATOM     61  H   UNL A   1      45.154  28.719  32.284  1.00  0.00     0.167 HD
ATOM     62  C   UNL A   1      45.004  28.549  29.309  1.00  0.00     0.074 A 
ATOM     63  C   UNL A   1      44.728  27.322  30.057  1.00  0.00     0.031 C 
ATOM     64  C   UNL A   1      45.030  29.862  29.688  1.00  0.00     0.037 A 
BRANCH  51  65
ATOM     65  C   UNL A   1      43.185  28.086  34.527  1.00  0.00     0.058 A 
ATOM     66  C   UNL A   1      43.501  28.415  35.861  1.00  0.00     0.135 A 
ATOM     67  C   UNL A   1      43.557  26.786  34.117  1.00  0.00     0.135 A 
ATOM     68  F   UNL A   1      43.209  29.629  36.354  1.00  0.00    -0.206 F 
ATOM     69  C   UNL A   1      44.187  27.539  36.705  1.00  0.00     0.059 A 
ATOM     70  C   UNL A   1      44.191  25.879  34.958  1.00  0.00     0.059 A 
ATOM     71  F   UNL A   1      43.412  26.365  32.855  1.00  0.00    -0.206 F 
ATOM     72  C   UNL A   1      44.535  26.275  36.239  1.00  0.00     0.060 A 
BRANCH  72  73
ATOM     73  S   UNL A   1      45.486  25.174  37.300  1.00  0.00     0.124 S 
ATOM     74  O   UNL A   1      45.558  23.967  36.483  1.00  0.00    -0.237 OA
ATOM     75  O   UNL A   1      46.734  25.914  37.459  1.00  0.00    -0.237 OA
ATOM     76  O   UNL A   1      44.666  25.073  38.504  1.00  0.00    -0.744 OA
ENDBRANCH  72  73
ENDBRANCH  51  65
BRANCH  52  77
ATOM     77  C   UNL A   1      43.226  25.308  26.340  1.00  0.00     0.058 A 
ATOM     78  C   UNL A   1      44.089  25.074  25.252  1.00  0.00     0.135 A 
ATOM     79  C   UNL A   1      42.622  24.165  26.902  1.00  0.00     0.135 A 
ATOM     80  F   UNL A   1      44.719  26.100  24.661  1.00  0.00    -0.206 F 
ATOM     81  C   UNL A   1      44.387  23.784  24.793  1.00  0.00     0.059 A 
ATOM     82  C   UNL A   1      42.900  22.870  26.458  1.00  0.00     0.059 A 
ATOM     83  F   UNL A   1      41.812  24.265  27.967  1.00  0.00    -0.206 F 
ATOM     84  C   UNL A   1      43.807  22.684  25.422  1.00  0.00     0.060 A 
BRANCH  84  85
ATOM     85  S   UNL A   1      44.334  21.014  24.958  1.00  0.00     0.124 S 
ATOM     86  O   UNL A   1      43.203  20.206  25.398  1.00  0.00    -0.237 OA
ATOM     87  O   UNL A   1      44.505  21.137  23.513  1.00  0.00    -0.237 OA
ATOM     88  O   UNL A   1      45.568  20.823  25.714  1.00  0.00    -0.744 OA
ENDBRANCH  84  85
ENDBRANCH  52  77
BRANCH  64  89
ATOM     89  C   UNL A   1      45.202  30.914  28.616  1.00  0.00     0.058 A 
ATOM     90  C   UNL A   1      44.147  31.578  27.963  1.00  0.00     0.135 A 
ATOM     91  C   UNL A   1      46.499  31.388  28.369  1.00  0.00     0.135 A 
ATOM     92  F   UNL A   1      42.871  31.254  28.208  1.00  0.00    -0.206 F 
ATOM     93  C   UNL A   1      44.375  32.644  27.086  1.00  0.00     0.059 A 
ATOM     94  C   UNL A   1      46.747  32.465  27.524  1.00  0.00     0.059 A 
ATOM     95  F   UNL A   1      47.546  30.835  29.005  1.00  0.00    -0.206 F 
ATOM     96  C   UNL A   1      45.681  33.084  26.878  1.00  0.00     0.060 A 
BRANCH  96  97
ATOM     97  S   UNL A   1      45.974  34.507  25.804  1.00  0.00     0.124 S 
ATOM     98  O   UNL A   1      45.069  34.247  24.690  1.00  0.00    -0.237 OA
ATOM     99  O   UNL A   1      45.614  35.632  26.663  1.00  0.00    -0.237 OA
ATOM    100  O   UNL A   1      47.397  34.409  25.486  1.00  0.00    -0.744 OA
ENDBRANCH  96  97
ENDBRANCH  64  89
ENDBRANCH  38  39
ENDBRANCH  30  33
ENDBRANCH  28  29
ENDBRANCH   1  28
TORSDOF 16
ENDMDL
