MODEL 1
REMARK VINA RESULT:     -11.1      0.000      0.000
REMARK SMILES COCCC[C@@]1(C(=O)NCCCNC(=O)c2ccc(-c3c4nc(c(-c5c(F)cc(S(=O)(=O)[O-])cc5F)c5ccc([nH]5)c(-c5c(F)cc(S(=O)(=O)[O-])cc5F)c5nc(c(-c6c(F)cc(S(=O)(=O)[O-])cc6F)c6ccc3[nH]6)C=C5)C=C4)cc2)CCCN(C(=O)C2CCC2)C1
REMARK SMILES IDX 10 1 9 2 7 3 8 4 6 6 82 7 92 8 83 9 85 10 84 11 5 12 4 13
REMARK SMILES IDX 3 14 2 15 1 16 86 17 87 18 88 19 89 20 91 21 90 22 11 23
REMARK SMILES IDX 12 24 13 25 14 26 15 28 16 29 17 30 81 31 18 32 80 33 19 34
REMARK SMILES IDX 20 35 21 36 74 37 22 38 79 39 73 40 75 41 23 42 78 43 72 44
REMARK SMILES IDX 71 45 24 47 58 48 37 49 57 50 38 51 41 52 56 53 76 54 39 55
REMARK SMILES IDX 40 56 55 58 77 59 42 60 25 61 26 62 35 63 27 64 28 65 34 66
REMARK SMILES IDX 36 67 29 68 30 69 31 70 32 71 33 72 59 73 60 74 69 75 61 76
REMARK SMILES IDX 62 77 68 78 70 79 63 80 64 81 65 82 66 83 67 84 43 85 44 86
REMARK SMILES IDX 53 87 45 88 46 89 52 90 54 91 47 92 48 93 49 94 50 95 51 96
REMARK H PARENT 9 5 13 27 75 46 41 57
REMARK Flexibility Score: inf
ROOT
ATOM      1  C   UNL A   1      36.325  22.465  25.295  1.00  0.00     0.117 C 
ENDROOT
BRANCH   1   2
ATOM      2  N   UNL A   1      35.591  22.565  26.540  1.00  0.00    -0.355 N 
ATOM      3  C   UNL A   1      34.290  22.882  26.782  1.00  0.00     0.228 C 
ATOM      4  O   UNL A   1      33.847  22.421  27.847  1.00  0.00    -0.274 OA
ATOM      5  H   UNL A   1      36.122  22.373  27.346  1.00  0.00     0.163 HD
BRANCH   3   6
ATOM      6  C   UNL A   1      33.421  23.873  25.960  1.00  0.00     0.067 C 
ATOM      7  C   UNL A   1      32.150  24.216  26.809  1.00  0.00     0.020 C 
ATOM      8  C   UNL A   1      32.856  23.375  24.607  1.00  0.00     0.136 C 
ATOM      9  C   UNL A   1      31.195  23.013  26.943  1.00  0.00     0.023 C 
ATOM     10  N   UNL A   1      32.044  22.173  24.792  1.00  0.00    -0.341 N 
ATOM     11  C   UNL A   1      30.850  22.387  25.593  1.00  0.00     0.119 C 
BRANCH   6  12
ATOM     12  C   UNL A   1      34.252  25.167  25.681  1.00  0.00     0.021 C 
BRANCH  12  13
ATOM     13  C   UNL A   1      33.517  26.523  25.625  1.00  0.00     0.030 C 
BRANCH  13  14
ATOM     14  C   UNL A   1      34.328  27.799  25.885  1.00  0.00     0.159 C 
BRANCH  14  15
ATOM     15  O   UNL A   1      33.644  28.740  26.710  1.00  0.00    -0.385 OA
ATOM     16  C   UNL A   1      34.495  29.572  27.481  1.00  0.00     0.194 C 
ENDBRANCH  14  15
ENDBRANCH  13  14
ENDBRANCH  12  13
ENDBRANCH   6  12
BRANCH  10  17
ATOM     17  C   UNL A   1      32.336  21.021  24.062  1.00  0.00     0.225 C 
ATOM     18  O   UNL A   1      32.274  21.055  22.822  1.00  0.00    -0.275 OA
BRANCH  17  19
ATOM     19  C   UNL A   1      32.876  19.756  24.752  1.00  0.00     0.078 C 
ATOM     20  C   UNL A   1      32.644  18.316  24.260  1.00  0.00     0.013 C 
ATOM     21  C   UNL A   1      34.391  19.507  24.740  1.00  0.00     0.013 C 
ATOM     22  C   UNL A   1      34.136  18.019  24.470  1.00  0.00     0.002 C 
ENDBRANCH  17  19
ENDBRANCH  10  17
ENDBRANCH   3   6
ENDBRANCH   1   2
BRANCH   1  23
ATOM     23  C   UNL A   1      37.424  23.486  25.078  1.00  0.00     0.042 C 
BRANCH  23  24
ATOM     24  C   UNL A   1      38.181  23.879  26.331  1.00  0.00     0.118 C 
BRANCH  24  25
ATOM     25  N   UNL A   1      39.619  23.672  26.206  1.00  0.00    -0.352 N 
ATOM     26  C   UNL A   1      40.675  24.438  26.636  1.00  0.00     0.251 C 
ATOM     27  H   UNL A   1      39.875  22.846  25.736  1.00  0.00     0.163 HD
ATOM     28  O   UNL A   1      41.810  24.179  26.228  1.00  0.00    -0.269 OA
BRANCH  26  29
ATOM     29  C   UNL A   1      40.469  25.579  27.558  1.00  0.00     0.039 A 
ATOM     30  C   UNL A   1      39.492  25.486  28.554  1.00  0.00     0.014 A 
ATOM     31  C   UNL A   1      41.224  26.746  27.441  1.00  0.00     0.014 A 
ATOM     32  C   UNL A   1      39.347  26.519  29.485  1.00  0.00     0.010 A 
ATOM     33  C   UNL A   1      41.155  27.723  28.430  1.00  0.00     0.010 A 
ATOM     34  C   UNL A   1      40.219  27.620  29.468  1.00  0.00    -0.014 A 
BRANCH  34  35
ATOM     35  C   UNL A   1      40.193  28.656  30.535  1.00  0.00     0.031 A 
ATOM     36  C   UNL A   1      41.065  28.513  31.756  1.00  0.00     0.074 A 
ATOM     37  C   UNL A   1      39.313  29.675  30.445  1.00  0.00     0.049 A 
ATOM     38  N   UNL A   1      41.103  29.255  32.833  1.00  0.00    -0.248 NA
ATOM     39  C   UNL A   1      41.995  27.371  31.786  1.00  0.00     0.031 C 
ATOM     40  C   UNL A   1      38.370  29.886  29.343  1.00  0.00     0.029 A 
ATOM     41  N   UNL A   1      39.052  30.717  31.301  1.00  0.00    -0.354 N 
ATOM     42  C   UNL A   1      42.039  28.662  33.672  1.00  0.00     0.074 A 
ATOM     43  C   UNL A   1      42.515  27.472  33.002  1.00  0.00     0.031 C 
ATOM     44  C   UNL A   1      37.651  30.995  29.580  1.00  0.00     0.029 A 
ATOM     45  C   UNL A   1      38.043  31.549  30.871  1.00  0.00     0.049 A 
ATOM     46  H   UNL A   1      39.540  30.856  32.145  1.00  0.00     0.167 HD
ATOM     47  C   UNL A   1      42.476  29.084  34.882  1.00  0.00     0.037 A 
ATOM     48  C   UNL A   1      37.482  32.625  31.456  1.00  0.00     0.037 A 
ATOM     49  C   UNL A   1      42.027  30.292  35.523  1.00  0.00     0.049 A 
ATOM     50  C   UNL A   1      37.993  33.071  32.801  1.00  0.00     0.074 A 
ATOM     51  C   UNL A   1      42.478  30.854  36.705  1.00  0.00     0.029 A 
ATOM     52  N   UNL A   1      41.026  31.122  35.043  1.00  0.00    -0.354 N 
ATOM     53  N   UNL A   1      38.947  32.548  33.535  1.00  0.00    -0.248 NA
ATOM     54  C   UNL A   1      37.352  34.251  33.399  1.00  0.00     0.031 C 
ATOM     55  C   UNL A   1      41.710  31.992  36.968  1.00  0.00     0.029 A 
ATOM     56  C   UNL A   1      40.819  32.171  35.923  1.00  0.00     0.049 A 
ATOM     57  H   UNL A   1      40.534  30.986  34.201  1.00  0.00     0.167 HD
ATOM     58  C   UNL A   1      39.033  33.347  34.670  1.00  0.00     0.074 A 
ATOM     59  C   UNL A   1      38.054  34.402  34.514  1.00  0.00     0.031 C 
ATOM     60  C   UNL A   1      39.843  33.216  35.748  1.00  0.00     0.037 A 
BRANCH  47  61
ATOM     61  C   UNL A   1      43.504  28.251  35.600  1.00  0.00     0.058 A 
ATOM     62  C   UNL A   1      44.878  28.412  35.365  1.00  0.00     0.135 A 
ATOM     63  C   UNL A   1      43.112  27.353  36.607  1.00  0.00     0.135 A 
ATOM     64  F   UNL A   1      45.307  29.245  34.403  1.00  0.00    -0.206 F 
ATOM     65  C   UNL A   1      45.829  27.711  36.100  1.00  0.00     0.059 A 
ATOM     66  C   UNL A   1      44.046  26.660  37.372  1.00  0.00     0.059 A 
ATOM     67  F   UNL A   1      41.811  27.157  36.869  1.00  0.00    -0.206 F 
ATOM     68  C   UNL A   1      45.403  26.844  37.108  1.00  0.00     0.060 A 
BRANCH  68  69
ATOM     69  S   UNL A   1      46.653  25.990  38.092  1.00  0.00     0.124 S 
ATOM     70  O   UNL A   1      47.609  27.065  38.345  1.00  0.00    -0.237 OA
ATOM     71  O   UNL A   1      45.885  25.540  39.248  1.00  0.00    -0.237 OA
ATOM     72  O   UNL A   1      47.122  24.931  37.202  1.00  0.00    -0.744 OA
ENDBRANCH  68  69
ENDBRANCH  47  61
BRANCH  48  73
ATOM     73  C   UNL A   1      36.368  33.354  30.790  1.00  0.00     0.058 A 
ATOM     74  C   UNL A   1      36.608  34.206  29.700  1.00  0.00     0.135 A 
ATOM     75  C   UNL A   1      35.046  33.240  31.247  1.00  0.00     0.135 A 
ATOM     76  F   UNL A   1      37.854  34.355  29.228  1.00  0.00    -0.206 F 
ATOM     77  C   UNL A   1      35.586  34.947  29.114  1.00  0.00     0.059 A 
ATOM     78  C   UNL A   1      34.002  33.946  30.656  1.00  0.00     0.059 A 
ATOM     79  F   UNL A   1      34.756  32.425  32.273  1.00  0.00    -0.206 F 
ATOM     80  C   UNL A   1      34.286  34.813  29.603  1.00  0.00     0.060 A 
BRANCH  80  81
ATOM     81  S   UNL A   1      32.966  35.777  28.834  1.00  0.00     0.124 S 
ATOM     82  O   UNL A   1      32.319  34.772  27.999  1.00  0.00    -0.237 OA
ATOM     83  O   UNL A   1      32.203  36.233  29.992  1.00  0.00    -0.237 OA
ATOM     84  O   UNL A   1      33.690  36.823  28.118  1.00  0.00    -0.744 OA
ENDBRANCH  80  81
ENDBRANCH  48  73
BRANCH  60  85
ATOM     85  C   UNL A   1      39.721  34.248  36.835  1.00  0.00     0.058 A 
ATOM     86  C   UNL A   1      38.981  34.002  38.001  1.00  0.00     0.135 A 
ATOM     87  C   UNL A   1      40.397  35.475  36.733  1.00  0.00     0.135 A 
ATOM     88  F   UNL A   1      38.309  32.848  38.145  1.00  0.00    -0.206 F 
ATOM     89  C   UNL A   1      38.894  34.946  39.018  1.00  0.00     0.059 A 
ATOM     90  C   UNL A   1      40.350  36.421  37.751  1.00  0.00     0.059 A 
ATOM     91  F   UNL A   1      41.128  35.756  35.643  1.00  0.00    -0.206 F 
ATOM     92  C   UNL A   1      39.585  36.152  38.886  1.00  0.00     0.060 A 
BRANCH  92  93
ATOM     93  S   UNL A   1      39.494  37.352  40.231  1.00  0.00     0.124 S 
ATOM     94  O   UNL A   1      38.799  36.586  41.261  1.00  0.00    -0.237 OA
ATOM     95  O   UNL A   1      40.902  37.634  40.493  1.00  0.00    -0.237 OA
ATOM     96  O   UNL A   1      38.736  38.456  39.651  1.00  0.00    -0.744 OA
ENDBRANCH  92  93
ENDBRANCH  60  85
ENDBRANCH  34  35
ENDBRANCH  26  29
ENDBRANCH  24  25
ENDBRANCH  23  24
ENDBRANCH   1  23
TORSDOF 19
ENDMDL
MODEL 2
REMARK VINA RESULT:     -10.9      5.330     10.007
REMARK SMILES COCCC[C@@]1(C(=O)NCCCNC(=O)c2ccc(-c3c4nc(c(-c5c(F)cc(S(=O)(=O)[O-])cc5F)c5ccc([nH]5)c(-c5c(F)cc(S(=O)(=O)[O-])cc5F)c5nc(c(-c6c(F)cc(S(=O)(=O)[O-])cc6F)c6ccc3[nH]6)C=C5)C=C4)cc2)CCCN(C(=O)C2CCC2)C1
REMARK SMILES IDX 10 1 9 2 7 3 8 4 6 6 82 7 92 8 83 9 85 10 84 11 5 12 4 13
REMARK SMILES IDX 3 14 2 15 1 16 86 17 87 18 88 19 89 20 91 21 90 22 11 23
REMARK SMILES IDX 12 24 13 25 14 26 15 28 16 29 17 30 81 31 18 32 80 33 19 34
REMARK SMILES IDX 20 35 21 36 74 37 22 38 79 39 73 40 75 41 23 42 78 43 72 44
REMARK SMILES IDX 71 45 24 47 58 48 37 49 57 50 38 51 41 52 56 53 76 54 39 55
REMARK SMILES IDX 40 56 55 58 77 59 42 60 25 61 26 62 35 63 27 64 28 65 34 66
REMARK SMILES IDX 36 67 29 68 30 69 31 70 32 71 33 72 59 73 60 74 69 75 61 76
REMARK SMILES IDX 62 77 68 78 70 79 63 80 64 81 65 82 66 83 67 84 43 85 44 86
REMARK SMILES IDX 53 87 45 88 46 89 52 90 54 91 47 92 48 93 49 94 50 95 51 96
REMARK H PARENT 9 5 13 27 75 46 41 57
REMARK Flexibility Score: inf
ROOT
ATOM      1  C   UNL A   1      33.003  28.441  24.783  1.00  0.00     0.117 C 
ENDROOT
BRANCH   1   2
ATOM      2  N   UNL A   1      31.821  27.930  25.448  1.00  0.00    -0.355 N 
ATOM      3  C   UNL A   1      30.922  26.985  25.060  1.00  0.00     0.228 C 
ATOM      4  O   UNL A   1      30.335  26.430  26.003  1.00  0.00    -0.274 OA
ATOM      5  H   UNL A   1      31.637  28.334  26.326  1.00  0.00     0.163 HD
BRANCH   3   6
ATOM      6  C   UNL A   1      30.470  26.694  23.603  1.00  0.00     0.067 C 
ATOM      7  C   UNL A   1      29.576  25.407  23.625  1.00  0.00     0.020 C 
ATOM      8  C   UNL A   1      31.573  26.377  22.563  1.00  0.00     0.136 C 
ATOM      9  C   UNL A   1      30.388  24.138  23.951  1.00  0.00     0.023 C 
ATOM     10  N   UNL A   1      32.371  25.226  22.983  1.00  0.00    -0.341 N 
ATOM     11  C   UNL A   1      31.618  23.984  23.059  1.00  0.00     0.119 C 
BRANCH   6  12
ATOM     12  C   UNL A   1      29.651  27.914  23.072  1.00  0.00     0.021 C 
BRANCH  12  13
ATOM     13  C   UNL A   1      28.193  28.092  23.545  1.00  0.00     0.030 C 
BRANCH  13  14
ATOM     14  C   UNL A   1      27.302  29.088  22.792  1.00  0.00     0.159 C 
BRANCH  14  15
ATOM     15  O   UNL A   1      26.966  30.237  23.567  1.00  0.00    -0.385 OA
ATOM     16  C   UNL A   1      27.953  31.254  23.568  1.00  0.00     0.194 C 
ENDBRANCH  14  15
ENDBRANCH  13  14
ENDBRANCH  12  13
ENDBRANCH   6  12
BRANCH  10  17
ATOM     17  C   UNL A   1      33.758  25.341  23.076  1.00  0.00     0.225 C 
ATOM     18  O   UNL A   1      34.389  25.852  22.136  1.00  0.00    -0.275 OA
BRANCH  17  19
ATOM     19  C   UNL A   1      34.502  24.987  24.375  1.00  0.00     0.078 C 
ATOM     20  C   UNL A   1      33.870  24.970  25.778  1.00  0.00     0.013 C 
ATOM     21  C   UNL A   1      34.968  23.538  24.578  1.00  0.00     0.013 C 
ATOM     22  C   UNL A   1      34.535  23.612  26.047  1.00  0.00     0.002 C 
ENDBRANCH  17  19
ENDBRANCH  10  17
ENDBRANCH   3   6
ENDBRANCH   1   2
BRANCH   1  23
ATOM     23  C   UNL A   1      34.104  28.969  25.680  1.00  0.00     0.042 C 
BRANCH  23  24
ATOM     24  C   UNL A   1      33.832  28.833  27.165  1.00  0.00     0.118 C 
BRANCH  24  25
ATOM     25  N   UNL A   1      33.835  30.118  27.855  1.00  0.00    -0.352 N 
ATOM     26  C   UNL A   1      34.802  30.719  28.625  1.00  0.00     0.251 C 
ATOM     27  H   UNL A   1      33.008  30.641  27.753  1.00  0.00     0.163 HD
ATOM     28  O   UNL A   1      34.505  31.713  29.292  1.00  0.00    -0.269 OA
BRANCH  26  29
ATOM     29  C   UNL A   1      36.180  30.179  28.683  1.00  0.00     0.039 A 
ATOM     30  C   UNL A   1      36.985  30.235  27.541  1.00  0.00     0.014 A 
ATOM     31  C   UNL A   1      36.682  29.608  29.852  1.00  0.00     0.014 A 
ATOM     32  C   UNL A   1      38.316  29.810  27.607  1.00  0.00     0.010 A 
ATOM     33  C   UNL A   1      38.033  29.288  29.947  1.00  0.00     0.010 A 
ATOM     34  C   UNL A   1      38.869  29.390  28.827  1.00  0.00    -0.014 A 
BRANCH  34  35
ATOM     35  C   UNL A   1      40.318  29.081  28.965  1.00  0.00     0.031 A 
ATOM     36  C   UNL A   1      40.846  27.722  28.586  1.00  0.00     0.074 A 
ATOM     37  C   UNL A   1      41.139  29.998  29.519  1.00  0.00     0.049 A 
ATOM     38  N   UNL A   1      42.053  27.236  28.732  1.00  0.00    -0.248 NA
ATOM     39  C   UNL A   1      39.889  26.772  27.993  1.00  0.00     0.031 C 
ATOM     40  C   UNL A   1      40.733  31.327  29.986  1.00  0.00     0.029 A 
ATOM     41  N   UNL A   1      42.482  29.949  29.803  1.00  0.00    -0.354 N 
ATOM     42  C   UNL A   1      41.995  25.926  28.271  1.00  0.00     0.074 A 
ATOM     43  C   UNL A   1      40.625  25.674  27.882  1.00  0.00     0.031 C 
ATOM     44  C   UNL A   1      41.804  31.971  30.478  1.00  0.00     0.029 A 
ATOM     45  C   UNL A   1      42.963  31.088  30.408  1.00  0.00     0.049 A 
ATOM     46  H   UNL A   1      43.049  29.171  29.594  1.00  0.00     0.167 HD
ATOM     47  C   UNL A   1      42.997  25.023  28.164  1.00  0.00     0.037 A 
ATOM     48  C   UNL A   1      44.192  31.383  30.874  1.00  0.00     0.037 A 
ATOM     49  C   UNL A   1      44.367  25.296  28.515  1.00  0.00     0.049 A 
ATOM     50  C   UNL A   1      45.288  30.358  30.737  1.00  0.00     0.074 A 
ATOM     51  C   UNL A   1      45.472  24.479  28.355  1.00  0.00     0.029 A 
ATOM     52  N   UNL A   1      44.819  26.470  29.098  1.00  0.00    -0.354 N 
ATOM     53  N   UNL A   1      45.231  29.158  30.210  1.00  0.00    -0.248 NA
ATOM     54  C   UNL A   1      46.613  30.726  31.256  1.00  0.00     0.031 C 
ATOM     55  C   UNL A   1      46.582  25.136  28.893  1.00  0.00     0.029 A 
ATOM     56  C   UNL A   1      46.180  26.384  29.338  1.00  0.00     0.049 A 
ATOM     57  H   UNL A   1      44.256  27.249  29.311  1.00  0.00     0.167 HD
ATOM     58  C   UNL A   1      46.516  28.636  30.319  1.00  0.00     0.074 A 
ATOM     59  C   UNL A   1      47.333  29.660  30.935  1.00  0.00     0.031 C 
ATOM     60  C   UNL A   1      46.978  27.417  29.948  1.00  0.00     0.037 A 
BRANCH  47  61
ATOM     61  C   UNL A   1      42.671  23.653  27.634  1.00  0.00     0.058 A 
ATOM     62  C   UNL A   1      42.579  23.398  26.257  1.00  0.00     0.135 A 
ATOM     63  C   UNL A   1      42.549  22.562  28.511  1.00  0.00     0.135 A 
ATOM     64  F   UNL A   1      42.671  24.406  25.374  1.00  0.00    -0.206 F 
ATOM     65  C   UNL A   1      42.374  22.112  25.767  1.00  0.00     0.059 A 
ATOM     66  C   UNL A   1      42.369  21.264  28.043  1.00  0.00     0.059 A 
ATOM     67  F   UNL A   1      42.624  22.751  29.838  1.00  0.00    -0.206 F 
ATOM     68  C   UNL A   1      42.280  21.050  26.668  1.00  0.00     0.060 A 
BRANCH  68  69
ATOM     69  S   UNL A   1      42.076  19.380  26.011  1.00  0.00     0.124 S 
ATOM     70  O   UNL A   1      42.538  18.567  27.132  1.00  0.00    -0.237 OA
ATOM     71  O   UNL A   1      40.643  19.327  25.739  1.00  0.00    -0.237 OA
ATOM     72  O   UNL A   1      42.936  19.370  24.832  1.00  0.00    -0.744 OA
ENDBRANCH  68  69
ENDBRANCH  47  61
BRANCH  48  73
ATOM     73  C   UNL A   1      44.461  32.696  31.523  1.00  0.00     0.058 A 
ATOM     74  C   UNL A   1      44.283  32.871  32.904  1.00  0.00     0.135 A 
ATOM     75  C   UNL A   1      44.868  33.810  30.774  1.00  0.00     0.135 A 
ATOM     76  F   UNL A   1      43.889  31.839  33.666  1.00  0.00    -0.206 F 
ATOM     77  C   UNL A   1      44.462  34.110  33.513  1.00  0.00     0.059 A 
ATOM     78  C   UNL A   1      45.085  35.052  31.364  1.00  0.00     0.059 A 
ATOM     79  F   UNL A   1      45.072  33.696  29.452  1.00  0.00    -0.206 F 
ATOM     80  C   UNL A   1      44.859  35.196  32.732  1.00  0.00     0.060 A 
BRANCH  80  81
ATOM     81  S   UNL A   1      45.091  36.799  33.530  1.00  0.00     0.124 S 
ATOM     82  O   UNL A   1      46.524  37.009  33.354  1.00  0.00    -0.237 OA
ATOM     83  O   UNL A   1      44.218  37.665  32.743  1.00  0.00    -0.237 OA
ATOM     84  O   UNL A   1      44.652  36.557  34.900  1.00  0.00    -0.744 OA
ENDBRANCH  80  81
ENDBRANCH  48  73
BRANCH  60  85
ATOM     85  C   UNL A   1      48.435  27.129  30.180  1.00  0.00     0.058 A 
ATOM     86  C   UNL A   1      49.416  27.510  29.251  1.00  0.00     0.135 A 
ATOM     87  C   UNL A   1      48.861  26.515  31.370  1.00  0.00     0.135 A 
ATOM     88  F   UNL A   1      49.061  28.092  28.094  1.00  0.00    -0.206 F 
ATOM     89  C   UNL A   1      50.766  27.270  29.481  1.00  0.00     0.059 A 
ATOM     90  C   UNL A   1      50.208  26.295  31.635  1.00  0.00     0.059 A 
ATOM     91  F   UNL A   1      47.965  26.142  32.296  1.00  0.00    -0.206 F 
ATOM     92  C   UNL A   1      51.153  26.665  30.679  1.00  0.00     0.060 A 
BRANCH  92  93
ATOM     93  S   UNL A   1      52.912  26.395  30.980  1.00  0.00     0.124 S 
ATOM     94  O   UNL A   1      53.422  26.237  29.622  1.00  0.00    -0.237 OA
ATOM     95  O   UNL A   1      53.303  27.624  31.665  1.00  0.00    -0.237 OA
ATOM     96  O   UNL A   1      52.936  25.190  31.804  1.00  0.00    -0.744 OA
ENDBRANCH  92  93
ENDBRANCH  60  85
ENDBRANCH  34  35
ENDBRANCH  26  29
ENDBRANCH  24  25
ENDBRANCH  23  24
ENDBRANCH   1  23
TORSDOF 19
ENDMDL
MODEL 3
REMARK VINA RESULT:     -10.8      1.006      1.814
REMARK SMILES COCCC[C@@]1(C(=O)NCCCNC(=O)c2ccc(-c3c4nc(c(-c5c(F)cc(S(=O)(=O)[O-])cc5F)c5ccc([nH]5)c(-c5c(F)cc(S(=O)(=O)[O-])cc5F)c5nc(c(-c6c(F)cc(S(=O)(=O)[O-])cc6F)c6ccc3[nH]6)C=C5)C=C4)cc2)CCCN(C(=O)C2CCC2)C1
REMARK SMILES IDX 10 1 9 2 7 3 8 4 6 6 82 7 92 8 83 9 85 10 84 11 5 12 4 13
REMARK SMILES IDX 3 14 2 15 1 16 86 17 87 18 88 19 89 20 91 21 90 22 11 23
REMARK SMILES IDX 12 24 13 25 14 26 15 28 16 29 17 30 81 31 18 32 80 33 19 34
REMARK SMILES IDX 20 35 21 36 74 37 22 38 79 39 73 40 75 41 23 42 78 43 72 44
REMARK SMILES IDX 71 45 24 47 58 48 37 49 57 50 38 51 41 52 56 53 76 54 39 55
REMARK SMILES IDX 40 56 55 58 77 59 42 60 25 61 26 62 35 63 27 64 28 65 34 66
REMARK SMILES IDX 36 67 29 68 30 69 31 70 32 71 33 72 59 73 60 74 69 75 61 76
REMARK SMILES IDX 62 77 68 78 70 79 63 80 64 81 65 82 66 83 67 84 43 85 44 86
REMARK SMILES IDX 53 87 45 88 46 89 52 90 54 91 47 92 48 93 49 94 50 95 51 96
REMARK H PARENT 9 5 13 27 75 46 41 57
REMARK Flexibility Score: inf
ROOT
ATOM      1  C   UNL A   1      37.032  23.347  25.413  1.00  0.00     0.117 C 
ENDROOT
BRANCH   1   2
ATOM      2  N   UNL A   1      35.987  23.551  26.396  1.00  0.00    -0.355 N 
ATOM      3  C   UNL A   1      34.650  23.307  26.337  1.00  0.00     0.228 C 
ATOM      4  O   UNL A   1      34.121  23.122  27.445  1.00  0.00    -0.274 OA
ATOM      5  H   UNL A   1      36.296  23.931  27.250  1.00  0.00     0.163 HD
BRANCH   3   6
ATOM      6  C   UNL A   1      33.755  23.418  25.072  1.00  0.00     0.067 C 
ATOM      7  C   UNL A   1      32.262  23.472  25.544  1.00  0.00     0.020 C 
ATOM      8  C   UNL A   1      33.796  22.244  24.062  1.00  0.00     0.136 C 
ATOM      9  C   UNL A   1      31.788  22.129  26.136  1.00  0.00     0.023 C 
ATOM     10  N   UNL A   1      33.436  20.985  24.712  1.00  0.00    -0.341 N 
ATOM     11  C   UNL A   1      32.070  20.948  25.209  1.00  0.00     0.119 C 
BRANCH   6  12
ATOM     12  C   UNL A   1      34.126  24.725  24.299  1.00  0.00     0.021 C 
BRANCH  12  13
ATOM     13  C   UNL A   1      33.485  26.056  24.743  1.00  0.00     0.030 C 
BRANCH  13  14
ATOM     14  C   UNL A   1      32.624  26.820  23.728  1.00  0.00     0.159 C 
BRANCH  14  15
ATOM     15  O   UNL A   1      32.949  28.206  23.647  1.00  0.00    -0.385 OA
ATOM     16  C   UNL A   1      32.133  28.949  22.757  1.00  0.00     0.194 C 
ENDBRANCH  14  15
ENDBRANCH  13  14
ENDBRANCH  12  13
ENDBRANCH   6  12
BRANCH  10  17
ATOM     17  C   UNL A   1      34.300  19.893  24.633  1.00  0.00     0.225 C 
ATOM     18  O   UNL A   1      35.508  20.055  24.879  1.00  0.00    -0.275 OA
BRANCH  17  19
ATOM     19  C   UNL A   1      33.767  18.470  24.396  1.00  0.00     0.078 C 
ATOM     20  C   UNL A   1      33.058  17.996  23.114  1.00  0.00     0.013 C 
ATOM     21  C   UNL A   1      34.779  17.325  24.248  1.00  0.00     0.013 C 
ATOM     22  C   UNL A   1      33.936  16.736  23.111  1.00  0.00     0.002 C 
ENDBRANCH  17  19
ENDBRANCH  10  17
ENDBRANCH   3   6
ENDBRANCH   1   2
BRANCH   1  23
ATOM     23  C   UNL A   1      38.273  22.619  25.890  1.00  0.00     0.042 C 
BRANCH  23  24
ATOM     24  C   UNL A   1      39.151  23.417  26.835  1.00  0.00     0.118 C 
BRANCH  24  25
ATOM     25  N   UNL A   1      40.508  23.585  26.330  1.00  0.00    -0.352 N 
ATOM     26  C   UNL A   1      41.391  24.630  26.465  1.00  0.00     0.251 C 
ATOM     27  H   UNL A   1      40.849  22.825  25.807  1.00  0.00     0.163 HD
ATOM     28  O   UNL A   1      42.409  24.649  25.768  1.00  0.00    -0.269 OA
BRANCH  26  29
ATOM     29  C   UNL A   1      41.127  25.739  27.410  1.00  0.00     0.039 A 
ATOM     30  C   UNL A   1      40.136  25.585  28.385  1.00  0.00     0.014 A 
ATOM     31  C   UNL A   1      41.841  26.934  27.338  1.00  0.00     0.014 A 
ATOM     32  C   UNL A   1      39.937  26.588  29.340  1.00  0.00     0.010 A 
ATOM     33  C   UNL A   1      41.719  27.883  28.349  1.00  0.00     0.010 A 
ATOM     34  C   UNL A   1      40.769  27.719  29.366  1.00  0.00    -0.014 A 
BRANCH  34  35
ATOM     35  C   UNL A   1      40.686  28.725  30.459  1.00  0.00     0.031 A 
ATOM     36  C   UNL A   1      41.560  28.598  31.679  1.00  0.00     0.074 A 
ATOM     37  C   UNL A   1      39.755  29.700  30.390  1.00  0.00     0.049 A 
ATOM     38  N   UNL A   1      41.557  29.314  32.775  1.00  0.00    -0.248 NA
ATOM     39  C   UNL A   1      42.548  27.504  31.686  1.00  0.00     0.031 C 
ATOM     40  C   UNL A   1      38.806  29.890  29.289  1.00  0.00     0.029 A 
ATOM     41  N   UNL A   1      39.439  30.706  31.270  1.00  0.00    -0.354 N 
ATOM     42  C   UNL A   1      42.520  28.749  33.603  1.00  0.00     0.074 A 
ATOM     43  C   UNL A   1      43.058  27.602  32.906  1.00  0.00     0.031 C 
ATOM     44  C   UNL A   1      38.031  30.954  29.550  1.00  0.00     0.029 A 
ATOM     45  C   UNL A   1      38.390  31.496  30.856  1.00  0.00     0.049 A 
ATOM     46  H   UNL A   1      39.916  30.849  32.119  1.00  0.00     0.167 HD
ATOM     47  C   UNL A   1      42.931  29.162  34.825  1.00  0.00     0.037 A 
ATOM     48  C   UNL A   1      37.772  32.527  31.465  1.00  0.00     0.037 A 
ATOM     49  C   UNL A   1      42.418  30.329  35.494  1.00  0.00     0.049 A 
ATOM     50  C   UNL A   1      38.255  32.964  32.823  1.00  0.00     0.074 A 
ATOM     51  C   UNL A   1      42.836  30.884  36.691  1.00  0.00     0.029 A 
ATOM     52  N   UNL A   1      41.377  31.118  35.030  1.00  0.00    -0.354 N 
ATOM     53  N   UNL A   1      39.233  32.473  33.548  1.00  0.00    -0.248 NA
ATOM     54  C   UNL A   1      37.553  34.095  33.447  1.00  0.00     0.031 C 
ATOM     55  C   UNL A   1      42.010  31.975  36.979  1.00  0.00     0.029 A 
ATOM     56  C   UNL A   1      41.113  32.133  35.934  1.00  0.00     0.049 A 
ATOM     57  H   UNL A   1      40.895  30.978  34.182  1.00  0.00     0.167 HD
ATOM     58  C   UNL A   1      39.273  33.247  34.703  1.00  0.00     0.074 A 
ATOM     59  C   UNL A   1      38.242  34.254  34.569  1.00  0.00     0.031 C 
ATOM     60  C   UNL A   1      40.086  33.131  35.781  1.00  0.00     0.037 A 
BRANCH  47  61
ATOM     61  C   UNL A   1      43.998  28.366  35.527  1.00  0.00     0.058 A 
ATOM     62  C   UNL A   1      43.679  27.316  36.402  1.00  0.00     0.135 A 
ATOM     63  C   UNL A   1      45.355  28.592  35.242  1.00  0.00     0.135 A 
ATOM     64  F   UNL A   1      42.399  27.067  36.722  1.00  0.00    -0.206 F 
ATOM     65  C   UNL A   1      44.667  26.520  36.973  1.00  0.00     0.059 A 
ATOM     66  C   UNL A   1      46.358  27.792  35.781  1.00  0.00     0.059 A 
ATOM     67  F   UNL A   1      45.716  29.586  34.416  1.00  0.00    -0.206 F 
ATOM     68  C   UNL A   1      46.004  26.759  36.648  1.00  0.00     0.060 A 
BRANCH  68  69
ATOM     69  S   UNL A   1      47.266  25.676  37.351  1.00  0.00     0.124 S 
ATOM     70  O   UNL A   1      46.856  24.375  36.830  1.00  0.00    -0.237 OA
ATOM     71  O   UNL A   1      48.495  26.225  36.786  1.00  0.00    -0.237 OA
ATOM     72  O   UNL A   1      47.105  25.854  38.790  1.00  0.00    -0.744 OA
ENDBRANCH  68  69
ENDBRANCH  47  61
BRANCH  48  73
ATOM     73  C   UNL A   1      36.624  33.214  30.812  1.00  0.00     0.058 A 
ATOM     74  C   UNL A   1      36.816  34.048  29.700  1.00  0.00     0.135 A 
ATOM     75  C   UNL A   1      35.317  33.077  31.304  1.00  0.00     0.135 A 
ATOM     76  F   UNL A   1      38.046  34.218  29.194  1.00  0.00    -0.206 F 
ATOM     77  C   UNL A   1      35.762  34.752  29.124  1.00  0.00     0.059 A 
ATOM     78  C   UNL A   1      34.241  33.745  30.726  1.00  0.00     0.059 A 
ATOM     79  F   UNL A   1      35.073  32.277  32.353  1.00  0.00    -0.206 F 
ATOM     80  C   UNL A   1      34.478  34.596  29.648  1.00  0.00     0.060 A 
BRANCH  80  81
ATOM     81  S   UNL A   1      33.116  35.511  28.893  1.00  0.00     0.124 S 
ATOM     82  O   UNL A   1      33.826  36.604  28.239  1.00  0.00    -0.237 OA
ATOM     83  O   UNL A   1      32.527  34.511  28.007  1.00  0.00    -0.237 OA
ATOM     84  O   UNL A   1      32.292  35.888  30.036  1.00  0.00    -0.744 OA
ENDBRANCH  80  81
ENDBRANCH  48  73
BRANCH  60  85
ATOM     85  C   UNL A   1      39.908  34.128  36.892  1.00  0.00     0.058 A 
ATOM     86  C   UNL A   1      40.476  35.410  36.827  1.00  0.00     0.135 A 
ATOM     87  C   UNL A   1      39.114  33.818  38.009  1.00  0.00     0.135 A 
ATOM     88  F   UNL A   1      41.250  35.753  35.785  1.00  0.00    -0.206 F 
ATOM     89  C   UNL A   1      40.285  36.340  37.842  1.00  0.00     0.059 A 
ATOM     90  C   UNL A   1      38.883  34.744  39.020  1.00  0.00     0.059 A 
ATOM     91  F   UNL A   1      38.539  32.610  38.115  1.00  0.00    -0.206 F 
ATOM     92  C   UNL A   1      39.483  36.000  38.933  1.00  0.00     0.060 A 
BRANCH  92  93
ATOM     93  S   UNL A   1      39.213  37.233  40.223  1.00  0.00     0.124 S 
ATOM     94  O   UNL A   1      38.404  36.485  41.180  1.00  0.00    -0.237 OA
ATOM     95  O   UNL A   1      40.575  37.542  40.649  1.00  0.00    -0.237 OA
ATOM     96  O   UNL A   1      38.522  38.312  39.524  1.00  0.00    -0.744 OA
ENDBRANCH  92  93
ENDBRANCH  60  85
ENDBRANCH  34  35
ENDBRANCH  26  29
ENDBRANCH  24  25
ENDBRANCH  23  24
ENDBRANCH   1  23
TORSDOF 19
ENDMDL
