MODEL 1
REMARK VINA RESULT:     -10.5      0.000      0.000
REMARK SMILES CC(C)(C)OC(=O)N1CCC(c2c(C(=O)NCCCNC(=O)c3ccc(-c4c5nc(c(-c6c(F)cc(S(=O)(=O)[O-])cc6F)c6ccc([nH]6)c(-c6c(F)cc(S(=O)(=O)[O-])cc6F)c6nc(c(-c7c(F)cc(S(=O)(=O)[O-])cc7F)c7ccc4[nH]7)C=C6)C=C5)cc3)cnn2-c2ccccc2)CC1
REMARK SMILES IDX 18 1 17 2 16 3 14 4 15 5 13 7 12 8 91 9 89 10 90 11 11 12
REMARK SMILES IDX 6 13 7 14 8 15 9 16 99 17 10 18 98 19 5 20 2 21 1 22 3 23
REMARK SMILES IDX 4 24 92 25 93 26 97 27 94 28 96 29 95 30 19 31 20 32 21 33
REMARK SMILES IDX 22 35 23 36 24 37 88 38 25 39 87 40 26 41 27 42 28 43 81 44
REMARK SMILES IDX 29 45 86 46 80 47 82 48 30 49 85 50 79 51 78 52 31 54 65 55
REMARK SMILES IDX 44 56 64 57 45 58 48 59 63 60 83 61 46 62 47 63 62 65 84 66
REMARK SMILES IDX 49 67 32 68 33 69 42 70 34 71 35 72 41 73 43 74 36 75 37 76
REMARK SMILES IDX 38 77 39 78 40 79 66 80 67 81 76 82 68 83 69 84 75 85 77 86
REMARK SMILES IDX 70 87 71 88 72 89 73 90 74 91 50 92 51 93 60 94 52 95 53 96
REMARK SMILES IDX 59 97 61 98 54 99 55 100 56 101 57 102 58 103
REMARK H PARENT 16 6 20 34 82 53 48 64
REMARK Flexibility Score: inf
ROOT
ATOM      1  C   UNL A   1      44.653  32.282  34.424  1.00  0.00     0.042 C 
ENDROOT
BRANCH   1   2
ATOM      2  C   UNL A   1      44.474  31.069  35.260  1.00  0.00     0.118 C 
BRANCH   2   3
ATOM      3  N   UNL A   1      43.462  31.259  36.252  1.00  0.00    -0.352 N 
ATOM      4  C   UNL A   1      42.305  30.574  36.430  1.00  0.00     0.254 C 
ATOM      5  O   UNL A   1      41.703  30.836  37.473  1.00  0.00    -0.269 OA
ATOM      6  H   UNL A   1      43.629  31.987  36.894  1.00  0.00     0.163 HD
BRANCH   4   7
ATOM      7  C   UNL A   1      41.858  29.565  35.461  1.00  0.00     0.081 A 
ATOM      8  C   UNL A   1      41.056  29.834  34.342  1.00  0.00     0.060 A 
ATOM      9  N   UNL A   1      40.806  28.597  33.750  1.00  0.00    -0.237 N 
ATOM     10  C   UNL A   1      42.064  28.166  35.354  1.00  0.00     0.149 A 
ATOM     11  N   UNL A   1      41.340  27.577  34.420  1.00  0.00    -0.175 NA
BRANCH   8  12
ATOM     12  C   UNL A   1      40.512  31.195  33.891  1.00  0.00     0.043 C 
ATOM     13  C   UNL A   1      37.983  32.565  30.952  1.00  0.00     0.410 C 
ATOM     14  O   UNL A   1      38.361  31.964  29.954  1.00  0.00    -0.224 OA
ATOM     15  N   UNL A   1      38.790  32.715  32.068  1.00  0.00    -0.308 N 
ATOM     16  C   UNL A   1      40.231  32.721  31.901  1.00  0.00     0.124 C 
ATOM     17  C   UNL A   1      38.336  32.584  33.441  1.00  0.00     0.124 C 
ATOM     18  C   UNL A   1      40.880  31.447  32.415  1.00  0.00     0.032 C 
ATOM     19  C   UNL A   1      38.996  31.356  34.046  1.00  0.00     0.032 C 
BRANCH  13  20
ATOM     20  O   UNL A   1      36.780  33.215  31.050  1.00  0.00    -0.444 OA
BRANCH  20  21
ATOM     21  C   UNL A   1      35.548  32.421  31.066  1.00  0.00     0.106 C 
ATOM     22  C   UNL A   1      34.615  33.014  32.143  1.00  0.00     0.056 C 
ATOM     23  C   UNL A   1      35.863  30.977  31.468  1.00  0.00     0.056 C 
ATOM     24  C   UNL A   1      34.775  32.469  29.736  1.00  0.00     0.056 C 
ENDBRANCH  20  21
ENDBRANCH  13  20
ENDBRANCH   8  12
BRANCH   9  25
ATOM     25  C   UNL A   1      40.159  28.259  32.557  1.00  0.00     0.065 A 
ATOM     26  C   UNL A   1      38.770  28.115  32.560  1.00  0.00     0.028 A 
ATOM     27  C   UNL A   1      40.908  28.153  31.386  1.00  0.00     0.028 A 
ATOM     28  C   UNL A   1      38.122  27.950  31.341  1.00  0.00     0.002 A 
ATOM     29  C   UNL A   1      40.239  28.139  30.170  1.00  0.00     0.002 A 
ATOM     30  C   UNL A   1      38.849  28.030  30.149  1.00  0.00     0.000 A 
ENDBRANCH   9  25
ENDBRANCH   4   7
ENDBRANCH   2   3
ENDBRANCH   1   2
BRANCH   1  31
ATOM     31  C   UNL A   1      45.547  31.876  33.333  1.00  0.00     0.118 C 
BRANCH  31  32
ATOM     32  N   UNL A   1      46.448  32.944  32.912  1.00  0.00    -0.352 N 
ATOM     33  C   UNL A   1      46.670  33.328  31.611  1.00  0.00     0.251 C 
ATOM     34  H   UNL A   1      46.935  33.430  33.616  1.00  0.00     0.163 HD
ATOM     35  O   UNL A   1      47.586  34.093  31.339  1.00  0.00    -0.269 OA
BRANCH  33  36
ATOM     36  C   UNL A   1      45.614  32.904  30.642  1.00  0.00     0.039 A 
ATOM     37  C   UNL A   1      44.286  32.995  30.893  1.00  0.00     0.014 A 
ATOM     38  C   UNL A   1      45.925  31.812  29.821  1.00  0.00     0.014 A 
ATOM     39  C   UNL A   1      43.557  31.711  30.580  1.00  0.00     0.010 A 
ATOM     40  C   UNL A   1      45.035  31.044  29.163  1.00  0.00     0.010 A 
ATOM     41  C   UNL A   1      44.283  30.419  30.091  1.00  0.00    -0.014 A 
BRANCH  41  42
ATOM     42  C   UNL A   1      44.078  28.698  29.447  1.00  0.00     0.031 A 
ATOM     43  C   UNL A   1      44.881  28.217  31.122  1.00  0.00     0.074 A 
ATOM     44  C   UNL A   1      43.419  27.940  28.099  1.00  0.00     0.049 A 
ATOM     45  N   UNL A   1      46.170  28.309  31.421  1.00  0.00    -0.248 NA
ATOM     46  C   UNL A   1      44.395  28.380  32.792  1.00  0.00     0.031 C 
ATOM     47  C   UNL A   1      42.409  28.106  26.619  1.00  0.00     0.029 A 
ATOM     48  N   UNL A   1      43.483  26.554  27.411  1.00  0.00    -0.354 N 
ATOM     49  C   UNL A   1      46.327  27.499  32.600  1.00  0.00     0.074 A 
ATOM     50  C   UNL A   1      45.348  27.791  33.542  1.00  0.00     0.031 C 
ATOM     51  C   UNL A   1      41.760  27.067  25.885  1.00  0.00     0.029 A 
ATOM     52  C   UNL A   1      42.390  25.892  26.574  1.00  0.00     0.049 A 
ATOM     53  H   UNL A   1      44.318  26.045  27.525  1.00  0.00     0.167 HD
ATOM     54  C   UNL A   1      46.775  26.234  32.494  1.00  0.00     0.037 A 
ATOM     55  C   UNL A   1      42.053  24.498  26.500  1.00  0.00     0.037 A 
ATOM     56  C   UNL A   1      47.281  26.138  31.172  1.00  0.00     0.049 A 
ATOM     57  C   UNL A   1      43.153  23.982  27.363  1.00  0.00     0.074 A 
ATOM     58  C   UNL A   1      48.234  26.899  30.530  1.00  0.00     0.029 A 
ATOM     59  N   UNL A   1      46.328  25.804  30.262  1.00  0.00    -0.354 N 
ATOM     60  N   UNL A   1      44.418  24.086  27.015  1.00  0.00    -0.248 NA
ATOM     61  C   UNL A   1      42.807  24.162  28.777  1.00  0.00     0.031 C 
ATOM     62  C   UNL A   1      47.793  27.058  29.197  1.00  0.00     0.029 A 
ATOM     63  C   UNL A   1      46.656  26.285  29.032  1.00  0.00     0.049 A 
ATOM     64  H   UNL A   1      45.515  25.287  30.465  1.00  0.00     0.167 HD
ATOM     65  C   UNL A   1      45.005  24.802  28.062  1.00  0.00     0.074 A 
ATOM     66  C   UNL A   1      43.946  24.749  29.179  1.00  0.00     0.031 C 
ATOM     67  C   UNL A   1      45.949  25.828  27.876  1.00  0.00     0.037 A 
BRANCH  54  68
ATOM     68  C   UNL A   1      46.407  25.045  33.327  1.00  0.00     0.058 A 
ATOM     69  C   UNL A   1      47.461  24.611  34.130  1.00  0.00     0.135 A 
ATOM     70  C   UNL A   1      45.250  24.222  33.293  1.00  0.00     0.135 A 
ATOM     71  F   UNL A   1      48.536  25.395  34.291  1.00  0.00    -0.206 F 
ATOM     72  C   UNL A   1      47.436  23.400  34.789  1.00  0.00     0.059 A 
ATOM     73  C   UNL A   1      45.169  23.033  34.024  1.00  0.00     0.059 A 
ATOM     74  F   UNL A   1      44.167  24.525  32.560  1.00  0.00    -0.206 F 
ATOM     75  C   UNL A   1      46.276  22.632  34.765  1.00  0.00     0.060 A 
BRANCH  75  76
ATOM     76  S   UNL A   1      46.226  21.177  35.825  1.00  0.00     0.124 S 
ATOM     77  O   UNL A   1      45.772  21.737  37.092  1.00  0.00    -0.237 OA
ATOM     78  O   UNL A   1      45.262  20.339  35.117  1.00  0.00    -0.237 OA
ATOM     79  O   UNL A   1      47.602  20.692  35.801  1.00  0.00    -0.744 OA
ENDBRANCH  75  76
ENDBRANCH  54  68
BRANCH  55  80
ATOM     80  C   UNL A   1      40.585  23.861  26.534  1.00  0.00     0.058 A 
ATOM     81  C   UNL A   1      39.270  24.433  26.653  1.00  0.00     0.135 A 
ATOM     82  C   UNL A   1      40.536  22.504  26.160  1.00  0.00     0.135 A 
ATOM     83  F   UNL A   1      39.094  25.716  27.019  1.00  0.00    -0.206 F 
ATOM     84  C   UNL A   1      38.059  23.702  26.376  1.00  0.00     0.059 A 
ATOM     85  C   UNL A   1      39.374  21.784  25.832  1.00  0.00     0.059 A 
ATOM     86  F   UNL A   1      41.680  21.828  26.020  1.00  0.00    -0.206 F 
ATOM     87  C   UNL A   1      38.134  22.394  25.896  1.00  0.00     0.060 A 
BRANCH  87  88
ATOM     88  S   UNL A   1      36.671  21.545  25.201  1.00  0.00     0.124 S 
ATOM     89  O   UNL A   1      35.659  21.752  26.231  1.00  0.00    -0.237 OA
ATOM     90  O   UNL A   1      36.461  22.268  23.952  1.00  0.00    -0.237 OA
ATOM     91  O   UNL A   1      37.120  20.163  25.046  1.00  0.00    -0.744 OA
ENDBRANCH  87  88
ENDBRANCH  55  80
BRANCH  67  92
ATOM     92  C   UNL A   1      46.513  26.348  26.500  1.00  0.00     0.058 A 
ATOM     93  C   UNL A   1      46.345  27.596  25.819  1.00  0.00     0.135 A 
ATOM     94  C   UNL A   1      47.444  25.518  25.888  1.00  0.00     0.135 A 
ATOM     95  F   UNL A   1      45.813  28.666  26.413  1.00  0.00    -0.206 F 
ATOM     96  C   UNL A   1      46.791  27.851  24.513  1.00  0.00     0.059 A 
ATOM     97  C   UNL A   1      48.019  25.800  24.646  1.00  0.00     0.059 A 
ATOM     98  F   UNL A   1      47.879  24.432  26.541  1.00  0.00    -0.206 F 
ATOM     99  C   UNL A   1      47.655  26.941  23.939  1.00  0.00     0.060 A 
BRANCH  99 100
ATOM    100  S   UNL A   1      48.400  27.320  22.338  1.00  0.00     0.124 S 
ATOM    101  O   UNL A   1      49.614  28.034  22.719  1.00  0.00    -0.237 OA
ATOM    102  O   UNL A   1      48.605  25.991  21.769  1.00  0.00    -0.237 OA
ATOM    103  O   UNL A   1      47.379  28.126  21.677  1.00  0.00    -0.744 OA
ENDBRANCH  99 100
ENDBRANCH  67  92
ENDBRANCH  41  42
ENDBRANCH  33  36
ENDBRANCH  31  32
ENDBRANCH   1  31
TORSDOF 17
ENDMDL
MODEL 2
REMARK VINA RESULT:     -10.0      3.052      8.367
REMARK SMILES CC(C)(C)OC(=O)N1CCC(c2c(C(=O)NCCCNC(=O)c3ccc(-c4c5nc(c(-c6c(F)cc(S(=O)(=O)[O-])cc6F)c6ccc([nH]6)c(-c6c(F)cc(S(=O)(=O)[O-])cc6F)c6nc(c(-c7c(F)cc(S(=O)(=O)[O-])cc7F)c7ccc4[nH]7)C=C6)C=C5)cc3)cnn2-c2ccccc2)CC1
REMARK SMILES IDX 18 1 17 2 16 3 14 4 15 5 13 7 12 8 91 9 89 10 90 11 11 12
REMARK SMILES IDX 6 13 7 14 8 15 9 16 99 17 10 18 98 19 5 20 2 21 1 22 3 23
REMARK SMILES IDX 4 24 92 25 93 26 97 27 94 28 96 29 95 30 19 31 20 32 21 33
REMARK SMILES IDX 22 35 23 36 24 37 88 38 25 39 87 40 26 41 27 42 28 43 81 44
REMARK SMILES IDX 29 45 86 46 80 47 82 48 30 49 85 50 79 51 78 52 31 54 65 55
REMARK SMILES IDX 44 56 64 57 45 58 48 59 63 60 83 61 46 62 47 63 62 65 84 66
REMARK SMILES IDX 49 67 32 68 33 69 42 70 34 71 35 72 41 73 43 74 36 75 37 76
REMARK SMILES IDX 38 77 39 78 40 79 66 80 67 81 76 82 68 83 69 84 75 85 77 86
REMARK SMILES IDX 70 87 71 88 72 89 73 90 74 91 50 92 51 93 60 94 52 95 53 96
REMARK SMILES IDX 59 97 61 98 54 99 55 100 56 101 57 102 58 103
REMARK H PARENT 16 6 20 34 82 53 48 64
REMARK Flexibility Score: inf
ROOT
ATOM      1  C   UNL A   1      43.275  29.985  35.150  1.00  0.00     0.042 C 
ENDROOT
BRANCH   1   2
ATOM      2  C   UNL A   1      42.130  30.625  34.455  1.00  0.00     0.118 C 
BRANCH   2   3
ATOM      3  N   UNL A   1      40.959  30.638  35.274  1.00  0.00    -0.352 N 
ATOM      4  C   UNL A   1      39.707  30.207  34.976  1.00  0.00     0.254 C 
ATOM      5  O   UNL A   1      38.929  30.175  35.931  1.00  0.00    -0.269 OA
ATOM      6  H   UNL A   1      41.076  31.011  36.177  1.00  0.00     0.163 HD
BRANCH   4   7
ATOM      7  C   UNL A   1      39.354  29.766  33.620  1.00  0.00     0.081 A 
ATOM      8  C   UNL A   1      38.499  30.462  32.753  1.00  0.00     0.060 A 
ATOM      9  N   UNL A   1      38.376  29.662  31.619  1.00  0.00    -0.237 N 
ATOM     10  C   UNL A   1      39.714  28.636  32.844  1.00  0.00     0.149 A 
ATOM     11  N   UNL A   1      39.038  28.510  31.716  1.00  0.00    -0.175 NA
BRANCH   8  12
ATOM     12  C   UNL A   1      37.793  31.799  33.015  1.00  0.00     0.043 C 
ATOM     13  C   UNL A   1      34.850  34.018  31.192  1.00  0.00     0.410 C 
ATOM     14  O   UNL A   1      35.168  33.988  30.010  1.00  0.00    -0.224 OA
ATOM     15  N   UNL A   1      35.758  33.748  32.203  1.00  0.00    -0.308 N 
ATOM     16  C   UNL A   1      37.166  34.012  31.976  1.00  0.00     0.124 C 
ATOM     17  C   UNL A   1      35.470  32.952  33.384  1.00  0.00     0.124 C 
ATOM     18  C   UNL A   1      37.975  32.737  31.804  1.00  0.00     0.032 C 
ATOM     19  C   UNL A   1      36.295  31.679  33.313  1.00  0.00     0.032 C 
BRANCH  13  20
ATOM     20  O   UNL A   1      33.614  34.395  31.648  1.00  0.00    -0.444 OA
BRANCH  20  21
ATOM     21  C   UNL A   1      33.306  35.824  31.753  1.00  0.00     0.106 C 
ATOM     22  C   UNL A   1      31.937  35.966  32.453  1.00  0.00     0.056 C 
ATOM     23  C   UNL A   1      33.178  36.435  30.355  1.00  0.00     0.056 C 
ATOM     24  C   UNL A   1      34.322  36.604  32.608  1.00  0.00     0.056 C 
ENDBRANCH  20  21
ENDBRANCH  13  20
ENDBRANCH   8  12
BRANCH   9  25
ATOM     25  C   UNL A   1      37.742  29.888  30.394  1.00  0.00     0.065 A 
ATOM     26  C   UNL A   1      38.520  30.187  29.274  1.00  0.00     0.028 A 
ATOM     27  C   UNL A   1      36.358  29.732  30.308  1.00  0.00     0.028 A 
ATOM     28  C   UNL A   1      37.898  30.239  28.032  1.00  0.00     0.002 A 
ATOM     29  C   UNL A   1      35.779  29.639  29.050  1.00  0.00     0.002 A 
ATOM     30  C   UNL A   1      36.546  29.900  27.916  1.00  0.00     0.000 A 
ENDBRANCH   9  25
ENDBRANCH   4   7
ENDBRANCH   2   3
ENDBRANCH   1   2
BRANCH   1  31
ATOM     31  C   UNL A   1      43.279  28.590  34.693  1.00  0.00     0.118 C 
BRANCH  31  32
ATOM     32  N   UNL A   1      43.106  27.636  35.784  1.00  0.00    -0.352 N 
ATOM     33  C   UNL A   1      43.716  26.408  35.867  1.00  0.00     0.251 C 
ATOM     34  H   UNL A   1      42.505  27.894  36.520  1.00  0.00     0.163 HD
ATOM     35  O   UNL A   1      43.360  25.596  36.712  1.00  0.00    -0.269 OA
BRANCH  33  36
ATOM     36  C   UNL A   1      44.927  26.248  35.007  1.00  0.00     0.039 A 
ATOM     37  C   UNL A   1      46.047  26.998  35.140  1.00  0.00     0.014 A 
ATOM     38  C   UNL A   1      44.700  25.867  33.677  1.00  0.00     0.014 A 
ATOM     39  C   UNL A   1      46.518  27.559  33.821  1.00  0.00     0.010 A 
ATOM     40  C   UNL A   1      45.565  26.019  32.656  1.00  0.00     0.010 A 
ATOM     41  C   UNL A   1      45.748  27.343  32.481  1.00  0.00    -0.014 A 
BRANCH  41  42
ATOM     42  C   UNL A   1      45.771  27.575  30.647  1.00  0.00     0.031 A 
ATOM     43  C   UNL A   1      45.077  29.310  31.083  1.00  0.00     0.074 A 
ATOM     44  C   UNL A   1      46.257  26.715  29.287  1.00  0.00     0.049 A 
ATOM     45  N   UNL A   1      43.829  29.582  31.438  1.00  0.00    -0.248 NA
ATOM     46  C   UNL A   1      45.713  30.687  31.951  1.00  0.00     0.031 C 
ATOM     47  C   UNL A   1      47.149  25.292  28.641  1.00  0.00     0.029 A 
ATOM     48  N   UNL A   1      46.033  26.761  27.754  1.00  0.00    -0.354 N 
ATOM     49  C   UNL A   1      43.712  31.008  31.288  1.00  0.00     0.074 A 
ATOM     50  C   UNL A   1      44.785  31.663  31.879  1.00  0.00     0.031 C 
ATOM     51  C   UNL A   1      47.655  25.106  27.319  1.00  0.00     0.029 A 
ATOM     52  C   UNL A   1      47.000  26.290  26.670  1.00  0.00     0.049 A 
ATOM     53  H   UNL A   1      45.176  27.134  27.446  1.00  0.00     0.167 HD
ATOM     54  C   UNL A   1      43.164  31.526  30.172  1.00  0.00     0.037 A 
ATOM     55  C   UNL A   1      47.226  26.866  25.374  1.00  0.00     0.037 A 
ATOM     56  C   UNL A   1      42.544  30.424  29.528  1.00  0.00     0.049 A 
ATOM     57  C   UNL A   1      46.167  27.913  25.435  1.00  0.00     0.074 A 
ATOM     58  C   UNL A   1      41.599  29.539  29.999  1.00  0.00     0.029 A 
ATOM     59  N   UNL A   1      43.390  29.741  28.713  1.00  0.00    -0.354 N 
ATOM     60  N   UNL A   1      44.889  27.608  25.497  1.00  0.00    -0.248 NA
ATOM     61  C   UNL A   1      46.643  29.062  26.213  1.00  0.00     0.031 C 
ATOM     62  C   UNL A   1      41.937  28.271  29.476  1.00  0.00     0.029 A 
ATOM     63  C   UNL A   1      42.997  28.443  28.600  1.00  0.00     0.049 A 
ATOM     64  H   UNL A   1      44.177  30.131  28.267  1.00  0.00     0.167 HD
ATOM     65  C   UNL A   1      44.447  28.218  26.673  1.00  0.00     0.074 A 
ATOM     66  C   UNL A   1      45.589  29.186  27.033  1.00  0.00     0.031 C 
ATOM     67  C   UNL A   1      43.568  27.610  27.588  1.00  0.00     0.037 A 
BRANCH  54  68
ATOM     68  C   UNL A   1      43.512  32.804  29.474  1.00  0.00     0.058 A 
ATOM     69  C   UNL A   1      42.616  33.831  29.765  1.00  0.00     0.135 A 
ATOM     70  C   UNL A   1      44.478  33.067  28.466  1.00  0.00     0.135 A 
ATOM     71  F   UNL A   1      41.752  33.687  30.781  1.00  0.00    -0.206 F 
ATOM     72  C   UNL A   1      42.590  35.013  29.054  1.00  0.00     0.059 A 
ATOM     73  C   UNL A   1      44.527  34.292  27.793  1.00  0.00     0.059 A 
ATOM     74  F   UNL A   1      45.397  32.163  28.090  1.00  0.00    -0.206 F 
ATOM     75  C   UNL A   1      43.569  35.255  28.096  1.00  0.00     0.060 A 
BRANCH  75  76
ATOM     76  S   UNL A   1      43.621  36.900  27.365  1.00  0.00     0.124 S 
ATOM     77  O   UNL A   1      45.029  37.035  27.014  1.00  0.00    -0.237 OA
ATOM     78  O   UNL A   1      42.698  36.744  26.244  1.00  0.00    -0.237 OA
ATOM     79  O   UNL A   1      43.148  37.764  28.440  1.00  0.00    -0.744 OA
ENDBRANCH  75  76
ENDBRANCH  54  68
BRANCH  55  80
ATOM     80  C   UNL A   1      48.642  27.137  24.676  1.00  0.00     0.058 A 
ATOM     81  C   UNL A   1      50.000  26.920  25.097  1.00  0.00     0.135 A 
ATOM     82  C   UNL A   1      48.559  27.441  23.304  1.00  0.00     0.135 A 
ATOM     83  F   UNL A   1      50.300  26.634  26.377  1.00  0.00    -0.206 F 
ATOM     84  C   UNL A   1      51.127  26.971  24.199  1.00  0.00     0.059 A 
ATOM     85  C   UNL A   1      49.632  27.444  22.397  1.00  0.00     0.059 A 
ATOM     86  F   UNL A   1      47.360  27.681  22.763  1.00  0.00    -0.206 F 
ATOM     87  C   UNL A   1      50.915  27.165  22.834  1.00  0.00     0.060 A 
BRANCH  87  88
ATOM     88  S   UNL A   1      52.248  26.892  21.611  1.00  0.00     0.124 S 
ATOM     89  O   UNL A   1      51.535  26.299  20.485  1.00  0.00    -0.237 OA
ATOM     90  O   UNL A   1      52.754  28.244  21.401  1.00  0.00    -0.237 OA
ATOM     91  O   UNL A   1      53.167  25.991  22.304  1.00  0.00    -0.744 OA
ENDBRANCH  87  88
ENDBRANCH  55  80
BRANCH  67  92
ATOM     92  C   UNL A   1      42.930  26.175  27.467  1.00  0.00     0.058 A 
ATOM     93  C   UNL A   1      43.100  24.993  28.258  1.00  0.00     0.135 A 
ATOM     94  C   UNL A   1      41.926  26.050  26.515  1.00  0.00     0.135 A 
ATOM     95  F   UNL A   1      43.714  25.011  29.443  1.00  0.00    -0.206 F 
ATOM     96  C   UNL A   1      42.574  23.736  27.925  1.00  0.00     0.059 A 
ATOM     97  C   UNL A   1      41.278  24.842  26.243  1.00  0.00     0.059 A 
ATOM     98  F   UNL A   1      41.495  27.143  25.873  1.00  0.00    -0.206 F 
ATOM     99  C   UNL A   1      41.637  23.677  26.914  1.00  0.00     0.060 A 
BRANCH  99 100
ATOM    100  S   UNL A   1      40.797  22.115  26.578  1.00  0.00     0.124 S 
ATOM    101  O   UNL A   1      41.714  21.461  25.649  1.00  0.00    -0.237 OA
ATOM    102  O   UNL A   1      40.715  21.514  27.906  1.00  0.00    -0.237 OA
ATOM    103  O   UNL A   1      39.521  22.536  26.009  1.00  0.00    -0.744 OA
ENDBRANCH  99 100
ENDBRANCH  67  92
ENDBRANCH  41  42
ENDBRANCH  33  36
ENDBRANCH  31  32
ENDBRANCH   1  31
TORSDOF 17
ENDMDL
MODEL 3
REMARK VINA RESULT:      -9.9      4.992     11.979
REMARK SMILES CC(C)(C)OC(=O)N1CCC(c2c(C(=O)NCCCNC(=O)c3ccc(-c4c5nc(c(-c6c(F)cc(S(=O)(=O)[O-])cc6F)c6ccc([nH]6)c(-c6c(F)cc(S(=O)(=O)[O-])cc6F)c6nc(c(-c7c(F)cc(S(=O)(=O)[O-])cc7F)c7ccc4[nH]7)C=C6)C=C5)cc3)cnn2-c2ccccc2)CC1
REMARK SMILES IDX 18 1 17 2 16 3 14 4 15 5 13 7 12 8 91 9 89 10 90 11 11 12
REMARK SMILES IDX 6 13 7 14 8 15 9 16 99 17 10 18 98 19 5 20 2 21 1 22 3 23
REMARK SMILES IDX 4 24 92 25 93 26 97 27 94 28 96 29 95 30 19 31 20 32 21 33
REMARK SMILES IDX 22 35 23 36 24 37 88 38 25 39 87 40 26 41 27 42 28 43 81 44
REMARK SMILES IDX 29 45 86 46 80 47 82 48 30 49 85 50 79 51 78 52 31 54 65 55
REMARK SMILES IDX 44 56 64 57 45 58 48 59 63 60 83 61 46 62 47 63 62 65 84 66
REMARK SMILES IDX 49 67 32 68 33 69 42 70 34 71 35 72 41 73 43 74 36 75 37 76
REMARK SMILES IDX 38 77 39 78 40 79 66 80 67 81 76 82 68 83 69 84 75 85 77 86
REMARK SMILES IDX 70 87 71 88 72 89 73 90 74 91 50 92 51 93 60 94 52 95 53 96
REMARK SMILES IDX 59 97 61 98 54 99 55 100 56 101 57 102 58 103
REMARK H PARENT 16 6 20 34 82 53 48 64
REMARK Flexibility Score: inf
ROOT
ATOM      1  C   UNL A   1      40.171  22.964  27.141  1.00  0.00     0.042 C 
ENDROOT
BRANCH   1   2
ATOM      2  C   UNL A   1      39.073  22.188  26.511  1.00  0.00     0.118 C 
BRANCH   2   3
ATOM      3  N   UNL A   1      38.273  23.009  25.657  1.00  0.00    -0.352 N 
ATOM      4  C   UNL A   1      37.185  22.665  24.923  1.00  0.00     0.254 C 
ATOM      5  O   UNL A   1      36.583  23.612  24.414  1.00  0.00    -0.269 OA
ATOM      6  H   UNL A   1      38.549  23.951  25.593  1.00  0.00     0.163 HD
BRANCH   4   7
ATOM      7  C   UNL A   1      36.751  21.267  24.807  1.00  0.00     0.081 A 
ATOM      8  C   UNL A   1      35.416  20.838  24.868  1.00  0.00     0.060 A 
ATOM      9  N   UNL A   1      35.462  19.447  24.798  1.00  0.00    -0.237 N 
ATOM     10  C   UNL A   1      37.450  20.047  24.621  1.00  0.00     0.149 A 
ATOM     11  N   UNL A   1      36.702  18.965  24.744  1.00  0.00    -0.175 NA
BRANCH   8  12
ATOM     12  C   UNL A   1      34.165  21.710  25.037  1.00  0.00     0.043 C 
ATOM     13  C   UNL A   1      33.329  25.735  25.112  1.00  0.00     0.410 C 
ATOM     14  O   UNL A   1      34.203  26.190  25.840  1.00  0.00    -0.224 OA
ATOM     15  N   UNL A   1      32.987  24.393  25.128  1.00  0.00    -0.308 N 
ATOM     16  C   UNL A   1      33.179  23.629  26.345  1.00  0.00     0.124 C 
ATOM     17  C   UNL A   1      32.711  23.596  23.945  1.00  0.00     0.124 C 
ATOM     18  C   UNL A   1      34.341  22.656  26.242  1.00  0.00     0.032 C 
ATOM     19  C   UNL A   1      33.806  22.552  23.808  1.00  0.00     0.032 C 
BRANCH  13  20
ATOM     20  O   UNL A   1      32.550  26.494  24.279  1.00  0.00    -0.444 OA
BRANCH  20  21
ATOM     21  C   UNL A   1      31.353  27.139  24.826  1.00  0.00     0.106 C 
ATOM     22  C   UNL A   1      30.122  26.336  24.353  1.00  0.00     0.056 C 
ATOM     23  C   UNL A   1      31.224  28.560  24.267  1.00  0.00     0.056 C 
ATOM     24  C   UNL A   1      31.313  27.144  26.365  1.00  0.00     0.056 C 
ENDBRANCH  20  21
ENDBRANCH  13  20
ENDBRANCH   8  12
BRANCH   9  25
ATOM     25  C   UNL A   1      34.443  18.494  24.708  1.00  0.00     0.065 A 
ATOM     26  C   UNL A   1      34.572  17.450  23.791  1.00  0.00     0.028 A 
ATOM     27  C   UNL A   1      33.365  18.569  25.591  1.00  0.00     0.028 A 
ATOM     28  C   UNL A   1      33.642  16.418  23.830  1.00  0.00     0.002 A 
ATOM     29  C   UNL A   1      32.535  17.464  25.719  1.00  0.00     0.002 A 
ATOM     30  C   UNL A   1      32.669  16.395  24.835  1.00  0.00     0.000 A 
ENDBRANCH   9  25
ENDBRANCH   4   7
ENDBRANCH   2   3
ENDBRANCH   1   2
BRANCH   1  31
ATOM     31  C   UNL A   1      41.230  23.036  26.127  1.00  0.00     0.118 C 
BRANCH  31  32
ATOM     32  N   UNL A   1      42.545  23.302  26.701  1.00  0.00    -0.352 N 
ATOM     33  C   UNL A   1      43.207  24.505  26.641  1.00  0.00     0.251 C 
ATOM     34  H   UNL A   1      42.994  22.562  27.169  1.00  0.00     0.163 HD
ATOM     35  O   UNL A   1      44.383  24.581  26.973  1.00  0.00    -0.269 OA
BRANCH  33  36
ATOM     36  C   UNL A   1      42.341  25.685  26.343  1.00  0.00     0.039 A 
ATOM     37  C   UNL A   1      42.661  26.642  25.440  1.00  0.00     0.014 A 
ATOM     38  C   UNL A   1      41.595  26.196  27.414  1.00  0.00     0.014 A 
ATOM     39  C   UNL A   1      42.499  28.033  26.001  1.00  0.00     0.010 A 
ATOM     40  C   UNL A   1      41.056  27.428  27.481  1.00  0.00     0.010 A 
ATOM     41  C   UNL A   1      42.075  28.312  27.477  1.00  0.00    -0.014 A 
BRANCH  41  42
ATOM     42  C   UNL A   1      41.588  29.596  28.715  1.00  0.00     0.031 A 
ATOM     43  C   UNL A   1      43.130  30.513  28.035  1.00  0.00     0.074 A 
ATOM     44  C   UNL A   1      40.346  29.859  29.816  1.00  0.00     0.049 A 
ATOM     45  N   UNL A   1      44.393  30.232  28.326  1.00  0.00    -0.248 NA
ATOM     46  C   UNL A   1      43.550  31.192  26.481  1.00  0.00     0.031 C 
ATOM     47  C   UNL A   1      38.726  29.350  30.413  1.00  0.00     0.029 A 
ATOM     48  N   UNL A   1      40.066  30.765  31.042  1.00  0.00    -0.354 N 
ATOM     49  C   UNL A   1      45.130  31.392  27.899  1.00  0.00     0.074 A 
ATOM     50  C   UNL A   1      44.756  31.779  26.617  1.00  0.00     0.031 C 
ATOM     51  C   UNL A   1      37.805  30.113  31.193  1.00  0.00     0.029 A 
ATOM     52  C   UNL A   1      38.706  31.268  31.521  1.00  0.00     0.049 A 
ATOM     53  H   UNL A   1      40.849  31.046  31.568  1.00  0.00     0.167 HD
ATOM     54  C   UNL A   1      45.473  32.339  28.793  1.00  0.00     0.037 A 
ATOM     55  C   UNL A   1      38.390  32.538  32.111  1.00  0.00     0.037 A 
ATOM     56  C   UNL A   1      45.245  31.741  30.059  1.00  0.00     0.049 A 
ATOM     57  C   UNL A   1      39.779  33.072  32.190  1.00  0.00     0.074 A 
ATOM     58  C   UNL A   1      45.738  30.568  30.588  1.00  0.00     0.029 A 
ATOM     59  N   UNL A   1      43.966  31.893  30.495  1.00  0.00    -0.354 N 
ATOM     60  N   UNL A   1      40.695  32.516  32.955  1.00  0.00    -0.248 NA
ATOM     61  C   UNL A   1      40.191  33.593  30.883  1.00  0.00     0.031 C 
ATOM     62  C   UNL A   1      44.685  29.983  31.326  1.00  0.00     0.029 A 
ATOM     63  C   UNL A   1      43.625  30.876  31.332  1.00  0.00     0.049 A 
ATOM     64  H   UNL A   1      43.370  32.635  30.239  1.00  0.00     0.167 HD
ATOM     65  C   UNL A   1      41.723  32.181  32.069  1.00  0.00     0.074 A 
ATOM     66  C   UNL A   1      41.372  32.962  30.790  1.00  0.00     0.031 C 
ATOM     67  C   UNL A   1      42.437  30.970  32.120  1.00  0.00     0.037 A 
BRANCH  54  68
ATOM     68  C   UNL A   1      45.586  33.817  28.583  1.00  0.00     0.058 A 
ATOM     69  C   UNL A   1      44.357  34.409  28.296  1.00  0.00     0.135 A 
ATOM     70  C   UNL A   1      46.735  34.644  28.465  1.00  0.00     0.135 A 
ATOM     71  F   UNL A   1      43.226  33.716  28.493  1.00  0.00    -0.206 F 
ATOM     72  C   UNL A   1      44.252  35.702  27.827  1.00  0.00     0.059 A 
ATOM     73  C   UNL A   1      46.644  35.983  28.076  1.00  0.00     0.059 A 
ATOM     74  F   UNL A   1      47.977  34.196  28.711  1.00  0.00    -0.206 F 
ATOM     75  C   UNL A   1      45.391  36.497  27.754  1.00  0.00     0.060 A 
BRANCH  75  76
ATOM     76  S   UNL A   1      45.160  38.237  27.353  1.00  0.00     0.124 S 
ATOM     77  O   UNL A   1      46.186  38.457  26.341  1.00  0.00    -0.237 OA
ATOM     78  O   UNL A   1      43.781  38.240  26.872  1.00  0.00    -0.237 OA
ATOM     79  O   UNL A   1      45.371  38.911  28.629  1.00  0.00    -0.744 OA
ENDBRANCH  75  76
ENDBRANCH  54  68
BRANCH  55  80
ATOM     80  C   UNL A   1      37.144  33.479  31.755  1.00  0.00     0.058 A 
ATOM     81  C   UNL A   1      36.168  33.457  30.698  1.00  0.00     0.135 A 
ATOM     82  C   UNL A   1      36.786  34.374  32.782  1.00  0.00     0.135 A 
ATOM     83  F   UNL A   1      36.330  32.680  29.612  1.00  0.00    -0.206 F 
ATOM     84  C   UNL A   1      34.954  34.235  30.723  1.00  0.00     0.059 A 
ATOM     85  C   UNL A   1      35.586  35.102  32.857  1.00  0.00     0.059 A 
ATOM     86  F   UNL A   1      37.600  34.516  33.833  1.00  0.00    -0.206 F 
ATOM     87  C   UNL A   1      34.645  35.000  31.847  1.00  0.00     0.060 A 
BRANCH  87  88
ATOM     88  S   UNL A   1      32.980  35.719  32.086  1.00  0.00     0.124 S 
ATOM     89  O   UNL A   1      32.547  35.987  30.719  1.00  0.00    -0.237 OA
ATOM     90  O   UNL A   1      32.277  34.643  32.775  1.00  0.00    -0.237 OA
ATOM     91  O   UNL A   1      33.235  36.908  32.897  1.00  0.00    -0.744 OA
ENDBRANCH  87  88
ENDBRANCH  55  80
BRANCH  67  92
ATOM     92  C   UNL A   1      42.227  29.798  33.152  1.00  0.00     0.058 A 
ATOM     93  C   UNL A   1      41.747  28.460  32.980  1.00  0.00     0.135 A 
ATOM     94  C   UNL A   1      42.707  30.041  34.433  1.00  0.00     0.135 A 
ATOM     95  F   UNL A   1      41.604  27.903  31.776  1.00  0.00    -0.206 F 
ATOM     96  C   UNL A   1      41.468  27.577  34.035  1.00  0.00     0.059 A 
ATOM     97  C   UNL A   1      42.572  29.131  35.485  1.00  0.00     0.059 A 
ATOM     98  F   UNL A   1      43.403  31.162  34.667  1.00  0.00    -0.206 F 
ATOM     99  C   UNL A   1      41.910  27.922  35.297  1.00  0.00     0.060 A 
BRANCH  99 100
ATOM    100  S   UNL A   1      41.739  26.736  36.647  1.00  0.00     0.124 S 
ATOM    101  O   UNL A   1      43.007  26.883  37.355  1.00  0.00    -0.237 OA
ATOM    102  O   UNL A   1      40.564  27.237  37.354  1.00  0.00    -0.237 OA
ATOM    103  O   UNL A   1      41.551  25.465  35.954  1.00  0.00    -0.744 OA
ENDBRANCH  99 100
ENDBRANCH  67  92
ENDBRANCH  41  42
ENDBRANCH  33  36
ENDBRANCH  31  32
ENDBRANCH   1  31
TORSDOF 17
ENDMDL
