MODEL 1
REMARK VINA RESULT:     -12.2      0.000      0.000
REMARK SMILES Cc1cc(=O)n2nc(C[N@@H+](C)CC(=O)NCCCNC(=O)c3ccc(-c4c5nc(c(-c6c(F)cc(S(=O)(=O)[O-])cc6F)c6ccc([nH]6)c(-c6c(F)cc(S(=O)(=O)[O-])cc6F)c6nc(c(-c7c(F)cc(S(=O)(=O)[O-])cc7F)c7ccc4[nH]7)C=C6)C=C5)cc3)sc2n1
REMARK SMILES IDX 17 1 16 2 15 3 13 4 14 5 12 7 10 8 11 9 9 11 8 12 1 13 2 14
REMARK SMILES IDX 3 15 90 16 4 17 89 18 5 19 6 20 88 21 7 22 18 23 19 24 20 25
REMARK SMILES IDX 21 27 22 28 23 29 87 30 24 31 86 32 25 33 26 34 27 35 80 36
REMARK SMILES IDX 28 37 85 38 79 39 81 40 29 41 84 42 78 43 77 44 30 46 64 47
REMARK SMILES IDX 43 48 63 49 44 50 47 51 62 52 82 53 45 54 46 55 61 57 83 58
REMARK SMILES IDX 48 59 31 60 32 61 41 62 33 63 34 64 40 65 42 66 35 67 36 68
REMARK SMILES IDX 37 69 38 70 39 71 65 72 66 73 75 74 67 75 68 76 74 77 76 78
REMARK SMILES IDX 69 79 70 80 71 81 72 82 73 83 49 84 50 85 59 86 51 87 52 88
REMARK SMILES IDX 58 89 60 90 53 91 54 92 55 93 56 94 57 95
REMARK H PARENT 15 6 10 10 19 26 81 45 47 56
REMARK Flexibility Score: inf
ROOT
ATOM      1  C   UNL A   1      38.680  21.500  25.738  1.00  0.00     0.042 C 
ENDROOT
BRANCH   1   2
ATOM      2  C   UNL A   1      37.459  22.363  25.423  1.00  0.00     0.118 C 
BRANCH   2   3
ATOM      3  N   UNL A   1      36.353  22.112  26.331  1.00  0.00    -0.351 N 
ATOM      4  C   UNL A   1      35.171  21.471  26.117  1.00  0.00     0.275 C 
ATOM      5  O   UNL A   1      34.379  21.400  27.058  1.00  0.00    -0.269 OA
ATOM      6  H   UNL A   1      36.478  22.460  27.242  1.00  0.00     0.163 HD
BRANCH   4   7
ATOM      7  C   UNL A   1      34.846  20.838  24.764  1.00  0.00     0.363 C 
BRANCH   7   8
ATOM      8  N   UNL A   1      33.751  19.857  24.769  1.00  0.00    -0.324 N 
ATOM      9  C   UNL A   1      34.105  18.457  24.756  1.00  0.00     0.333 C 
ATOM     10  H   UNL A   1      33.426  19.992  25.726  1.00  0.00     0.348 HD
BRANCH   8  11
ATOM     11  C   UNL A   1      32.588  20.181  23.930  1.00  0.00     0.333 C 
BRANCH  11  12
ATOM     12  C   UNL A   1      32.128  21.578  24.246  1.00  0.00     0.172 A 
ATOM     13  C   UNL A   1      30.184  27.221  24.313  1.00  0.00     0.067 C 
ATOM     14  C   UNL A   1      30.540  25.819  24.715  1.00  0.00     0.046 A 
ATOM     15  C   UNL A   1      30.208  25.331  25.920  1.00  0.00     0.097 A 
ATOM     16  N   UNL A   1      31.215  25.105  23.754  1.00  0.00    -0.224 NA
ATOM     17  C   UNL A   1      30.545  23.926  26.267  1.00  0.00     0.275 A 
ATOM     18  C   UNL A   1      31.508  23.889  24.073  1.00  0.00     0.215 A 
ATOM     19  O   UNL A   1      30.218  23.484  27.351  1.00  0.00    -0.267 OA
ATOM     20  N   UNL A   1      31.207  23.264  25.250  1.00  0.00    -0.167 N 
ATOM     21  S   UNL A   1      32.354  22.814  23.020  1.00  0.00    -0.073 S 
ATOM     22  N   UNL A   1      31.551  21.938  25.350  1.00  0.00    -0.150 NA
ENDBRANCH  11  12
ENDBRANCH   8  11
ENDBRANCH   7   8
ENDBRANCH   4   7
ENDBRANCH   2   3
ENDBRANCH   1   2
BRANCH   1  23
ATOM     23  C   UNL A   1      39.688  22.196  26.624  1.00  0.00     0.118 C 
BRANCH  23  24
ATOM     24  N   UNL A   1      41.062  22.134  26.141  1.00  0.00    -0.352 N 
ATOM     25  C   UNL A   1      41.963  23.188  26.074  1.00  0.00     0.251 C 
ATOM     26  H   UNL A   1      41.384  21.257  25.830  1.00  0.00     0.163 HD
ATOM     27  O   UNL A   1      42.951  23.117  25.356  1.00  0.00    -0.269 OA
BRANCH  25  28
ATOM     28  C   UNL A   1      41.679  24.399  26.872  1.00  0.00     0.039 A 
ATOM     29  C   UNL A   1      42.304  24.652  28.093  1.00  0.00     0.014 A 
ATOM     30  C   UNL A   1      40.804  25.333  26.329  1.00  0.00     0.014 A 
ATOM     31  C   UNL A   1      42.081  25.885  28.706  1.00  0.00     0.010 A 
ATOM     32  C   UNL A   1      40.801  26.620  26.789  1.00  0.00     0.010 A 
ATOM     33  C   UNL A   1      41.343  26.876  28.031  1.00  0.00    -0.014 A 
BRANCH  33  34
ATOM     34  C   UNL A   1      41.145  28.202  28.598  1.00  0.00     0.031 A 
ATOM     35  C   UNL A   1      42.204  29.175  28.255  1.00  0.00     0.074 A 
ATOM     36  C   UNL A   1      40.045  28.580  29.288  1.00  0.00     0.049 A 
ATOM     37  N   UNL A   1      43.230  29.481  28.975  1.00  0.00    -0.248 NA
ATOM     38  C   UNL A   1      42.244  29.722  26.892  1.00  0.00     0.031 C 
ATOM     39  C   UNL A   1      38.771  27.873  29.485  1.00  0.00     0.029 A 
ATOM     40  N   UNL A   1      39.834  29.752  29.946  1.00  0.00    -0.354 N 
ATOM     41  C   UNL A   1      43.908  30.464  28.266  1.00  0.00     0.074 A 
ATOM     42  C   UNL A   1      43.392  30.406  26.923  1.00  0.00     0.031 C 
ATOM     43  C   UNL A   1      37.862  28.705  30.038  1.00  0.00     0.029 A 
ATOM     44  C   UNL A   1      38.539  29.929  30.416  1.00  0.00     0.049 A 
ATOM     45  H   UNL A   1      40.543  30.422  30.077  1.00  0.00     0.167 HD
ATOM     46  C   UNL A   1      44.635  31.409  28.923  1.00  0.00     0.037 A 
ATOM     47  C   UNL A   1      38.065  30.985  31.120  1.00  0.00     0.037 A 
ATOM     48  C   UNL A   1      44.852  31.022  30.301  1.00  0.00     0.049 A 
ATOM     49  C   UNL A   1      39.244  31.610  31.772  1.00  0.00     0.074 A 
ATOM     50  C   UNL A   1      45.469  29.960  30.932  1.00  0.00     0.029 A 
ATOM     51  N   UNL A   1      44.029  31.591  31.243  1.00  0.00    -0.354 N 
ATOM     52  N   UNL A   1      39.959  31.026  32.696  1.00  0.00    -0.248 NA
ATOM     53  C   UNL A   1      39.894  32.715  31.089  1.00  0.00     0.031 C 
ATOM     54  C   UNL A   1      44.650  29.670  32.065  1.00  0.00     0.029 A 
ATOM     55  C   UNL A   1      43.615  30.608  32.107  1.00  0.00     0.049 A 
ATOM     56  H   UNL A   1      43.778  32.541  31.291  1.00  0.00     0.167 HD
ATOM     57  C   UNL A   1      41.268  31.395  32.420  1.00  0.00     0.074 A 
ATOM     58  C   UNL A   1      41.151  32.517  31.492  1.00  0.00     0.031 C 
ATOM     59  C   UNL A   1      42.318  30.589  32.758  1.00  0.00     0.037 A 
BRANCH  46  60
ATOM     60  C   UNL A   1      44.798  32.839  28.458  1.00  0.00     0.058 A 
ATOM     61  C   UNL A   1      46.094  33.325  28.187  1.00  0.00     0.135 A 
ATOM     62  C   UNL A   1      43.786  33.822  28.532  1.00  0.00     0.135 A 
ATOM     63  F   UNL A   1      47.136  32.484  28.093  1.00  0.00    -0.206 F 
ATOM     64  C   UNL A   1      46.376  34.688  28.084  1.00  0.00     0.059 A 
ATOM     65  C   UNL A   1      44.035  35.181  28.378  1.00  0.00     0.059 A 
ATOM     66  F   UNL A   1      42.521  33.533  28.853  1.00  0.00    -0.206 F 
ATOM     67  C   UNL A   1      45.339  35.609  28.197  1.00  0.00     0.060 A 
BRANCH  67  68
ATOM     68  S   UNL A   1      45.712  37.369  28.171  1.00  0.00     0.124 S 
ATOM     69  O   UNL A   1      47.163  37.359  28.316  1.00  0.00    -0.237 OA
ATOM     70  O   UNL A   1      45.201  37.764  26.863  1.00  0.00    -0.237 OA
ATOM     71  O   UNL A   1      44.966  37.887  29.313  1.00  0.00    -0.744 OA
ENDBRANCH  67  68
ENDBRANCH  46  60
BRANCH  47  72
ATOM     72  C   UNL A   1      36.787  31.714  30.904  1.00  0.00     0.058 A 
ATOM     73  C   UNL A   1      35.823  31.781  31.927  1.00  0.00     0.135 A 
ATOM     74  C   UNL A   1      36.620  32.612  29.831  1.00  0.00     0.135 A 
ATOM     75  F   UNL A   1      35.909  30.963  32.987  1.00  0.00    -0.206 F 
ATOM     76  C   UNL A   1      34.803  32.738  31.930  1.00  0.00     0.059 A 
ATOM     77  C   UNL A   1      35.606  33.571  29.808  1.00  0.00     0.059 A 
ATOM     78  F   UNL A   1      37.499  32.649  28.819  1.00  0.00    -0.206 F 
ATOM     79  C   UNL A   1      34.721  33.649  30.878  1.00  0.00     0.060 A 
BRANCH  79  80
ATOM     80  S   UNL A   1      33.532  35.009  30.981  1.00  0.00     0.124 S 
ATOM     81  O   UNL A   1      32.755  34.823  29.760  1.00  0.00    -0.237 OA
ATOM     82  O   UNL A   1      32.836  34.712  32.229  1.00  0.00    -0.237 OA
ATOM     83  O   UNL A   1      34.377  36.199  31.010  1.00  0.00    -0.744 OA
ENDBRANCH  79  80
ENDBRANCH  47  72
BRANCH  59  84
ATOM     84  C   UNL A   1      42.068  29.473  33.746  1.00  0.00     0.058 A 
ATOM     85  C   UNL A   1      41.656  28.170  33.410  1.00  0.00     0.135 A 
ATOM     86  C   UNL A   1      42.398  29.707  35.091  1.00  0.00     0.135 A 
ATOM     87  F   UNL A   1      41.404  27.833  32.138  1.00  0.00    -0.206 F 
ATOM     88  C   UNL A   1      41.547  27.160  34.371  1.00  0.00     0.059 A 
ATOM     89  C   UNL A   1      42.326  28.708  36.059  1.00  0.00     0.059 A 
ATOM     90  F   UNL A   1      42.847  30.914  35.472  1.00  0.00    -0.206 F 
ATOM     91  C   UNL A   1      41.890  27.437  35.694  1.00  0.00     0.060 A 
BRANCH  91  92
ATOM     92  S   UNL A   1      41.824  26.112  36.922  1.00  0.00     0.124 S 
ATOM     93  O   UNL A   1      40.458  26.225  37.425  1.00  0.00    -0.237 OA
ATOM     94  O   UNL A   1      42.109  24.925  36.122  1.00  0.00    -0.237 OA
ATOM     95  O   UNL A   1      42.870  26.476  37.875  1.00  0.00    -0.744 OA
ENDBRANCH  91  92
ENDBRANCH  59  84
ENDBRANCH  33  34
ENDBRANCH  25  28
ENDBRANCH  23  24
ENDBRANCH   1  23
TORSDOF 16
ENDMDL
MODEL 2
REMARK VINA RESULT:     -11.9      3.592      9.746
REMARK SMILES Cc1cc(=O)n2nc(C[N@@H+](C)CC(=O)NCCCNC(=O)c3ccc(-c4c5nc(c(-c6c(F)cc(S(=O)(=O)[O-])cc6F)c6ccc([nH]6)c(-c6c(F)cc(S(=O)(=O)[O-])cc6F)c6nc(c(-c7c(F)cc(S(=O)(=O)[O-])cc7F)c7ccc4[nH]7)C=C6)C=C5)cc3)sc2n1
REMARK SMILES IDX 17 1 16 2 15 3 13 4 14 5 12 7 10 8 11 9 9 11 8 12 1 13 2 14
REMARK SMILES IDX 3 15 90 16 4 17 89 18 5 19 6 20 88 21 7 22 18 23 19 24 20 25
REMARK SMILES IDX 21 27 22 28 23 29 87 30 24 31 86 32 25 33 26 34 27 35 80 36
REMARK SMILES IDX 28 37 85 38 79 39 81 40 29 41 84 42 78 43 77 44 30 46 64 47
REMARK SMILES IDX 43 48 63 49 44 50 47 51 62 52 82 53 45 54 46 55 61 57 83 58
REMARK SMILES IDX 48 59 31 60 32 61 41 62 33 63 34 64 40 65 42 66 35 67 36 68
REMARK SMILES IDX 37 69 38 70 39 71 65 72 66 73 75 74 67 75 68 76 74 77 76 78
REMARK SMILES IDX 69 79 70 80 71 81 72 82 73 83 49 84 50 85 59 86 51 87 52 88
REMARK SMILES IDX 58 89 60 90 53 91 54 92 55 93 56 94 57 95
REMARK H PARENT 15 6 10 10 19 26 81 45 47 56
REMARK Flexibility Score: inf
ROOT
ATOM      1  C   UNL A   1      33.236  30.266  27.519  1.00  0.00     0.042 C 
ENDROOT
BRANCH   1   2
ATOM      2  C   UNL A   1      33.701  28.909  26.992  1.00  0.00     0.118 C 
BRANCH   2   3
ATOM      3  N   UNL A   1      34.060  28.953  25.586  1.00  0.00    -0.351 N 
ATOM      4  C   UNL A   1      34.002  27.980  24.635  1.00  0.00     0.275 C 
ATOM      5  O   UNL A   1      34.382  28.266  23.498  1.00  0.00    -0.269 OA
ATOM      6  H   UNL A   1      34.399  29.821  25.271  1.00  0.00     0.163 HD
BRANCH   4   7
ATOM      7  C   UNL A   1      33.460  26.588  24.957  1.00  0.00     0.363 C 
BRANCH   7   8
ATOM      8  N   UNL A   1      31.996  26.476  25.023  1.00  0.00    -0.324 N 
ATOM      9  C   UNL A   1      31.423  25.843  26.188  1.00  0.00     0.333 C 
ATOM     10  H   UNL A   1      31.771  27.460  25.175  1.00  0.00     0.348 HD
BRANCH   8  11
ATOM     11  C   UNL A   1      31.315  26.128  23.767  1.00  0.00     0.333 C 
BRANCH  11  12
ATOM     12  C   UNL A   1      30.520  27.315  23.294  1.00  0.00     0.172 A 
ATOM     13  C   UNL A   1      28.144  32.030  20.511  1.00  0.00     0.067 C 
ATOM     14  C   UNL A   1      28.342  30.834  21.396  1.00  0.00     0.046 A 
ATOM     15  C   UNL A   1      27.331  30.312  22.106  1.00  0.00     0.097 A 
ATOM     16  N   UNL A   1      29.624  30.337  21.404  1.00  0.00    -0.224 NA
ATOM     17  C   UNL A   1      27.558  29.106  22.942  1.00  0.00     0.275 A 
ATOM     18  C   UNL A   1      29.809  29.294  22.141  1.00  0.00     0.215 A 
ATOM     19  O   UNL A   1      26.630  28.625  23.562  1.00  0.00    -0.267 OA
ATOM     20  N   UNL A   1      28.863  28.652  22.890  1.00  0.00    -0.167 N 
ATOM     21  S   UNL A   1      31.337  28.508  22.299  1.00  0.00    -0.073 S 
ATOM     22  N   UNL A   1      29.263  27.512  23.543  1.00  0.00    -0.150 NA
ENDBRANCH  11  12
ENDBRANCH   8  11
ENDBRANCH   7   8
ENDBRANCH   4   7
ENDBRANCH   2   3
ENDBRANCH   1   2
BRANCH   1  23
ATOM     23  C   UNL A   1      34.355  31.274  27.634  1.00  0.00     0.118 C 
BRANCH  23  24
ATOM     24  N   UNL A   1      34.317  32.084  28.846  1.00  0.00    -0.352 N 
ATOM     25  C   UNL A   1      35.183  31.996  29.927  1.00  0.00     0.251 C 
ATOM     26  H   UNL A   1      33.605  32.763  28.903  1.00  0.00     0.163 HD
ATOM     27  O   UNL A   1      34.872  32.468  31.013  1.00  0.00    -0.269 OA
BRANCH  25  28
ATOM     28  C   UNL A   1      36.470  31.296  29.734  1.00  0.00     0.039 A 
ATOM     29  C   UNL A   1      37.675  31.981  29.579  1.00  0.00     0.014 A 
ATOM     30  C   UNL A   1      36.457  29.906  29.780  1.00  0.00     0.014 A 
ATOM     31  C   UNL A   1      38.856  31.239  29.544  1.00  0.00     0.010 A 
ATOM     32  C   UNL A   1      37.613  29.217  30.013  1.00  0.00     0.010 A 
ATOM     33  C   UNL A   1      38.816  29.852  29.787  1.00  0.00    -0.014 A 
BRANCH  33  34
ATOM     34  C   UNL A   1      40.028  29.047  29.833  1.00  0.00     0.031 A 
ATOM     35  C   UNL A   1      40.520  28.766  31.199  1.00  0.00     0.074 A 
ATOM     36  C   UNL A   1      40.618  28.494  28.750  1.00  0.00     0.049 A 
ATOM     37  N   UNL A   1      41.431  29.418  31.839  1.00  0.00    -0.248 NA
ATOM     38  C   UNL A   1      39.794  27.788  32.022  1.00  0.00     0.031 C 
ATOM     39  C   UNL A   1      40.139  28.405  27.363  1.00  0.00     0.029 A 
ATOM     40  N   UNL A   1      41.806  27.833  28.692  1.00  0.00    -0.354 N 
ATOM     41  C   UNL A   1      41.582  28.761  33.052  1.00  0.00     0.074 A 
ATOM     42  C   UNL A   1      40.417  27.928  33.196  1.00  0.00     0.031 C 
ATOM     43  C   UNL A   1      40.927  27.566  26.655  1.00  0.00     0.029 A 
ATOM     44  C   UNL A   1      42.071  27.221  27.474  1.00  0.00     0.049 A 
ATOM     45  H   UNL A   1      42.428  27.792  29.454  1.00  0.00     0.167 HD
ATOM     46  C   UNL A   1      42.784  28.766  33.694  1.00  0.00     0.037 A 
ATOM     47  C   UNL A   1      43.183  26.523  27.138  1.00  0.00     0.037 A 
ATOM     48  C   UNL A   1      43.659  29.773  33.133  1.00  0.00     0.049 A 
ATOM     49  C   UNL A   1      44.259  26.998  28.044  1.00  0.00     0.074 A 
ATOM     50  C   UNL A   1      43.608  31.147  32.998  1.00  0.00     0.029 A 
ATOM     51  N   UNL A   1      44.605  29.343  32.233  1.00  0.00    -0.354 N 
ATOM     52  N   UNL A   1      44.741  28.212  28.027  1.00  0.00    -0.248 NA
ATOM     53  C   UNL A   1      44.499  26.250  29.266  1.00  0.00     0.031 C 
ATOM     54  C   UNL A   1      44.185  31.419  31.720  1.00  0.00     0.029 A 
ATOM     55  C   UNL A   1      44.617  30.211  31.170  1.00  0.00     0.049 A 
ATOM     56  H   UNL A   1      45.177  28.549  32.334  1.00  0.00     0.167 HD
ATOM     57  C   UNL A   1      44.960  28.526  29.361  1.00  0.00     0.074 A 
ATOM     58  C   UNL A   1      44.896  27.246  30.062  1.00  0.00     0.031 C 
ATOM     59  C   UNL A   1      44.906  29.818  29.803  1.00  0.00     0.037 A 
BRANCH  46  60
ATOM     60  C   UNL A   1      43.312  27.621  34.529  1.00  0.00     0.058 A 
ATOM     61  C   UNL A   1      43.643  27.858  35.879  1.00  0.00     0.135 A 
ATOM     62  C   UNL A   1      43.764  26.391  34.002  1.00  0.00     0.135 A 
ATOM     63  F   UNL A   1      43.267  28.993  36.488  1.00  0.00    -0.206 F 
ATOM     64  C   UNL A   1      44.436  26.980  36.621  1.00  0.00     0.059 A 
ATOM     65  C   UNL A   1      44.508  25.477  34.739  1.00  0.00     0.059 A 
ATOM     66  F   UNL A   1      43.597  26.050  32.720  1.00  0.00    -0.206 F 
ATOM     67  C   UNL A   1      44.876  25.798  36.033  1.00  0.00     0.060 A 
BRANCH  67  68
ATOM     68  S   UNL A   1      45.984  24.715  36.948  1.00  0.00     0.124 S 
ATOM     69  O   UNL A   1      45.107  24.232  38.007  1.00  0.00    -0.237 OA
ATOM     70  O   UNL A   1      46.358  23.740  35.930  1.00  0.00    -0.237 OA
ATOM     71  O   UNL A   1      47.055  25.612  37.373  1.00  0.00    -0.744 OA
ENDBRANCH  67  68
ENDBRANCH  46  60
BRANCH  47  72
ATOM     72  C   UNL A   1      43.249  25.218  26.426  1.00  0.00     0.058 A 
ATOM     73  C   UNL A   1      44.124  25.044  25.338  1.00  0.00     0.135 A 
ATOM     74  C   UNL A   1      42.707  24.043  26.984  1.00  0.00     0.135 A 
ATOM     75  F   UNL A   1      44.687  26.110  24.749  1.00  0.00    -0.206 F 
ATOM     76  C   UNL A   1      44.506  23.778  24.883  1.00  0.00     0.059 A 
ATOM     77  C   UNL A   1      43.067  22.770  26.543  1.00  0.00     0.059 A 
ATOM     78  F   UNL A   1      41.884  24.098  28.042  1.00  0.00    -0.206 F 
ATOM     79  C   UNL A   1      43.994  22.644  25.514  1.00  0.00     0.060 A 
BRANCH  79  80
ATOM     80  S   UNL A   1      44.640  21.016  25.060  1.00  0.00     0.124 S 
ATOM     81  O   UNL A   1      44.528  21.042  23.606  1.00  0.00    -0.237 OA
ATOM     82  O   UNL A   1      45.996  21.066  25.595  1.00  0.00    -0.237 OA
ATOM     83  O   UNL A   1      43.738  20.091  25.741  1.00  0.00    -0.744 OA
ENDBRANCH  79  80
ENDBRANCH  47  72
BRANCH  59  84
ATOM     84  C   UNL A   1      44.961  30.924  28.774  1.00  0.00     0.058 A 
ATOM     85  C   UNL A   1      46.138  31.456  28.217  1.00  0.00     0.135 A 
ATOM     86  C   UNL A   1      43.745  31.368  28.229  1.00  0.00     0.135 A 
ATOM     87  F   UNL A   1      47.344  31.026  28.614  1.00  0.00    -0.206 F 
ATOM     88  C   UNL A   1      46.106  32.406  27.191  1.00  0.00     0.059 A 
ATOM     89  C   UNL A   1      43.689  32.291  27.187  1.00  0.00     0.059 A 
ATOM     90  F   UNL A   1      42.583  30.865  28.680  1.00  0.00    -0.206 F 
ATOM     91  C   UNL A   1      44.875  32.814  26.678  1.00  0.00     0.060 A 
BRANCH  91  92
ATOM     92  S   UNL A   1      44.833  33.983  25.301  1.00  0.00     0.124 S 
ATOM     93  O   UNL A   1      46.247  34.292  25.113  1.00  0.00    -0.237 OA
ATOM     94  O   UNL A   1      44.209  33.200  24.239  1.00  0.00    -0.237 OA
ATOM     95  O   UNL A   1      44.018  35.084  25.811  1.00  0.00    -0.744 OA
ENDBRANCH  91  92
ENDBRANCH  59  84
ENDBRANCH  33  34
ENDBRANCH  25  28
ENDBRANCH  23  24
ENDBRANCH   1  23
TORSDOF 16
ENDMDL
MODEL 3
REMARK VINA RESULT:     -11.8      1.553      2.730
REMARK SMILES Cc1cc(=O)n2nc(C[N@@H+](C)CC(=O)NCCCNC(=O)c3ccc(-c4c5nc(c(-c6c(F)cc(S(=O)(=O)[O-])cc6F)c6ccc([nH]6)c(-c6c(F)cc(S(=O)(=O)[O-])cc6F)c6nc(c(-c7c(F)cc(S(=O)(=O)[O-])cc7F)c7ccc4[nH]7)C=C6)C=C5)cc3)sc2n1
REMARK SMILES IDX 17 1 16 2 15 3 13 4 14 5 12 7 10 8 11 9 9 11 8 12 1 13 2 14
REMARK SMILES IDX 3 15 90 16 4 17 89 18 5 19 6 20 88 21 7 22 18 23 19 24 20 25
REMARK SMILES IDX 21 27 22 28 23 29 87 30 24 31 86 32 25 33 26 34 27 35 80 36
REMARK SMILES IDX 28 37 85 38 79 39 81 40 29 41 84 42 78 43 77 44 30 46 64 47
REMARK SMILES IDX 43 48 63 49 44 50 47 51 62 52 82 53 45 54 46 55 61 57 83 58
REMARK SMILES IDX 48 59 31 60 32 61 41 62 33 63 34 64 40 65 42 66 35 67 36 68
REMARK SMILES IDX 37 69 38 70 39 71 65 72 66 73 75 74 67 75 68 76 74 77 76 78
REMARK SMILES IDX 69 79 70 80 71 81 72 82 73 83 49 84 50 85 59 86 51 87 52 88
REMARK SMILES IDX 58 89 60 90 53 91 54 92 55 93 56 94 57 95
REMARK H PARENT 15 6 10 10 19 26 81 45 47 56
REMARK Flexibility Score: inf
ROOT
ATOM      1  C   UNL A   1      38.708  22.865  26.139  1.00  0.00     0.042 C 
ENDROOT
BRANCH   1   2
ATOM      2  C   UNL A   1      37.728  21.847  25.557  1.00  0.00     0.118 C 
BRANCH   2   3
ATOM      3  N   UNL A   1      37.427  22.102  24.159  1.00  0.00    -0.351 N 
ATOM      4  C   UNL A   1      36.458  22.875  23.597  1.00  0.00     0.275 C 
ATOM      5  O   UNL A   1      36.399  22.917  22.367  1.00  0.00    -0.269 OA
ATOM      6  H   UNL A   1      38.016  21.643  23.518  1.00  0.00     0.163 HD
BRANCH   4   7
ATOM      7  C   UNL A   1      35.489  23.682  24.460  1.00  0.00     0.363 C 
BRANCH   7   8
ATOM      8  N   UNL A   1      34.134  23.845  23.912  1.00  0.00    -0.324 N 
ATOM      9  C   UNL A   1      33.834  25.075  23.219  1.00  0.00     0.333 C 
ATOM     10  H   UNL A   1      34.194  23.171  23.148  1.00  0.00     0.348 HD
BRANCH   8  11
ATOM     11  C   UNL A   1      33.032  23.356  24.754  1.00  0.00     0.333 C 
BRANCH  11  12
ATOM     12  C   UNL A   1      33.015  21.852  24.717  1.00  0.00     0.172 A 
ATOM     13  C   UNL A   1      32.652  15.980  25.723  1.00  0.00     0.067 C 
ATOM     14  C   UNL A   1      32.693  17.323  25.054  1.00  0.00     0.046 A 
ATOM     15  C   UNL A   1      32.457  17.458  23.740  1.00  0.00     0.097 A 
ATOM     16  N   UNL A   1      32.982  18.370  25.896  1.00  0.00    -0.224 NA
ATOM     17  C   UNL A   1      32.471  18.809  23.121  1.00  0.00     0.275 A 
ATOM     18  C   UNL A   1      32.999  19.536  25.342  1.00  0.00     0.215 A 
ATOM     19  O   UNL A   1      32.232  18.924  21.935  1.00  0.00    -0.267 OA
ATOM     20  N   UNL A   1      32.752  19.814  24.027  1.00  0.00    -0.167 N 
ATOM     21  S   UNL A   1      33.340  20.989  26.210  1.00  0.00    -0.073 S 
ATOM     22  N   UNL A   1      32.750  21.139  23.667  1.00  0.00    -0.150 NA
ENDBRANCH  11  12
ENDBRANCH   8  11
ENDBRANCH   7   8
ENDBRANCH   4   7
ENDBRANCH   2   3
ENDBRANCH   1   2
BRANCH   1  23
ATOM     23  C   UNL A   1      39.839  22.227  26.912  1.00  0.00     0.118 C 
BRANCH  23  24
ATOM     24  N   UNL A   1      41.134  22.285  26.246  1.00  0.00    -0.352 N 
ATOM     25  C   UNL A   1      41.915  23.416  26.054  1.00  0.00     0.251 C 
ATOM     26  H   UNL A   1      41.492  21.436  25.897  1.00  0.00     0.163 HD
ATOM     27  O   UNL A   1      42.800  23.425  25.207  1.00  0.00    -0.269 OA
BRANCH  25  28
ATOM     28  C   UNL A   1      41.631  24.609  26.880  1.00  0.00     0.039 A 
ATOM     29  C   UNL A   1      42.117  24.749  28.179  1.00  0.00     0.014 A 
ATOM     30  C   UNL A   1      40.907  25.639  26.288  1.00  0.00     0.014 A 
ATOM     31  C   UNL A   1      41.917  25.967  28.830  1.00  0.00     0.010 A 
ATOM     32  C   UNL A   1      40.948  26.898  26.818  1.00  0.00     0.010 A 
ATOM     33  C   UNL A   1      41.349  27.048  28.129  1.00  0.00    -0.014 A 
BRANCH  33  34
ATOM     34  C   UNL A   1      41.187  28.358  28.742  1.00  0.00     0.031 A 
ATOM     35  C   UNL A   1      42.275  29.312  28.436  1.00  0.00     0.074 A 
ATOM     36  C   UNL A   1      40.097  28.743  29.443  1.00  0.00     0.049 A 
ATOM     37  N   UNL A   1      43.307  29.563  29.168  1.00  0.00    -0.248 NA
ATOM     38  C   UNL A   1      42.334  29.906  27.093  1.00  0.00     0.031 C 
ATOM     39  C   UNL A   1      38.803  28.065  29.613  1.00  0.00     0.029 A 
ATOM     40  N   UNL A   1      39.917  29.896  30.142  1.00  0.00    -0.354 N 
ATOM     41  C   UNL A   1      44.014  30.551  28.496  1.00  0.00     0.074 A 
ATOM     42  C   UNL A   1      43.500  30.555  27.150  1.00  0.00     0.031 C 
ATOM     43  C   UNL A   1      37.916  28.903  30.194  1.00  0.00     0.029 A 
ATOM     44  C   UNL A   1      38.627  30.093  30.616  1.00  0.00     0.049 A 
ATOM     45  H   UNL A   1      40.645  30.541  30.298  1.00  0.00     0.167 HD
ATOM     46  C   UNL A   1      44.767  31.451  29.187  1.00  0.00     0.037 A 
ATOM     47  C   UNL A   1      38.181  31.136  31.357  1.00  0.00     0.037 A 
ATOM     48  C   UNL A   1      44.969  31.010  30.551  1.00  0.00     0.049 A 
ATOM     49  C   UNL A   1      39.376  31.703  32.033  1.00  0.00     0.074 A 
ATOM     50  C   UNL A   1      45.554  29.908  31.144  1.00  0.00     0.029 A 
ATOM     51  N   UNL A   1      44.159  31.567  31.511  1.00  0.00    -0.354 N 
ATOM     52  N   UNL A   1      40.072  31.067  32.936  1.00  0.00    -0.248 NA
ATOM     53  C   UNL A   1      40.059  32.814  31.390  1.00  0.00     0.031 C 
ATOM     54  C   UNL A   1      44.723  29.602  32.265  1.00  0.00     0.029 A 
ATOM     55  C   UNL A   1      43.715  30.566  32.338  1.00  0.00     0.049 A 
ATOM     56  H   UNL A   1      43.935  32.522  31.592  1.00  0.00     0.167 HD
ATOM     57  C   UNL A   1      41.391  31.409  32.675  1.00  0.00     0.074 A 
ATOM     58  C   UNL A   1      41.308  32.566  31.788  1.00  0.00     0.031 C 
ATOM     59  C   UNL A   1      42.417  30.562  32.987  1.00  0.00     0.037 A 
BRANCH  46  60
ATOM     60  C   UNL A   1      44.971  32.891  28.773  1.00  0.00     0.058 A 
ATOM     61  C   UNL A   1      46.286  33.375  28.611  1.00  0.00     0.135 A 
ATOM     62  C   UNL A   1      43.962  33.880  28.799  1.00  0.00     0.135 A 
ATOM     63  F   UNL A   1      47.327  32.529  28.572  1.00  0.00    -0.206 F 
ATOM     64  C   UNL A   1      46.582  34.738  28.566  1.00  0.00     0.059 A 
ATOM     65  C   UNL A   1      44.229  35.241  28.700  1.00  0.00     0.059 A 
ATOM     66  F   UNL A   1      42.674  33.592  29.019  1.00  0.00    -0.206 F 
ATOM     67  C   UNL A   1      45.545  35.663  28.627  1.00  0.00     0.060 A 
BRANCH  67  68
ATOM     68  S   UNL A   1      45.929  37.420  28.676  1.00  0.00     0.124 S 
ATOM     69  O   UNL A   1      44.796  37.943  29.430  1.00  0.00    -0.237 OA
ATOM     70  O   UNL A   1      47.215  37.427  29.364  1.00  0.00    -0.237 OA
ATOM     71  O   UNL A   1      45.977  37.793  27.265  1.00  0.00    -0.744 OA
ENDBRANCH  67  68
ENDBRANCH  46  60
BRANCH  47  72
ATOM     72  C   UNL A   1      36.925  31.908  31.165  1.00  0.00     0.058 A 
ATOM     73  C   UNL A   1      36.060  32.144  32.249  1.00  0.00     0.135 A 
ATOM     74  C   UNL A   1      36.705  32.690  30.013  1.00  0.00     0.135 A 
ATOM     75  F   UNL A   1      36.201  31.446  33.387  1.00  0.00    -0.206 F 
ATOM     76  C   UNL A   1      35.091  33.152  32.226  1.00  0.00     0.059 A 
ATOM     77  C   UNL A   1      35.740  33.696  29.963  1.00  0.00     0.059 A 
ATOM     78  F   UNL A   1      37.491  32.563  28.933  1.00  0.00    -0.206 F 
ATOM     79  C   UNL A   1      34.959  33.944  31.086  1.00  0.00     0.060 A 
BRANCH  79  80
ATOM     80  S   UNL A   1      33.849  35.372  31.129  1.00  0.00     0.124 S 
ATOM     81  O   UNL A   1      33.918  35.849  29.752  1.00  0.00    -0.237 OA
ATOM     82  O   UNL A   1      32.584  34.764  31.529  1.00  0.00    -0.237 OA
ATOM     83  O   UNL A   1      34.459  36.247  32.126  1.00  0.00    -0.744 OA
ENDBRANCH  79  80
ENDBRANCH  47  72
BRANCH  59  84
ATOM     84  C   UNL A   1      42.133  29.418  33.934  1.00  0.00     0.058 A 
ATOM     85  C   UNL A   1      41.802  28.107  33.545  1.00  0.00     0.135 A 
ATOM     86  C   UNL A   1      42.342  29.640  35.304  1.00  0.00     0.135 A 
ATOM     87  F   UNL A   1      41.669  27.784  32.251  1.00  0.00    -0.206 F 
ATOM     88  C   UNL A   1      41.656  27.076  34.478  1.00  0.00     0.059 A 
ATOM     89  C   UNL A   1      42.232  28.621  36.248  1.00  0.00     0.059 A 
ATOM     90  F   UNL A   1      42.709  30.857  35.740  1.00  0.00    -0.206 F 
ATOM     91  C   UNL A   1      41.880  27.341  35.829  1.00  0.00     0.060 A 
BRANCH  91  92
ATOM     92  S   UNL A   1      41.767  25.993  37.027  1.00  0.00     0.124 S 
ATOM     93  O   UNL A   1      42.846  26.313  37.956  1.00  0.00    -0.237 OA
ATOM     94  O   UNL A   1      40.413  26.147  37.551  1.00  0.00    -0.237 OA
ATOM     95  O   UNL A   1      41.979  24.796  36.216  1.00  0.00    -0.744 OA
ENDBRANCH  91  92
ENDBRANCH  59  84
ENDBRANCH  33  34
ENDBRANCH  25  28
ENDBRANCH  23  24
ENDBRANCH   1  23
TORSDOF 16
ENDMDL
