MODEL 1
REMARK VINA RESULT:     -11.9      0.000      0.000
REMARK SMILES C[C@@H](C(=O)NCCCNC(=O)c1ccc(-c2c3nc(c(-c4c(F)cc(S(=O)(=O)[O-])cc4F)c4ccc([nH]4)c(-c4c(F)cc(S(=O)(=O)[O-])cc4F)c4nc(c(-c5c(F)cc(S(=O)(=O)[O-])cc5F)c5ccc2[nH]5)C=C4)C=C3)cc1)c1ccc(C[C@H]2CCC[C@@H]2O)cc1Br
REMARK SMILES IDX 6 1 5 2 3 3 4 4 2 6 1 7 78 8 79 9 90 10 80 11 89 12 91 13
REMARK SMILES IDX 81 14 82 15 83 16 84 17 87 18 85 19 86 20 88 21 7 23 8 24
REMARK SMILES IDX 9 25 10 26 11 28 12 29 13 30 77 31 14 32 76 33 15 34 16 35
REMARK SMILES IDX 17 36 70 37 18 38 75 39 69 40 71 41 19 42 74 43 68 44 67 45
REMARK SMILES IDX 20 47 54 48 33 49 53 50 34 51 37 52 52 53 72 54 35 55 36 56
REMARK SMILES IDX 51 58 73 59 38 60 21 61 22 62 31 63 23 64 24 65 30 66 32 67
REMARK SMILES IDX 25 68 26 69 27 70 28 71 29 72 55 73 56 74 65 75 57 76 58 77
REMARK SMILES IDX 64 78 66 79 59 80 60 81 61 82 62 83 63 84 39 85 40 86 49 87
REMARK SMILES IDX 41 88 42 89 48 90 50 91 43 92 44 93 45 94 46 95 47 96
REMARK H PARENT 5 5 88 22 9 27 71 46 37 57
REMARK Flexibility Score: inf
ROOT
ATOM      1  C   UNL A   1      31.847  27.090  26.304  1.00  0.00     0.117 C 
ENDROOT
BRANCH   1   2
ATOM      2  N   UNL A   1      31.142  25.879  26.676  1.00  0.00    -0.356 N 
ATOM      3  C   UNL A   1      30.917  24.734  25.969  1.00  0.00     0.227 C 
ATOM      4  O   UNL A   1      30.219  23.880  26.522  1.00  0.00    -0.274 OA
ATOM      5  H   UNL A   1      30.766  25.883  27.585  1.00  0.00     0.163 HD
BRANCH   3   6
ATOM      6  C   UNL A   1      31.541  24.543  24.574  1.00  0.00     0.106 C 
ATOM      7  C   UNL A   1      30.484  24.523  23.463  1.00  0.00     0.023 C 
BRANCH   6   8
ATOM      8  C   UNL A   1      32.396  23.276  24.515  1.00  0.00    -0.022 A 
ATOM      9  C   UNL A   1      31.779  22.061  24.158  1.00  0.00     0.006 A 
ATOM     10  C   UNL A   1      33.759  23.242  24.844  1.00  0.00     0.022 A 
ATOM     11  C   UNL A   1      32.481  20.857  24.154  1.00  0.00     0.004 A 
ATOM     12  C   UNL A   1      34.460  22.026  24.853  1.00  0.00     0.019 A 
ATOM     13  Br  UNL A   1      34.755  24.792  25.316  1.00  0.00    -0.051 Br
ATOM     14  C   UNL A   1      33.819  20.819  24.542  1.00  0.00    -0.047 A 
BRANCH  14  15
ATOM     15  C   UNL A   1      34.553  19.506  24.669  1.00  0.00     0.041 C 
BRANCH  15  16
ATOM     16  C   UNL A   1      33.696  18.237  24.503  1.00  0.00     0.022 C 
ATOM     17  C   UNL A   1      34.221  17.192  23.504  1.00  0.00     0.007 C 
ATOM     18  C   UNL A   1      33.419  17.444  25.785  1.00  0.00     0.117 C 
ATOM     19  C   UNL A   1      33.910  15.823  24.117  1.00  0.00     0.003 C 
ATOM     20  C   UNL A   1      32.943  16.100  25.256  1.00  0.00     0.032 C 
BRANCH  18  21
ATOM     21  O   UNL A   1      32.411  18.055  26.571  1.00  0.00    -0.393 OA
ATOM     22  H   UNL A   1      32.560  17.845  27.506  1.00  0.00     0.210 HD
ENDBRANCH  18  21
ENDBRANCH  15  16
ENDBRANCH  14  15
ENDBRANCH   6   8
ENDBRANCH   3   6
ENDBRANCH   1   2
BRANCH   1  23
ATOM     23  C   UNL A   1      32.379  27.829  27.528  1.00  0.00     0.042 C 
BRANCH  23  24
ATOM     24  C   UNL A   1      33.679  28.587  27.279  1.00  0.00     0.118 C 
BRANCH  24  25
ATOM     25  N   UNL A   1      33.610  29.976  27.708  1.00  0.00    -0.352 N 
ATOM     26  C   UNL A   1      34.557  30.735  28.352  1.00  0.00     0.251 C 
ATOM     27  H   UNL A   1      32.764  30.437  27.508  1.00  0.00     0.163 HD
ATOM     28  O   UNL A   1      34.254  31.837  28.804  1.00  0.00    -0.269 OA
BRANCH  26  29
ATOM     29  C   UNL A   1      35.931  30.216  28.518  1.00  0.00     0.039 A 
ATOM     30  C   UNL A   1      36.797  30.210  27.421  1.00  0.00     0.014 A 
ATOM     31  C   UNL A   1      36.363  29.741  29.759  1.00  0.00     0.014 A 
ATOM     32  C   UNL A   1      38.121  29.792  27.585  1.00  0.00     0.010 A 
ATOM     33  C   UNL A   1      37.698  29.395  29.937  1.00  0.00     0.010 A 
ATOM     34  C   UNL A   1      38.590  29.415  28.853  1.00  0.00    -0.014 A 
BRANCH  34  35
ATOM     35  C   UNL A   1      40.001  29.019  29.091  1.00  0.00     0.031 A 
ATOM     36  C   UNL A   1      40.995  30.056  29.534  1.00  0.00     0.074 A 
ATOM     37  C   UNL A   1      40.411  27.771  28.793  1.00  0.00     0.049 A 
ATOM     38  N   UNL A   1      42.297  29.980  29.601  1.00  0.00    -0.248 NA
ATOM     39  C   UNL A   1      40.446  31.367  29.914  1.00  0.00     0.031 C 
ATOM     40  C   UNL A   1      39.549  26.686  28.322  1.00  0.00     0.029 A 
ATOM     41  N   UNL A   1      41.667  27.216  28.807  1.00  0.00    -0.354 N 
ATOM     42  C   UNL A   1      42.728  31.241  29.994  1.00  0.00     0.074 A 
ATOM     43  C   UNL A   1      41.549  32.073  30.111  1.00  0.00     0.031 C 
ATOM     44  C   UNL A   1      40.300  25.598  28.087  1.00  0.00     0.029 A 
ATOM     45  C   UNL A   1      41.702  25.922  28.345  1.00  0.00     0.049 A 
ATOM     46  H   UNL A   1      42.466  27.699  29.119  1.00  0.00     0.167 HD
ATOM     47  C   UNL A   1      43.990  31.665  30.245  1.00  0.00     0.037 A 
ATOM     48  C   UNL A   1      42.745  25.097  28.125  1.00  0.00     0.037 A 
ATOM     49  C   UNL A   1      45.152  30.822  30.153  1.00  0.00     0.049 A 
ATOM     50  C   UNL A   1      44.138  25.576  28.425  1.00  0.00     0.074 A 
ATOM     51  C   UNL A   1      46.469  31.136  30.438  1.00  0.00     0.029 A 
ATOM     52  N   UNL A   1      45.137  29.496  29.741  1.00  0.00    -0.354 N 
ATOM     53  N   UNL A   1      44.528  26.759  28.839  1.00  0.00    -0.248 NA
ATOM     54  C   UNL A   1      45.232  24.614  28.238  1.00  0.00     0.031 C 
ATOM     55  C   UNL A   1      47.254  30.010  30.166  1.00  0.00     0.029 A 
ATOM     56  C   UNL A   1      46.422  28.981  29.755  1.00  0.00     0.049 A 
ATOM     57  H   UNL A   1      44.330  28.997  29.478  1.00  0.00     0.167 HD
ATOM     58  C   UNL A   1      45.907  26.675  28.989  1.00  0.00     0.074 A 
ATOM     59  C   UNL A   1      46.285  25.326  28.619  1.00  0.00     0.031 C 
ATOM     60  C   UNL A   1      46.778  27.628  29.403  1.00  0.00     0.037 A 
BRANCH  47  61
ATOM     61  C   UNL A   1      44.167  33.108  30.627  1.00  0.00     0.058 A 
ATOM     62  C   UNL A   1      44.436  34.100  29.670  1.00  0.00     0.135 A 
ATOM     63  C   UNL A   1      44.089  33.504  31.973  1.00  0.00     0.135 A 
ATOM     64  F   UNL A   1      44.535  33.776  28.370  1.00  0.00    -0.206 F 
ATOM     65  C   UNL A   1      44.677  35.420  30.036  1.00  0.00     0.059 A 
ATOM     66  C   UNL A   1      44.295  34.825  32.359  1.00  0.00     0.059 A 
ATOM     67  F   UNL A   1      43.829  32.600  32.930  1.00  0.00    -0.206 F 
ATOM     68  C   UNL A   1      44.617  35.770  31.385  1.00  0.00     0.060 A 
BRANCH  68  69
ATOM     69  S   UNL A   1      44.980  37.475  31.854  1.00  0.00     0.124 S 
ATOM     70  O   UNL A   1      43.939  38.200  31.133  1.00  0.00    -0.237 OA
ATOM     71  O   UNL A   1      44.835  37.440  33.306  1.00  0.00    -0.237 OA
ATOM     72  O   UNL A   1      46.340  37.678  31.368  1.00  0.00    -0.744 OA
ENDBRANCH  68  69
ENDBRANCH  47  61
BRANCH  48  73
ATOM     73  C   UNL A   1      42.491  23.728  27.608  1.00  0.00     0.058 A 
ATOM     74  C   UNL A   1      42.424  23.480  26.230  1.00  0.00     0.135 A 
ATOM     75  C   UNL A   1      42.385  22.629  28.477  1.00  0.00     0.135 A 
ATOM     76  F   UNL A   1      42.514  24.499  25.361  1.00  0.00    -0.206 F 
ATOM     77  C   UNL A   1      42.268  22.192  25.728  1.00  0.00     0.059 A 
ATOM     78  C   UNL A   1      42.249  21.329  27.998  1.00  0.00     0.059 A 
ATOM     79  F   UNL A   1      42.460  22.813  29.804  1.00  0.00    -0.206 F 
ATOM     80  C   UNL A   1      42.193  21.121  26.621  1.00  0.00     0.060 A 
BRANCH  80  81
ATOM     81  S   UNL A   1      42.093  19.444  25.956  1.00  0.00     0.124 S 
ATOM     82  O   UNL A   1      40.657  19.293  25.755  1.00  0.00    -0.237 OA
ATOM     83  O   UNL A   1      42.901  19.547  24.745  1.00  0.00    -0.237 OA
ATOM     84  O   UNL A   1      42.672  18.628  27.018  1.00  0.00    -0.744 OA
ENDBRANCH  80  81
ENDBRANCH  48  73
BRANCH  60  85
ATOM     85  C   UNL A   1      48.225  27.247  29.531  1.00  0.00     0.058 A 
ATOM     86  C   UNL A   1      49.174  27.606  28.563  1.00  0.00     0.135 A 
ATOM     87  C   UNL A   1      48.683  26.605  30.694  1.00  0.00     0.135 A 
ATOM     88  F   UNL A   1      48.786  28.214  27.430  1.00  0.00    -0.206 F 
ATOM     89  C   UNL A   1      50.528  27.345  28.744  1.00  0.00     0.059 A 
ATOM     90  C   UNL A   1      50.035  26.354  30.906  1.00  0.00     0.059 A 
ATOM     91  F   UNL A   1      47.815  26.247  31.654  1.00  0.00    -0.206 F 
ATOM     92  C   UNL A   1      50.950  26.726  29.923  1.00  0.00     0.060 A 
BRANCH  92  93
ATOM     93  S   UNL A   1      52.718  26.466  30.182  1.00  0.00     0.124 S 
ATOM     94  O   UNL A   1      53.148  26.025  28.860  1.00  0.00    -0.237 OA
ATOM     95  O   UNL A   1      53.173  27.793  30.586  1.00  0.00    -0.237 OA
ATOM     96  O   UNL A   1      52.762  25.450  31.229  1.00  0.00    -0.744 OA
ENDBRANCH  92  93
ENDBRANCH  60  85
ENDBRANCH  34  35
ENDBRANCH  26  29
ENDBRANCH  24  25
ENDBRANCH  23  24
ENDBRANCH   1  23
TORSDOF 17
ENDMDL
MODEL 2
REMARK VINA RESULT:     -11.7      5.414     11.171
REMARK SMILES C[C@@H](C(=O)NCCCNC(=O)c1ccc(-c2c3nc(c(-c4c(F)cc(S(=O)(=O)[O-])cc4F)c4ccc([nH]4)c(-c4c(F)cc(S(=O)(=O)[O-])cc4F)c4nc(c(-c5c(F)cc(S(=O)(=O)[O-])cc5F)c5ccc2[nH]5)C=C4)C=C3)cc1)c1ccc(C[C@H]2CCC[C@@H]2O)cc1Br
REMARK SMILES IDX 6 1 5 2 3 3 4 4 2 6 1 7 78 8 79 9 90 10 80 11 89 12 91 13
REMARK SMILES IDX 81 14 82 15 83 16 84 17 87 18 85 19 86 20 88 21 7 23 8 24
REMARK SMILES IDX 9 25 10 26 11 28 12 29 13 30 77 31 14 32 76 33 15 34 16 35
REMARK SMILES IDX 17 36 70 37 18 38 75 39 69 40 71 41 19 42 74 43 68 44 67 45
REMARK SMILES IDX 20 47 54 48 33 49 53 50 34 51 37 52 52 53 72 54 35 55 36 56
REMARK SMILES IDX 51 58 73 59 38 60 21 61 22 62 31 63 23 64 24 65 30 66 32 67
REMARK SMILES IDX 25 68 26 69 27 70 28 71 29 72 55 73 56 74 65 75 57 76 58 77
REMARK SMILES IDX 64 78 66 79 59 80 60 81 61 82 62 83 63 84 39 85 40 86 49 87
REMARK SMILES IDX 41 88 42 89 48 90 50 91 43 92 44 93 45 94 46 95 47 96
REMARK H PARENT 5 5 88 22 9 27 71 46 37 57
REMARK Flexibility Score: inf
ROOT
ATOM      1  C   UNL A   1      35.987  23.504  25.729  1.00  0.00     0.117 C 
ENDROOT
BRANCH   1   2
ATOM      2  N   UNL A   1      35.585  23.791  24.366  1.00  0.00    -0.356 N 
ATOM      3  C   UNL A   1      34.365  24.120  23.855  1.00  0.00     0.227 C 
ATOM      4  O   UNL A   1      34.302  24.246  22.629  1.00  0.00    -0.274 OA
ATOM      5  H   UNL A   1      36.310  23.741  23.703  1.00  0.00     0.163 HD
BRANCH   3   6
ATOM      6  C   UNL A   1      33.161  24.342  24.790  1.00  0.00     0.106 C 
ATOM      7  C   UNL A   1      32.351  23.059  25.009  1.00  0.00     0.023 C 
BRANCH   6   8
ATOM      8  C   UNL A   1      32.253  25.459  24.272  1.00  0.00    -0.022 A 
ATOM      9  C   UNL A   1      31.253  25.137  23.333  1.00  0.00     0.006 A 
ATOM     10  C   UNL A   1      32.388  26.806  24.643  1.00  0.00     0.022 A 
ATOM     11  C   UNL A   1      30.438  26.116  22.767  1.00  0.00     0.004 A 
ATOM     12  C   UNL A   1      31.576  27.790  24.060  1.00  0.00     0.019 A 
ATOM     13  Br  UNL A   1      33.661  27.411  25.919  1.00  0.00    -0.051 Br
ATOM     14  C   UNL A   1      30.618  27.459  23.091  1.00  0.00    -0.047 A 
BRANCH  14  15
ATOM     15  C   UNL A   1      29.833  28.539  22.388  1.00  0.00     0.041 C 
BRANCH  15  16
ATOM     16  C   UNL A   1      28.993  29.459  23.295  1.00  0.00     0.022 C 
ATOM     17  C   UNL A   1      29.642  30.798  23.685  1.00  0.00     0.007 C 
ATOM     18  C   UNL A   1      27.607  29.840  22.763  1.00  0.00     0.117 C 
ATOM     19  C   UNL A   1      28.513  31.833  23.688  1.00  0.00     0.003 C 
ATOM     20  C   UNL A   1      27.226  31.028  23.632  1.00  0.00     0.032 C 
BRANCH  18  21
ATOM     21  O   UNL A   1      26.676  28.785  22.927  1.00  0.00    -0.393 OA
ATOM     22  H   UNL A   1      27.134  27.999  23.263  1.00  0.00     0.210 HD
ENDBRANCH  18  21
ENDBRANCH  15  16
ENDBRANCH  14  15
ENDBRANCH   6   8
ENDBRANCH   3   6
ENDBRANCH   1   2
BRANCH   1  23
ATOM     23  C   UNL A   1      37.451  23.079  25.806  1.00  0.00     0.042 C 
BRANCH  23  24
ATOM     24  C   UNL A   1      38.373  24.134  26.407  1.00  0.00     0.118 C 
BRANCH  24  25
ATOM     25  N   UNL A   1      39.780  23.862  26.149  1.00  0.00    -0.352 N 
ATOM     26  C   UNL A   1      40.889  24.575  26.536  1.00  0.00     0.251 C 
ATOM     27  H   UNL A   1      39.963  23.051  25.621  1.00  0.00     0.163 HD
ATOM     28  O   UNL A   1      41.990  24.297  26.068  1.00  0.00    -0.269 OA
BRANCH  26  29
ATOM     29  C   UNL A   1      40.750  25.688  27.500  1.00  0.00     0.039 A 
ATOM     30  C   UNL A   1      39.769  25.614  28.493  1.00  0.00     0.014 A 
ATOM     31  C   UNL A   1      41.594  26.799  27.425  1.00  0.00     0.014 A 
ATOM     32  C   UNL A   1      39.679  26.625  29.455  1.00  0.00     0.010 A 
ATOM     33  C   UNL A   1      41.551  27.765  28.423  1.00  0.00     0.010 A 
ATOM     34  C   UNL A   1      40.593  27.689  29.448  1.00  0.00    -0.014 A 
BRANCH  34  35
ATOM     35  C   UNL A   1      40.577  28.756  30.480  1.00  0.00     0.031 A 
ATOM     36  C   UNL A   1      41.473  28.636  31.681  1.00  0.00     0.074 A 
ATOM     37  C   UNL A   1      39.679  29.757  30.403  1.00  0.00     0.049 A 
ATOM     38  N   UNL A   1      41.474  29.331  32.787  1.00  0.00    -0.248 NA
ATOM     39  C   UNL A   1      42.476  27.560  31.643  1.00  0.00     0.031 C 
ATOM     40  C   UNL A   1      38.733  29.963  29.305  1.00  0.00     0.029 A 
ATOM     41  N   UNL A   1      39.390  30.770  31.284  1.00  0.00    -0.354 N 
ATOM     42  C   UNL A   1      42.449  28.755  33.593  1.00  0.00     0.074 A 
ATOM     43  C   UNL A   1      42.990  27.629  32.861  1.00  0.00     0.031 C 
ATOM     44  C   UNL A   1      37.966  31.030  29.580  1.00  0.00     0.029 A 
ATOM     45  C   UNL A   1      38.333  31.556  30.893  1.00  0.00     0.049 A 
ATOM     46  H   UNL A   1      39.894  30.919  32.117  1.00  0.00     0.167 HD
ATOM     47  C   UNL A   1      42.864  29.137  34.824  1.00  0.00     0.037 A 
ATOM     48  C   UNL A   1      37.709  32.567  31.529  1.00  0.00     0.037 A 
ATOM     49  C   UNL A   1      42.339  30.275  35.530  1.00  0.00     0.049 A 
ATOM     50  C   UNL A   1      38.193  32.990  32.889  1.00  0.00     0.074 A 
ATOM     51  C   UNL A   1      42.726  30.782  36.758  1.00  0.00     0.029 A 
ATOM     52  N   UNL A   1      41.309  31.085  35.070  1.00  0.00    -0.354 N 
ATOM     53  N   UNL A   1      39.146  32.464  33.621  1.00  0.00    -0.248 NA
ATOM     54  C   UNL A   1      37.527  34.143  33.507  1.00  0.00     0.031 C 
ATOM     55  C   UNL A   1      41.908  31.877  37.055  1.00  0.00     0.029 A 
ATOM     56  C   UNL A   1      41.041  32.082  35.993  1.00  0.00     0.049 A 
ATOM     57  H   UNL A   1      40.840  30.968  34.213  1.00  0.00     0.167 HD
ATOM     58  C   UNL A   1      39.214  33.239  34.773  1.00  0.00     0.074 A 
ATOM     59  C   UNL A   1      38.203  34.269  34.642  1.00  0.00     0.031 C 
ATOM     60  C   UNL A   1      40.043  33.112  35.838  1.00  0.00     0.037 A 
BRANCH  47  61
ATOM     61  C   UNL A   1      43.926  28.300  35.482  1.00  0.00     0.058 A 
ATOM     62  C   UNL A   1      45.293  28.516  35.243  1.00  0.00     0.135 A 
ATOM     63  C   UNL A   1      43.573  27.253  36.349  1.00  0.00     0.135 A 
ATOM     64  F   UNL A   1      45.687  29.496  34.413  1.00  0.00    -0.206 F 
ATOM     65  C   UNL A   1      46.268  27.691  35.791  1.00  0.00     0.059 A 
ATOM     66  C   UNL A   1      44.533  26.433  36.933  1.00  0.00     0.059 A 
ATOM     67  F   UNL A   1      42.282  27.004  36.618  1.00  0.00    -0.206 F 
ATOM     68  C   UNL A   1      45.877  26.643  36.626  1.00  0.00     0.060 A 
BRANCH  68  69
ATOM     69  S   UNL A   1      47.146  25.547  37.293  1.00  0.00     0.124 S 
ATOM     70  O   UNL A   1      47.530  26.257  38.509  1.00  0.00    -0.237 OA
ATOM     71  O   UNL A   1      46.414  24.301  37.493  1.00  0.00    -0.237 OA
ATOM     72  O   UNL A   1      48.155  25.516  36.239  1.00  0.00    -0.744 OA
ENDBRANCH  68  69
ENDBRANCH  47  61
BRANCH  48  73
ATOM     73  C   UNL A   1      36.570  33.250  30.865  1.00  0.00     0.058 A 
ATOM     74  C   UNL A   1      35.260  33.089  31.336  1.00  0.00     0.135 A 
ATOM     75  C   UNL A   1      36.776  34.136  29.794  1.00  0.00     0.135 A 
ATOM     76  F   UNL A   1      35.013  32.248  32.353  1.00  0.00    -0.206 F 
ATOM     77  C   UNL A   1      34.194  33.785  30.777  1.00  0.00     0.059 A 
ATOM     78  C   UNL A   1      35.728  34.858  29.231  1.00  0.00     0.059 A 
ATOM     79  F   UNL A   1      38.015  34.338  29.318  1.00  0.00    -0.206 F 
ATOM     80  C   UNL A   1      34.440  34.676  29.731  1.00  0.00     0.060 A 
BRANCH  80  81
ATOM     81  S   UNL A   1      33.063  35.649  29.080  1.00  0.00     0.124 S 
ATOM     82  O   UNL A   1      32.374  34.666  28.253  1.00  0.00    -0.237 OA
ATOM     83  O   UNL A   1      32.373  36.056  30.299  1.00  0.00    -0.237 OA
ATOM     84  O   UNL A   1      33.729  36.728  28.357  1.00  0.00    -0.744 OA
ENDBRANCH  80  81
ENDBRANCH  48  73
BRANCH  60  85
ATOM     85  C   UNL A   1      39.940  34.134  36.934  1.00  0.00     0.058 A 
ATOM     86  C   UNL A   1      40.578  35.380  36.846  1.00  0.00     0.135 A 
ATOM     87  C   UNL A   1      39.105  33.898  38.039  1.00  0.00     0.135 A 
ATOM     88  F   UNL A   1      41.393  35.651  35.814  1.00  0.00    -0.206 F 
ATOM     89  C   UNL A   1      40.387  36.361  37.814  1.00  0.00     0.059 A 
ATOM     90  C   UNL A   1      38.883  34.872  39.007  1.00  0.00     0.059 A 
ATOM     91  F   UNL A   1      38.468  32.723  38.165  1.00  0.00    -0.206 F 
ATOM     92  C   UNL A   1      39.531  36.100  38.887  1.00  0.00     0.060 A 
BRANCH  92  93
ATOM     93  S   UNL A   1      39.229  37.409  40.094  1.00  0.00     0.124 S 
ATOM     94  O   UNL A   1      38.316  38.280  39.362  1.00  0.00    -0.237 OA
ATOM     95  O   UNL A   1      38.644  36.673  41.212  1.00  0.00    -0.237 OA
ATOM     96  O   UNL A   1      40.558  37.957  40.341  1.00  0.00    -0.744 OA
ENDBRANCH  92  93
ENDBRANCH  60  85
ENDBRANCH  34  35
ENDBRANCH  26  29
ENDBRANCH  24  25
ENDBRANCH  23  24
ENDBRANCH   1  23
TORSDOF 17
ENDMDL
MODEL 3
REMARK VINA RESULT:     -11.5      1.651      2.177
REMARK SMILES C[C@@H](C(=O)NCCCNC(=O)c1ccc(-c2c3nc(c(-c4c(F)cc(S(=O)(=O)[O-])cc4F)c4ccc([nH]4)c(-c4c(F)cc(S(=O)(=O)[O-])cc4F)c4nc(c(-c5c(F)cc(S(=O)(=O)[O-])cc5F)c5ccc2[nH]5)C=C4)C=C3)cc1)c1ccc(C[C@H]2CCC[C@@H]2O)cc1Br
REMARK SMILES IDX 6 1 5 2 3 3 4 4 2 6 1 7 78 8 79 9 90 10 80 11 89 12 91 13
REMARK SMILES IDX 81 14 82 15 83 16 84 17 87 18 85 19 86 20 88 21 7 23 8 24
REMARK SMILES IDX 9 25 10 26 11 28 12 29 13 30 77 31 14 32 76 33 15 34 16 35
REMARK SMILES IDX 17 36 70 37 18 38 75 39 69 40 71 41 19 42 74 43 68 44 67 45
REMARK SMILES IDX 20 47 54 48 33 49 53 50 34 51 37 52 52 53 72 54 35 55 36 56
REMARK SMILES IDX 51 58 73 59 38 60 21 61 22 62 31 63 23 64 24 65 30 66 32 67
REMARK SMILES IDX 25 68 26 69 27 70 28 71 29 72 55 73 56 74 65 75 57 76 58 77
REMARK SMILES IDX 64 78 66 79 59 80 60 81 61 82 62 83 63 84 39 85 40 86 49 87
REMARK SMILES IDX 41 88 42 89 48 90 50 91 43 92 44 93 45 94 46 95 47 96
REMARK H PARENT 5 5 88 22 9 27 71 46 37 57
REMARK Flexibility Score: inf
ROOT
ATOM      1  C   UNL A   1      31.717  28.339  25.598  1.00  0.00     0.117 C 
ENDROOT
BRANCH   1   2
ATOM      2  N   UNL A   1      31.319  28.311  24.203  1.00  0.00    -0.356 N 
ATOM      3  C   UNL A   1      30.952  27.265  23.410  1.00  0.00     0.227 C 
ATOM      4  O   UNL A   1      30.726  27.531  22.227  1.00  0.00    -0.274 OA
ATOM      5  H   UNL A   1      31.314  29.189  23.758  1.00  0.00     0.163 HD
BRANCH   3   6
ATOM      6  C   UNL A   1      30.809  25.849  24.000  1.00  0.00     0.106 C 
ATOM      7  C   UNL A   1      29.879  25.820  25.219  1.00  0.00     0.023 C 
BRANCH   6   8
ATOM      8  C   UNL A   1      32.172  25.255  24.359  1.00  0.00    -0.022 A 
ATOM      9  C   UNL A   1      32.472  25.024  25.717  1.00  0.00     0.006 A 
ATOM     10  C   UNL A   1      33.169  24.970  23.414  1.00  0.00     0.022 A 
ATOM     11  C   UNL A   1      33.720  24.552  26.120  1.00  0.00     0.004 A 
ATOM     12  C   UNL A   1      34.429  24.510  23.825  1.00  0.00     0.019 A 
ATOM     13  Br  UNL A   1      32.923  25.193  21.542  1.00  0.00    -0.051 Br
ATOM     14  C   UNL A   1      34.728  24.331  25.183  1.00  0.00    -0.047 A 
BRANCH  14  15
ATOM     15  C   UNL A   1      36.121  23.947  25.618  1.00  0.00     0.041 C 
BRANCH  15  16
ATOM     16  C   UNL A   1      36.381  22.438  25.788  1.00  0.00     0.022 C 
ATOM     17  C   UNL A   1      35.162  21.517  25.606  1.00  0.00     0.007 C 
ATOM     18  C   UNL A   1      37.460  21.838  24.879  1.00  0.00     0.117 C 
ATOM     19  C   UNL A   1      35.678  20.265  24.890  1.00  0.00     0.003 C 
ATOM     20  C   UNL A   1      37.193  20.345  24.977  1.00  0.00     0.032 C 
BRANCH  18  21
ATOM     21  O   UNL A   1      38.763  22.142  25.343  1.00  0.00    -0.393 OA
ATOM     22  H   UNL A   1      39.412  21.907  24.662  1.00  0.00     0.210 HD
ENDBRANCH  18  21
ENDBRANCH  15  16
ENDBRANCH  14  15
ENDBRANCH   6   8
ENDBRANCH   3   6
ENDBRANCH   1   2
BRANCH   1  23
ATOM     23  C   UNL A   1      33.229  28.474  25.748  1.00  0.00     0.042 C 
BRANCH  23  24
ATOM     24  C   UNL A   1      33.701  28.603  27.193  1.00  0.00     0.118 C 
BRANCH  24  25
ATOM     25  N   UNL A   1      33.609  29.967  27.693  1.00  0.00    -0.352 N 
ATOM     26  C   UNL A   1      34.537  30.702  28.391  1.00  0.00     0.251 C 
ATOM     27  H   UNL A   1      32.760  30.429  27.504  1.00  0.00     0.163 HD
ATOM     28  O   UNL A   1      34.215  31.775  28.895  1.00  0.00    -0.269 OA
BRANCH  26  29
ATOM     29  C   UNL A   1      35.914  30.189  28.550  1.00  0.00     0.039 A 
ATOM     30  C   UNL A   1      36.779  30.199  27.452  1.00  0.00     0.014 A 
ATOM     31  C   UNL A   1      36.351  29.706  29.786  1.00  0.00     0.014 A 
ATOM     32  C   UNL A   1      38.106  29.788  27.610  1.00  0.00     0.010 A 
ATOM     33  C   UNL A   1      37.688  29.366  29.959  1.00  0.00     0.010 A 
ATOM     34  C   UNL A   1      38.579  29.402  28.874  1.00  0.00    -0.014 A 
BRANCH  34  35
ATOM     35  C   UNL A   1      39.993  29.012  29.106  1.00  0.00     0.031 A 
ATOM     36  C   UNL A   1      40.985  30.055  29.541  1.00  0.00     0.074 A 
ATOM     37  C   UNL A   1      40.407  27.765  28.811  1.00  0.00     0.049 A 
ATOM     38  N   UNL A   1      42.288  29.984  29.601  1.00  0.00    -0.248 NA
ATOM     39  C   UNL A   1      40.433  31.365  29.918  1.00  0.00     0.031 C 
ATOM     40  C   UNL A   1      39.546  26.674  28.349  1.00  0.00     0.029 A 
ATOM     41  N   UNL A   1      41.664  27.214  28.821  1.00  0.00    -0.354 N 
ATOM     42  C   UNL A   1      42.716  31.249  29.987  1.00  0.00     0.074 A 
ATOM     43  C   UNL A   1      41.534  32.076  30.107  1.00  0.00     0.031 C 
ATOM     44  C   UNL A   1      40.300  25.589  28.115  1.00  0.00     0.029 A 
ATOM     45  C   UNL A   1      41.702  25.918  28.364  1.00  0.00     0.049 A 
ATOM     46  H   UNL A   1      42.463  27.702  29.127  1.00  0.00     0.167 HD
ATOM     47  C   UNL A   1      43.977  31.678  30.230  1.00  0.00     0.037 A 
ATOM     48  C   UNL A   1      42.747  25.097  28.142  1.00  0.00     0.037 A 
ATOM     49  C   UNL A   1      45.142  30.840  30.135  1.00  0.00     0.049 A 
ATOM     50  C   UNL A   1      44.140  25.583  28.434  1.00  0.00     0.074 A 
ATOM     51  C   UNL A   1      46.459  31.159  30.413  1.00  0.00     0.029 A 
ATOM     52  N   UNL A   1      45.130  29.512  29.729  1.00  0.00    -0.354 N 
ATOM     53  N   UNL A   1      44.527  26.768  28.840  1.00  0.00    -0.248 NA
ATOM     54  C   UNL A   1      45.236  24.624  28.245  1.00  0.00     0.031 C 
ATOM     55  C   UNL A   1      47.247  30.036  30.142  1.00  0.00     0.029 A 
ATOM     56  C   UNL A   1      46.417  29.001  29.739  1.00  0.00     0.049 A 
ATOM     57  H   UNL A   1      44.324  29.008  29.472  1.00  0.00     0.167 HD
ATOM     58  C   UNL A   1      45.907  26.691  28.984  1.00  0.00     0.074 A 
ATOM     59  C   UNL A   1      46.288  25.341  28.618  1.00  0.00     0.031 C 
ATOM     60  C   UNL A   1      46.777  27.648  29.390  1.00  0.00     0.037 A 
BRANCH  47  61
ATOM     61  C   UNL A   1      44.151  33.124  30.606  1.00  0.00     0.058 A 
ATOM     62  C   UNL A   1      44.386  34.117  29.640  1.00  0.00     0.135 A 
ATOM     63  C   UNL A   1      44.103  33.521  31.952  1.00  0.00     0.135 A 
ATOM     64  F   UNL A   1      44.453  33.791  28.339  1.00  0.00    -0.206 F 
ATOM     65  C   UNL A   1      44.624  35.439  29.999  1.00  0.00     0.059 A 
ATOM     66  C   UNL A   1      44.307  34.844  32.331  1.00  0.00     0.059 A 
ATOM     67  F   UNL A   1      43.876  32.616  32.917  1.00  0.00    -0.206 F 
ATOM     68  C   UNL A   1      44.594  35.791  31.348  1.00  0.00     0.060 A 
BRANCH  68  69
ATOM     69  S   UNL A   1      44.954  37.499  31.806  1.00  0.00     0.124 S 
ATOM     70  O   UNL A   1      46.209  37.729  31.097  1.00  0.00    -0.237 OA
ATOM     71  O   UNL A   1      43.794  38.216  31.285  1.00  0.00    -0.237 OA
ATOM     72  O   UNL A   1      45.053  37.448  33.260  1.00  0.00    -0.744 OA
ENDBRANCH  68  69
ENDBRANCH  47  61
BRANCH  48  73
ATOM     73  C   UNL A   1      42.496  23.724  27.632  1.00  0.00     0.058 A 
ATOM     74  C   UNL A   1      42.419  23.471  26.256  1.00  0.00     0.135 A 
ATOM     75  C   UNL A   1      42.402  22.628  28.506  1.00  0.00     0.135 A 
ATOM     76  F   UNL A   1      42.497  24.488  25.382  1.00  0.00    -0.206 F 
ATOM     77  C   UNL A   1      42.266  22.181  25.760  1.00  0.00     0.059 A 
ATOM     78  C   UNL A   1      42.269  21.326  28.033  1.00  0.00     0.059 A 
ATOM     79  F   UNL A   1      42.487  22.817  29.832  1.00  0.00    -0.206 F 
ATOM     80  C   UNL A   1      42.203  21.113  26.657  1.00  0.00     0.060 A 
BRANCH  80  81
ATOM     81  S   UNL A   1      42.106  19.433  25.998  1.00  0.00     0.124 S 
ATOM     82  O   UNL A   1      42.583  18.646  27.129  1.00  0.00    -0.237 OA
ATOM     83  O   UNL A   1      40.687  19.309  25.684  1.00  0.00    -0.237 OA
ATOM     84  O   UNL A   1      42.994  19.477  24.840  1.00  0.00    -0.744 OA
ENDBRANCH  80  81
ENDBRANCH  48  73
BRANCH  60  85
ATOM     85  C   UNL A   1      48.226  27.274  29.513  1.00  0.00     0.058 A 
ATOM     86  C   UNL A   1      49.156  27.572  28.506  1.00  0.00     0.135 A 
ATOM     87  C   UNL A   1      48.706  26.702  30.703  1.00  0.00     0.135 A 
ATOM     88  F   UNL A   1      48.746  28.112  27.346  1.00  0.00    -0.206 F 
ATOM     89  C   UNL A   1      50.513  27.321  28.676  1.00  0.00     0.059 A 
ATOM     90  C   UNL A   1      50.062  26.462  30.903  1.00  0.00     0.059 A 
ATOM     91  F   UNL A   1      47.857  26.404  31.699  1.00  0.00    -0.206 F 
ATOM     92  C   UNL A   1      50.958  26.773  29.881  1.00  0.00     0.060 A 
BRANCH  92  93
ATOM     93  S   UNL A   1      52.730  26.526  30.121  1.00  0.00     0.124 S 
ATOM     94  O   UNL A   1      52.748  25.589  31.239  1.00  0.00    -0.237 OA
ATOM     95  O   UNL A   1      53.147  25.983  28.832  1.00  0.00    -0.237 OA
ATOM     96  O   UNL A   1      53.224  27.867  30.417  1.00  0.00    -0.744 OA
ENDBRANCH  92  93
ENDBRANCH  60  85
ENDBRANCH  34  35
ENDBRANCH  26  29
ENDBRANCH  24  25
ENDBRANCH  23  24
ENDBRANCH   1  23
TORSDOF 17
ENDMDL
