MODEL 1
REMARK VINA RESULT:     -12.6      0.000      0.000
REMARK SMILES Cc1ccc2c(c1C)O[C@@H](C(=O)NCCCNC(=O)c1ccc(-c3c4nc(c(-c5c(F)cc(S(=O)(=O)[O-])cc5F)c5ccc([nH]5)c(-c5c(F)cc(S(=O)(=O)[O-])cc5F)c5nc(c(-c6c(F)cc(S(=O)(=O)[O-])cc6F)c6ccc3[nH]6)C=C5)C=C4)cc1)CC2=O
REMARK SMILES IDX 17 1 18 2 19 3 16 5 15 6 14 7 13 8 11 9 12 10 10 12 1 13
REMARK SMILES IDX 2 14 3 15 7 16 4 17 6 18 8 19 5 20 9 21 87 22 86 23 88 24
REMARK SMILES IDX 20 25 21 26 85 27 22 28 84 29 23 30 24 31 25 32 78 33 26 34
REMARK SMILES IDX 83 35 77 36 79 37 27 38 82 39 76 40 75 41 28 43 62 44 41 45
REMARK SMILES IDX 61 46 42 47 45 48 60 49 80 50 43 51 44 52 59 54 81 55 46 56
REMARK SMILES IDX 29 57 30 58 39 59 31 60 32 61 38 62 40 63 33 64 34 65 35 66
REMARK SMILES IDX 36 67 37 68 63 69 64 70 73 71 65 72 66 73 72 74 74 75 67 76
REMARK SMILES IDX 68 77 69 78 70 79 71 80 47 81 48 82 57 83 49 84 50 85 56 86
REMARK SMILES IDX 58 87 51 88 52 89 53 90 54 91 55 92
REMARK H PARENT 17 4 13 11 79 42 45 53
REMARK Flexibility Score: inf
ROOT
ATOM      1  N   UNL A   1      39.601  23.941  26.227  1.00  0.00    -0.352 N 
ATOM      2  C   UNL A   1      40.695  24.684  26.596  1.00  0.00     0.251 C 
ATOM      3  O   UNL A   1      41.781  24.470  26.062  1.00  0.00    -0.269 OA
ATOM      4  H   UNL A   1      39.799  23.147  25.679  1.00  0.00     0.163 HD
ENDROOT
BRANCH   1   5
ATOM      5  C   UNL A   1      38.185  24.149  26.524  1.00  0.00     0.118 C 
BRANCH   5   6
ATOM      6  C   UNL A   1      37.294  23.691  25.377  1.00  0.00     0.042 C 
BRANCH   6   7
ATOM      7  C   UNL A   1      36.868  22.234  25.517  1.00  0.00     0.118 C 
BRANCH   7   8
ATOM      8  N   UNL A   1      35.876  22.043  26.555  1.00  0.00    -0.353 N 
ATOM      9  C   UNL A   1      34.520  21.984  26.536  1.00  0.00     0.261 C 
ATOM     10  O   UNL A   1      33.981  21.702  27.615  1.00  0.00    -0.271 OA
ATOM     11  H   UNL A   1      36.262  21.933  27.454  1.00  0.00     0.163 HD
BRANCH   9  12
ATOM     12  C   UNL A   1      33.634  22.303  25.302  1.00  0.00     0.269 C 
ATOM     13  C   UNL A   1      32.022  28.131  25.893  1.00  0.00     0.045 C 
ATOM     14  C   UNL A   1      31.783  26.660  25.678  1.00  0.00    -0.044 A 
ATOM     15  C   UNL A   1      30.585  26.114  26.174  1.00  0.00     0.005 A 
ATOM     16  C   UNL A   1      32.753  25.802  25.114  1.00  0.00    -0.005 A 
ATOM     17  C   UNL A   1      30.351  24.741  26.132  1.00  0.00     0.016 A 
ATOM     18  C   UNL A   1      32.538  24.406  25.154  1.00  0.00     0.134 A 
ATOM     19  C   UNL A   1      34.065  26.306  24.569  1.00  0.00     0.049 C 
ATOM     20  C   UNL A   1      31.342  23.888  25.648  1.00  0.00     0.060 A 
ATOM     21  O   UNL A   1      33.599  23.624  24.796  1.00  0.00    -0.479 OA
ATOM     22  C   UNL A   1      31.177  22.434  25.774  1.00  0.00     0.170 C 
ATOM     23  C   UNL A   1      32.307  21.565  25.326  1.00  0.00     0.136 C 
ATOM     24  O   UNL A   1      30.135  21.960  26.213  1.00  0.00    -0.294 OA
ENDBRANCH   9  12
ENDBRANCH   7   8
ENDBRANCH   6   7
ENDBRANCH   5   6
ENDBRANCH   1   5
BRANCH   2  25
ATOM     25  C   UNL A   1      40.564  25.743  27.618  1.00  0.00     0.039 A 
ATOM     26  C   UNL A   1      39.595  25.614  28.617  1.00  0.00     0.014 A 
ATOM     27  C   UNL A   1      41.388  26.870  27.580  1.00  0.00     0.014 A 
ATOM     28  C   UNL A   1      39.497  26.584  29.617  1.00  0.00     0.010 A 
ATOM     29  C   UNL A   1      41.343  27.794  28.616  1.00  0.00     0.010 A 
ATOM     30  C   UNL A   1      40.390  27.666  29.638  1.00  0.00    -0.014 A 
BRANCH  30  31
ATOM     31  C   UNL A   1      40.328  28.712  30.687  1.00  0.00     0.031 A 
ATOM     32  C   UNL A   1      41.232  28.605  31.885  1.00  0.00     0.074 A 
ATOM     33  C   UNL A   1      39.417  29.698  30.602  1.00  0.00     0.049 A 
ATOM     34  N   UNL A   1      41.251  29.328  32.973  1.00  0.00    -0.248 NA
ATOM     35  C   UNL A   1      42.229  27.520  31.864  1.00  0.00     0.031 C 
ATOM     36  C   UNL A   1      38.470  29.886  29.500  1.00  0.00     0.029 A 
ATOM     37  N   UNL A   1      39.126  30.723  31.467  1.00  0.00    -0.354 N 
ATOM     38  C   UNL A   1      42.250  28.781  33.770  1.00  0.00     0.074 A 
ATOM     39  C   UNL A   1      42.774  27.632  33.067  1.00  0.00     0.031 C 
ATOM     40  C   UNL A   1      37.715  30.968  29.749  1.00  0.00     0.029 A 
ATOM     41  C   UNL A   1      38.096  31.529  31.042  1.00  0.00     0.049 A 
ATOM     42  H   UNL A   1      39.609  30.866  32.313  1.00  0.00     0.167 HD
ATOM     43  C   UNL A   1      42.707  29.215  34.968  1.00  0.00     0.037 A 
ATOM     44  C   UNL A   1      37.523  32.594  31.635  1.00  0.00     0.037 A 
ATOM     45  C   UNL A   1      42.193  30.373  35.649  1.00  0.00     0.049 A 
ATOM     46  C   UNL A   1      38.033  33.045  32.977  1.00  0.00     0.074 A 
ATOM     47  C   UNL A   1      42.605  30.917  36.853  1.00  0.00     0.029 A 
ATOM     48  N   UNL A   1      41.159  31.170  35.182  1.00  0.00    -0.354 N 
ATOM     49  N   UNL A   1      38.994  32.531  33.708  1.00  0.00    -0.248 NA
ATOM     50  C   UNL A   1      37.383  34.219  33.575  1.00  0.00     0.031 C 
ATOM     51  C   UNL A   1      41.798  32.025  37.129  1.00  0.00     0.029 A 
ATOM     52  C   UNL A   1      40.912  32.198  36.076  1.00  0.00     0.049 A 
ATOM     53  H   UNL A   1      40.673  31.027  34.338  1.00  0.00     0.167 HD
ATOM     54  C   UNL A   1      39.082  33.335  34.840  1.00  0.00     0.074 A 
ATOM     55  C   UNL A   1      38.083  34.373  34.691  1.00  0.00     0.031 C 
ATOM     56  C   UNL A   1      39.914  33.225  35.905  1.00  0.00     0.037 A 
BRANCH  43  57
ATOM     57  C   UNL A   1      43.828  28.442  35.605  1.00  0.00     0.058 A 
ATOM     58  C   UNL A   1      45.172  28.723  35.309  1.00  0.00     0.135 A 
ATOM     59  C   UNL A   1      43.562  27.429  36.540  1.00  0.00     0.135 A 
ATOM     60  F   UNL A   1      45.481  29.667  34.406  1.00  0.00    -0.206 F 
ATOM     61  C   UNL A   1      46.211  28.013  35.899  1.00  0.00     0.059 A 
ATOM     62  C   UNL A   1      44.587  26.724  37.164  1.00  0.00     0.059 A 
ATOM     63  F   UNL A   1      42.295  27.116  36.855  1.00  0.00    -0.206 F 
ATOM     64  C   UNL A   1      45.909  27.016  36.828  1.00  0.00     0.060 A 
BRANCH  64  65
ATOM     65  S   UNL A   1      47.273  26.115  37.593  1.00  0.00     0.124 S 
ATOM     66  O   UNL A   1      48.371  27.063  37.439  1.00  0.00    -0.237 OA
ATOM     67  O   UNL A   1      46.791  25.919  38.956  1.00  0.00    -0.237 OA
ATOM     68  O   UNL A   1      47.374  24.902  36.786  1.00  0.00    -0.744 OA
ENDBRANCH  64  65
ENDBRANCH  43  57
BRANCH  44  69
ATOM     69  C   UNL A   1      36.428  33.327  30.946  1.00  0.00     0.058 A 
ATOM     70  C   UNL A   1      35.115  33.277  31.437  1.00  0.00     0.135 A 
ATOM     71  C   UNL A   1      36.668  34.108  29.804  1.00  0.00     0.135 A 
ATOM     72  F   UNL A   1      34.834  32.538  32.522  1.00  0.00    -0.206 F 
ATOM     73  C   UNL A   1      34.078  33.967  30.820  1.00  0.00     0.059 A 
ATOM     74  C   UNL A   1      35.651  34.826  29.182  1.00  0.00     0.059 A 
ATOM     75  F   UNL A   1      37.909  34.198  29.301  1.00  0.00    -0.206 F 
ATOM     76  C   UNL A   1      34.357  34.744  29.695  1.00  0.00     0.060 A 
BRANCH  76  77
ATOM     77  S   UNL A   1      33.008  35.678  28.938  1.00  0.00     0.124 S 
ATOM     78  O   UNL A   1      33.733  36.748  28.263  1.00  0.00    -0.237 OA
ATOM     79  O   UNL A   1      32.395  34.677  28.071  1.00  0.00    -0.237 OA
ATOM     80  O   UNL A   1      32.199  36.088  30.081  1.00  0.00    -0.744 OA
ENDBRANCH  76  77
ENDBRANCH  44  69
BRANCH  56  81
ATOM     81  C   UNL A   1      39.803  34.268  36.981  1.00  0.00     0.058 A 
ATOM     82  C   UNL A   1      40.436  35.514  36.865  1.00  0.00     0.135 A 
ATOM     83  C   UNL A   1      39.001  34.039  38.111  1.00  0.00     0.135 A 
ATOM     84  F   UNL A   1      41.218  35.779  35.807  1.00  0.00    -0.206 F 
ATOM     85  C   UNL A   1      40.295  36.492  37.843  1.00  0.00     0.059 A 
ATOM     86  C   UNL A   1      38.824  35.013  39.088  1.00  0.00     0.059 A 
ATOM     87  F   UNL A   1      38.364  32.867  38.263  1.00  0.00    -0.206 F 
ATOM     88  C   UNL A   1      39.483  36.233  38.951  1.00  0.00     0.060 A 
BRANCH  88  89
ATOM     89  S   UNL A   1      39.281  37.525  40.194  1.00  0.00     0.124 S 
ATOM     90  O   UNL A   1      38.239  38.352  39.592  1.00  0.00    -0.237 OA
ATOM     91  O   UNL A   1      38.884  36.764  41.374  1.00  0.00    -0.237 OA
ATOM     92  O   UNL A   1      40.605  38.138  40.267  1.00  0.00    -0.744 OA
ENDBRANCH  88  89
ENDBRANCH  56  81
ENDBRANCH  30  31
ENDBRANCH   2  25
TORSDOF 13
ENDMDL
MODEL 2
REMARK VINA RESULT:     -12.5      4.887     10.452
REMARK SMILES Cc1ccc2c(c1C)O[C@@H](C(=O)NCCCNC(=O)c1ccc(-c3c4nc(c(-c5c(F)cc(S(=O)(=O)[O-])cc5F)c5ccc([nH]5)c(-c5c(F)cc(S(=O)(=O)[O-])cc5F)c5nc(c(-c6c(F)cc(S(=O)(=O)[O-])cc6F)c6ccc3[nH]6)C=C5)C=C4)cc1)CC2=O
REMARK SMILES IDX 17 1 18 2 19 3 16 5 15 6 14 7 13 8 11 9 12 10 10 12 1 13
REMARK SMILES IDX 2 14 3 15 7 16 4 17 6 18 8 19 5 20 9 21 87 22 86 23 88 24
REMARK SMILES IDX 20 25 21 26 85 27 22 28 84 29 23 30 24 31 25 32 78 33 26 34
REMARK SMILES IDX 83 35 77 36 79 37 27 38 82 39 76 40 75 41 28 43 62 44 41 45
REMARK SMILES IDX 61 46 42 47 45 48 60 49 80 50 43 51 44 52 59 54 81 55 46 56
REMARK SMILES IDX 29 57 30 58 39 59 31 60 32 61 38 62 40 63 33 64 34 65 35 66
REMARK SMILES IDX 36 67 37 68 63 69 64 70 73 71 65 72 66 73 72 74 74 75 67 76
REMARK SMILES IDX 68 77 69 78 70 79 71 80 47 81 48 82 57 83 49 84 50 85 56 86
REMARK SMILES IDX 58 87 51 88 52 89 53 90 54 91 55 92
REMARK H PARENT 17 4 13 11 79 42 45 53
REMARK Flexibility Score: inf
ROOT
ATOM      1  N   UNL A   1      33.678  29.299  26.932  1.00  0.00    -0.352 N 
ATOM      2  C   UNL A   1      34.405  30.200  27.671  1.00  0.00     0.251 C 
ATOM      3  O   UNL A   1      33.876  31.246  28.043  1.00  0.00    -0.269 OA
ATOM      4  H   UNL A   1      32.820  29.637  26.586  1.00  0.00     0.163 HD
ENDROOT
BRANCH   1   5
ATOM      5  C   UNL A   1      33.986  27.914  26.580  1.00  0.00     0.118 C 
BRANCH   5   6
ATOM      6  C   UNL A   1      32.777  27.200  25.991  1.00  0.00     0.042 C 
BRANCH   6   7
ATOM      7  C   UNL A   1      32.834  25.691  26.200  1.00  0.00     0.118 C 
BRANCH   7   8
ATOM      8  N   UNL A   1      31.605  25.161  26.753  1.00  0.00    -0.353 N 
ATOM      9  C   UNL A   1      30.791  24.139  26.385  1.00  0.00     0.261 C 
ATOM     10  O   UNL A   1      29.856  23.891  27.159  1.00  0.00    -0.271 OA
ATOM     11  H   UNL A   1      31.298  25.637  27.559  1.00  0.00     0.163 HD
BRANCH   9  12
ATOM     12  C   UNL A   1      30.921  23.333  25.064  1.00  0.00     0.269 C 
ATOM     13  C   UNL A   1      36.681  21.410  24.869  1.00  0.00     0.045 C 
ATOM     14  C   UNL A   1      35.442  22.078  24.333  1.00  0.00    -0.044 A 
ATOM     15  C   UNL A   1      35.614  23.176  23.472  1.00  0.00     0.005 A 
ATOM     16  C   UNL A   1      34.141  21.723  24.752  1.00  0.00    -0.005 A 
ATOM     17  C   UNL A   1      34.522  23.927  23.041  1.00  0.00     0.016 A 
ATOM     18  C   UNL A   1      33.054  22.543  24.375  1.00  0.00     0.134 A 
ATOM     19  C   UNL A   1      33.873  20.566  25.681  1.00  0.00     0.049 C 
ATOM     20  C   UNL A   1      33.247  23.625  23.518  1.00  0.00     0.060 A 
ATOM     21  O   UNL A   1      31.861  22.278  24.985  1.00  0.00    -0.479 OA
ATOM     22  C   UNL A   1      32.125  24.524  23.217  1.00  0.00     0.170 C 
ATOM     23  C   UNL A   1      30.798  24.208  23.828  1.00  0.00     0.136 C 
ATOM     24  O   UNL A   1      32.278  25.486  22.472  1.00  0.00    -0.294 OA
ENDBRANCH   9  12
ENDBRANCH   7   8
ENDBRANCH   6   7
ENDBRANCH   5   6
ENDBRANCH   1   5
BRANCH   2  25
ATOM     25  C   UNL A   1      35.808  29.908  28.029  1.00  0.00     0.039 A 
ATOM     26  C   UNL A   1      36.104  29.440  29.313  1.00  0.00     0.014 A 
ATOM     27  C   UNL A   1      36.833  30.112  27.102  1.00  0.00     0.014 A 
ATOM     28  C   UNL A   1      37.421  29.113  29.644  1.00  0.00     0.010 A 
ATOM     29  C   UNL A   1      38.129  29.715  27.407  1.00  0.00     0.010 A 
ATOM     30  C   UNL A   1      38.437  29.222  28.683  1.00  0.00    -0.014 A 
BRANCH  30  31
ATOM     31  C   UNL A   1      39.845  28.875  28.990  1.00  0.00     0.031 A 
ATOM     32  C   UNL A   1      40.743  29.916  29.599  1.00  0.00     0.074 A 
ATOM     33  C   UNL A   1      40.330  27.666  28.651  1.00  0.00     0.049 A 
ATOM     34  N   UNL A   1      42.029  29.871  29.824  1.00  0.00    -0.248 NA
ATOM     35  C   UNL A   1      40.109  31.191  29.980  1.00  0.00     0.031 C 
ATOM     36  C   UNL A   1      39.559  26.586  28.031  1.00  0.00     0.029 A 
ATOM     37  N   UNL A   1      41.594  27.146  28.767  1.00  0.00    -0.354 N 
ATOM     38  C   UNL A   1      42.361  31.110  30.360  1.00  0.00     0.074 A 
ATOM     39  C   UNL A   1      41.154  31.905  30.373  1.00  0.00     0.031 C 
ATOM     40  C   UNL A   1      40.363  25.528  27.836  1.00  0.00     0.029 A 
ATOM     41  C   UNL A   1      41.712  25.865  28.281  1.00  0.00     0.049 A 
ATOM     42  H   UNL A   1      42.347  27.644  29.162  1.00  0.00     0.167 HD
ATOM     43  C   UNL A   1      43.559  31.534  30.825  1.00  0.00     0.037 A 
ATOM     44  C   UNL A   1      42.789  25.061  28.198  1.00  0.00     0.037 A 
ATOM     45  C   UNL A   1      44.749  30.727  30.828  1.00  0.00     0.049 A 
ATOM     46  C   UNL A   1      44.116  25.563  28.701  1.00  0.00     0.074 A 
ATOM     47  C   UNL A   1      46.008  31.050  31.303  1.00  0.00     0.029 A 
ATOM     48  N   UNL A   1      44.826  29.431  30.337  1.00  0.00    -0.354 N 
ATOM     49  N   UNL A   1      44.410  26.729  29.226  1.00  0.00    -0.248 NA
ATOM     50  C   UNL A   1      45.256  24.643  28.600  1.00  0.00     0.031 C 
ATOM     51  C   UNL A   1      46.854  29.961  31.070  1.00  0.00     0.029 A 
ATOM     52  C   UNL A   1      46.113  28.943  30.490  1.00  0.00     0.049 A 
ATOM     53  H   UNL A   1      44.076  28.932  29.940  1.00  0.00     0.167 HD
ATOM     54  C   UNL A   1      45.763  26.672  29.544  1.00  0.00     0.074 A 
ATOM     55  C   UNL A   1      46.226  25.355  29.159  1.00  0.00     0.031 C 
ATOM     56  C   UNL A   1      46.550  27.624  30.104  1.00  0.00     0.037 A 
BRANCH  43  57
ATOM     57  C   UNL A   1      43.632  32.929  31.383  1.00  0.00     0.058 A 
ATOM     58  C   UNL A   1      43.366  33.190  32.737  1.00  0.00     0.135 A 
ATOM     59  C   UNL A   1      43.998  34.011  30.567  1.00  0.00     0.135 A 
ATOM     60  F   UNL A   1      42.990  32.195  33.555  1.00  0.00    -0.206 F 
ATOM     61  C   UNL A   1      43.437  34.477  33.257  1.00  0.00     0.059 A 
ATOM     62  C   UNL A   1      44.103  35.303  31.073  1.00  0.00     0.059 A 
ATOM     63  F   UNL A   1      44.258  33.818  29.264  1.00  0.00    -0.206 F 
ATOM     64  C   UNL A   1      43.809  35.528  32.417  1.00  0.00     0.060 A 
BRANCH  64  65
ATOM     65  S   UNL A   1      43.907  37.190  33.116  1.00  0.00     0.124 S 
ATOM     66  O   UNL A   1      42.742  37.206  33.994  1.00  0.00    -0.237 OA
ATOM     67  O   UNL A   1      45.204  37.170  33.784  1.00  0.00    -0.237 OA
ATOM     68  O   UNL A   1      43.821  38.057  31.944  1.00  0.00    -0.744 OA
ENDBRANCH  64  65
ENDBRANCH  43  57
BRANCH  44  69
ATOM     69  C   UNL A   1      42.649  23.685  27.650  1.00  0.00     0.058 A 
ATOM     70  C   UNL A   1      42.442  22.593  28.506  1.00  0.00     0.135 A 
ATOM     71  C   UNL A   1      42.693  23.434  26.270  1.00  0.00     0.135 A 
ATOM     72  F   UNL A   1      42.399  22.782  29.834  1.00  0.00    -0.206 F 
ATOM     73  C   UNL A   1      42.291  21.301  28.016  1.00  0.00     0.059 A 
ATOM     74  C   UNL A   1      42.522  22.152  25.754  1.00  0.00     0.059 A 
ATOM     75  F   UNL A   1      42.877  24.447  25.408  1.00  0.00    -0.206 F 
ATOM     76  C   UNL A   1      42.328  21.091  26.638  1.00  0.00     0.060 A 
BRANCH  76  77
ATOM     77  S   UNL A   1      42.076  19.414  26.015  1.00  0.00     0.124 S 
ATOM     78  O   UNL A   1      42.562  18.609  27.129  1.00  0.00    -0.237 OA
ATOM     79  O   UNL A   1      40.634  19.387  25.789  1.00  0.00    -0.237 OA
ATOM     80  O   UNL A   1      42.894  19.376  24.806  1.00  0.00    -0.744 OA
ENDBRANCH  76  77
ENDBRANCH  44  69
BRANCH  56  81
ATOM     81  C   UNL A   1      47.987  27.269  30.363  1.00  0.00     0.058 A 
ATOM     82  C   UNL A   1      48.991  27.528  29.418  1.00  0.00     0.135 A 
ATOM     83  C   UNL A   1      48.372  26.721  31.597  1.00  0.00     0.135 A 
ATOM     84  F   UNL A   1      48.674  28.046  28.220  1.00  0.00    -0.206 F 
ATOM     85  C   UNL A   1      50.325  27.238  29.679  1.00  0.00     0.059 A 
ATOM     86  C   UNL A   1      49.703  26.447  31.891  1.00  0.00     0.059 A 
ATOM     87  F   UNL A   1      47.450  26.465  32.540  1.00  0.00    -0.206 F 
ATOM     88  C   UNL A   1      50.672  26.700  30.921  1.00  0.00     0.060 A 
BRANCH  88  89
ATOM     89  S   UNL A   1      52.412  26.361  31.259  1.00  0.00     0.124 S 
ATOM     90  O   UNL A   1      52.767  27.482  32.124  1.00  0.00    -0.237 OA
ATOM     91  O   UNL A   1      52.356  25.054  31.907  1.00  0.00    -0.237 OA
ATOM     92  O   UNL A   1      53.025  26.371  29.934  1.00  0.00    -0.744 OA
ENDBRANCH  88  89
ENDBRANCH  56  81
ENDBRANCH  30  31
ENDBRANCH   2  25
TORSDOF 13
ENDMDL
MODEL 3
REMARK VINA RESULT:     -12.5      4.897     10.453
REMARK SMILES Cc1ccc2c(c1C)O[C@@H](C(=O)NCCCNC(=O)c1ccc(-c3c4nc(c(-c5c(F)cc(S(=O)(=O)[O-])cc5F)c5ccc([nH]5)c(-c5c(F)cc(S(=O)(=O)[O-])cc5F)c5nc(c(-c6c(F)cc(S(=O)(=O)[O-])cc6F)c6ccc3[nH]6)C=C5)C=C4)cc1)CC2=O
REMARK SMILES IDX 17 1 18 2 19 3 16 5 15 6 14 7 13 8 11 9 12 10 10 12 1 13
REMARK SMILES IDX 2 14 3 15 7 16 4 17 6 18 8 19 5 20 9 21 87 22 86 23 88 24
REMARK SMILES IDX 20 25 21 26 85 27 22 28 84 29 23 30 24 31 25 32 78 33 26 34
REMARK SMILES IDX 83 35 77 36 79 37 27 38 82 39 76 40 75 41 28 43 62 44 41 45
REMARK SMILES IDX 61 46 42 47 45 48 60 49 80 50 43 51 44 52 59 54 81 55 46 56
REMARK SMILES IDX 29 57 30 58 39 59 31 60 32 61 38 62 40 63 33 64 34 65 35 66
REMARK SMILES IDX 36 67 37 68 63 69 64 70 73 71 65 72 66 73 72 74 74 75 67 76
REMARK SMILES IDX 68 77 69 78 70 79 71 80 47 81 48 82 57 83 49 84 50 85 56 86
REMARK SMILES IDX 58 87 51 88 52 89 53 90 54 91 55 92
REMARK H PARENT 17 4 13 11 79 42 45 53
REMARK Flexibility Score: inf
ROOT
ATOM      1  N   UNL A   1      33.599  29.648  27.399  1.00  0.00    -0.352 N 
ATOM      2  C   UNL A   1      34.471  30.477  28.062  1.00  0.00     0.251 C 
ATOM      3  O   UNL A   1      34.079  31.569  28.468  1.00  0.00    -0.269 OA
ATOM      4  H   UNL A   1      32.750  30.065  27.126  1.00  0.00     0.163 HD
ENDROOT
BRANCH   1   5
ATOM      5  C   UNL A   1      33.741  28.239  27.036  1.00  0.00     0.118 C 
BRANCH   5   6
ATOM      6  C   UNL A   1      33.748  28.043  25.526  1.00  0.00     0.042 C 
BRANCH   6   7
ATOM      7  C   UNL A   1      32.369  27.689  24.979  1.00  0.00     0.118 C 
BRANCH   7   8
ATOM      8  N   UNL A   1      32.410  26.585  24.043  1.00  0.00    -0.353 N 
ATOM      9  C   UNL A   1      32.471  25.239  24.205  1.00  0.00     0.261 C 
ATOM     10  O   UNL A   1      32.388  24.569  23.166  1.00  0.00    -0.271 OA
ATOM     11  H   UNL A   1      32.390  26.867  23.100  1.00  0.00     0.163 HD
BRANCH   9  12
ATOM     12  C   UNL A   1      32.695  24.516  25.561  1.00  0.00     0.269 C 
ATOM     13  C   UNL A   1      37.719  21.178  24.834  1.00  0.00     0.045 C 
ATOM     14  C   UNL A   1      36.282  21.423  25.210  1.00  0.00    -0.044 A 
ATOM     15  C   UNL A   1      35.366  20.376  25.006  1.00  0.00     0.005 A 
ATOM     16  C   UNL A   1      35.808  22.684  25.637  1.00  0.00    -0.005 A 
ATOM     17  C   UNL A   1      34.001  20.569  25.203  1.00  0.00     0.016 A 
ATOM     18  C   UNL A   1      34.415  22.887  25.753  1.00  0.00     0.134 A 
ATOM     19  C   UNL A   1      36.723  23.860  25.871  1.00  0.00     0.049 C 
ATOM     20  C   UNL A   1      33.526  21.834  25.549  1.00  0.00     0.060 A 
ATOM     21  O   UNL A   1      34.011  24.176  25.955  1.00  0.00    -0.479 OA
ATOM     22  C   UNL A   1      32.079  22.087  25.574  1.00  0.00     0.170 C 
ATOM     23  C   UNL A   1      31.624  23.482  25.859  1.00  0.00     0.136 C 
ATOM     24  O   UNL A   1      31.282  21.174  25.390  1.00  0.00    -0.294 OA
ENDBRANCH   9  12
ENDBRANCH   7   8
ENDBRANCH   6   7
ENDBRANCH   5   6
ENDBRANCH   1   5
BRANCH   2  25
ATOM     25  C   UNL A   1      35.866  30.053  28.299  1.00  0.00     0.039 A 
ATOM     26  C   UNL A   1      36.801  30.165  27.266  1.00  0.00     0.014 A 
ATOM     27  C   UNL A   1      36.247  29.529  29.537  1.00  0.00     0.014 A 
ATOM     28  C   UNL A   1      38.133  29.814  27.495  1.00  0.00     0.010 A 
ATOM     29  C   UNL A   1      37.585  29.253  29.788  1.00  0.00     0.010 A 
ATOM     30  C   UNL A   1      38.539  29.383  28.767  1.00  0.00    -0.014 A 
BRANCH  30  31
ATOM     31  C   UNL A   1      39.945  29.012  29.056  1.00  0.00     0.031 A 
ATOM     32  C   UNL A   1      40.868  30.038  29.652  1.00  0.00     0.074 A 
ATOM     33  C   UNL A   1      40.403  27.794  28.714  1.00  0.00     0.049 A 
ATOM     34  N   UNL A   1      42.156  29.971  29.860  1.00  0.00    -0.248 NA
ATOM     35  C   UNL A   1      40.262  31.325  30.038  1.00  0.00     0.031 C 
ATOM     36  C   UNL A   1      39.606  26.727  28.106  1.00  0.00     0.029 A 
ATOM     37  N   UNL A   1      41.660  27.252  28.815  1.00  0.00    -0.354 N 
ATOM     38  C   UNL A   1      42.517  31.205  30.389  1.00  0.00     0.074 A 
ATOM     39  C   UNL A   1      41.324  32.021  30.416  1.00  0.00     0.031 C 
ATOM     40  C   UNL A   1      40.388  25.654  27.903  1.00  0.00     0.029 A 
ATOM     41  C   UNL A   1      41.749  25.968  28.330  1.00  0.00     0.049 A 
ATOM     42  H   UNL A   1      42.426  27.737  29.198  1.00  0.00     0.167 HD
ATOM     43  C   UNL A   1      43.728  31.609  30.838  1.00  0.00     0.037 A 
ATOM     44  C   UNL A   1      42.810  25.145  28.235  1.00  0.00     0.037 A 
ATOM     45  C   UNL A   1      44.903  30.780  30.827  1.00  0.00     0.049 A 
ATOM     46  C   UNL A   1      44.152  25.625  28.719  1.00  0.00     0.074 A 
ATOM     47  C   UNL A   1      46.174  31.082  31.285  1.00  0.00     0.029 A 
ATOM     48  N   UNL A   1      44.951  29.483  30.339  1.00  0.00    -0.354 N 
ATOM     49  N   UNL A   1      44.473  26.786  29.239  1.00  0.00    -0.248 NA
ATOM     50  C   UNL A   1      45.275  24.684  28.606  1.00  0.00     0.031 C 
ATOM     51  C   UNL A   1      46.998  29.978  31.044  1.00  0.00     0.029 A 
ATOM     52  C   UNL A   1      46.231  28.972  30.476  1.00  0.00     0.049 A 
ATOM     53  H   UNL A   1      44.187  28.996  29.952  1.00  0.00     0.167 HD
ATOM     54  C   UNL A   1      45.829  26.706  29.539  1.00  0.00     0.074 A 
ATOM     55  C   UNL A   1      46.264  25.380  29.151  1.00  0.00     0.031 C 
ATOM     56  C   UNL A   1      46.640  27.645  30.087  1.00  0.00     0.037 A 
BRANCH  43  57
ATOM     57  C   UNL A   1      43.833  33.003  31.391  1.00  0.00     0.058 A 
ATOM     58  C   UNL A   1      44.164  34.093  30.571  1.00  0.00     0.135 A 
ATOM     59  C   UNL A   1      43.572  33.259  32.747  1.00  0.00     0.135 A 
ATOM     60  F   UNL A   1      44.444  33.900  29.272  1.00  0.00    -0.206 F 
ATOM     61  C   UNL A   1      44.258  35.384  31.078  1.00  0.00     0.059 A 
ATOM     62  C   UNL A   1      43.632  34.548  33.270  1.00  0.00     0.059 A 
ATOM     63  F   UNL A   1      43.255  32.253  33.577  1.00  0.00    -0.206 F 
ATOM     64  C   UNL A   1      43.987  35.602  32.430  1.00  0.00     0.060 A 
BRANCH  64  65
ATOM     65  S   UNL A   1      44.102  37.287  33.066  1.00  0.00     0.124 S 
ATOM     66  O   UNL A   1      44.022  38.069  31.837  1.00  0.00    -0.237 OA
ATOM     67  O   UNL A   1      42.940  37.368  33.945  1.00  0.00    -0.237 OA
ATOM     68  O   UNL A   1      45.397  37.310  33.740  1.00  0.00    -0.744 OA
ENDBRANCH  64  65
ENDBRANCH  43  57
BRANCH  44  69
ATOM     69  C   UNL A   1      42.638  23.771  27.692  1.00  0.00     0.058 A 
ATOM     70  C   UNL A   1      42.468  22.678  28.554  1.00  0.00     0.135 A 
ATOM     71  C   UNL A   1      42.617  23.522  26.311  1.00  0.00     0.135 A 
ATOM     72  F   UNL A   1      42.489  22.864  29.883  1.00  0.00    -0.206 F 
ATOM     73  C   UNL A   1      42.289  21.388  28.070  1.00  0.00     0.059 A 
ATOM     74  C   UNL A   1      42.417  22.242  25.801  1.00  0.00     0.059 A 
ATOM     75  F   UNL A   1      42.764  24.536  25.443  1.00  0.00    -0.206 F 
ATOM     76  C   UNL A   1      42.260  21.180  26.691  1.00  0.00     0.060 A 
BRANCH  76  77
ATOM     77  S   UNL A   1      41.972  19.505  26.078  1.00  0.00     0.124 S 
ATOM     78  O   UNL A   1      42.811  19.479  24.886  1.00  0.00    -0.237 OA
ATOM     79  O   UNL A   1      42.428  18.689  27.198  1.00  0.00    -0.237 OA
ATOM     80  O   UNL A   1      40.532  19.477  25.836  1.00  0.00    -0.744 OA
ENDBRANCH  76  77
ENDBRANCH  44  69
BRANCH  56  81
ATOM     81  C   UNL A   1      48.074  27.265  30.328  1.00  0.00     0.058 A 
ATOM     82  C   UNL A   1      49.076  27.540  29.386  1.00  0.00     0.135 A 
ATOM     83  C   UNL A   1      48.457  26.676  31.544  1.00  0.00     0.135 A 
ATOM     84  F   UNL A   1      48.760  28.096  28.205  1.00  0.00    -0.206 F 
ATOM     85  C   UNL A   1      50.408  27.226  29.632  1.00  0.00     0.059 A 
ATOM     86  C   UNL A   1      49.787  26.378  31.823  1.00  0.00     0.059 A 
ATOM     87  F   UNL A   1      47.537  26.405  32.484  1.00  0.00    -0.206 F 
ATOM     88  C   UNL A   1      50.754  26.647  30.856  1.00  0.00     0.060 A 
BRANCH  88  89
ATOM     89  S   UNL A   1      52.491  26.278  31.175  1.00  0.00     0.124 S 
ATOM     90  O   UNL A   1      53.039  26.247  29.823  1.00  0.00    -0.237 OA
ATOM     91  O   UNL A   1      52.904  27.409  32.000  1.00  0.00    -0.237 OA
ATOM     92  O   UNL A   1      52.445  24.991  31.865  1.00  0.00    -0.744 OA
ENDBRANCH  88  89
ENDBRANCH  56  81
ENDBRANCH  30  31
ENDBRANCH   2  25
TORSDOF 13
ENDMDL
