MODEL 1
REMARK VINA RESULT:     -11.2      0.000      0.000
REMARK SMILES CC(=O)NCCNC(=O)C[N@H+]1CC[C@@H](C(=O)NCCCNC(=O)c2ccc(-c3c4nc(c(-c5c(F)cc(S(=O)(=O)[O-])cc5F)c5ccc([nH]5)c(-c5c(F)cc(S(=O)(=O)[O-])cc5F)c5nc(c(-c6c(F)cc(S(=O)(=O)[O-])cc6F)c6ccc3[nH]6)C=C5)C=C4)cc2)[C@H]1C
REMARK SMILES IDX 18 1 17 2 15 3 16 4 14 6 11 7 12 8 90 9 13 11 91 12 10 13
REMARK SMILES IDX 8 14 7 15 9 17 6 18 5 19 4 20 1 21 2 22 3 23 19 25 20 26
REMARK SMILES IDX 21 27 22 28 23 30 24 31 25 32 89 33 26 34 88 35 27 36 28 37
REMARK SMILES IDX 29 38 82 39 30 40 87 41 81 42 83 43 31 44 86 45 80 46 79 47
REMARK SMILES IDX 32 49 66 50 45 51 65 52 46 53 49 54 64 55 84 56 47 57 48 58
REMARK SMILES IDX 63 60 85 61 50 62 33 63 34 64 43 65 35 66 36 67 42 68 44 69
REMARK SMILES IDX 37 70 38 71 39 72 40 73 41 74 67 75 68 76 77 77 69 78 70 79
REMARK SMILES IDX 76 80 78 81 71 82 72 83 73 84 74 85 75 86 51 87 52 88 61 89
REMARK SMILES IDX 53 90 54 91 60 92 62 93 55 94 56 95 57 96 58 97 59 98
REMARK H PARENT 17 5 11 10 7 16 4 24 21 29 83 48 49 59
REMARK Flexibility Score: inf
ROOT
ATOM      1  C   UNL A   1      34.199  30.402  27.246  1.00  0.00     0.117 C 
ENDROOT
BRANCH   1   2
ATOM      2  N   UNL A   1      32.913  30.331  26.571  1.00  0.00    -0.356 N 
ATOM      3  C   UNL A   1      32.519  29.754  25.409  1.00  0.00     0.229 C 
ATOM      4  O   UNL A   1      31.342  29.930  25.076  1.00  0.00    -0.275 OA
ATOM      5  H   UNL A   1      32.187  30.793  27.050  1.00  0.00     0.163 HD
BRANCH   3   6
ATOM      6  C   UNL A   1      33.420  28.883  24.551  1.00  0.00     0.142 C 
ATOM      7  N   UNL A   1      33.618  26.660  23.679  1.00  0.00    -0.324 N 
ATOM      8  C   UNL A   1      33.497  27.558  22.544  1.00  0.00     0.263 C 
ATOM      9  C   UNL A   1      33.678  27.416  24.941  1.00  0.00     0.194 C 
ATOM     10  H   UNL A   1      34.533  26.212  23.639  1.00  0.00     0.348 HD
ATOM     11  C   UNL A   1      33.052  28.900  23.076  1.00  0.00     0.081 C 
ATOM     12  C   UNL A   1      32.922  26.877  26.150  1.00  0.00     0.076 C 
BRANCH   7  13
ATOM     13  C   UNL A   1      32.889  25.397  23.602  1.00  0.00     0.363 C 
BRANCH  13  14
ATOM     14  C   UNL A   1      33.797  24.281  23.067  1.00  0.00     0.275 C 
ATOM     15  N   UNL A   1      34.829  23.825  23.846  1.00  0.00    -0.349 N 
ATOM     16  H   UNL A   1      35.498  23.263  23.393  1.00  0.00     0.163 HD
ATOM     17  O   UNL A   1      33.645  23.797  21.945  1.00  0.00    -0.269 OA
BRANCH  15  18
ATOM     18  C   UNL A   1      35.052  24.072  25.259  1.00  0.00     0.137 C 
BRANCH  18  19
ATOM     19  C   UNL A   1      35.498  22.794  25.981  1.00  0.00     0.137 C 
BRANCH  19  20
ATOM     20  N   UNL A   1      36.925  22.825  26.270  1.00  0.00    -0.355 N 
ATOM     21  C   UNL A   1      37.531  21.073  24.650  1.00  0.00     0.114 C 
ATOM     22  C   UNL A   1      37.904  22.033  25.746  1.00  0.00     0.216 C 
ATOM     23  O   UNL A   1      39.058  22.126  26.161  1.00  0.00    -0.275 OA
ATOM     24  H   UNL A   1      37.219  23.500  26.922  1.00  0.00     0.163 HD
ENDBRANCH  19  20
ENDBRANCH  18  19
ENDBRANCH  15  18
ENDBRANCH  13  14
ENDBRANCH   7  13
ENDBRANCH   3   6
ENDBRANCH   1   2
BRANCH   1  25
ATOM     25  C   UNL A   1      34.568  31.833  27.622  1.00  0.00     0.042 C 
BRANCH  25  26
ATOM     26  C   UNL A   1      35.781  31.953  28.533  1.00  0.00     0.118 C 
BRANCH  26  27
ATOM     27  N   UNL A   1      35.564  31.351  29.838  1.00  0.00    -0.352 N 
ATOM     28  C   UNL A   1      36.352  30.475  30.548  1.00  0.00     0.251 C 
ATOM     29  H   UNL A   1      34.725  31.610  30.281  1.00  0.00     0.163 HD
ATOM     30  O   UNL A   1      35.888  29.927  31.543  1.00  0.00    -0.269 OA
BRANCH  28  31
ATOM     31  C   UNL A   1      37.735  30.165  30.109  1.00  0.00     0.039 A 
ATOM     32  C   UNL A   1      38.739  30.047  31.075  1.00  0.00     0.014 A 
ATOM     33  C   UNL A   1      38.057  30.020  28.757  1.00  0.00     0.014 A 
ATOM     34  C   UNL A   1      40.043  29.715  30.689  1.00  0.00     0.010 A 
ATOM     35  C   UNL A   1      39.330  29.595  28.384  1.00  0.00     0.010 A 
ATOM     36  C   UNL A   1      40.342  29.449  29.344  1.00  0.00    -0.014 A 
BRANCH  36  37
ATOM     37  C   UNL A   1      41.702  29.026  28.916  1.00  0.00     0.031 A 
ATOM     38  C   UNL A   1      42.811  30.039  28.805  1.00  0.00     0.074 A 
ATOM     39  C   UNL A   1      41.921  27.750  28.542  1.00  0.00     0.049 A 
ATOM     40  N   UNL A   1      44.031  29.885  28.359  1.00  0.00    -0.248 NA
ATOM     41  C   UNL A   1      42.493  31.414  29.219  1.00  0.00     0.031 C 
ATOM     42  C   UNL A   1      40.916  26.686  28.543  1.00  0.00     0.029 A 
ATOM     43  N   UNL A   1      43.052  27.137  28.065  1.00  0.00    -0.354 N 
ATOM     44  C   UNL A   1      44.616  31.145  28.412  1.00  0.00     0.074 A 
ATOM     45  C   UNL A   1      43.601  32.060  28.886  1.00  0.00     0.031 C 
ATOM     46  C   UNL A   1      41.476  25.551  28.099  1.00  0.00     0.029 A 
ATOM     47  C   UNL A   1      42.868  25.814  27.741  1.00  0.00     0.049 A 
ATOM     48  H   UNL A   1      43.915  27.601  27.964  1.00  0.00     0.167 HD
ATOM     49  C   UNL A   1      45.889  31.504  28.114  1.00  0.00     0.037 A 
ATOM     50  C   UNL A   1      43.714  24.914  27.201  1.00  0.00     0.037 A 
ATOM     51  C   UNL A   1      46.902  30.583  27.672  1.00  0.00     0.049 A 
ATOM     52  C   UNL A   1      45.124  25.327  26.885  1.00  0.00     0.074 A 
ATOM     53  C   UNL A   1      48.245  30.826  27.441  1.00  0.00     0.029 A 
ATOM     54  N   UNL A   1      46.682  29.244  27.379  1.00  0.00    -0.354 N 
ATOM     55  N   UNL A   1      45.690  26.501  27.033  1.00  0.00    -0.248 NA
ATOM     56  C   UNL A   1      46.012  24.295  26.333  1.00  0.00     0.031 C 
ATOM     57  C   UNL A   1      48.825  29.645  26.962  1.00  0.00     0.029 A 
ATOM     58  C   UNL A   1      47.855  28.656  26.934  1.00  0.00     0.049 A 
ATOM     59  H   UNL A   1      45.819  28.780  27.474  1.00  0.00     0.167 HD
ATOM     60  C   UNL A   1      47.000  26.351  26.593  1.00  0.00     0.074 A 
ATOM     61  C   UNL A   1      47.149  24.965  26.195  1.00  0.00     0.031 C 
ATOM     62  C   UNL A   1      47.986  27.279  26.522  1.00  0.00     0.037 A 
BRANCH  49  63
ATOM     63  C   UNL A   1      46.243  32.961  28.247  1.00  0.00     0.058 A 
ATOM     64  C   UNL A   1      46.700  33.504  29.460  1.00  0.00     0.135 A 
ATOM     65  C   UNL A   1      46.109  33.830  27.153  1.00  0.00     0.135 A 
ATOM     66  F   UNL A   1      46.836  32.722  30.542  1.00  0.00    -0.206 F 
ATOM     67  C   UNL A   1      46.955  34.864  29.598  1.00  0.00     0.059 A 
ATOM     68  C   UNL A   1      46.388  35.190  27.259  1.00  0.00     0.059 A 
ATOM     69  F   UNL A   1      45.683  33.365  25.968  1.00  0.00    -0.206 F 
ATOM     70  C   UNL A   1      46.785  35.702  28.494  1.00  0.00     0.060 A 
BRANCH  70  71
ATOM     71  S   UNL A   1      47.073  37.472  28.700  1.00  0.00     0.124 S 
ATOM     72  O   UNL A   1      48.401  37.480  29.306  1.00  0.00    -0.237 OA
ATOM     73  O   UNL A   1      47.000  37.964  27.328  1.00  0.00    -0.237 OA
ATOM     74  O   UNL A   1      45.982  37.895  29.573  1.00  0.00    -0.744 OA
ENDBRANCH  70  71
ENDBRANCH  49  63
BRANCH  50  75
ATOM     75  C   UNL A   1      43.232  23.533  26.938  1.00  0.00     0.058 A 
ATOM     76  C   UNL A   1      42.973  23.097  25.632  1.00  0.00     0.135 A 
ATOM     77  C   UNL A   1      43.102  22.601  27.980  1.00  0.00     0.135 A 
ATOM     78  F   UNL A   1      43.075  23.954  24.606  1.00  0.00    -0.206 F 
ATOM     79  C   UNL A   1      42.615  21.779  25.364  1.00  0.00     0.059 A 
ATOM     80  C   UNL A   1      42.766  21.273  27.734  1.00  0.00     0.059 A 
ATOM     81  F   UNL A   1      43.352  22.969  29.246  1.00  0.00    -0.206 F 
ATOM     82  C   UNL A   1      42.528  20.871  26.421  1.00  0.00     0.060 A 
BRANCH  82  83
ATOM     83  S   UNL A   1      42.175  19.139  26.045  1.00  0.00     0.124 S 
ATOM     84  O   UNL A   1      40.744  19.184  25.765  1.00  0.00    -0.237 OA
ATOM     85  O   UNL A   1      43.043  18.894  24.897  1.00  0.00    -0.237 OA
ATOM     86  O   UNL A   1      42.559  18.445  27.270  1.00  0.00    -0.744 OA
ENDBRANCH  82  83
ENDBRANCH  50  75
BRANCH  62  87
ATOM     87  C   UNL A   1      49.317  26.835  25.981  1.00  0.00     0.058 A 
ATOM     88  C   UNL A   1      49.625  26.950  24.617  1.00  0.00     0.135 A 
ATOM     89  C   UNL A   1      50.317  26.357  26.842  1.00  0.00     0.135 A 
ATOM     90  F   UNL A   1      48.701  27.393  23.750  1.00  0.00    -0.206 F 
ATOM     91  C   UNL A   1      50.876  26.596  24.123  1.00  0.00     0.059 A 
ATOM     92  C   UNL A   1      51.583  26.019  26.374  1.00  0.00     0.059 A 
ATOM     93  F   UNL A   1      50.076  26.235  28.157  1.00  0.00    -0.206 F 
ATOM     94  C   UNL A   1      51.851  26.136  25.010  1.00  0.00     0.060 A 
BRANCH  94  95
ATOM     95  S   UNL A   1      53.487  25.730  24.363  1.00  0.00     0.124 S 
ATOM     96  O   UNL A   1      53.577  24.305  24.665  1.00  0.00    -0.237 OA
ATOM     97  O   UNL A   1      53.359  26.073  22.950  1.00  0.00    -0.237 OA
ATOM     98  O   UNL A   1      54.381  26.592  25.133  1.00  0.00    -0.744 OA
ENDBRANCH  94  95
ENDBRANCH  62  87
ENDBRANCH  36  37
ENDBRANCH  28  31
ENDBRANCH  26  27
ENDBRANCH  25  26
ENDBRANCH   1  25
TORSDOF 18
ENDMDL
MODEL 2
REMARK VINA RESULT:     -11.0      1.332      2.010
REMARK SMILES CC(=O)NCCNC(=O)C[N@H+]1CC[C@@H](C(=O)NCCCNC(=O)c2ccc(-c3c4nc(c(-c5c(F)cc(S(=O)(=O)[O-])cc5F)c5ccc([nH]5)c(-c5c(F)cc(S(=O)(=O)[O-])cc5F)c5nc(c(-c6c(F)cc(S(=O)(=O)[O-])cc6F)c6ccc3[nH]6)C=C5)C=C4)cc2)[C@H]1C
REMARK SMILES IDX 18 1 17 2 15 3 16 4 14 6 11 7 12 8 90 9 13 11 91 12 10 13
REMARK SMILES IDX 8 14 7 15 9 17 6 18 5 19 4 20 1 21 2 22 3 23 19 25 20 26
REMARK SMILES IDX 21 27 22 28 23 30 24 31 25 32 89 33 26 34 88 35 27 36 28 37
REMARK SMILES IDX 29 38 82 39 30 40 87 41 81 42 83 43 31 44 86 45 80 46 79 47
REMARK SMILES IDX 32 49 66 50 45 51 65 52 46 53 49 54 64 55 84 56 47 57 48 58
REMARK SMILES IDX 63 60 85 61 50 62 33 63 34 64 43 65 35 66 36 67 42 68 44 69
REMARK SMILES IDX 37 70 38 71 39 72 40 73 41 74 67 75 68 76 77 77 69 78 70 79
REMARK SMILES IDX 76 80 78 81 71 82 72 83 73 84 74 85 75 86 51 87 52 88 61 89
REMARK SMILES IDX 53 90 54 91 60 92 62 93 55 94 56 95 57 96 58 97 59 98
REMARK H PARENT 17 5 11 10 7 16 4 24 21 29 83 48 49 59
REMARK Flexibility Score: inf
ROOT
ATOM      1  C   UNL A   1      33.583  29.490  26.027  1.00  0.00     0.117 C 
ENDROOT
BRANCH   1   2
ATOM      2  N   UNL A   1      32.374  29.847  25.301  1.00  0.00    -0.356 N 
ATOM      3  C   UNL A   1      31.418  29.104  24.690  1.00  0.00     0.229 C 
ATOM      4  O   UNL A   1      30.531  29.726  24.096  1.00  0.00    -0.275 OA
ATOM      5  H   UNL A   1      32.220  30.818  25.241  1.00  0.00     0.163 HD
BRANCH   3   6
ATOM      6  C   UNL A   1      31.364  27.587  24.747  1.00  0.00     0.142 C 
ATOM      7  N   UNL A   1      32.776  25.652  24.807  1.00  0.00    -0.324 N 
ATOM      8  C   UNL A   1      32.021  25.672  26.047  1.00  0.00     0.263 C 
ATOM      9  C   UNL A   1      32.351  26.745  23.918  1.00  0.00     0.194 C 
ATOM     10  H   UNL A   1      32.514  24.818  24.283  1.00  0.00     0.348 HD
ATOM     11  C   UNL A   1      31.380  27.035  26.164  1.00  0.00     0.081 C 
ATOM     12  C   UNL A   1      33.417  27.502  23.131  1.00  0.00     0.076 C 
BRANCH   7  13
ATOM     13  C   UNL A   1      34.183  25.270  24.897  1.00  0.00     0.363 C 
BRANCH  13  14
ATOM     14  C   UNL A   1      34.465  24.040  24.024  1.00  0.00     0.275 C 
ATOM     15  N   UNL A   1      34.721  22.835  24.627  1.00  0.00    -0.349 N 
ATOM     16  H   UNL A   1      35.091  22.130  24.047  1.00  0.00     0.163 HD
ATOM     17  O   UNL A   1      34.495  24.104  22.795  1.00  0.00    -0.269 OA
BRANCH  15  18
ATOM     18  C   UNL A   1      34.512  22.475  26.017  1.00  0.00     0.137 C 
BRANCH  18  19
ATOM     19  C   UNL A   1      33.117  21.873  26.231  1.00  0.00     0.137 C 
BRANCH  19  20
ATOM     20  N   UNL A   1      33.185  20.427  26.377  1.00  0.00    -0.355 N 
ATOM     21  C   UNL A   1      32.522  19.925  24.060  1.00  0.00     0.114 C 
ATOM     22  C   UNL A   1      32.875  19.474  25.451  1.00  0.00     0.216 C 
ATOM     23  O   UNL A   1      32.902  18.284  25.759  1.00  0.00    -0.275 OA
ATOM     24  H   UNL A   1      33.494  20.095  27.250  1.00  0.00     0.163 HD
ENDBRANCH  19  20
ENDBRANCH  18  19
ENDBRANCH  15  18
ENDBRANCH  13  14
ENDBRANCH   7  13
ENDBRANCH   3   6
ENDBRANCH   1   2
BRANCH   1  25
ATOM     25  C   UNL A   1      33.792  30.369  27.255  1.00  0.00     0.042 C 
BRANCH  25  26
ATOM     26  C   UNL A   1      35.149  30.206  27.923  1.00  0.00     0.118 C 
BRANCH  26  27
ATOM     27  N   UNL A   1      35.211  30.839  29.229  1.00  0.00    -0.352 N 
ATOM     28  C   UNL A   1      36.221  30.840  30.164  1.00  0.00     0.251 C 
ATOM     29  H   UNL A   1      34.408  31.347  29.484  1.00  0.00     0.163 HD
ATOM     30  O   UNL A   1      35.991  31.267  31.291  1.00  0.00    -0.269 OA
BRANCH  28  31
ATOM     31  C   UNL A   1      37.564  30.305  29.835  1.00  0.00     0.039 A 
ATOM     32  C   UNL A   1      37.977  30.293  28.499  1.00  0.00     0.014 A 
ATOM     33  C   UNL A   1      38.408  29.788  30.822  1.00  0.00     0.014 A 
ATOM     34  C   UNL A   1      39.256  29.832  28.167  1.00  0.00     0.010 A 
ATOM     35  C   UNL A   1      39.713  29.421  30.504  1.00  0.00     0.010 A 
ATOM     36  C   UNL A   1      40.150  29.427  29.171  1.00  0.00    -0.014 A 
BRANCH  36  37
ATOM     37  C   UNL A   1      41.538  28.998  28.853  1.00  0.00     0.031 A 
ATOM     38  C   UNL A   1      42.656  30.007  28.830  1.00  0.00     0.074 A 
ATOM     39  C   UNL A   1      41.781  27.721  28.500  1.00  0.00     0.049 A 
ATOM     40  N   UNL A   1      43.908  29.847  28.484  1.00  0.00    -0.248 NA
ATOM     41  C   UNL A   1      42.311  31.384  29.216  1.00  0.00     0.031 C 
ATOM     42  C   UNL A   1      40.775  26.660  28.421  1.00  0.00     0.029 A 
ATOM     43  N   UNL A   1      42.945  27.102  28.116  1.00  0.00    -0.354 N 
ATOM     44  C   UNL A   1      44.492  31.105  28.583  1.00  0.00     0.074 A 
ATOM     45  C   UNL A   1      43.445  32.025  28.972  1.00  0.00     0.031 C 
ATOM     46  C   UNL A   1      41.365  25.523  28.024  1.00  0.00     0.029 A 
ATOM     47  C   UNL A   1      42.782  25.780  27.780  1.00  0.00     0.049 A 
ATOM     48  H   UNL A   1      43.815  27.564  28.083  1.00  0.00     0.167 HD
ATOM     49  C   UNL A   1      45.786  31.459  28.387  1.00  0.00     0.037 A 
ATOM     50  C   UNL A   1      43.665  24.877  27.310  1.00  0.00     0.037 A 
ATOM     51  C   UNL A   1      46.828  30.533  28.029  1.00  0.00     0.049 A 
ATOM     52  C   UNL A   1      45.097  25.283  27.108  1.00  0.00     0.074 A 
ATOM     53  C   UNL A   1      48.185  30.771  27.907  1.00  0.00     0.029 A 
ATOM     54  N   UNL A   1      46.626  29.195  27.721  1.00  0.00    -0.354 N 
ATOM     55  N   UNL A   1      45.654  26.455  27.299  1.00  0.00    -0.248 NA
ATOM     56  C   UNL A   1      46.023  24.247  26.630  1.00  0.00     0.031 C 
ATOM     57  C   UNL A   1      48.798  29.588  27.477  1.00  0.00     0.029 A 
ATOM     58  C   UNL A   1      47.829  28.602  27.373  1.00  0.00     0.049 A 
ATOM     59  H   UNL A   1      45.756  28.734  27.747  1.00  0.00     0.167 HD
ATOM     60  C   UNL A   1      46.995  26.300  26.966  1.00  0.00     0.074 A 
ATOM     61  C   UNL A   1      47.170  24.913  26.583  1.00  0.00     0.031 C 
ATOM     62  C   UNL A   1      47.987  27.224  26.973  1.00  0.00     0.037 A 
BRANCH  49  63
ATOM     63  C   UNL A   1      46.133  32.915  28.547  1.00  0.00     0.058 A 
ATOM     64  C   UNL A   1      46.491  33.458  29.792  1.00  0.00     0.135 A 
ATOM     65  C   UNL A   1      46.094  33.782  27.444  1.00  0.00     0.135 A 
ATOM     66  F   UNL A   1      46.535  32.678  30.884  1.00  0.00    -0.206 F 
ATOM     67  C   UNL A   1      46.740  34.818  29.949  1.00  0.00     0.059 A 
ATOM     68  C   UNL A   1      46.369  35.141  27.571  1.00  0.00     0.059 A 
ATOM     69  F   UNL A   1      45.765  33.317  26.228  1.00  0.00    -0.206 F 
ATOM     70  C   UNL A   1      46.665  35.654  28.834  1.00  0.00     0.060 A 
BRANCH  70  71
ATOM     71  S   UNL A   1      46.942  37.423  29.059  1.00  0.00     0.124 S 
ATOM     72  O   UNL A   1      45.961  37.989  28.138  1.00  0.00    -0.237 OA
ATOM     73  O   UNL A   1      46.657  37.607  30.479  1.00  0.00    -0.237 OA
ATOM     74  O   UNL A   1      48.339  37.601  28.675  1.00  0.00    -0.744 OA
ENDBRANCH  70  71
ENDBRANCH  49  63
BRANCH  50  75
ATOM     75  C   UNL A   1      43.200  23.497  27.011  1.00  0.00     0.058 A 
ATOM     76  C   UNL A   1      43.013  23.070  25.689  1.00  0.00     0.135 A 
ATOM     77  C   UNL A   1      43.015  22.557  28.037  1.00  0.00     0.135 A 
ATOM     78  F   UNL A   1      43.169  23.936  24.677  1.00  0.00    -0.206 F 
ATOM     79  C   UNL A   1      42.672  21.754  25.392  1.00  0.00     0.059 A 
ATOM     80  C   UNL A   1      42.696  21.230  27.763  1.00  0.00     0.059 A 
ATOM     81  F   UNL A   1      43.197  22.914  29.317  1.00  0.00    -0.206 F 
ATOM     82  C   UNL A   1      42.529  20.838  26.436  1.00  0.00     0.060 A 
BRANCH  82  83
ATOM     83  S   UNL A   1      42.200  19.109  26.028  1.00  0.00     0.124 S 
ATOM     84  O   UNL A   1      43.056  18.912  24.864  1.00  0.00    -0.237 OA
ATOM     85  O   UNL A   1      42.614  18.423  27.249  1.00  0.00    -0.237 OA
ATOM     86  O   UNL A   1      40.764  19.094  25.767  1.00  0.00    -0.744 OA
ENDBRANCH  82  83
ENDBRANCH  50  75
BRANCH  62  87
ATOM     87  C   UNL A   1      49.355  26.774  26.541  1.00  0.00     0.058 A 
ATOM     88  C   UNL A   1      50.196  26.059  27.408  1.00  0.00     0.135 A 
ATOM     89  C   UNL A   1      49.802  26.996  25.229  1.00  0.00     0.135 A 
ATOM     90  F   UNL A   1      49.820  25.828  28.676  1.00  0.00    -0.206 F 
ATOM     91  C   UNL A   1      51.438  25.591  26.993  1.00  0.00     0.059 A 
ATOM     92  C   UNL A   1      51.029  26.516  24.784  1.00  0.00     0.059 A 
ATOM     93  F   UNL A   1      49.032  27.668  24.357  1.00  0.00    -0.206 F 
ATOM     94  C   UNL A   1      51.844  25.819  25.677  1.00  0.00     0.060 A 
BRANCH  94  95
ATOM     95  S   UNL A   1      53.435  25.159  25.135  1.00  0.00     0.124 S 
ATOM     96  O   UNL A   1      53.272  23.735  25.411  1.00  0.00    -0.237 OA
ATOM     97  O   UNL A   1      53.465  25.532  23.724  1.00  0.00    -0.237 OA
ATOM     98  O   UNL A   1      54.399  25.857  25.982  1.00  0.00    -0.744 OA
ENDBRANCH  94  95
ENDBRANCH  62  87
ENDBRANCH  36  37
ENDBRANCH  28  31
ENDBRANCH  26  27
ENDBRANCH  25  26
ENDBRANCH   1  25
TORSDOF 18
ENDMDL
MODEL 3
REMARK VINA RESULT:     -11.0      3.465      9.074
REMARK SMILES CC(=O)NCCNC(=O)C[N@H+]1CC[C@@H](C(=O)NCCCNC(=O)c2ccc(-c3c4nc(c(-c5c(F)cc(S(=O)(=O)[O-])cc5F)c5ccc([nH]5)c(-c5c(F)cc(S(=O)(=O)[O-])cc5F)c5nc(c(-c6c(F)cc(S(=O)(=O)[O-])cc6F)c6ccc3[nH]6)C=C5)C=C4)cc2)[C@H]1C
REMARK SMILES IDX 18 1 17 2 15 3 16 4 14 6 11 7 12 8 90 9 13 11 91 12 10 13
REMARK SMILES IDX 8 14 7 15 9 17 6 18 5 19 4 20 1 21 2 22 3 23 19 25 20 26
REMARK SMILES IDX 21 27 22 28 23 30 24 31 25 32 89 33 26 34 88 35 27 36 28 37
REMARK SMILES IDX 29 38 82 39 30 40 87 41 81 42 83 43 31 44 86 45 80 46 79 47
REMARK SMILES IDX 32 49 66 50 45 51 65 52 46 53 49 54 64 55 84 56 47 57 48 58
REMARK SMILES IDX 63 60 85 61 50 62 33 63 34 64 43 65 35 66 36 67 42 68 44 69
REMARK SMILES IDX 37 70 38 71 39 72 40 73 41 74 67 75 68 76 77 77 69 78 70 79
REMARK SMILES IDX 76 80 78 81 71 82 72 83 73 84 74 85 75 86 51 87 52 88 61 89
REMARK SMILES IDX 53 90 54 91 60 92 62 93 55 94 56 95 57 96 58 97 59 98
REMARK H PARENT 17 5 11 10 7 16 4 24 21 29 83 48 49 59
REMARK Flexibility Score: inf
ROOT
ATOM      1  C   UNL A   1      32.400  28.465  24.848  1.00  0.00     0.117 C 
ENDROOT
BRANCH   1   2
ATOM      2  N   UNL A   1      31.342  27.682  25.468  1.00  0.00    -0.356 N 
ATOM      3  C   UNL A   1      30.894  26.419  25.261  1.00  0.00     0.229 C 
ATOM      4  O   UNL A   1      29.915  26.064  25.927  1.00  0.00    -0.275 OA
ATOM      5  H   UNL A   1      30.855  28.164  26.176  1.00  0.00     0.163 HD
BRANCH   3   6
ATOM      6  C   UNL A   1      31.556  25.434  24.313  1.00  0.00     0.142 C 
ATOM      7  N   UNL A   1      32.434  23.208  24.219  1.00  0.00    -0.324 N 
ATOM      8  C   UNL A   1      31.320  23.269  23.290  1.00  0.00     0.263 C 
ATOM      9  C   UNL A   1      32.698  24.530  24.809  1.00  0.00     0.194 C 
ATOM     10  H   UNL A   1      33.285  23.020  23.691  1.00  0.00     0.348 HD
ATOM     11  C   UNL A   1      30.566  24.548  23.574  1.00  0.00     0.081 C 
ATOM     12  C   UNL A   1      33.051  24.610  26.291  1.00  0.00     0.076 C 
BRANCH   7  13
ATOM     13  C   UNL A   1      32.554  21.995  25.026  1.00  0.00     0.363 C 
BRANCH  13  14
ATOM     14  C   UNL A   1      33.881  21.281  24.731  1.00  0.00     0.275 C 
ATOM     15  N   UNL A   1      33.889  19.918  24.581  1.00  0.00    -0.349 N 
ATOM     16  H   UNL A   1      34.774  19.486  24.596  1.00  0.00     0.163 HD
ATOM     17  O   UNL A   1      34.947  21.891  24.650  1.00  0.00    -0.269 OA
BRANCH  15  18
ATOM     18  C   UNL A   1      32.750  19.036  24.405  1.00  0.00     0.137 C 
BRANCH  18  19
ATOM     19  C   UNL A   1      32.757  17.907  25.444  1.00  0.00     0.137 C 
BRANCH  19  20
ATOM     20  N   UNL A   1      33.915  17.042  25.271  1.00  0.00    -0.355 N 
ATOM     21  C   UNL A   1      32.670  14.932  25.515  1.00  0.00     0.114 C 
ATOM     22  C   UNL A   1      33.964  15.680  25.347  1.00  0.00     0.216 C 
ATOM     23  O   UNL A   1      35.043  15.098  25.262  1.00  0.00    -0.275 OA
ATOM     24  H   UNL A   1      34.766  17.494  25.075  1.00  0.00     0.163 HD
ENDBRANCH  19  20
ENDBRANCH  18  19
ENDBRANCH  15  18
ENDBRANCH  13  14
ENDBRANCH   7  13
ENDBRANCH   3   6
ENDBRANCH   1   2
BRANCH   1  25
ATOM     25  C   UNL A   1      33.769  28.135  25.432  1.00  0.00     0.042 C 
BRANCH  25  26
ATOM     26  C   UNL A   1      33.852  28.247  26.948  1.00  0.00     0.118 C 
BRANCH  26  27
ATOM     27  N   UNL A   1      33.676  29.610  27.420  1.00  0.00    -0.352 N 
ATOM     28  C   UNL A   1      34.541  30.422  28.117  1.00  0.00     0.251 C 
ATOM     29  H   UNL A   1      32.805  30.015  27.207  1.00  0.00     0.163 HD
ATOM     30  O   UNL A   1      34.119  31.470  28.598  1.00  0.00    -0.269 OA
BRANCH  28  31
ATOM     31  C   UNL A   1      35.957  30.032  28.318  1.00  0.00     0.039 A 
ATOM     32  C   UNL A   1      36.841  30.119  27.238  1.00  0.00     0.014 A 
ATOM     33  C   UNL A   1      36.417  29.554  29.549  1.00  0.00     0.014 A 
ATOM     34  C   UNL A   1      38.192  29.796  27.413  1.00  0.00     0.010 A 
ATOM     35  C   UNL A   1      37.776  29.327  29.746  1.00  0.00     0.010 A 
ATOM     36  C   UNL A   1      38.679  29.433  28.678  1.00  0.00    -0.014 A 
BRANCH  36  37
ATOM     37  C   UNL A   1      40.122  29.153  28.908  1.00  0.00     0.031 A 
ATOM     38  C   UNL A   1      40.697  27.806  28.555  1.00  0.00     0.074 A 
ATOM     39  C   UNL A   1      40.895  30.074  29.514  1.00  0.00     0.049 A 
ATOM     40  N   UNL A   1      41.901  27.340  28.767  1.00  0.00    -0.248 NA
ATOM     41  C   UNL A   1      39.788  26.848  27.908  1.00  0.00     0.031 C 
ATOM     42  C   UNL A   1      40.445  31.393  29.962  1.00  0.00     0.029 A 
ATOM     43  N   UNL A   1      42.218  30.034  29.880  1.00  0.00    -0.354 N 
ATOM     44  C   UNL A   1      41.886  26.028  28.307  1.00  0.00     0.074 A 
ATOM     45  C   UNL A   1      40.540  25.758  27.851  1.00  0.00     0.031 C 
ATOM     46  C   UNL A   1      41.472  32.038  30.534  1.00  0.00     0.029 A 
ATOM     47  C   UNL A   1      42.645  31.167  30.532  1.00  0.00     0.049 A 
ATOM     48  H   UNL A   1      42.805  29.265  29.695  1.00  0.00     0.167 HD
ATOM     49  C   UNL A   1      42.904  25.136  28.251  1.00  0.00     0.037 A 
ATOM     50  C   UNL A   1      43.837  31.468  31.082  1.00  0.00     0.037 A 
ATOM     51  C   UNL A   1      44.248  25.420  28.678  1.00  0.00     0.049 A 
ATOM     52  C   UNL A   1      44.958  30.471  31.002  1.00  0.00     0.074 A 
ATOM     53  C   UNL A   1      45.374  24.622  28.569  1.00  0.00     0.029 A 
ATOM     54  N   UNL A   1      44.647  26.590  29.311  1.00  0.00    -0.354 N 
ATOM     55  N   UNL A   1      44.954  29.269  30.475  1.00  0.00    -0.248 NA
ATOM     56  C   UNL A   1      46.246  30.868  31.585  1.00  0.00     0.031 C 
ATOM     57  C   UNL A   1      46.442  25.290  29.181  1.00  0.00     0.029 A 
ATOM     58  C   UNL A   1      45.993  26.521  29.632  1.00  0.00     0.049 A 
ATOM     59  H   UNL A   1      44.059  27.356  29.502  1.00  0.00     0.167 HD
ATOM     60  C   UNL A   1      46.236  28.765  30.663  1.00  0.00     0.074 A 
ATOM     61  C   UNL A   1      46.996  29.803  31.332  1.00  0.00     0.031 C 
ATOM     62  C   UNL A   1      46.734  27.553  30.317  1.00  0.00     0.037 A 
BRANCH  49  63
ATOM     63  C   UNL A   1      42.590  23.764  27.715  1.00  0.00     0.058 A 
ATOM     64  C   UNL A   1      42.376  22.668  28.567  1.00  0.00     0.135 A 
ATOM     65  C   UNL A   1      42.516  23.539  26.331  1.00  0.00     0.135 A 
ATOM     66  F   UNL A   1      42.446  22.822  29.899  1.00  0.00    -0.206 F 
ATOM     67  C   UNL A   1      42.159  21.388  28.066  1.00  0.00     0.059 A 
ATOM     68  C   UNL A   1      42.269  22.273  25.808  1.00  0.00     0.059 A 
ATOM     69  F   UNL A   1      42.705  24.552  25.470  1.00  0.00    -0.206 F 
ATOM     70  C   UNL A   1      42.119  21.199  26.684  1.00  0.00     0.060 A 
BRANCH  70  71
ATOM     71  S   UNL A   1      41.885  19.526  26.047  1.00  0.00     0.124 S 
ATOM     72  O   UNL A   1      42.261  18.721  27.205  1.00  0.00    -0.237 OA
ATOM     73  O   UNL A   1      40.467  19.516  25.703  1.00  0.00    -0.237 OA
ATOM     74  O   UNL A   1      42.802  19.462  24.914  1.00  0.00    -0.744 OA
ENDBRANCH  70  71
ENDBRANCH  49  63
BRANCH  50  75
ATOM     75  C   UNL A   1      44.015  32.784  31.749  1.00  0.00     0.058 A 
ATOM     76  C   UNL A   1      44.468  33.900  31.032  1.00  0.00     0.135 A 
ATOM     77  C   UNL A   1      43.657  32.969  33.094  1.00  0.00     0.135 A 
ATOM     78  F   UNL A   1      44.830  33.770  29.747  1.00  0.00    -0.206 F 
ATOM     79  C   UNL A   1      44.546  35.158  31.619  1.00  0.00     0.059 A 
ATOM     80  C   UNL A   1      43.707  34.222  33.697  1.00  0.00     0.059 A 
ATOM     81  F   UNL A   1      43.206  31.933  33.818  1.00  0.00    -0.206 F 
ATOM     82  C   UNL A   1      44.150  35.312  32.950  1.00  0.00     0.060 A 
BRANCH  82  83
ATOM     83  S   UNL A   1      44.148  36.972  33.664  1.00  0.00     0.124 S 
ATOM     84  O   UNL A   1      44.047  37.806  32.473  1.00  0.00    -0.237 OA
ATOM     85  O   UNL A   1      42.966  36.934  34.521  1.00  0.00    -0.237 OA
ATOM     86  O   UNL A   1      45.423  37.033  34.373  1.00  0.00    -0.744 OA
ENDBRANCH  82  83
ENDBRANCH  50  75
BRANCH  62  87
ATOM     87  C   UNL A   1      48.169  27.269  30.664  1.00  0.00     0.058 A 
ATOM     88  C   UNL A   1      48.516  26.620  31.859  1.00  0.00     0.135 A 
ATOM     89  C   UNL A   1      49.201  27.583  29.765  1.00  0.00     0.135 A 
ATOM     90  F   UNL A   1      47.568  26.307  32.757  1.00  0.00    -0.206 F 
ATOM     91  C   UNL A   1      49.837  26.303  32.157  1.00  0.00     0.059 A 
ATOM     92  C   UNL A   1      50.526  27.254  30.030  1.00  0.00     0.059 A 
ATOM     93  F   UNL A   1      48.922  28.197  28.604  1.00  0.00    -0.206 F 
ATOM     94  C   UNL A   1      50.835  26.619  31.233  1.00  0.00     0.060 A 
BRANCH  94  95
ATOM     95  S   UNL A   1      52.539  26.154  31.608  1.00  0.00     0.124 S 
ATOM     96  O   UNL A   1      53.164  26.241  30.291  1.00  0.00    -0.237 OA
ATOM     97  O   UNL A   1      52.939  27.178  32.568  1.00  0.00    -0.237 OA
ATOM     98  O   UNL A   1      52.412  24.806  32.154  1.00  0.00    -0.744 OA
ENDBRANCH  94  95
ENDBRANCH  62  87
ENDBRANCH  36  37
ENDBRANCH  28  31
ENDBRANCH  26  27
ENDBRANCH  25  26
ENDBRANCH   1  25
TORSDOF 18
ENDMDL
