MODEL 1
REMARK VINA RESULT:     -12.4      0.000      0.000
REMARK SMILES COc1cccc(NC(=O)c2nccnc2C(=O)NCCCNC(=O)c2ccc(-c3c4nc(c(-c5c(F)cc(S(=O)(=O)[O-])cc5F)c5ccc([nH]5)c(-c5c(F)cc(S(=O)(=O)[O-])cc5F)c5nc(c(-c6c(F)cc(S(=O)(=O)[O-])cc6F)c6ccc3[nH]6)C=C5)C=C4)cc2)c1
REMARK SMILES IDX 21 1 20 2 19 3 17 4 18 5 16 7 11 8 12 9 13 10 15 11 14 12
REMARK SMILES IDX 9 13 8 14 10 16 7 17 3 18 4 19 92 20 5 21 6 22 2 23 1 24
REMARK SMILES IDX 22 25 23 26 24 27 25 29 26 30 27 31 91 32 28 33 90 34 29 35
REMARK SMILES IDX 30 36 31 37 84 38 32 39 89 40 83 41 85 42 33 43 88 44 82 45
REMARK SMILES IDX 81 46 34 48 68 49 47 50 67 51 48 52 51 53 66 54 86 55 49 56
REMARK SMILES IDX 50 57 65 59 87 60 52 61 35 62 36 63 45 64 37 65 38 66 44 67
REMARK SMILES IDX 46 68 39 69 40 70 41 71 42 72 43 73 69 74 70 75 79 76 71 77
REMARK SMILES IDX 72 78 78 79 80 80 73 81 74 82 75 83 76 84 77 85 53 86 54 87
REMARK SMILES IDX 63 88 55 89 56 90 62 91 64 92 57 93 58 94 59 95 60 96 61 97
REMARK H PARENT 19 6 8 15 23 28 85 47 51 58
REMARK Flexibility Score: inf
ROOT
ATOM      1  C   UNL A   1      37.516  23.446  25.410  1.00  0.00     0.042 C 
ENDROOT
BRANCH   1   2
ATOM      2  C   UNL A   1      36.058  23.805  25.645  1.00  0.00     0.118 C 
BRANCH   2   3
ATOM      3  N   UNL A   1      35.358  22.963  26.589  1.00  0.00    -0.351 N 
ATOM      4  C   UNL A   1      34.151  22.309  26.535  1.00  0.00     0.272 C 
ATOM      5  O   UNL A   1      33.894  21.596  27.513  1.00  0.00    -0.267 OA
ATOM      6  H   UNL A   1      35.841  22.831  27.436  1.00  0.00     0.163 HD
BRANCH   4   7
ATOM      7  C   UNL A   1      33.106  22.436  25.469  1.00  0.00     0.159 A 
ATOM      8  C   UNL A   1      31.916  23.152  25.500  1.00  0.00     0.159 A 
ATOM      9  N   UNL A   1      31.120  23.323  24.390  1.00  0.00    -0.247 NA
ATOM     10  C   UNL A   1      31.537  22.722  23.258  1.00  0.00     0.132 A 
ATOM     11  N   UNL A   1      33.483  21.813  24.301  1.00  0.00    -0.247 NA
ATOM     12  C   UNL A   1      32.688  21.968  23.219  1.00  0.00     0.132 A 
BRANCH   8  13
ATOM     13  C   UNL A   1      31.373  23.802  26.697  1.00  0.00     0.276 C 
ATOM     14  N   UNL A   1      31.537  25.164  26.918  1.00  0.00    -0.320 N 
ATOM     15  H   UNL A   1      31.240  25.452  27.812  1.00  0.00     0.170 HD
ATOM     16  O   UNL A   1      30.773  23.112  27.519  1.00  0.00    -0.267 OA
BRANCH  14  17
ATOM     17  C   UNL A   1      32.044  26.229  26.125  1.00  0.00     0.045 A 
ATOM     18  C   UNL A   1      31.501  28.197  24.782  1.00  0.00     0.120 A 
ATOM     19  C   UNL A   1      32.856  28.409  24.541  1.00  0.00     0.046 A 
ATOM     20  C   UNL A   1      31.099  27.111  25.569  1.00  0.00     0.072 A 
ATOM     21  C   UNL A   1      33.801  27.535  25.058  1.00  0.00     0.006 A 
ATOM     22  C   UNL A   1      33.392  26.444  25.828  1.00  0.00     0.026 A 
BRANCH  18  23
ATOM     23  O   UNL A   1      30.687  29.118  24.185  1.00  0.00    -0.497 OA
ATOM     24  C   UNL A   1      30.124  28.787  22.926  1.00  0.00     0.278 C 
ENDBRANCH  18  23
ENDBRANCH  14  17
ENDBRANCH   8  13
ENDBRANCH   4   7
ENDBRANCH   2   3
ENDBRANCH   1   2
BRANCH   1  25
ATOM     25  C   UNL A   1      38.464  23.792  26.550  1.00  0.00     0.118 C 
BRANCH  25  26
ATOM     26  N   UNL A   1      39.873  23.818  26.175  1.00  0.00    -0.352 N 
ATOM     27  C   UNL A   1      40.907  24.659  26.517  1.00  0.00     0.251 C 
ATOM     28  H   UNL A   1      40.134  23.097  25.559  1.00  0.00     0.163 HD
ATOM     29  O   UNL A   1      42.000  24.506  25.974  1.00  0.00    -0.269 OA
BRANCH  27  30
ATOM     30  C   UNL A   1      40.724  25.773  27.478  1.00  0.00     0.039 A 
ATOM     31  C   UNL A   1      39.783  25.633  28.507  1.00  0.00     0.014 A 
ATOM     32  C   UNL A   1      41.441  26.962  27.374  1.00  0.00     0.014 A 
ATOM     33  C   UNL A   1      39.644  26.633  29.477  1.00  0.00     0.010 A 
ATOM     34  C   UNL A   1      41.396  27.896  28.403  1.00  0.00     0.010 A 
ATOM     35  C   UNL A   1      40.493  27.750  29.467  1.00  0.00    -0.014 A 
BRANCH  35  36
ATOM     36  C   UNL A   1      40.454  28.801  30.521  1.00  0.00     0.031 A 
ATOM     37  C   UNL A   1      41.361  28.684  31.721  1.00  0.00     0.074 A 
ATOM     38  C   UNL A   1      39.536  29.787  30.467  1.00  0.00     0.049 A 
ATOM     39  N   UNL A   1      41.337  29.348  32.847  1.00  0.00    -0.248 NA
ATOM     40  C   UNL A   1      42.403  27.644  31.661  1.00  0.00     0.031 C 
ATOM     41  C   UNL A   1      38.567  29.991  29.387  1.00  0.00     0.029 A 
ATOM     42  N   UNL A   1      39.248  30.793  31.358  1.00  0.00    -0.354 N 
ATOM     43  C   UNL A   1      42.319  28.771  33.647  1.00  0.00     0.074 A 
ATOM     44  C   UNL A   1      42.888  27.675  32.893  1.00  0.00     0.031 C 
ATOM     45  C   UNL A   1      37.808  31.064  29.669  1.00  0.00     0.029 A 
ATOM     46  C   UNL A   1      38.199  31.594  30.971  1.00  0.00     0.049 A 
ATOM     47  H   UNL A   1      39.748  30.927  32.196  1.00  0.00     0.167 HD
ATOM     48  C   UNL A   1      42.727  29.135  34.886  1.00  0.00     0.037 A 
ATOM     49  C   UNL A   1      37.606  32.628  31.601  1.00  0.00     0.037 A 
ATOM     50  C   UNL A   1      42.206  30.271  35.600  1.00  0.00     0.049 A 
ATOM     51  C   UNL A   1      38.110  33.048  32.955  1.00  0.00     0.074 A 
ATOM     52  C   UNL A   1      42.599  30.767  36.830  1.00  0.00     0.029 A 
ATOM     53  N   UNL A   1      41.196  31.100  35.135  1.00  0.00    -0.354 N 
ATOM     54  N   UNL A   1      39.059  32.510  33.682  1.00  0.00    -0.248 NA
ATOM     55  C   UNL A   1      37.467  34.216  33.572  1.00  0.00     0.031 C 
ATOM     56  C   UNL A   1      41.808  31.884  37.121  1.00  0.00     0.029 A 
ATOM     57  C   UNL A   1      40.952  32.105  36.053  1.00  0.00     0.049 A 
ATOM     58  H   UNL A   1      40.723  30.988  34.280  1.00  0.00     0.167 HD
ATOM     59  C   UNL A   1      39.151  33.295  34.827  1.00  0.00     0.074 A 
ATOM     60  C   UNL A   1      38.163  34.345  34.695  1.00  0.00     0.031 C 
ATOM     61  C   UNL A   1      39.983  33.160  35.889  1.00  0.00     0.037 A 
BRANCH  48  62
ATOM     62  C   UNL A   1      43.797  28.304  35.541  1.00  0.00     0.058 A 
ATOM     63  C   UNL A   1      45.162  28.559  35.328  1.00  0.00     0.135 A 
ATOM     64  C   UNL A   1      43.455  27.254  36.408  1.00  0.00     0.135 A 
ATOM     65  F   UNL A   1      45.544  29.542  34.497  1.00  0.00    -0.206 F 
ATOM     66  C   UNL A   1      46.149  27.777  35.918  1.00  0.00     0.059 A 
ATOM     67  C   UNL A   1      44.427  26.477  37.034  1.00  0.00     0.059 A 
ATOM     68  F   UNL A   1      42.167  26.968  36.649  1.00  0.00    -0.206 F 
ATOM     69  C   UNL A   1      45.771  26.736  36.767  1.00  0.00     0.060 A 
BRANCH  69  70
ATOM     70  S   UNL A   1      47.063  25.727  37.523  1.00  0.00     0.124 S 
ATOM     71  O   UNL A   1      47.053  26.223  38.895  1.00  0.00    -0.237 OA
ATOM     72  O   UNL A   1      46.553  24.371  37.336  1.00  0.00    -0.237 OA
ATOM     73  O   UNL A   1      48.252  26.058  36.744  1.00  0.00    -0.744 OA
ENDBRANCH  69  70
ENDBRANCH  48  62
BRANCH  49  74
ATOM     74  C   UNL A   1      36.490  33.358  30.941  1.00  0.00     0.058 A 
ATOM     75  C   UNL A   1      35.180  33.253  31.431  1.00  0.00     0.135 A 
ATOM     76  C   UNL A   1      36.707  34.183  29.828  1.00  0.00     0.135 A 
ATOM     77  F   UNL A   1      34.921  32.471  32.491  1.00  0.00    -0.206 F 
ATOM     78  C   UNL A   1      34.121  33.929  30.834  1.00  0.00     0.059 A 
ATOM     79  C   UNL A   1      35.668  34.888  29.226  1.00  0.00     0.059 A 
ATOM     80  F   UNL A   1      37.945  34.331  29.332  1.00  0.00    -0.206 F 
ATOM     81  C   UNL A   1      34.376  34.747  29.732  1.00  0.00     0.060 A 
BRANCH  81  82
ATOM     82  S   UNL A   1      33.003  35.662  28.998  1.00  0.00     0.124 S 
ATOM     83  O   UNL A   1      33.705  36.716  28.275  1.00  0.00    -0.237 OA
ATOM     84  O   UNL A   1      32.359  34.642  28.176  1.00  0.00    -0.237 OA
ATOM     85  O   UNL A   1      32.233  36.097  30.159  1.00  0.00    -0.744 OA
ENDBRANCH  81  82
ENDBRANCH  49  74
BRANCH  61  86
ATOM     86  C   UNL A   1      39.910  34.201  36.969  1.00  0.00     0.058 A 
ATOM     87  C   UNL A   1      40.563  35.436  36.850  1.00  0.00     0.135 A 
ATOM     88  C   UNL A   1      39.107  33.985  38.100  1.00  0.00     0.135 A 
ATOM     89  F   UNL A   1      41.347  35.687  35.789  1.00  0.00    -0.206 F 
ATOM     90  C   UNL A   1      40.426  36.423  37.820  1.00  0.00     0.059 A 
ATOM     91  C   UNL A   1      38.939  34.966  39.073  1.00  0.00     0.059 A 
ATOM     92  F   UNL A   1      38.455  32.821  38.255  1.00  0.00    -0.206 F 
ATOM     93  C   UNL A   1      39.608  36.179  38.926  1.00  0.00     0.060 A 
BRANCH  93  94
ATOM     94  S   UNL A   1      39.391  37.491  40.148  1.00  0.00     0.124 S 
ATOM     95  O   UNL A   1      40.754  37.989  40.289  1.00  0.00    -0.237 OA
ATOM     96  O   UNL A   1      38.452  38.388  39.482  1.00  0.00    -0.237 OA
ATOM     97  O   UNL A   1      38.857  36.786  41.310  1.00  0.00    -0.744 OA
ENDBRANCH  93  94
ENDBRANCH  61  86
ENDBRANCH  35  36
ENDBRANCH  27  30
ENDBRANCH  25  26
ENDBRANCH   1  25
TORSDOF 16
ENDMDL
MODEL 2
REMARK VINA RESULT:     -12.1      4.978     10.627
REMARK SMILES COc1cccc(NC(=O)c2nccnc2C(=O)NCCCNC(=O)c2ccc(-c3c4nc(c(-c5c(F)cc(S(=O)(=O)[O-])cc5F)c5ccc([nH]5)c(-c5c(F)cc(S(=O)(=O)[O-])cc5F)c5nc(c(-c6c(F)cc(S(=O)(=O)[O-])cc6F)c6ccc3[nH]6)C=C5)C=C4)cc2)c1
REMARK SMILES IDX 21 1 20 2 19 3 17 4 18 5 16 7 11 8 12 9 13 10 15 11 14 12
REMARK SMILES IDX 9 13 8 14 10 16 7 17 3 18 4 19 92 20 5 21 6 22 2 23 1 24
REMARK SMILES IDX 22 25 23 26 24 27 25 29 26 30 27 31 91 32 28 33 90 34 29 35
REMARK SMILES IDX 30 36 31 37 84 38 32 39 89 40 83 41 85 42 33 43 88 44 82 45
REMARK SMILES IDX 81 46 34 48 68 49 47 50 67 51 48 52 51 53 66 54 86 55 49 56
REMARK SMILES IDX 50 57 65 59 87 60 52 61 35 62 36 63 45 64 37 65 38 66 44 67
REMARK SMILES IDX 46 68 39 69 40 70 41 71 42 72 43 73 69 74 70 75 79 76 71 77
REMARK SMILES IDX 72 78 78 79 80 80 73 81 74 82 75 83 76 84 77 85 53 86 54 87
REMARK SMILES IDX 63 88 55 89 56 90 62 91 64 92 57 93 58 94 59 95 60 96 61 97
REMARK H PARENT 19 6 8 15 23 28 85 47 51 58
REMARK Flexibility Score: inf
ROOT
ATOM      1  C   UNL A   1      33.666  28.245  25.754  1.00  0.00     0.042 C 
ENDROOT
BRANCH   1   2
ATOM      2  C   UNL A   1      32.665  27.328  25.071  1.00  0.00     0.118 C 
BRANCH   2   3
ATOM      3  N   UNL A   1      33.181  26.574  23.950  1.00  0.00    -0.351 N 
ATOM      4  C   UNL A   1      33.857  25.381  23.863  1.00  0.00     0.272 C 
ATOM      5  O   UNL A   1      34.079  24.983  22.713  1.00  0.00    -0.267 OA
ATOM      6  H   UNL A   1      33.014  26.998  23.077  1.00  0.00     0.163 HD
BRANCH   4   7
ATOM      7  C   UNL A   1      34.408  24.575  25.000  1.00  0.00     0.159 A 
ATOM      8  C   UNL A   1      33.722  23.817  25.940  1.00  0.00     0.159 A 
ATOM      9  N   UNL A   1      34.358  22.988  26.836  1.00  0.00    -0.247 NA
ATOM     10  C   UNL A   1      35.704  22.971  26.783  1.00  0.00     0.132 A 
ATOM     11  N   UNL A   1      35.785  24.554  24.996  1.00  0.00    -0.247 NA
ATOM     12  C   UNL A   1      36.404  23.752  25.891  1.00  0.00     0.132 A 
BRANCH   8  13
ATOM     13  C   UNL A   1      32.263  23.808  26.089  1.00  0.00     0.276 C 
ATOM     14  N   UNL A   1      31.463  22.975  25.318  1.00  0.00    -0.320 N 
ATOM     15  H   UNL A   1      30.500  23.154  25.423  1.00  0.00     0.170 HD
ATOM     16  O   UNL A   1      31.752  24.568  26.910  1.00  0.00    -0.267 OA
BRANCH  14  17
ATOM     17  C   UNL A   1      31.741  21.918  24.410  1.00  0.00     0.045 A 
ATOM     18  C   UNL A   1      32.392  19.575  24.158  1.00  0.00     0.120 A 
ATOM     19  C   UNL A   1      32.313  19.700  22.773  1.00  0.00     0.046 A 
ATOM     20  C   UNL A   1      32.108  20.680  24.971  1.00  0.00     0.072 A 
ATOM     21  C   UNL A   1      31.979  20.919  22.202  1.00  0.00     0.006 A 
ATOM     22  C   UNL A   1      31.714  22.022  23.017  1.00  0.00     0.026 A 
BRANCH  18  23
ATOM     23  O   UNL A   1      32.760  18.328  24.576  1.00  0.00    -0.497 OA
ATOM     24  C   UNL A   1      34.031  17.843  24.173  1.00  0.00     0.278 C 
ENDBRANCH  18  23
ENDBRANCH  14  17
ENDBRANCH   8  13
ENDBRANCH   4   7
ENDBRANCH   2   3
ENDBRANCH   1   2
BRANCH   1  25
ATOM     25  C   UNL A   1      33.444  28.454  27.246  1.00  0.00     0.118 C 
BRANCH  25  26
ATOM     26  N   UNL A   1      33.497  29.847  27.673  1.00  0.00    -0.352 N 
ATOM     27  C   UNL A   1      34.505  30.615  28.210  1.00  0.00     0.251 C 
ATOM     28  H   UNL A   1      32.649  30.332  27.555  1.00  0.00     0.163 HD
ATOM     29  O   UNL A   1      34.250  31.762  28.571  1.00  0.00    -0.269 OA
BRANCH  27  30
ATOM     30  C   UNL A   1      35.872  30.077  28.413  1.00  0.00     0.039 A 
ATOM     31  C   UNL A   1      36.768  30.078  27.336  1.00  0.00     0.014 A 
ATOM     32  C   UNL A   1      36.284  29.553  29.635  1.00  0.00     0.014 A 
ATOM     33  C   UNL A   1      38.090  29.653  27.517  1.00  0.00     0.010 A 
ATOM     34  C   UNL A   1      37.624  29.251  29.849  1.00  0.00     0.010 A 
ATOM     35  C   UNL A   1      38.547  29.289  28.792  1.00  0.00    -0.014 A 
BRANCH  35  36
ATOM     36  C   UNL A   1      39.962  28.915  29.065  1.00  0.00     0.031 A 
ATOM     37  C   UNL A   1      40.917  29.957  29.594  1.00  0.00     0.074 A 
ATOM     38  C   UNL A   1      40.420  27.691  28.733  1.00  0.00     0.049 A 
ATOM     39  N   UNL A   1      42.221  29.916  29.687  1.00  0.00    -0.248 NA
ATOM     40  C   UNL A   1      40.327  31.235  30.027  1.00  0.00     0.031 C 
ATOM     41  C   UNL A   1      39.614  26.604  28.172  1.00  0.00     0.029 A 
ATOM     42  N   UNL A   1      41.685  27.161  28.797  1.00  0.00    -0.354 N 
ATOM     43  C   UNL A   1      42.608  31.174  30.135  1.00  0.00     0.074 A 
ATOM     44  C   UNL A   1      41.405  31.970  30.251  1.00  0.00     0.031 C 
ATOM     45  C   UNL A   1      40.399  25.534  27.961  1.00  0.00     0.029 A 
ATOM     46  C   UNL A   1      41.771  25.872  28.323  1.00  0.00     0.049 A 
ATOM     47  H   UNL A   1      42.459  27.657  29.150  1.00  0.00     0.167 HD
ATOM     48  C   UNL A   1      43.849  31.621  30.445  1.00  0.00     0.037 A 
ATOM     49  C   UNL A   1      42.837  25.060  28.179  1.00  0.00     0.037 A 
ATOM     50  C   UNL A   1      45.031  30.803  30.398  1.00  0.00     0.049 A 
ATOM     51  C   UNL A   1      44.199  25.560  28.579  1.00  0.00     0.074 A 
ATOM     52  C   UNL A   1      46.323  31.137  30.757  1.00  0.00     0.029 A 
ATOM     53  N   UNL A   1      45.058  29.479  29.983  1.00  0.00    -0.354 N 
ATOM     54  N   UNL A   1      44.541  26.742  29.030  1.00  0.00    -0.248 NA
ATOM     55  C   UNL A   1      45.318  24.615  28.457  1.00  0.00     0.031 C 
ATOM     56  C   UNL A   1      47.139  30.021  30.538  1.00  0.00     0.029 A 
ATOM     57  C   UNL A   1      46.345  28.981  30.080  1.00  0.00     0.049 A 
ATOM     58  H   UNL A   1      44.277  28.970  29.667  1.00  0.00     0.167 HD
ATOM     59  C   UNL A   1      45.908  26.673  29.277  1.00  0.00     0.074 A 
ATOM     60  C   UNL A   1      46.330  25.333  28.928  1.00  0.00     0.031 C 
ATOM     61  C   UNL A   1      46.738  27.633  29.755  1.00  0.00     0.037 A 
BRANCH  48  62
ATOM     62  C   UNL A   1      43.986  33.056  30.878  1.00  0.00     0.058 A 
ATOM     63  C   UNL A   1      44.019  33.417  32.235  1.00  0.00     0.135 A 
ATOM     64  C   UNL A   1      44.106  34.081  29.925  1.00  0.00     0.135 A 
ATOM     65  F   UNL A   1      43.893  32.479  33.187  1.00  0.00    -0.206 F 
ATOM     66  C   UNL A   1      44.126  34.746  32.632  1.00  0.00     0.059 A 
ATOM     67  C   UNL A   1      44.244  35.414  30.300  1.00  0.00     0.059 A 
ATOM     68  F   UNL A   1      44.083  33.792  28.615  1.00  0.00    -0.206 F 
ATOM     69  C   UNL A   1      44.235  35.738  31.657  1.00  0.00     0.060 A 
BRANCH  69  70
ATOM     70  S   UNL A   1      44.368  37.458  32.187  1.00  0.00     0.124 S 
ATOM     71  O   UNL A   1      45.746  37.508  32.665  1.00  0.00    -0.237 OA
ATOM     72  O   UNL A   1      44.100  38.190  30.952  1.00  0.00    -0.237 OA
ATOM     73  O   UNL A   1      43.341  37.577  33.216  1.00  0.00    -0.744 OA
ENDBRANCH  69  70
ENDBRANCH  48  62
BRANCH  49  74
ATOM     74  C   UNL A   1      42.653  23.678  27.661  1.00  0.00     0.058 A 
ATOM     75  C   UNL A   1      42.665  23.424  26.281  1.00  0.00     0.135 A 
ATOM     76  C   UNL A   1      42.480  22.585  28.524  1.00  0.00     0.135 A 
ATOM     77  F   UNL A   1      42.822  24.437  25.415  1.00  0.00    -0.206 F 
ATOM     78  C   UNL A   1      42.498  22.140  25.773  1.00  0.00     0.059 A 
ATOM     79  C   UNL A   1      42.335  21.287  28.041  1.00  0.00     0.059 A 
ATOM     80  F   UNL A   1      42.479  22.772  29.853  1.00  0.00    -0.206 F 
ATOM     81  C   UNL A   1      42.337  21.076  26.663  1.00  0.00     0.060 A 
BRANCH  81  82
ATOM     82  S   UNL A   1      42.176  19.406  25.994  1.00  0.00     0.124 S 
ATOM     83  O   UNL A   1      42.645  18.596  27.112  1.00  0.00    -0.237 OA
ATOM     84  O   UNL A   1      40.748  19.329  25.702  1.00  0.00    -0.237 OA
ATOM     85  O   UNL A   1      43.046  19.432  24.822  1.00  0.00    -0.744 OA
ENDBRANCH  81  82
ENDBRANCH  49  74
BRANCH  61  86
ATOM     86  C   UNL A   1      48.174  27.261  29.989  1.00  0.00     0.058 A 
ATOM     87  C   UNL A   1      49.170  27.527  29.038  1.00  0.00     0.135 A 
ATOM     88  C   UNL A   1      48.566  26.705  31.217  1.00  0.00     0.135 A 
ATOM     89  F   UNL A   1      48.844  28.052  27.846  1.00  0.00    -0.206 F 
ATOM     90  C   UNL A   1      50.508  27.249  29.295  1.00  0.00     0.059 A 
ATOM     91  C   UNL A   1      49.900  26.440  31.505  1.00  0.00     0.059 A 
ATOM     92  F   UNL A   1      47.649  26.441  32.162  1.00  0.00    -0.206 F 
ATOM     93  C   UNL A   1      50.864  26.710  30.534  1.00  0.00     0.060 A 
BRANCH  93  94
ATOM     94  S   UNL A   1      52.611  26.410  30.879  1.00  0.00     0.124 S 
ATOM     95  O   UNL A   1      52.986  27.633  31.580  1.00  0.00    -0.237 OA
ATOM     96  O   UNL A   1      52.566  25.200  31.695  1.00  0.00    -0.237 OA
ATOM     97  O   UNL A   1      53.195  26.242  29.552  1.00  0.00    -0.744 OA
ENDBRANCH  93  94
ENDBRANCH  61  86
ENDBRANCH  35  36
ENDBRANCH  27  30
ENDBRANCH  25  26
ENDBRANCH   1  25
TORSDOF 16
ENDMDL
MODEL 3
REMARK VINA RESULT:     -12.1      2.343      3.025
REMARK SMILES COc1cccc(NC(=O)c2nccnc2C(=O)NCCCNC(=O)c2ccc(-c3c4nc(c(-c5c(F)cc(S(=O)(=O)[O-])cc5F)c5ccc([nH]5)c(-c5c(F)cc(S(=O)(=O)[O-])cc5F)c5nc(c(-c6c(F)cc(S(=O)(=O)[O-])cc6F)c6ccc3[nH]6)C=C5)C=C4)cc2)c1
REMARK SMILES IDX 21 1 20 2 19 3 17 4 18 5 16 7 11 8 12 9 13 10 15 11 14 12
REMARK SMILES IDX 9 13 8 14 10 16 7 17 3 18 4 19 92 20 5 21 6 22 2 23 1 24
REMARK SMILES IDX 22 25 23 26 24 27 25 29 26 30 27 31 91 32 28 33 90 34 29 35
REMARK SMILES IDX 30 36 31 37 84 38 32 39 89 40 83 41 85 42 33 43 88 44 82 45
REMARK SMILES IDX 81 46 34 48 68 49 47 50 67 51 48 52 51 53 66 54 86 55 49 56
REMARK SMILES IDX 50 57 65 59 87 60 52 61 35 62 36 63 45 64 37 65 38 66 44 67
REMARK SMILES IDX 46 68 39 69 40 70 41 71 42 72 43 73 69 74 70 75 79 76 71 77
REMARK SMILES IDX 72 78 78 79 80 80 73 81 74 82 75 83 76 84 77 85 53 86 54 87
REMARK SMILES IDX 63 88 55 89 56 90 62 91 64 92 57 93 58 94 59 95 60 96 61 97
REMARK H PARENT 19 6 8 15 23 28 85 47 51 58
REMARK Flexibility Score: inf
ROOT
ATOM      1  C   UNL A   1      35.922  23.694  25.834  1.00  0.00     0.042 C 
ENDROOT
BRANCH   1   2
ATOM      2  C   UNL A   1      35.655  22.372  26.535  1.00  0.00     0.118 C 
BRANCH   2   3
ATOM      3  N   UNL A   1      34.531  22.370  27.445  1.00  0.00    -0.351 N 
ATOM      4  C   UNL A   1      33.173  22.335  27.246  1.00  0.00     0.272 C 
ATOM      5  O   UNL A   1      32.490  22.261  28.276  1.00  0.00    -0.267 OA
ATOM      6  H   UNL A   1      34.791  22.398  28.395  1.00  0.00     0.163 HD
BRANCH   4   7
ATOM      7  C   UNL A   1      32.452  22.455  25.937  1.00  0.00     0.159 A 
ATOM      8  C   UNL A   1      31.401  23.297  25.599  1.00  0.00     0.159 A 
ATOM      9  N   UNL A   1      30.936  23.427  24.310  1.00  0.00    -0.247 NA
ATOM     10  C   UNL A   1      31.535  22.660  23.379  1.00  0.00     0.132 A 
ATOM     11  N   UNL A   1      33.020  21.665  24.963  1.00  0.00    -0.247 NA
ATOM     12  C   UNL A   1      32.547  21.783  23.703  1.00  0.00     0.132 A 
BRANCH   8  13
ATOM     13  C   UNL A   1      30.671  24.134  26.557  1.00  0.00     0.276 C 
ATOM     14  N   UNL A   1      30.963  25.484  26.706  1.00  0.00    -0.320 N 
ATOM     15  H   UNL A   1      30.494  25.902  27.464  1.00  0.00     0.170 HD
ATOM     16  O   UNL A   1      29.793  23.613  27.243  1.00  0.00    -0.267 OA
BRANCH  14  17
ATOM     17  C   UNL A   1      31.796  26.389  25.994  1.00  0.00     0.045 A 
ATOM     18  C   UNL A   1      31.893  28.203  24.359  1.00  0.00     0.120 A 
ATOM     19  C   UNL A   1      33.277  28.265  24.507  1.00  0.00     0.046 A 
ATOM     20  C   UNL A   1      31.159  27.268  25.098  1.00  0.00     0.072 A 
ATOM     21  C   UNL A   1      33.926  27.389  25.364  1.00  0.00     0.006 A 
ATOM     22  C   UNL A   1      33.189  26.447  26.086  1.00  0.00     0.026 A 
BRANCH  18  23
ATOM     23  O   UNL A   1      31.397  29.104  23.460  1.00  0.00    -0.497 OA
ATOM     24  C   UNL A   1      30.465  28.635  22.499  1.00  0.00     0.278 C 
ENDBRANCH  18  23
ENDBRANCH  14  17
ENDBRANCH   8  13
ENDBRANCH   4   7
ENDBRANCH   2   3
ENDBRANCH   1   2
BRANCH   1  25
ATOM     25  C   UNL A   1      37.085  23.686  24.851  1.00  0.00     0.118 C 
BRANCH  25  26
ATOM     26  N   UNL A   1      38.182  22.800  25.223  1.00  0.00    -0.352 N 
ATOM     27  C   UNL A   1      39.287  22.978  26.024  1.00  0.00     0.251 C 
ATOM     28  H   UNL A   1      38.119  21.902  24.826  1.00  0.00     0.163 HD
ATOM     29  O   UNL A   1      40.119  22.075  26.096  1.00  0.00    -0.269 OA
BRANCH  27  30
ATOM     30  C   UNL A   1      39.527  24.245  26.754  1.00  0.00     0.039 A 
ATOM     31  C   UNL A   1      38.937  24.424  28.013  1.00  0.00     0.014 A 
ATOM     32  C   UNL A   1      40.301  25.270  26.218  1.00  0.00     0.014 A 
ATOM     33  C   UNL A   1      39.210  25.576  28.762  1.00  0.00     0.010 A 
ATOM     34  C   UNL A   1      40.674  26.351  27.009  1.00  0.00     0.010 A 
ATOM     35  C   UNL A   1      40.129  26.525  28.290  1.00  0.00    -0.014 A 
BRANCH  35  36
ATOM     36  C   UNL A   1      40.528  27.722  29.080  1.00  0.00     0.031 A 
ATOM     37  C   UNL A   1      41.816  27.699  29.866  1.00  0.00     0.074 A 
ATOM     38  C   UNL A   1      39.693  28.775  29.192  1.00  0.00     0.049 A 
ATOM     39  N   UNL A   1      42.242  28.525  30.785  1.00  0.00    -0.248 NA
ATOM     40  C   UNL A   1      42.721  26.564  29.616  1.00  0.00     0.031 C 
ATOM     41  C   UNL A   1      38.396  28.908  28.522  1.00  0.00     0.029 A 
ATOM     42  N   UNL A   1      39.798  29.928  29.931  1.00  0.00    -0.354 N 
ATOM     43  C   UNL A   1      43.432  27.982  31.260  1.00  0.00     0.074 A 
ATOM     44  C   UNL A   1      43.636  26.733  30.559  1.00  0.00     0.031 C 
ATOM     45  C   UNL A   1      37.838  30.081  28.866  1.00  0.00     0.029 A 
ATOM     46  C   UNL A   1      38.710  30.761  29.818  1.00  0.00     0.049 A 
ATOM     47  H   UNL A   1      40.582  30.138  30.490  1.00  0.00     0.167 HD
ATOM     48  C   UNL A   1      44.290  28.488  32.179  1.00  0.00     0.037 A 
ATOM     49  C   UNL A   1      38.435  31.932  30.426  1.00  0.00     0.037 A 
ATOM     50  C   UNL A   1      44.118  29.765  32.818  1.00  0.00     0.049 A 
ATOM     51  C   UNL A   1      39.427  32.501  31.404  1.00  0.00     0.074 A 
ATOM     52  C   UNL A   1      44.962  30.401  33.710  1.00  0.00     0.029 A 
ATOM     53  N   UNL A   1      43.036  30.610  32.616  1.00  0.00    -0.354 N 
ATOM     54  N   UNL A   1      40.561  31.988  31.818  1.00  0.00    -0.248 NA
ATOM     55  C   UNL A   1      39.106  33.808  31.995  1.00  0.00     0.031 C 
ATOM     56  C   UNL A   1      44.379  31.622  34.066  1.00  0.00     0.029 A 
ATOM     57  C   UNL A   1      43.192  31.762  33.365  1.00  0.00     0.049 A 
ATOM     58  H   UNL A   1      42.272  30.417  32.027  1.00  0.00     0.167 HD
ATOM     59  C   UNL A   1      41.105  32.925  32.690  1.00  0.00     0.074 A 
ATOM     60  C   UNL A   1      40.178  34.036  32.744  1.00  0.00     0.031 C 
ATOM     61  C   UNL A   1      42.271  32.870  33.380  1.00  0.00     0.037 A 
BRANCH  48  62
ATOM     62  C   UNL A   1      45.498  27.664  32.533  1.00  0.00     0.058 A 
ATOM     63  C   UNL A   1      46.694  27.758  31.804  1.00  0.00     0.135 A 
ATOM     64  C   UNL A   1      45.466  26.784  33.627  1.00  0.00     0.135 A 
ATOM     65  F   UNL A   1      46.775  28.572  30.740  1.00  0.00    -0.206 F 
ATOM     66  C   UNL A   1      47.803  26.981  32.122  1.00  0.00     0.059 A 
ATOM     67  C   UNL A   1      46.574  26.019  33.982  1.00  0.00     0.059 A 
ATOM     68  F   UNL A   1      44.349  26.656  34.360  1.00  0.00    -0.206 F 
ATOM     69  C   UNL A   1      47.732  26.111  33.211  1.00  0.00     0.060 A 
BRANCH  69  70
ATOM     70  S   UNL A   1      49.177  25.106  33.609  1.00  0.00     0.124 S 
ATOM     71  O   UNL A   1      49.876  25.083  32.327  1.00  0.00    -0.237 OA
ATOM     72  O   UNL A   1      49.819  25.882  34.666  1.00  0.00    -0.237 OA
ATOM     73  O   UNL A   1      48.600  23.834  34.032  1.00  0.00    -0.744 OA
ENDBRANCH  69  70
ENDBRANCH  48  62
BRANCH  49  74
ATOM     74  C   UNL A   1      37.179  32.661  30.102  1.00  0.00     0.058 A 
ATOM     75  C   UNL A   1      35.999  32.404  30.815  1.00  0.00     0.135 A 
ATOM     76  C   UNL A   1      37.133  33.635  29.093  1.00  0.00     0.135 A 
ATOM     77  F   UNL A   1      35.991  31.477  31.786  1.00  0.00    -0.206 F 
ATOM     78  C   UNL A   1      34.814  33.074  30.533  1.00  0.00     0.059 A 
ATOM     79  C   UNL A   1      35.966  34.337  28.807  1.00  0.00     0.059 A 
ATOM     80  F   UNL A   1      38.240  33.931  28.393  1.00  0.00    -0.206 F 
ATOM     81  C   UNL A   1      34.808  34.043  29.527  1.00  0.00     0.060 A 
BRANCH  81  82
ATOM     82  S   UNL A   1      33.278  34.946  29.205  1.00  0.00     0.124 S 
ATOM     83  O   UNL A   1      32.628  34.084  28.225  1.00  0.00    -0.237 OA
ATOM     84  O   UNL A   1      32.662  34.988  30.528  1.00  0.00    -0.237 OA
ATOM     85  O   UNL A   1      33.749  36.233  28.703  1.00  0.00    -0.744 OA
ENDBRANCH  81  82
ENDBRANCH  49  74
BRANCH  61  86
ATOM     86  C   UNL A   1      42.647  34.066  34.209  1.00  0.00     0.058 A 
ATOM     87  C   UNL A   1      42.313  34.157  35.567  1.00  0.00     0.135 A 
ATOM     88  C   UNL A   1      43.425  35.092  33.650  1.00  0.00     0.135 A 
ATOM     89  F   UNL A   1      41.565  33.204  36.146  1.00  0.00    -0.206 F 
ATOM     90  C   UNL A   1      42.733  35.232  36.345  1.00  0.00     0.059 A 
ATOM     91  C   UNL A   1      43.875  36.164  34.413  1.00  0.00     0.059 A 
ATOM     92  F   UNL A   1      43.778  35.044  32.355  1.00  0.00    -0.206 F 
ATOM     93  C   UNL A   1      43.518  36.228  35.759  1.00  0.00     0.060 A 
BRANCH  93  94
ATOM     94  S   UNL A   1      44.107  37.586  36.792  1.00  0.00     0.124 S 
ATOM     95  O   UNL A   1      45.416  37.093  37.206  1.00  0.00    -0.237 OA
ATOM     96  O   UNL A   1      44.118  38.709  35.859  1.00  0.00    -0.237 OA
ATOM     97  O   UNL A   1      43.104  37.668  37.850  1.00  0.00    -0.744 OA
ENDBRANCH  93  94
ENDBRANCH  61  86
ENDBRANCH  35  36
ENDBRANCH  27  30
ENDBRANCH  25  26
ENDBRANCH   1  25
TORSDOF 16
ENDMDL
