MODEL 1
REMARK VINA RESULT:     -10.7      0.000      0.000
REMARK SMILES CC(C)(C[NH2+]C[C@](C)(O)CO)C(=O)NCCCNC(=O)c1ccc(-c2c3nc(c(-c4c(F)cc(S(=O)(=O)[O-])cc4F)c4ccc([nH]4)c(-c4c(F)cc(S(=O)(=O)[O-])cc4F)c4nc(c(-c5c(F)cc(S(=O)(=O)[O-])cc5F)c5ccc2[nH]5)C=C4)C=C3)cc1
REMARK SMILES IDX 12 1 13 2 14 3 2 5 1 6 3 7 4 8 5 9 6 12 7 13 8 14 9 15 10 17
REMARK SMILES IDX 11 18 15 20 16 21 17 22 18 23 19 24 20 26 21 27 22 28 86 29
REMARK SMILES IDX 23 30 85 31 24 32 25 33 26 34 79 35 27 36 84 37 78 38 80 39
REMARK SMILES IDX 28 40 83 41 77 42 76 43 29 45 63 46 42 47 62 48 43 49 46 50
REMARK SMILES IDX 61 51 81 52 44 53 45 54 60 56 82 57 47 58 30 59 31 60 40 61
REMARK SMILES IDX 32 62 33 63 39 64 41 65 34 66 35 67 36 68 37 69 38 70 64 71
REMARK SMILES IDX 65 72 74 73 66 74 67 75 73 76 75 77 68 78 69 79 70 80 71 81
REMARK SMILES IDX 72 82 48 83 49 84 58 85 50 86 51 87 57 88 59 89 52 90 53 91
REMARK SMILES IDX 54 92 55 93 56 94
REMARK H PARENT 14 4 5 10 5 11 9 16 11 19 18 25 80 44 46 55
REMARK Flexibility Score: inf
ROOT
ATOM      1  C   UNL A   1      37.172  22.962  25.793  1.00  0.00     0.231 C 
ATOM      2  O   UNL A   1      36.504  23.907  26.230  1.00  0.00    -0.274 OA
ATOM      3  N   UNL A   1      38.425  22.841  26.304  1.00  0.00    -0.355 N 
ATOM      4  H   UNL A   1      38.653  23.541  26.959  1.00  0.00     0.163 HD
ENDROOT
BRANCH   1   5
ATOM      5  C   UNL A   1      36.574  21.964  24.781  1.00  0.00     0.092 C 
ATOM      6  C   UNL A   1      37.423  20.665  24.811  1.00  0.00     0.027 C 
ATOM      7  C   UNL A   1      36.719  22.521  23.350  1.00  0.00     0.027 C 
BRANCH   5   8
ATOM      8  C   UNL A   1      35.095  21.604  25.089  1.00  0.00     0.277 C 
BRANCH   8   9
ATOM      9  N   UNL A   1      34.858  20.167  25.221  1.00  0.00    -0.343 N 
ATOM     10  H   UNL A   1      34.598  19.977  26.189  1.00  0.00     0.346 HD
ATOM     11  H   UNL A   1      35.723  19.708  24.934  1.00  0.00     0.346 HD
BRANCH   9  12
ATOM     12  C   UNL A   1      33.801  19.627  24.351  1.00  0.00     0.298 C 
BRANCH  12  13
ATOM     13  C   UNL A   1      33.623  18.083  24.285  1.00  0.00     0.133 C 
ATOM     14  C   UNL A   1      34.915  17.326  24.623  1.00  0.00     0.051 C 
BRANCH  13  15
ATOM     15  O   UNL A   1      33.181  17.685  22.971  1.00  0.00    -0.382 OA
ATOM     16  H   UNL A   1      32.339  17.209  23.044  1.00  0.00     0.211 HD
ENDBRANCH  13  15
BRANCH  13  17
ATOM     17  C   UNL A   1      32.494  17.669  25.254  1.00  0.00     0.196 C 
BRANCH  17  18
ATOM     18  O   UNL A   1      32.796  18.117  26.576  1.00  0.00    -0.393 OA
ATOM     19  H   UNL A   1      33.550  17.615  26.923  1.00  0.00     0.210 HD
ENDBRANCH  17  18
ENDBRANCH  13  17
ENDBRANCH  12  13
ENDBRANCH   9  12
ENDBRANCH   8   9
ENDBRANCH   5   8
ENDBRANCH   1   5
BRANCH   3  20
ATOM     20  C   UNL A   1      39.493  21.886  26.075  1.00  0.00     0.117 C 
BRANCH  20  21
ATOM     21  C   UNL A   1      40.402  21.723  27.285  1.00  0.00     0.042 C 
BRANCH  21  22
ATOM     22  C   UNL A   1      41.295  22.927  27.556  1.00  0.00     0.118 C 
BRANCH  22  23
ATOM     23  N   UNL A   1      41.474  23.768  26.377  1.00  0.00    -0.352 N 
ATOM     24  C   UNL A   1      41.373  25.128  26.232  1.00  0.00     0.251 C 
ATOM     25  H   UNL A   1      41.705  23.281  25.554  1.00  0.00     0.163 HD
ATOM     26  O   UNL A   1      41.353  25.612  25.099  1.00  0.00    -0.269 OA
BRANCH  24  27
ATOM     27  C   UNL A   1      41.272  26.009  27.414  1.00  0.00     0.039 A 
ATOM     28  C   UNL A   1      42.291  26.934  27.660  1.00  0.00     0.014 A 
ATOM     29  C   UNL A   1      40.193  25.911  28.295  1.00  0.00     0.014 A 
ATOM     30  C   UNL A   1      42.189  27.806  28.747  1.00  0.00     0.010 A 
ATOM     31  C   UNL A   1      40.047  26.840  29.321  1.00  0.00     0.010 A 
ATOM     32  C   UNL A   1      41.045  27.793  29.563  1.00  0.00    -0.014 A 
BRANCH  32  33
ATOM     33  C   UNL A   1      40.875  28.767  30.673  1.00  0.00     0.031 A 
ATOM     34  C   UNL A   1      41.722  28.657  31.913  1.00  0.00     0.074 A 
ATOM     35  C   UNL A   1      39.909  29.705  30.592  1.00  0.00     0.049 A 
ATOM     36  N   UNL A   1      41.666  29.357  33.015  1.00  0.00    -0.248 NA
ATOM     37  C   UNL A   1      42.747  27.600  31.927  1.00  0.00     0.031 C 
ATOM     38  C   UNL A   1      38.991  29.880  29.464  1.00  0.00     0.029 A 
ATOM     39  N   UNL A   1      39.529  30.680  31.481  1.00  0.00    -0.354 N 
ATOM     40  C   UNL A   1      42.634  28.821  33.856  1.00  0.00     0.074 A 
ATOM     41  C   UNL A   1      43.223  27.699  33.159  1.00  0.00     0.031 C 
ATOM     42  C   UNL A   1      38.172  30.913  29.718  1.00  0.00     0.029 A 
ATOM     43  C   UNL A   1      38.474  31.445  31.043  1.00  0.00     0.049 A 
ATOM     44  H   UNL A   1      39.970  30.817  32.350  1.00  0.00     0.167 HD
ATOM     45  C   UNL A   1      43.013  29.239  35.088  1.00  0.00     0.037 A 
ATOM     46  C   UNL A   1      37.816  32.456  31.645  1.00  0.00     0.037 A 
ATOM     47  C   UNL A   1      42.438  30.372  35.764  1.00  0.00     0.049 A 
ATOM     48  C   UNL A   1      38.252  32.899  33.015  1.00  0.00     0.074 A 
ATOM     49  C   UNL A   1      42.791  30.914  36.987  1.00  0.00     0.029 A 
ATOM     50  N   UNL A   1      41.385  31.136  35.279  1.00  0.00    -0.354 N 
ATOM     51  N   UNL A   1      39.214  32.421  33.768  1.00  0.00    -0.248 NA
ATOM     52  C   UNL A   1      37.518  34.021  33.617  1.00  0.00     0.031 C 
ATOM     53  C   UNL A   1      41.921  31.972  37.266  1.00  0.00     0.029 A 
ATOM     54  C   UNL A   1      41.060  32.128  36.190  1.00  0.00     0.049 A 
ATOM     55  H   UNL A   1      40.934  30.992  34.415  1.00  0.00     0.167 HD
ATOM     56  C   UNL A   1      39.221  33.203  34.918  1.00  0.00     0.074 A 
ATOM     57  C   UNL A   1      38.175  34.192  34.755  1.00  0.00     0.031 C 
ATOM     58  C   UNL A   1      40.021  33.112  36.009  1.00  0.00     0.037 A 
BRANCH  45  59
ATOM     59  C   UNL A   1      44.107  28.472  35.782  1.00  0.00     0.058 A 
ATOM     60  C   UNL A   1      45.463  28.787  35.597  1.00  0.00     0.135 A 
ATOM     61  C   UNL A   1      43.796  27.436  36.678  1.00  0.00     0.135 A 
ATOM     62  F   UNL A   1      45.821  29.759  34.742  1.00  0.00    -0.206 F 
ATOM     63  C   UNL A   1      46.470  28.085  36.249  1.00  0.00     0.059 A 
ATOM     64  C   UNL A   1      44.786  26.740  37.365  1.00  0.00     0.059 A 
ATOM     65  F   UNL A   1      42.516  27.091  36.894  1.00  0.00    -0.206 F 
ATOM     66  C   UNL A   1      46.122  27.064  37.134  1.00  0.00     0.060 A 
BRANCH  66  67
ATOM     67  S   UNL A   1      47.442  26.170  37.980  1.00  0.00     0.124 S 
ATOM     68  O   UNL A   1      48.091  25.484  36.867  1.00  0.00    -0.237 OA
ATOM     69  O   UNL A   1      48.209  27.251  38.590  1.00  0.00    -0.237 OA
ATOM     70  O   UNL A   1      46.726  25.308  38.916  1.00  0.00    -0.744 OA
ENDBRANCH  66  67
ENDBRANCH  45  59
BRANCH  46  71
ATOM     71  C   UNL A   1      36.687  33.130  30.946  1.00  0.00     0.058 A 
ATOM     72  C   UNL A   1      35.362  32.938  31.362  1.00  0.00     0.135 A 
ATOM     73  C   UNL A   1      36.911  33.985  29.854  1.00  0.00     0.135 A 
ATOM     74  F   UNL A   1      35.095  32.126  32.396  1.00  0.00    -0.206 F 
ATOM     75  C   UNL A   1      34.297  33.553  30.712  1.00  0.00     0.059 A 
ATOM     76  C   UNL A   1      35.865  34.633  29.206  1.00  0.00     0.059 A 
ATOM     77  F   UNL A   1      38.163  34.216  29.428  1.00  0.00    -0.206 F 
ATOM     78  C   UNL A   1      34.560  34.401  29.635  1.00  0.00     0.060 A 
BRANCH  78  79
ATOM     79  S   UNL A   1      33.173  35.228  28.827  1.00  0.00     0.124 S 
ATOM     80  O   UNL A   1      32.373  35.648  29.972  1.00  0.00    -0.237 OA
ATOM     81  O   UNL A   1      33.841  36.296  28.089  1.00  0.00    -0.237 OA
ATOM     82  O   UNL A   1      32.589  34.176  28.002  1.00  0.00    -0.744 OA
ENDBRANCH  78  79
ENDBRANCH  46  71
BRANCH  58  83
ATOM     83  C   UNL A   1      39.828  34.130  37.100  1.00  0.00     0.058 A 
ATOM     84  C   UNL A   1      39.058  33.856  38.241  1.00  0.00     0.135 A 
ATOM     85  C   UNL A   1      40.466  35.379  37.025  1.00  0.00     0.135 A 
ATOM     86  F   UNL A   1      38.420  32.680  38.360  1.00  0.00    -0.206 F 
ATOM     87  C   UNL A   1      38.910  34.792  39.259  1.00  0.00     0.059 A 
ATOM     88  C   UNL A   1      40.358  36.318  38.045  1.00  0.00     0.059 A 
ATOM     89  F   UNL A   1      41.223  35.689  35.960  1.00  0.00    -0.206 F 
ATOM     90  C   UNL A   1      39.567  36.020  39.153  1.00  0.00     0.060 A 
BRANCH  90  91
ATOM     91  S   UNL A   1      39.395  37.211  40.498  1.00  0.00     0.124 S 
ATOM     92  O   UNL A   1      38.667  36.429  41.492  1.00  0.00    -0.237 OA
ATOM     93  O   UNL A   1      40.785  37.517  40.824  1.00  0.00    -0.237 OA
ATOM     94  O   UNL A   1      38.645  38.305  39.889  1.00  0.00    -0.744 OA
ENDBRANCH  90  91
ENDBRANCH  58  83
ENDBRANCH  32  33
ENDBRANCH  24  27
ENDBRANCH  22  23
ENDBRANCH  21  22
ENDBRANCH  20  21
ENDBRANCH   3  20
TORSDOF 20
ENDMDL
MODEL 2
REMARK VINA RESULT:     -10.5      5.714     11.052
REMARK SMILES CC(C)(C[NH2+]C[C@](C)(O)CO)C(=O)NCCCNC(=O)c1ccc(-c2c3nc(c(-c4c(F)cc(S(=O)(=O)[O-])cc4F)c4ccc([nH]4)c(-c4c(F)cc(S(=O)(=O)[O-])cc4F)c4nc(c(-c5c(F)cc(S(=O)(=O)[O-])cc5F)c5ccc2[nH]5)C=C4)C=C3)cc1
REMARK SMILES IDX 12 1 13 2 14 3 2 5 1 6 3 7 4 8 5 9 6 12 7 13 8 14 9 15 10 17
REMARK SMILES IDX 11 18 15 20 16 21 17 22 18 23 19 24 20 26 21 27 22 28 86 29
REMARK SMILES IDX 23 30 85 31 24 32 25 33 26 34 79 35 27 36 84 37 78 38 80 39
REMARK SMILES IDX 28 40 83 41 77 42 76 43 29 45 63 46 42 47 62 48 43 49 46 50
REMARK SMILES IDX 61 51 81 52 44 53 45 54 60 56 82 57 47 58 30 59 31 60 40 61
REMARK SMILES IDX 32 62 33 63 39 64 41 65 34 66 35 67 36 68 37 69 38 70 64 71
REMARK SMILES IDX 65 72 74 73 66 74 67 75 73 76 75 77 68 78 69 79 70 80 71 81
REMARK SMILES IDX 72 82 48 83 49 84 58 85 50 86 51 87 57 88 59 89 52 90 53 91
REMARK SMILES IDX 54 92 55 93 56 94
REMARK H PARENT 14 4 5 10 5 11 9 16 11 19 18 25 80 44 46 55
REMARK Flexibility Score: inf
ROOT
ATOM      1  C   UNL A   1      31.577  25.250  25.350  1.00  0.00     0.231 C 
ATOM      2  O   UNL A   1      30.665  24.756  26.023  1.00  0.00    -0.274 OA
ATOM      3  N   UNL A   1      32.626  25.748  26.056  1.00  0.00    -0.355 N 
ATOM      4  H   UNL A   1      32.521  25.663  27.032  1.00  0.00     0.163 HD
ENDROOT
BRANCH   1   5
ATOM      5  C   UNL A   1      31.530  25.232  23.808  1.00  0.00     0.092 C 
ATOM      6  C   UNL A   1      30.508  24.154  23.360  1.00  0.00     0.027 C 
ATOM      7  C   UNL A   1      32.891  24.771  23.250  1.00  0.00     0.027 C 
BRANCH   5   8
ATOM      8  C   UNL A   1      31.115  26.600  23.201  1.00  0.00     0.277 C 
BRANCH   8   9
ATOM      9  N   UNL A   1      30.565  27.533  24.183  1.00  0.00    -0.343 N 
ATOM     10  H   UNL A   1      31.125  27.465  25.033  1.00  0.00     0.346 HD
ATOM     11  H   UNL A   1      29.589  27.264  24.316  1.00  0.00     0.346 HD
BRANCH   9  12
ATOM     12  C   UNL A   1      30.545  28.943  23.761  1.00  0.00     0.298 C 
BRANCH  12  13
ATOM     13  C   UNL A   1      29.402  29.410  22.814  1.00  0.00     0.133 C 
ATOM     14  C   UNL A   1      28.137  28.550  22.950  1.00  0.00     0.051 C 
BRANCH  13  15
ATOM     15  O   UNL A   1      29.842  29.376  21.441  1.00  0.00    -0.382 OA
ATOM     16  H   UNL A   1      30.763  29.073  21.404  1.00  0.00     0.211 HD
ENDBRANCH  13  15
BRANCH  13  17
ATOM     17  C   UNL A   1      29.076  30.888  23.117  1.00  0.00     0.196 C 
BRANCH  17  18
ATOM     18  O   UNL A   1      29.653  31.730  22.116  1.00  0.00    -0.393 OA
ATOM     19  H   UNL A   1      30.381  32.241  22.504  1.00  0.00     0.210 HD
ENDBRANCH  17  18
ENDBRANCH  13  17
ENDBRANCH  12  13
ENDBRANCH   9  12
ENDBRANCH   8   9
ENDBRANCH   5   8
ENDBRANCH   1   5
BRANCH   3  20
ATOM     20  C   UNL A   1      33.870  26.378  25.656  1.00  0.00     0.117 C 
BRANCH  20  21
ATOM     21  C   UNL A   1      33.881  27.876  25.927  1.00  0.00     0.042 C 
BRANCH  21  22
ATOM     22  C   UNL A   1      33.372  28.259  27.311  1.00  0.00     0.118 C 
BRANCH  22  23
ATOM     23  N   UNL A   1      33.326  29.704  27.511  1.00  0.00    -0.352 N 
ATOM     24  C   UNL A   1      34.259  30.557  28.043  1.00  0.00     0.251 C 
ATOM     25  H   UNL A   1      32.492  30.135  27.216  1.00  0.00     0.163 HD
ATOM     26  O   UNL A   1      33.930  31.713  28.316  1.00  0.00    -0.269 OA
BRANCH  24  27
ATOM     27  C   UNL A   1      35.640  30.101  28.304  1.00  0.00     0.039 A 
ATOM     28  C   UNL A   1      36.582  30.162  27.272  1.00  0.00     0.014 A 
ATOM     29  C   UNL A   1      36.005  29.589  29.551  1.00  0.00     0.014 A 
ATOM     30  C   UNL A   1      37.903  29.778  27.515  1.00  0.00     0.010 A 
ATOM     31  C   UNL A   1      37.339  29.294  29.817  1.00  0.00     0.010 A 
ATOM     32  C   UNL A   1      38.302  29.379  28.802  1.00  0.00    -0.014 A 
BRANCH  32  33
ATOM     33  C   UNL A   1      39.718  29.047  29.106  1.00  0.00     0.031 A 
ATOM     34  C   UNL A   1      40.629  30.089  29.699  1.00  0.00     0.074 A 
ATOM     35  C   UNL A   1      40.200  27.830  28.783  1.00  0.00     0.049 A 
ATOM     36  N   UNL A   1      41.908  30.015  29.958  1.00  0.00    -0.248 NA
ATOM     37  C   UNL A   1      40.028  31.395  30.015  1.00  0.00     0.031 C 
ATOM     38  C   UNL A   1      39.429  26.752  28.157  1.00  0.00     0.029 A 
ATOM     39  N   UNL A   1      41.458  27.297  28.922  1.00  0.00    -0.354 N 
ATOM     40  C   UNL A   1      42.268  31.264  30.452  1.00  0.00     0.074 A 
ATOM     41  C   UNL A   1      41.084  32.094  30.403  1.00  0.00     0.031 C 
ATOM     42  C   UNL A   1      40.222  25.683  27.989  1.00  0.00     0.029 A 
ATOM     43  C   UNL A   1      41.567  26.009  28.451  1.00  0.00     0.049 A 
ATOM     44  H   UNL A   1      42.210  27.790  29.321  1.00  0.00     0.167 HD
ATOM     45  C   UNL A   1      43.469  31.674  30.926  1.00  0.00     0.037 A 
ATOM     46  C   UNL A   1      42.633  25.187  28.389  1.00  0.00     0.037 A 
ATOM     47  C   UNL A   1      44.636  30.833  30.994  1.00  0.00     0.049 A 
ATOM     48  C   UNL A   1      43.959  25.667  28.916  1.00  0.00     0.074 A 
ATOM     49  C   UNL A   1      45.883  31.135  31.510  1.00  0.00     0.029 A 
ATOM     50  N   UNL A   1      44.701  29.528  30.527  1.00  0.00    -0.354 N 
ATOM     51  N   UNL A   1      44.264  26.830  29.442  1.00  0.00    -0.248 NA
ATOM     52  C   UNL A   1      45.083  24.724  28.848  1.00  0.00     0.031 C 
ATOM     53  C   UNL A   1      46.718  30.030  31.311  1.00  0.00     0.029 A 
ATOM     54  C   UNL A   1      45.975  29.019  30.721  1.00  0.00     0.049 A 
ATOM     55  H   UNL A   1      43.954  29.036  30.116  1.00  0.00     0.167 HD
ATOM     56  C   UNL A   1      45.607  26.748  29.793  1.00  0.00     0.074 A 
ATOM     57  C   UNL A   1      46.050  25.417  29.433  1.00  0.00     0.031 C 
ATOM     58  C   UNL A   1      46.400  27.687  30.365  1.00  0.00     0.037 A 
BRANCH  45  59
ATOM     59  C   UNL A   1      43.582  33.094  31.414  1.00  0.00     0.058 A 
ATOM     60  C   UNL A   1      43.355  33.434  32.758  1.00  0.00     0.135 A 
ATOM     61  C   UNL A   1      43.963  34.123  30.538  1.00  0.00     0.135 A 
ATOM     62  F   UNL A   1      42.974  32.494  33.638  1.00  0.00    -0.206 F 
ATOM     63  C   UNL A   1      43.472  34.744  33.208  1.00  0.00     0.059 A 
ATOM     64  C   UNL A   1      44.117  35.436  30.972  1.00  0.00     0.059 A 
ATOM     65  F   UNL A   1      44.193  33.857  29.242  1.00  0.00    -0.206 F 
ATOM     66  C   UNL A   1      43.856  35.739  32.308  1.00  0.00     0.060 A 
BRANCH  66  67
ATOM     67  S   UNL A   1      44.014  37.433  32.912  1.00  0.00     0.124 S 
ATOM     68  O   UNL A   1      43.920  38.195  31.671  1.00  0.00    -0.237 OA
ATOM     69  O   UNL A   1      42.872  37.549  33.814  1.00  0.00    -0.237 OA
ATOM     70  O   UNL A   1      45.322  37.444  33.559  1.00  0.00    -0.744 OA
ENDBRANCH  66  67
ENDBRANCH  45  59
BRANCH  46  71
ATOM     71  C   UNL A   1      42.486  23.818  27.823  1.00  0.00     0.058 A 
ATOM     72  C   UNL A   1      42.444  23.611  26.436  1.00  0.00     0.135 A 
ATOM     73  C   UNL A   1      42.393  22.691  28.655  1.00  0.00     0.135 A 
ATOM     74  F   UNL A   1      42.522  24.656  25.600  1.00  0.00    -0.206 F 
ATOM     75  C   UNL A   1      42.296  22.338  25.894  1.00  0.00     0.059 A 
ATOM     76  C   UNL A   1      42.273  21.406  28.135  1.00  0.00     0.059 A 
ATOM     77  F   UNL A   1      42.446  22.833  29.989  1.00  0.00    -0.206 F 
ATOM     78  C   UNL A   1      42.214  21.241  26.753  1.00  0.00     0.060 A 
BRANCH  78  79
ATOM     79  S   UNL A   1      42.066  19.591  26.035  1.00  0.00     0.124 S 
ATOM     80  O   UNL A   1      42.958  19.688  24.887  1.00  0.00    -0.237 OA
ATOM     81  O   UNL A   1      42.523  18.740  27.129  1.00  0.00    -0.237 OA
ATOM     82  O   UNL A   1      40.644  19.487  25.723  1.00  0.00    -0.744 OA
ENDBRANCH  78  79
ENDBRANCH  46  71
BRANCH  58  83
ATOM     83  C   UNL A   1      47.821  27.303  30.674  1.00  0.00     0.058 A 
ATOM     84  C   UNL A   1      48.183  26.728  31.902  1.00  0.00     0.135 A 
ATOM     85  C   UNL A   1      48.826  27.463  29.705  1.00  0.00     0.135 A 
ATOM     86  F   UNL A   1      47.263  26.558  32.866  1.00  0.00    -0.206 F 
ATOM     87  C   UNL A   1      49.494  26.347  32.168  1.00  0.00     0.059 A 
ATOM     88  C   UNL A   1      50.137  27.061  29.937  1.00  0.00     0.059 A 
ATOM     89  F   UNL A   1      48.532  27.998  28.509  1.00  0.00    -0.206 F 
ATOM     90  C   UNL A   1      50.464  26.514  31.177  1.00  0.00     0.060 A 
BRANCH  90  91
ATOM     91  S   UNL A   1      52.153  25.982  31.522  1.00  0.00     0.124 S 
ATOM     92  O   UNL A   1      51.948  24.597  31.933  1.00  0.00    -0.237 OA
ATOM     93  O   UNL A   1      52.809  26.171  30.232  1.00  0.00    -0.237 OA
ATOM     94  O   UNL A   1      52.587  26.892  32.578  1.00  0.00    -0.744 OA
ENDBRANCH  90  91
ENDBRANCH  58  83
ENDBRANCH  32  33
ENDBRANCH  24  27
ENDBRANCH  22  23
ENDBRANCH  21  22
ENDBRANCH  20  21
ENDBRANCH   3  20
TORSDOF 20
ENDMDL
MODEL 3
REMARK VINA RESULT:     -10.5      1.578      2.329
REMARK SMILES CC(C)(C[NH2+]C[C@](C)(O)CO)C(=O)NCCCNC(=O)c1ccc(-c2c3nc(c(-c4c(F)cc(S(=O)(=O)[O-])cc4F)c4ccc([nH]4)c(-c4c(F)cc(S(=O)(=O)[O-])cc4F)c4nc(c(-c5c(F)cc(S(=O)(=O)[O-])cc5F)c5ccc2[nH]5)C=C4)C=C3)cc1
REMARK SMILES IDX 12 1 13 2 14 3 2 5 1 6 3 7 4 8 5 9 6 12 7 13 8 14 9 15 10 17
REMARK SMILES IDX 11 18 15 20 16 21 17 22 18 23 19 24 20 26 21 27 22 28 86 29
REMARK SMILES IDX 23 30 85 31 24 32 25 33 26 34 79 35 27 36 84 37 78 38 80 39
REMARK SMILES IDX 28 40 83 41 77 42 76 43 29 45 63 46 42 47 62 48 43 49 46 50
REMARK SMILES IDX 61 51 81 52 44 53 45 54 60 56 82 57 47 58 30 59 31 60 40 61
REMARK SMILES IDX 32 62 33 63 39 64 41 65 34 66 35 67 36 68 37 69 38 70 64 71
REMARK SMILES IDX 65 72 74 73 66 74 67 75 73 76 75 77 68 78 69 79 70 80 71 81
REMARK SMILES IDX 72 82 48 83 49 84 58 85 50 86 51 87 57 88 59 89 52 90 53 91
REMARK SMILES IDX 54 92 55 93 56 94
REMARK H PARENT 14 4 5 10 5 11 9 16 11 19 18 25 80 44 46 55
REMARK Flexibility Score: inf
ROOT
ATOM      1  C   UNL A   1      36.534  23.046  23.997  1.00  0.00     0.231 C 
ATOM      2  O   UNL A   1      36.583  22.983  22.762  1.00  0.00    -0.274 OA
ATOM      3  N   UNL A   1      37.721  23.262  24.622  1.00  0.00    -0.355 N 
ATOM      4  H   UNL A   1      38.486  23.329  24.004  1.00  0.00     0.163 HD
ENDROOT
BRANCH   1   5
ATOM      5  C   UNL A   1      35.191  22.946  24.748  1.00  0.00     0.092 C 
ATOM      6  C   UNL A   1      34.964  24.268  25.527  1.00  0.00     0.027 C 
ATOM      7  C   UNL A   1      35.274  21.841  25.820  1.00  0.00     0.027 C 
BRANCH   5   8
ATOM      8  C   UNL A   1      33.985  22.709  23.799  1.00  0.00     0.277 C 
BRANCH   8   9
ATOM      9  N   UNL A   1      32.764  23.393  24.222  1.00  0.00    -0.343 N 
ATOM     10  H   UNL A   1      32.377  23.878  23.413  1.00  0.00     0.346 HD
ATOM     11  H   UNL A   1      33.037  24.020  24.979  1.00  0.00     0.346 HD
BRANCH   9  12
ATOM     12  C   UNL A   1      31.718  22.518  24.774  1.00  0.00     0.298 C 
BRANCH  12  13
ATOM     13  C   UNL A   1      31.049  22.932  26.117  1.00  0.00     0.133 C 
ATOM     14  C   UNL A   1      32.013  22.841  27.308  1.00  0.00     0.051 C 
BRANCH  13  15
ATOM     15  O   UNL A   1      29.902  22.098  26.383  1.00  0.00    -0.382 OA
ATOM     16  H   UNL A   1      29.092  22.580  26.154  1.00  0.00     0.211 HD
ENDBRANCH  13  15
BRANCH  13  17
ATOM     17  C   UNL A   1      30.503  24.370  25.980  1.00  0.00     0.196 C 
BRANCH  17  18
ATOM     18  O   UNL A   1      29.325  24.522  26.775  1.00  0.00    -0.393 OA
ATOM     19  H   UNL A   1      29.293  23.819  27.443  1.00  0.00     0.210 HD
ENDBRANCH  17  18
ENDBRANCH  13  17
ENDBRANCH  12  13
ENDBRANCH   9  12
ENDBRANCH   8   9
ENDBRANCH   5   8
ENDBRANCH   1   5
BRANCH   3  20
ATOM     20  C   UNL A   1      38.084  23.413  26.018  1.00  0.00     0.117 C 
BRANCH  20  21
ATOM     21  C   UNL A   1      39.206  22.474  26.437  1.00  0.00     0.042 C 
BRANCH  21  22
ATOM     22  C   UNL A   1      40.386  23.174  27.098  1.00  0.00     0.118 C 
BRANCH  22  23
ATOM     23  N   UNL A   1      41.287  23.789  26.129  1.00  0.00    -0.352 N 
ATOM     24  C   UNL A   1      41.714  25.087  26.012  1.00  0.00     0.251 C 
ATOM     25  H   UNL A   1      41.645  23.173  25.450  1.00  0.00     0.163 HD
ATOM     26  O   UNL A   1      42.307  25.435  24.989  1.00  0.00    -0.269 OA
BRANCH  24  27
ATOM     27  C   UNL A   1      41.458  26.067  27.088  1.00  0.00     0.039 A 
ATOM     28  C   UNL A   1      40.424  25.823  27.997  1.00  0.00     0.014 A 
ATOM     29  C   UNL A   1      42.214  27.238  27.190  1.00  0.00     0.014 A 
ATOM     30  C   UNL A   1      40.200  26.717  29.048  1.00  0.00     0.010 A 
ATOM     31  C   UNL A   1      42.049  28.077  28.287  1.00  0.00     0.010 A 
ATOM     32  C   UNL A   1      41.037  27.831  29.225  1.00  0.00    -0.014 A 
BRANCH  32  33
ATOM     33  C   UNL A   1      40.871  28.749  30.382  1.00  0.00     0.031 A 
ATOM     34  C   UNL A   1      41.735  28.587  31.605  1.00  0.00     0.074 A 
ATOM     35  C   UNL A   1      39.897  29.680  30.358  1.00  0.00     0.049 A 
ATOM     36  N   UNL A   1      41.686  29.234  32.740  1.00  0.00    -0.248 NA
ATOM     37  C   UNL A   1      42.770  27.541  31.556  1.00  0.00     0.031 C 
ATOM     38  C   UNL A   1      38.963  29.900  29.251  1.00  0.00     0.029 A 
ATOM     39  N   UNL A   1      39.518  30.607  31.297  1.00  0.00    -0.354 N 
ATOM     40  C   UNL A   1      42.670  28.667  33.543  1.00  0.00     0.074 A 
ATOM     41  C   UNL A   1      43.261  27.586  32.785  1.00  0.00     0.031 C 
ATOM     42  C   UNL A   1      38.138  30.911  29.564  1.00  0.00     0.029 A 
ATOM     43  C   UNL A   1      38.451  31.383  30.909  1.00  0.00     0.049 A 
ATOM     44  H   UNL A   1      39.970  30.708  32.166  1.00  0.00     0.167 HD
ATOM     45  C   UNL A   1      43.061  29.030  34.788  1.00  0.00     0.037 A 
ATOM     46  C   UNL A   1      37.791  32.357  31.566  1.00  0.00     0.037 A 
ATOM     47  C   UNL A   1      42.484  30.124  35.525  1.00  0.00     0.049 A 
ATOM     48  C   UNL A   1      38.241  32.738  32.951  1.00  0.00     0.074 A 
ATOM     49  C   UNL A   1      42.847  30.609  36.768  1.00  0.00     0.029 A 
ATOM     50  N   UNL A   1      41.418  30.899  35.090  1.00  0.00    -0.354 N 
ATOM     51  N   UNL A   1      39.217  32.234  33.669  1.00  0.00    -0.248 NA
ATOM     52  C   UNL A   1      37.504  33.823  33.615  1.00  0.00     0.031 C 
ATOM     53  C   UNL A   1      41.971  31.645  37.107  1.00  0.00     0.029 A 
ATOM     54  C   UNL A   1      41.096  31.843  36.051  1.00  0.00     0.049 A 
ATOM     55  H   UNL A   1      40.957  30.792  34.226  1.00  0.00     0.167 HD
ATOM     56  C   UNL A   1      39.231  32.960  34.855  1.00  0.00     0.074 A 
ATOM     57  C   UNL A   1      38.174  33.945  34.752  1.00  0.00     0.031 C 
ATOM     58  C   UNL A   1      40.046  32.824  35.930  1.00  0.00     0.037 A 
BRANCH  45  59
ATOM     59  C   UNL A   1      44.170  28.241  35.432  1.00  0.00     0.058 A 
ATOM     60  C   UNL A   1      45.521  28.579  35.246  1.00  0.00     0.135 A 
ATOM     61  C   UNL A   1      43.880  27.159  36.278  1.00  0.00     0.135 A 
ATOM     62  F   UNL A   1      45.859  29.595  34.436  1.00  0.00    -0.206 F 
ATOM     63  C   UNL A   1      46.543  27.856  35.852  1.00  0.00     0.059 A 
ATOM     64  C   UNL A   1      44.884  26.440  36.920  1.00  0.00     0.059 A 
ATOM     65  F   UNL A   1      42.606  26.791  36.492  1.00  0.00    -0.206 F 
ATOM     66  C   UNL A   1      46.215  26.789  36.690  1.00  0.00     0.060 A 
BRANCH  66  67
ATOM     67  S   UNL A   1      47.553  25.868  37.476  1.00  0.00     0.124 S 
ATOM     68  O   UNL A   1      48.607  26.876  37.532  1.00  0.00    -0.237 OA
ATOM     69  O   UNL A   1      46.964  25.497  38.759  1.00  0.00    -0.237 OA
ATOM     70  O   UNL A   1      47.792  24.761  36.556  1.00  0.00    -0.744 OA
ENDBRANCH  66  67
ENDBRANCH  45  59
BRANCH  46  71
ATOM     71  C   UNL A   1      36.648  33.052  30.914  1.00  0.00     0.058 A 
ATOM     72  C   UNL A   1      35.329  32.819  31.329  1.00  0.00     0.135 A 
ATOM     73  C   UNL A   1      36.852  33.970  29.871  1.00  0.00     0.135 A 
ATOM     74  F   UNL A   1      35.082  31.947  32.317  1.00  0.00    -0.206 F 
ATOM     75  C   UNL A   1      34.250  33.454  30.722  1.00  0.00     0.059 A 
ATOM     76  C   UNL A   1      35.792  34.639  29.268  1.00  0.00     0.059 A 
ATOM     77  F   UNL A   1      38.096  34.243  29.449  1.00  0.00    -0.206 F 
ATOM     78  C   UNL A   1      34.493  34.365  29.692  1.00  0.00     0.060 A 
BRANCH  78  79
ATOM     79  S   UNL A   1      33.088  35.215  28.942  1.00  0.00     0.124 S 
ATOM     80  O   UNL A   1      32.614  34.217  27.991  1.00  0.00    -0.237 OA
ATOM     81  O   UNL A   1      32.226  35.459  30.094  1.00  0.00    -0.237 OA
ATOM     82  O   UNL A   1      33.691  36.408  28.357  1.00  0.00    -0.744 OA
ENDBRANCH  78  79
ENDBRANCH  46  71
BRANCH  58  83
ATOM     83  C   UNL A   1      39.856  33.787  37.071  1.00  0.00     0.058 A 
ATOM     84  C   UNL A   1      40.440  35.064  37.068  1.00  0.00     0.135 A 
ATOM     85  C   UNL A   1      39.035  33.445  38.158  1.00  0.00     0.135 A 
ATOM     86  F   UNL A   1      41.240  35.439  36.056  1.00  0.00    -0.206 F 
ATOM     87  C   UNL A   1      40.235  35.959  38.113  1.00  0.00     0.059 A 
ATOM     88  C   UNL A   1      38.790  34.335  39.198  1.00  0.00     0.059 A 
ATOM     89  F   UNL A   1      38.444  32.241  38.206  1.00  0.00    -0.206 F 
ATOM     90  C   UNL A   1      39.405  35.587  39.172  1.00  0.00     0.060 A 
BRANCH  90  91
ATOM     91  S   UNL A   1      39.118  36.771  40.503  1.00  0.00     0.124 S 
ATOM     92  O   UNL A   1      40.457  36.908  41.068  1.00  0.00    -0.237 OA
ATOM     93  O   UNL A   1      38.611  37.934  39.782  1.00  0.00    -0.237 OA
ATOM     94  O   UNL A   1      38.144  36.096  41.355  1.00  0.00    -0.744 OA
ENDBRANCH  90  91
ENDBRANCH  58  83
ENDBRANCH  32  33
ENDBRANCH  24  27
ENDBRANCH  22  23
ENDBRANCH  21  22
ENDBRANCH  20  21
ENDBRANCH   3  20
TORSDOF 20
ENDMDL
