MODEL 1
REMARK VINA RESULT:     -12.8      0.000      0.000
REMARK SMILES O=C(NCCCNC(=O)[C@H]1CC=CC[C@@H]1C(=O)N[C@@H]1CCCN(c2ccccc2F)C1=O)c1ccc(-c2c3nc(c(-c4c(F)cc(S(=O)(=O)[O-])cc4F)c4ccc([nH]4)c(-c4c(F)cc(S(=O)(=O)[O-])cc4F)c4nc(c(-c5c(F)cc(S(=O)(=O)[O-])cc5F)c5ccc2[nH]5)C=C4)C=C3)cc1
REMARK SMILES IDX 5 1 4 2 3 3 1 4 2 5 33 7 34 8 98 9 35 10 97 11 36 12 37 13
REMARK SMILES IDX 38 14 91 15 39 16 96 17 90 18 92 19 40 20 95 21 89 22 88 23
REMARK SMILES IDX 41 25 75 26 54 27 74 28 55 29 58 30 73 31 93 32 56 33 57 34
REMARK SMILES IDX 72 36 94 37 59 38 42 39 43 40 52 41 44 42 45 43 51 44 53 45
REMARK SMILES IDX 46 46 47 47 48 48 49 49 50 50 76 51 77 52 86 53 78 54 79 55
REMARK SMILES IDX 85 56 87 57 80 58 81 59 82 60 83 61 84 62 60 63 61 64 70 65
REMARK SMILES IDX 62 66 63 67 69 68 71 69 64 70 65 71 66 72 67 73 68 74 6 75
REMARK SMILES IDX 7 76 8 77 9 79 10 80 11 81 15 82 12 83 14 84 13 85 16 86
REMARK SMILES IDX 17 87 18 88 19 90 20 91 31 92 21 93 23 94 32 95 22 96 24 97
REMARK SMILES IDX 25 98 29 99 26 100 28 101 30 102 27 103
REMARK H PARENT 3 6 92 24 58 35 7 78 18 89
REMARK Flexibility Score: inf
ROOT
ATOM      1  C   UNL A   1      31.893  28.148  27.255  1.00  0.00     0.042 C 
ENDROOT
BRANCH   1   2
ATOM      2  C   UNL A   1      33.334  28.633  27.342  1.00  0.00     0.118 C 
BRANCH   2   3
ATOM      3  N   UNL A   1      33.410  30.050  27.669  1.00  0.00    -0.352 N 
ATOM      4  O   UNL A   1      34.139  31.874  28.754  1.00  0.00    -0.269 OA
ATOM      5  C   UNL A   1      34.398  30.761  28.306  1.00  0.00     0.251 C 
ATOM      6  H   UNL A   1      32.630  30.581  27.389  1.00  0.00     0.163 HD
BRANCH   5   7
ATOM      7  C   UNL A   1      35.760  30.199  28.457  1.00  0.00     0.039 A 
ATOM      8  C   UNL A   1      36.667  30.236  27.398  1.00  0.00     0.014 A 
ATOM      9  C   UNL A   1      36.177  29.724  29.705  1.00  0.00     0.014 A 
ATOM     10  C   UNL A   1      37.934  29.686  27.542  1.00  0.00     0.010 A 
ATOM     11  C   UNL A   1      37.493  29.278  29.884  1.00  0.00     0.010 A 
ATOM     12  C   UNL A   1      38.383  29.258  28.800  1.00  0.00    -0.014 A 
BRANCH  12  13
ATOM     13  C   UNL A   1      39.826  28.955  28.971  1.00  0.00     0.031 A 
ATOM     14  C   UNL A   1      40.407  27.632  28.566  1.00  0.00     0.074 A 
ATOM     15  C   UNL A   1      40.616  29.928  29.471  1.00  0.00     0.049 A 
ATOM     16  N   UNL A   1      41.649  27.230  28.643  1.00  0.00    -0.248 NA
ATOM     17  C   UNL A   1      39.486  26.629  28.009  1.00  0.00     0.031 C 
ATOM     18  C   UNL A   1      40.146  31.247  29.913  1.00  0.00     0.029 A 
ATOM     19  N   UNL A   1      41.972  29.986  29.667  1.00  0.00    -0.354 N 
ATOM     20  C   UNL A   1      41.660  25.926  28.165  1.00  0.00     0.074 A 
ATOM     21  C   UNL A   1      40.297  25.596  27.810  1.00  0.00     0.031 C 
ATOM     22  C   UNL A   1      41.197  32.001  30.262  1.00  0.00     0.029 A 
ATOM     23  C   UNL A   1      42.407  31.198  30.151  1.00  0.00     0.049 A 
ATOM     24  H   UNL A   1      42.576  29.232  29.480  1.00  0.00     0.167 HD
ATOM     25  C   UNL A   1      42.718  25.091  28.033  1.00  0.00     0.037 A 
ATOM     26  C   UNL A   1      43.639  31.616  30.496  1.00  0.00     0.037 A 
ATOM     27  C   UNL A   1      44.073  25.448  28.372  1.00  0.00     0.049 A 
ATOM     28  C   UNL A   1      44.786  30.660  30.355  1.00  0.00     0.074 A 
ATOM     29  C   UNL A   1      45.219  24.680  28.244  1.00  0.00     0.029 A 
ATOM     30  N   UNL A   1      44.468  26.668  28.900  1.00  0.00    -0.354 N 
ATOM     31  N   UNL A   1      44.776  29.434  29.887  1.00  0.00    -0.248 NA
ATOM     32  C   UNL A   1      46.103  31.127  30.804  1.00  0.00     0.031 C 
ATOM     33  C   UNL A   1      46.299  25.421  28.734  1.00  0.00     0.029 A 
ATOM     34  C   UNL A   1      45.835  26.666  29.126  1.00  0.00     0.049 A 
ATOM     35  H   UNL A   1      43.866  27.424  29.088  1.00  0.00     0.167 HD
ATOM     36  C   UNL A   1      46.084  28.981  29.991  1.00  0.00     0.074 A 
ATOM     37  C   UNL A   1      46.863  30.074  30.534  1.00  0.00     0.031 C 
ATOM     38  C   UNL A   1      46.589  27.765  29.675  1.00  0.00     0.037 A 
BRANCH  25  39
ATOM     39  C   UNL A   1      42.477  23.705  27.502  1.00  0.00     0.058 A 
ATOM     40  C   UNL A   1      42.348  22.619  28.384  1.00  0.00     0.135 A 
ATOM     41  C   UNL A   1      42.498  23.433  26.125  1.00  0.00     0.135 A 
ATOM     42  F   UNL A   1      42.316  22.825  29.710  1.00  0.00    -0.206 F 
ATOM     43  C   UNL A   1      42.282  21.309  27.920  1.00  0.00     0.059 A 
ATOM     44  C   UNL A   1      42.412  22.131  25.639  1.00  0.00     0.059 A 
ATOM     45  F   UNL A   1      42.597  24.437  25.240  1.00  0.00    -0.206 F 
ATOM     46  C   UNL A   1      42.327  21.074  26.545  1.00  0.00     0.060 A 
BRANCH  46  47
ATOM     47  S   UNL A   1      42.264  19.366  25.961  1.00  0.00     0.124 S 
ATOM     48  O   UNL A   1      43.143  19.413  24.798  1.00  0.00    -0.237 OA
ATOM     49  O   UNL A   1      42.772  18.630  27.115  1.00  0.00    -0.237 OA
ATOM     50  O   UNL A   1      40.848  19.160  25.673  1.00  0.00    -0.744 OA
ENDBRANCH  46  47
ENDBRANCH  25  39
BRANCH  26  51
ATOM     51  C   UNL A   1      43.832  32.988  31.033  1.00  0.00     0.058 A 
ATOM     52  C   UNL A   1      43.724  33.248  32.409  1.00  0.00     0.135 A 
ATOM     53  C   UNL A   1      44.090  34.073  30.182  1.00  0.00     0.135 A 
ATOM     54  F   UNL A   1      43.466  32.247  33.265  1.00  0.00    -0.206 F 
ATOM     55  C   UNL A   1      43.836  34.535  32.919  1.00  0.00     0.059 A 
ATOM     56  C   UNL A   1      44.236  35.368  30.674  1.00  0.00     0.059 A 
ATOM     57  F   UNL A   1      44.212  33.874  28.861  1.00  0.00    -0.206 F 
ATOM     58  C   UNL A   1      44.090  35.590  32.044  1.00  0.00     0.060 A 
BRANCH  58  59
ATOM     59  S   UNL A   1      44.243  37.254  32.727  1.00  0.00     0.124 S 
ATOM     60  O   UNL A   1      44.026  38.076  31.543  1.00  0.00    -0.237 OA
ATOM     61  O   UNL A   1      43.177  37.277  33.723  1.00  0.00    -0.237 OA
ATOM     62  O   UNL A   1      45.600  37.271  33.266  1.00  0.00    -0.744 OA
ENDBRANCH  58  59
ENDBRANCH  26  51
BRANCH  38  63
ATOM     63  C   UNL A   1      48.055  27.550  29.911  1.00  0.00     0.058 A 
ATOM     64  C   UNL A   1      49.002  27.971  28.965  1.00  0.00     0.135 A 
ATOM     65  C   UNL A   1      48.516  26.866  31.048  1.00  0.00     0.135 A 
ATOM     66  F   UNL A   1      48.609  28.627  27.862  1.00  0.00    -0.206 F 
ATOM     67  C   UNL A   1      50.356  27.704  29.127  1.00  0.00     0.059 A 
ATOM     68  C   UNL A   1      49.869  26.610  31.242  1.00  0.00     0.059 A 
ATOM     69  F   UNL A   1      47.649  26.460  31.988  1.00  0.00    -0.206 F 
ATOM     70  C   UNL A   1      50.779  27.018  30.267  1.00  0.00     0.060 A 
BRANCH  70  71
ATOM     71  S   UNL A   1      52.542  26.688  30.466  1.00  0.00     0.124 S 
ATOM     72  O   UNL A   1      52.538  25.661  31.501  1.00  0.00    -0.237 OA
ATOM     73  O   UNL A   1      52.925  26.241  29.130  1.00  0.00    -0.237 OA
ATOM     74  O   UNL A   1      53.085  27.982  30.865  1.00  0.00    -0.744 OA
ENDBRANCH  70  71
ENDBRANCH  38  63
ENDBRANCH  12  13
ENDBRANCH   5   7
ENDBRANCH   2   3
ENDBRANCH   1   2
BRANCH   1  75
ATOM     75  C   UNL A   1      31.796  26.656  26.972  1.00  0.00     0.117 C 
BRANCH  75  76
ATOM     76  N   UNL A   1      30.634  26.331  26.168  1.00  0.00    -0.356 N 
ATOM     77  C   UNL A   1      30.322  26.485  24.865  1.00  0.00     0.224 C 
ATOM     78  H   UNL A   1      29.916  25.902  26.686  1.00  0.00     0.163 HD
ATOM     79  O   UNL A   1      29.119  26.345  24.597  1.00  0.00    -0.275 OA
BRANCH  77  80
ATOM     80  C   UNL A   1      31.265  26.932  23.741  1.00  0.00     0.095 C 
ATOM     81  C   UNL A   1      31.284  28.477  23.778  1.00  0.00     0.041 C 
ATOM     82  C   UNL A   1      32.592  26.196  23.526  1.00  0.00     0.095 C 
ATOM     83  C   UNL A   1      32.614  29.132  23.648  1.00  0.00    -0.030 C 
ATOM     84  C   UNL A   1      33.836  26.993  23.991  1.00  0.00     0.041 C 
ATOM     85  C   UNL A   1      33.765  28.467  23.757  1.00  0.00    -0.030 C 
BRANCH  82  86
ATOM     86  C   UNL A   1      32.969  25.519  22.190  1.00  0.00     0.224 C 
ATOM     87  O   UNL A   1      33.060  26.253  21.189  1.00  0.00    -0.275 OA
ATOM     88  N   UNL A   1      33.270  24.241  21.910  1.00  0.00    -0.344 N 
ATOM     89  H   UNL A   1      33.455  24.139  20.949  1.00  0.00     0.164 HD
BRANCH  88  90
ATOM     90  C   UNL A   1      33.409  22.955  22.593  1.00  0.00     0.172 C 
ATOM     91  C   UNL A   1      32.257  22.611  23.512  1.00  0.00     0.037 C 
ATOM     92  C   UNL A   1      34.853  22.693  23.065  1.00  0.00     0.249 C 
ATOM     93  C   UNL A   1      32.646  21.497  24.461  1.00  0.00     0.025 C 
ATOM     94  N   UNL A   1      35.037  22.288  24.386  1.00  0.00    -0.308 N 
ATOM     95  O   UNL A   1      35.775  22.812  22.251  1.00  0.00    -0.272 OA
ATOM     96  C   UNL A   1      33.924  21.824  25.221  1.00  0.00     0.126 C 
BRANCH  94  97
ATOM     97  C   UNL A   1      36.317  22.491  25.024  1.00  0.00     0.080 A 
ATOM     98  C   UNL A   1      37.255  21.450  25.119  1.00  0.00     0.029 A 
ATOM     99  C   UNL A   1      36.652  23.713  25.642  1.00  0.00     0.146 A 
ATOM    100  C   UNL A   1      38.479  21.635  25.776  1.00  0.00     0.002 A 
ATOM    101  C   UNL A   1      37.869  23.899  26.301  1.00  0.00     0.041 A 
ATOM    102  F   UNL A   1      35.754  24.708  25.744  1.00  0.00    -0.205 F 
ATOM    103  C   UNL A   1      38.788  22.859  26.364  1.00  0.00     0.003 A 
ENDBRANCH  94  97
ENDBRANCH  88  90
ENDBRANCH  82  86
ENDBRANCH  77  80
ENDBRANCH  75  76
ENDBRANCH   1  75
TORSDOF 16
ENDMDL
MODEL 2
REMARK VINA RESULT:     -12.7      2.910      9.264
REMARK SMILES O=C(NCCCNC(=O)[C@H]1CC=CC[C@@H]1C(=O)N[C@@H]1CCCN(c2ccccc2F)C1=O)c1ccc(-c2c3nc(c(-c4c(F)cc(S(=O)(=O)[O-])cc4F)c4ccc([nH]4)c(-c4c(F)cc(S(=O)(=O)[O-])cc4F)c4nc(c(-c5c(F)cc(S(=O)(=O)[O-])cc5F)c5ccc2[nH]5)C=C4)C=C3)cc1
REMARK SMILES IDX 5 1 4 2 3 3 1 4 2 5 33 7 34 8 98 9 35 10 97 11 36 12 37 13
REMARK SMILES IDX 38 14 91 15 39 16 96 17 90 18 92 19 40 20 95 21 89 22 88 23
REMARK SMILES IDX 41 25 75 26 54 27 74 28 55 29 58 30 73 31 93 32 56 33 57 34
REMARK SMILES IDX 72 36 94 37 59 38 42 39 43 40 52 41 44 42 45 43 51 44 53 45
REMARK SMILES IDX 46 46 47 47 48 48 49 49 50 50 76 51 77 52 86 53 78 54 79 55
REMARK SMILES IDX 85 56 87 57 80 58 81 59 82 60 83 61 84 62 60 63 61 64 70 65
REMARK SMILES IDX 62 66 63 67 69 68 71 69 64 70 65 71 66 72 67 73 68 74 6 75
REMARK SMILES IDX 7 76 8 77 9 79 10 80 11 81 15 82 12 83 14 84 13 85 16 86
REMARK SMILES IDX 17 87 18 88 19 90 20 91 31 92 21 93 23 94 32 95 22 96 24 97
REMARK SMILES IDX 25 98 29 99 26 100 28 101 30 102 27 103
REMARK H PARENT 3 6 92 24 58 35 7 78 18 89
REMARK Flexibility Score: inf
ROOT
ATOM      1  C   UNL A   1      36.319  22.871  23.730  1.00  0.00     0.042 C 
ENDROOT
BRANCH   1   2
ATOM      2  C   UNL A   1      37.114  23.426  24.904  1.00  0.00     0.118 C 
BRANCH   2   3
ATOM      3  N   UNL A   1      38.175  22.519  25.317  1.00  0.00    -0.352 N 
ATOM      4  O   UNL A   1      40.244  21.932  25.959  1.00  0.00    -0.269 OA
ATOM      5  C   UNL A   1      39.353  22.776  25.977  1.00  0.00     0.251 C 
ATOM      6  H   UNL A   1      38.025  21.574  25.087  1.00  0.00     0.163 HD
BRANCH   5   7
ATOM      7  C   UNL A   1      39.555  24.052  26.702  1.00  0.00     0.039 A 
ATOM      8  C   UNL A   1      39.077  24.216  28.002  1.00  0.00     0.014 A 
ATOM      9  C   UNL A   1      40.324  25.064  26.117  1.00  0.00     0.014 A 
ATOM     10  C   UNL A   1      39.251  25.423  28.665  1.00  0.00     0.010 A 
ATOM     11  C   UNL A   1      40.601  26.237  26.831  1.00  0.00     0.010 A 
ATOM     12  C   UNL A   1      40.066  26.423  28.114  1.00  0.00    -0.014 A 
BRANCH  12  13
ATOM     13  C   UNL A   1      40.462  27.567  28.974  1.00  0.00     0.031 A 
ATOM     14  C   UNL A   1      39.555  28.743  29.189  1.00  0.00     0.074 A 
ATOM     15  C   UNL A   1      41.658  27.498  29.596  1.00  0.00     0.049 A 
ATOM     16  N   UNL A   1      39.760  29.807  29.922  1.00  0.00    -0.248 NA
ATOM     17  C   UNL A   1      38.259  28.735  28.494  1.00  0.00     0.031 C 
ATOM     18  C   UNL A   1      42.624  26.404  29.440  1.00  0.00     0.029 A 
ATOM     19  N   UNL A   1      42.260  28.335  30.500  1.00  0.00    -0.354 N 
ATOM     20  C   UNL A   1      38.633  30.603  29.766  1.00  0.00     0.074 A 
ATOM     21  C   UNL A   1      37.749  29.907  28.856  1.00  0.00     0.031 C 
ATOM     22  C   UNL A   1      43.659  26.602  30.267  1.00  0.00     0.029 A 
ATOM     23  C   UNL A   1      43.476  27.876  30.951  1.00  0.00     0.049 A 
ATOM     24  H   UNL A   1      41.861  29.184  30.797  1.00  0.00     0.167 HD
ATOM     25  C   UNL A   1      38.368  31.801  30.338  1.00  0.00     0.037 A 
ATOM     26  C   UNL A   1      44.364  28.425  31.800  1.00  0.00     0.037 A 
ATOM     27  C   UNL A   1      39.254  32.468  31.260  1.00  0.00     0.049 A 
ATOM     28  C   UNL A   1      44.048  29.761  32.401  1.00  0.00     0.074 A 
ATOM     29  C   UNL A   1      39.060  33.671  31.918  1.00  0.00     0.029 A 
ATOM     30  N   UNL A   1      40.495  31.992  31.658  1.00  0.00    -0.354 N 
ATOM     31  N   UNL A   1      42.969  30.492  32.250  1.00  0.00    -0.248 NA
ATOM     32  C   UNL A   1      45.069  30.361  33.269  1.00  0.00     0.031 C 
ATOM     33  C   UNL A   1      40.200  33.942  32.679  1.00  0.00     0.029 A 
ATOM     34  C   UNL A   1      41.088  32.888  32.533  1.00  0.00     0.049 A 
ATOM     35  H   UNL A   1      40.896  31.143  31.362  1.00  0.00     0.167 HD
ATOM     36  C   UNL A   1      43.184  31.640  32.999  1.00  0.00     0.074 A 
ATOM     37  C   UNL A   1      44.480  31.493  33.628  1.00  0.00     0.031 C 
ATOM     38  C   UNL A   1      42.383  32.724  33.142  1.00  0.00     0.037 A 
BRANCH  25  39
ATOM     39  C   UNL A   1      37.075  32.489  29.999  1.00  0.00     0.058 A 
ATOM     40  C   UNL A   1      37.049  33.526  29.052  1.00  0.00     0.135 A 
ATOM     41  C   UNL A   1      35.890  32.208  30.696  1.00  0.00     0.135 A 
ATOM     42  F   UNL A   1      38.153  33.830  28.352  1.00  0.00    -0.206 F 
ATOM     43  C   UNL A   1      35.903  34.283  28.832  1.00  0.00     0.059 A 
ATOM     44  C   UNL A   1      34.725  32.940  30.478  1.00  0.00     0.059 A 
ATOM     45  F   UNL A   1      35.856  31.213  31.596  1.00  0.00    -0.206 F 
ATOM     46  C   UNL A   1      34.748  33.990  29.560  1.00  0.00     0.060 A 
BRANCH  46  47
ATOM     47  S   UNL A   1      33.275  34.997  29.280  1.00  0.00     0.124 S 
ATOM     48  O   UNL A   1      33.853  36.254  28.817  1.00  0.00    -0.237 OA
ATOM     49  O   UNL A   1      32.558  34.217  28.276  1.00  0.00    -0.237 OA
ATOM     50  O   UNL A   1      32.642  35.041  30.595  1.00  0.00    -0.744 OA
ENDBRANCH  46  47
ENDBRANCH  25  39
BRANCH  26  51
ATOM     51  C   UNL A   1      45.639  27.721  32.095  1.00  0.00     0.058 A 
ATOM     52  C   UNL A   1      46.781  27.930  31.305  1.00  0.00     0.135 A 
ATOM     53  C   UNL A   1      45.734  26.797  33.147  1.00  0.00     0.135 A 
ATOM     54  F   UNL A   1      46.741  28.794  30.279  1.00  0.00    -0.206 F 
ATOM     55  C   UNL A   1      47.960  27.231  31.527  1.00  0.00     0.059 A 
ATOM     56  C   UNL A   1      46.914  26.106  33.408  1.00  0.00     0.059 A 
ATOM     57  F   UNL A   1      44.673  26.570  33.936  1.00  0.00    -0.206 F 
ATOM     58  C   UNL A   1      48.017  26.319  32.580  1.00  0.00     0.060 A 
BRANCH  58  59
ATOM     59  S   UNL A   1      49.562  25.427  32.860  1.00  0.00     0.124 S 
ATOM     60  O   UNL A   1      49.932  25.052  31.500  1.00  0.00    -0.237 OA
ATOM     61  O   UNL A   1      50.396  26.446  33.488  1.00  0.00    -0.237 OA
ATOM     62  O   UNL A   1      49.160  24.326  33.730  1.00  0.00    -0.744 OA
ENDBRANCH  58  59
ENDBRANCH  26  51
BRANCH  38  63
ATOM     63  C   UNL A   1      42.887  33.838  34.011  1.00  0.00     0.058 A 
ATOM     64  C   UNL A   1      43.670  34.869  33.470  1.00  0.00     0.135 A 
ATOM     65  C   UNL A   1      42.647  33.846  35.395  1.00  0.00     0.135 A 
ATOM     66  F   UNL A   1      43.927  34.903  32.153  1.00  0.00    -0.206 F 
ATOM     67  C   UNL A   1      44.217  35.861  34.274  1.00  0.00     0.059 A 
ATOM     68  C   UNL A   1      43.165  34.844  36.214  1.00  0.00     0.059 A 
ATOM     69  F   UNL A   1      41.891  32.890  35.954  1.00  0.00    -0.206 F 
ATOM     70  C   UNL A   1      43.962  35.837  35.647  1.00  0.00     0.060 A 
BRANCH  70  71
ATOM     71  S   UNL A   1      44.672  37.139  36.676  1.00  0.00     0.124 S 
ATOM     72  O   UNL A   1      46.100  36.967  36.431  1.00  0.00    -0.237 OA
ATOM     73  O   UNL A   1      44.072  38.342  36.109  1.00  0.00    -0.237 OA
ATOM     74  O   UNL A   1      44.218  36.794  38.019  1.00  0.00    -0.744 OA
ENDBRANCH  70  71
ENDBRANCH  38  63
ENDBRANCH  12  13
ENDBRANCH   5   7
ENDBRANCH   2   3
ENDBRANCH   1   2
BRANCH   1  75
ATOM     75  C   UNL A   1      35.148  23.762  23.344  1.00  0.00     0.117 C 
BRANCH  75  76
ATOM     76  N   UNL A   1      34.016  22.993  22.865  1.00  0.00    -0.356 N 
ATOM     77  C   UNL A   1      33.050  22.270  23.466  1.00  0.00     0.224 C 
ATOM     78  H   UNL A   1      33.935  23.000  21.884  1.00  0.00     0.163 HD
ATOM     79  O   UNL A   1      32.417  21.516  22.711  1.00  0.00    -0.275 OA
BRANCH  77  80
ATOM     80  C   UNL A   1      32.757  22.199  24.970  1.00  0.00     0.095 C 
ATOM     81  C   UNL A   1      33.728  21.147  25.552  1.00  0.00     0.041 C 
ATOM     82  C   UNL A   1      32.530  23.493  25.761  1.00  0.00     0.095 C 
ATOM     83  C   UNL A   1      34.409  21.501  26.828  1.00  0.00    -0.030 C 
ATOM     84  C   UNL A   1      33.715  23.885  26.679  1.00  0.00     0.041 C 
ATOM     85  C   UNL A   1      34.416  22.737  27.330  1.00  0.00    -0.030 C 
BRANCH  82  86
ATOM     86  C   UNL A   1      31.236  23.774  26.555  1.00  0.00     0.224 C 
ATOM     87  O   UNL A   1      30.931  22.962  27.448  1.00  0.00    -0.275 OA
ATOM     88  N   UNL A   1      30.371  24.797  26.486  1.00  0.00    -0.344 N 
ATOM     89  H   UNL A   1      29.638  24.667  27.130  1.00  0.00     0.164 HD
BRANCH  88  90
ATOM     90  C   UNL A   1      30.181  26.048  25.750  1.00  0.00     0.172 C 
ATOM     91  C   UNL A   1      30.303  25.909  24.247  1.00  0.00     0.037 C 
ATOM     92  C   UNL A   1      30.844  27.249  26.451  1.00  0.00     0.249 C 
ATOM     93  C   UNL A   1      30.493  27.265  23.601  1.00  0.00     0.025 C 
ATOM     94  N   UNL A   1      31.659  28.078  25.681  1.00  0.00    -0.308 N 
ATOM     95  O   UNL A   1      30.597  27.451  27.644  1.00  0.00    -0.272 OA
ATOM     96  C   UNL A   1      31.661  28.025  24.215  1.00  0.00     0.126 C 
BRANCH  94  97
ATOM     97  C   UNL A   1      32.663  28.892  26.326  1.00  0.00     0.080 A 
ATOM     98  C   UNL A   1      32.406  30.229  26.665  1.00  0.00     0.029 A 
ATOM     99  C   UNL A   1      33.963  28.406  26.574  1.00  0.00     0.146 A 
ATOM    100  C   UNL A   1      33.395  31.032  27.252  1.00  0.00     0.002 A 
ATOM    101  C   UNL A   1      34.951  29.204  27.154  1.00  0.00     0.041 A 
ATOM    102  F   UNL A   1      34.348  27.196  26.134  1.00  0.00    -0.205 F 
ATOM    103  C   UNL A   1      34.665  30.519  27.499  1.00  0.00     0.003 A 
ENDBRANCH  94  97
ENDBRANCH  88  90
ENDBRANCH  82  86
ENDBRANCH  77  80
ENDBRANCH  75  76
ENDBRANCH   1  75
TORSDOF 16
ENDMDL
MODEL 3
REMARK VINA RESULT:     -12.1      2.675      7.631
REMARK SMILES O=C(NCCCNC(=O)[C@H]1CC=CC[C@@H]1C(=O)N[C@@H]1CCCN(c2ccccc2F)C1=O)c1ccc(-c2c3nc(c(-c4c(F)cc(S(=O)(=O)[O-])cc4F)c4ccc([nH]4)c(-c4c(F)cc(S(=O)(=O)[O-])cc4F)c4nc(c(-c5c(F)cc(S(=O)(=O)[O-])cc5F)c5ccc2[nH]5)C=C4)C=C3)cc1
REMARK SMILES IDX 5 1 4 2 3 3 1 4 2 5 33 7 34 8 98 9 35 10 97 11 36 12 37 13
REMARK SMILES IDX 38 14 91 15 39 16 96 17 90 18 92 19 40 20 95 21 89 22 88 23
REMARK SMILES IDX 41 25 75 26 54 27 74 28 55 29 58 30 73 31 93 32 56 33 57 34
REMARK SMILES IDX 72 36 94 37 59 38 42 39 43 40 52 41 44 42 45 43 51 44 53 45
REMARK SMILES IDX 46 46 47 47 48 48 49 49 50 50 76 51 77 52 86 53 78 54 79 55
REMARK SMILES IDX 85 56 87 57 80 58 81 59 82 60 83 61 84 62 60 63 61 64 70 65
REMARK SMILES IDX 62 66 63 67 69 68 71 69 64 70 65 71 66 72 67 73 68 74 6 75
REMARK SMILES IDX 7 76 8 77 9 79 10 80 11 81 15 82 12 83 14 84 13 85 16 86
REMARK SMILES IDX 17 87 18 88 19 90 20 91 31 92 21 93 23 94 32 95 22 96 24 97
REMARK SMILES IDX 25 98 29 99 26 100 28 101 30 102 27 103
REMARK H PARENT 3 6 92 24 58 35 7 78 18 89
REMARK Flexibility Score: inf
ROOT
ATOM      1  C   UNL A   1      36.111  23.145  23.839  1.00  0.00     0.042 C 
ENDROOT
BRANCH   1   2
ATOM      2  C   UNL A   1      36.762  23.674  25.109  1.00  0.00     0.118 C 
BRANCH   2   3
ATOM      3  N   UNL A   1      37.577  22.661  25.764  1.00  0.00    -0.352 N 
ATOM      4  O   UNL A   1      39.448  21.764  26.620  1.00  0.00    -0.269 OA
ATOM      5  C   UNL A   1      38.785  22.775  26.408  1.00  0.00     0.251 C 
ATOM      6  H   UNL A   1      37.204  21.751  25.740  1.00  0.00     0.163 HD
BRANCH   5   7
ATOM      7  C   UNL A   1      39.291  24.098  26.844  1.00  0.00     0.039 A 
ATOM      8  C   UNL A   1      39.252  24.468  28.189  1.00  0.00     0.014 A 
ATOM      9  C   UNL A   1      39.909  24.941  25.915  1.00  0.00     0.014 A 
ATOM     10  C   UNL A   1      39.707  25.718  28.585  1.00  0.00     0.010 A 
ATOM     11  C   UNL A   1      40.476  26.153  26.333  1.00  0.00     0.010 A 
ATOM     12  C   UNL A   1      40.379  26.549  27.675  1.00  0.00    -0.014 A 
BRANCH  12  13
ATOM     13  C   UNL A   1      41.101  27.735  28.201  1.00  0.00     0.031 A 
ATOM     14  C   UNL A   1      42.594  27.851  28.116  1.00  0.00     0.074 A 
ATOM     15  C   UNL A   1      40.362  28.735  28.727  1.00  0.00     0.049 A 
ATOM     16  N   UNL A   1      43.360  28.832  28.520  1.00  0.00    -0.248 NA
ATOM     17  C   UNL A   1      43.327  26.729  27.510  1.00  0.00     0.031 C 
ATOM     18  C   UNL A   1      38.902  28.714  28.872  1.00  0.00     0.029 A 
ATOM     19  N   UNL A   1      40.717  29.969  29.208  1.00  0.00    -0.354 N 
ATOM     20  C   UNL A   1      44.663  28.443  28.236  1.00  0.00     0.074 A 
ATOM     21  C   UNL A   1      44.588  27.128  27.636  1.00  0.00     0.031 C 
ATOM     22  C   UNL A   1      38.483  29.897  29.340  1.00  0.00     0.029 A 
ATOM     23  C   UNL A   1      39.646  30.733  29.609  1.00  0.00     0.049 A 
ATOM     24  H   UNL A   1      41.650  30.278  29.263  1.00  0.00     0.167 HD
ATOM     25  C   UNL A   1      45.808  29.130  28.455  1.00  0.00     0.037 A 
ATOM     26  C   UNL A   1      39.598  31.961  30.157  1.00  0.00     0.037 A 
ATOM     27  C   UNL A   1      45.859  30.450  29.033  1.00  0.00     0.049 A 
ATOM     28  C   UNL A   1      40.886  32.687  30.404  1.00  0.00     0.074 A 
ATOM     29  C   UNL A   1      46.970  31.242  29.267  1.00  0.00     0.029 A 
ATOM     30  N   UNL A   1      44.756  31.173  29.467  1.00  0.00    -0.354 N 
ATOM     31  N   UNL A   1      42.108  32.306  30.115  1.00  0.00    -0.248 NA
ATOM     32  C   UNL A   1      40.799  33.994  31.065  1.00  0.00     0.031 C 
ATOM     33  C   UNL A   1      46.544  32.424  29.879  1.00  0.00     0.029 A 
ATOM     34  C   UNL A   1      45.163  32.390  29.987  1.00  0.00     0.049 A 
ATOM     35  H   UNL A   1      43.823  30.866  29.413  1.00  0.00     0.167 HD
ATOM     36  C   UNL A   1      42.936  33.324  30.565  1.00  0.00     0.074 A 
ATOM     37  C   UNL A   1      42.075  34.351  31.115  1.00  0.00     0.031 C 
ATOM     38  C   UNL A   1      44.288  33.395  30.536  1.00  0.00     0.037 A 
BRANCH  25  39
ATOM     39  C   UNL A   1      47.114  28.489  28.076  1.00  0.00     0.058 A 
ATOM     40  C   UNL A   1      47.633  28.645  26.780  1.00  0.00     0.135 A 
ATOM     41  C   UNL A   1      47.787  27.623  28.952  1.00  0.00     0.135 A 
ATOM     42  F   UNL A   1      47.031  29.467  25.906  1.00  0.00    -0.206 F 
ATOM     43  C   UNL A   1      48.753  27.939  26.354  1.00  0.00     0.059 A 
ATOM     44  C   UNL A   1      48.923  26.922  28.553  1.00  0.00     0.059 A 
ATOM     45  F   UNL A   1      47.346  27.456  30.208  1.00  0.00    -0.206 F 
ATOM     46  C   UNL A   1      49.385  27.070  27.245  1.00  0.00     0.060 A 
BRANCH  46  47
ATOM     47  S   UNL A   1      50.825  26.143  26.670  1.00  0.00     0.124 S 
ATOM     48  O   UNL A   1      50.678  26.228  25.221  1.00  0.00    -0.237 OA
ATOM     49  O   UNL A   1      51.929  26.906  27.245  1.00  0.00    -0.237 OA
ATOM     50  O   UNL A   1      50.625  24.817  27.246  1.00  0.00    -0.744 OA
ENDBRANCH  46  47
ENDBRANCH  25  39
BRANCH  26  51
ATOM     51  C   UNL A   1      38.287  32.552  30.534  1.00  0.00     0.058 A 
ATOM     52  C   UNL A   1      37.723  32.317  31.798  1.00  0.00     0.135 A 
ATOM     53  C   UNL A   1      37.553  33.332  29.628  1.00  0.00     0.135 A 
ATOM     54  F   UNL A   1      38.378  31.567  32.699  1.00  0.00    -0.206 F 
ATOM     55  C   UNL A   1      36.470  32.807  32.142  1.00  0.00     0.059 A 
ATOM     56  C   UNL A   1      36.308  33.860  29.960  1.00  0.00     0.059 A 
ATOM     57  F   UNL A   1      38.054  33.594  28.411  1.00  0.00    -0.206 F 
ATOM     58  C   UNL A   1      35.768  33.577  31.215  1.00  0.00     0.060 A 
BRANCH  58  59
ATOM     59  S   UNL A   1      34.146  34.214  31.684  1.00  0.00     0.124 S 
ATOM     60  O   UNL A   1      33.490  34.326  30.385  1.00  0.00    -0.237 OA
ATOM     61  O   UNL A   1      33.643  33.163  32.562  1.00  0.00    -0.237 OA
ATOM     62  O   UNL A   1      34.460  35.479  32.342  1.00  0.00    -0.744 OA
ENDBRANCH  58  59
ENDBRANCH  26  51
BRANCH  38  63
ATOM     63  C   UNL A   1      44.923  34.625  31.117  1.00  0.00     0.058 A 
ATOM     64  C   UNL A   1      45.126  34.739  32.501  1.00  0.00     0.135 A 
ATOM     65  C   UNL A   1      45.268  35.717  30.306  1.00  0.00     0.135 A 
ATOM     66  F   UNL A   1      44.810  33.720  33.317  1.00  0.00    -0.206 F 
ATOM     67  C   UNL A   1      45.632  35.903  33.065  1.00  0.00     0.059 A 
ATOM     68  C   UNL A   1      45.799  36.883  30.847  1.00  0.00     0.059 A 
ATOM     69  F   UNL A   1      45.107  35.648  28.976  1.00  0.00    -0.206 F 
ATOM     70  C   UNL A   1      45.961  36.973  32.230  1.00  0.00     0.060 A 
BRANCH  70  71
ATOM     71  S   UNL A   1      46.626  38.474  32.978  1.00  0.00     0.124 S 
ATOM     72  O   UNL A   1      47.477  38.987  31.910  1.00  0.00    -0.237 OA
ATOM     73  O   UNL A   1      45.417  39.245  33.251  1.00  0.00    -0.237 OA
ATOM     74  O   UNL A   1      47.326  37.982  34.159  1.00  0.00    -0.744 OA
ENDBRANCH  70  71
ENDBRANCH  38  63
ENDBRANCH  12  13
ENDBRANCH   5   7
ENDBRANCH   2   3
ENDBRANCH   1   2
BRANCH   1  75
ATOM     75  C   UNL A   1      34.901  23.964  23.418  1.00  0.00     0.117 C 
BRANCH  75  76
ATOM     76  N   UNL A   1      33.831  23.129  22.908  1.00  0.00    -0.356 N 
ATOM     77  C   UNL A   1      32.884  22.361  23.484  1.00  0.00     0.224 C 
ATOM     78  H   UNL A   1      33.785  23.122  21.925  1.00  0.00     0.163 HD
ATOM     79  O   UNL A   1      32.320  21.566  22.717  1.00  0.00    -0.275 OA
BRANCH  77  80
ATOM     80  C   UNL A   1      32.541  22.291  24.977  1.00  0.00     0.095 C 
ATOM     81  C   UNL A   1      33.406  21.155  25.568  1.00  0.00     0.041 C 
ATOM     82  C   UNL A   1      32.394  23.586  25.784  1.00  0.00     0.095 C 
ATOM     83  C   UNL A   1      34.075  21.432  26.869  1.00  0.00    -0.030 C 
ATOM     84  C   UNL A   1      33.579  23.867  26.743  1.00  0.00     0.041 C 
ATOM     85  C   UNL A   1      34.165  22.656  27.393  1.00  0.00    -0.030 C 
BRANCH  82  86
ATOM     86  C   UNL A   1      31.104  23.958  26.546  1.00  0.00     0.224 C 
ATOM     87  O   UNL A   1      30.707  23.158  27.413  1.00  0.00    -0.275 OA
ATOM     88  N   UNL A   1      30.328  25.050  26.472  1.00  0.00    -0.344 N 
ATOM     89  H   UNL A   1      29.567  24.969  27.091  1.00  0.00     0.164 HD
BRANCH  88  90
ATOM     90  C   UNL A   1      30.263  26.325  25.756  1.00  0.00     0.172 C 
ATOM     91  C   UNL A   1      30.392  26.200  24.253  1.00  0.00     0.037 C 
ATOM     92  C   UNL A   1      31.024  27.448  26.486  1.00  0.00     0.249 C 
ATOM     93  C   UNL A   1      30.714  27.544  23.633  1.00  0.00     0.025 C 
ATOM     94  N   UNL A   1      31.921  28.211  25.740  1.00  0.00    -0.308 N 
ATOM     95  O   UNL A   1      30.781  27.652  27.680  1.00  0.00    -0.272 OA
ATOM     96  C   UNL A   1      31.938  28.183  24.274  1.00  0.00     0.126 C 
BRANCH  94  97
ATOM     97  C   UNL A   1      32.987  28.919  26.411  1.00  0.00     0.080 A 
ATOM     98  C   UNL A   1      32.834  30.256  26.809  1.00  0.00     0.029 A 
ATOM     99  C   UNL A   1      34.249  28.326  26.628  1.00  0.00     0.146 A 
ATOM    100  C   UNL A   1      33.884  30.956  27.421  1.00  0.00     0.002 A 
ATOM    101  C   UNL A   1      35.297  29.022  27.233  1.00  0.00     0.041 A 
ATOM    102  F   UNL A   1      34.538  27.110  26.134  1.00  0.00    -0.205 F 
ATOM    103  C   UNL A   1      35.113  30.339  27.636  1.00  0.00     0.003 A 
ENDBRANCH  94  97
ENDBRANCH  88  90
ENDBRANCH  82  86
ENDBRANCH  77  80
ENDBRANCH  75  76
ENDBRANCH   1  75
TORSDOF 16
ENDMDL
