MODEL 1
REMARK VINA RESULT:     -12.4      0.000      0.000
REMARK SMILES O=C(C[C@H]1SC[C@@H](C(=O)NCCCNC(=O)c2ccc(-c3c4nc(c(-c5c(F)cc(S(=O)(=O)[O-])cc5F)c5ccc([nH]5)c(-c5c(F)cc(S(=O)(=O)[O-])cc5F)c5nc(c(-c6c(F)cc(S(=O)(=O)[O-])cc6F)c6ccc3[nH]6)C=C5)C=C4)cc2)NC1=O)Nc1cccc(Cl)c1
REMARK SMILES IDX 12 1 11 2 10 3 8 4 9 5 7 7 4 8 5 9 84 10 6 11 83 12 85 13
REMARK SMILES IDX 3 15 2 16 1 17 86 18 87 20 88 21 93 22 89 23 91 24 90 25
REMARK SMILES IDX 92 26 13 27 14 28 15 29 16 31 17 32 18 33 82 34 19 35 81 36
REMARK SMILES IDX 20 37 21 38 22 39 75 40 23 41 80 42 74 43 76 44 24 45 79 46
REMARK SMILES IDX 73 47 72 48 25 50 59 51 38 52 58 53 39 54 42 55 57 56 77 57
REMARK SMILES IDX 40 58 41 59 56 61 78 62 43 63 26 64 27 65 36 66 28 67 29 68
REMARK SMILES IDX 35 69 37 70 30 71 31 72 32 73 33 74 34 75 60 76 61 77 70 78
REMARK SMILES IDX 62 79 63 80 69 81 71 82 64 83 65 84 66 85 67 86 68 87 44 88
REMARK SMILES IDX 45 89 54 90 46 91 47 92 53 93 55 94 48 95 49 96 50 97 51 98
REMARK SMILES IDX 52 99
REMARK H PARENT 10 6 83 14 86 19 14 30 76 49 42 60
REMARK Flexibility Score: inf
ROOT
ATOM      1  C   UNL A   1      37.359  23.695  25.458  1.00  0.00     0.042 C 
ENDROOT
BRANCH   1   2
ATOM      2  C   UNL A   1      36.748  22.303  25.571  1.00  0.00     0.117 C 
BRANCH   2   3
ATOM      3  N   UNL A   1      35.834  22.219  26.693  1.00  0.00    -0.354 N 
ATOM      4  C   UNL A   1      34.479  22.038  26.698  1.00  0.00     0.243 C 
ATOM      5  O   UNL A   1      33.904  22.111  27.783  1.00  0.00    -0.273 OA
ATOM      6  H   UNL A   1      36.250  22.306  27.582  1.00  0.00     0.163 HD
BRANCH   4   7
ATOM      7  C   UNL A   1      33.790  21.554  25.407  1.00  0.00     0.181 C 
ATOM      8  C   UNL A   1      31.545  23.463  24.553  1.00  0.00     0.145 C 
ATOM      9  S   UNL A   1      33.245  24.038  24.219  1.00  0.00    -0.145 SA
ATOM     10  C   UNL A   1      31.449  22.420  25.669  1.00  0.00     0.234 C 
ATOM     11  C   UNL A   1      34.085  22.431  24.196  1.00  0.00     0.105 C 
ATOM     12  N   UNL A   1      32.376  21.422  25.743  1.00  0.00    -0.343 N 
ATOM     13  O   UNL A   1      30.457  22.309  26.389  1.00  0.00    -0.274 OA
ATOM     14  H   UNL A   1      32.066  20.540  26.049  1.00  0.00     0.164 HD
BRANCH   8  15
ATOM     15  C   UNL A   1      30.682  24.700  24.811  1.00  0.00     0.124 C 
BRANCH  15  16
ATOM     16  C   UNL A   1      31.254  25.786  25.715  1.00  0.00     0.226 C 
ATOM     17  O   UNL A   1      31.375  25.560  26.918  1.00  0.00    -0.275 OA
ATOM     18  N   UNL A   1      31.684  26.930  25.071  1.00  0.00    -0.326 N 
ATOM     19  H   UNL A   1      31.596  26.947  24.090  1.00  0.00     0.169 HD
BRANCH  18  20
ATOM     20  C   UNL A   1      32.240  28.078  25.676  1.00  0.00     0.042 A 
ATOM     21  C   UNL A   1      31.496  29.264  25.588  1.00  0.00     0.026 A 
ATOM     22  C   UNL A   1      33.459  28.090  26.354  1.00  0.00     0.046 A 
ATOM     23  C   UNL A   1      31.946  30.435  26.203  1.00  0.00     0.004 A 
ATOM     24  C   UNL A   1      33.913  29.267  26.953  1.00  0.00     0.043 A 
ATOM     25  C   UNL A   1      33.158  30.436  26.889  1.00  0.00     0.020 A 
ATOM     26  Cl  UNL A   1      35.425  29.280  27.777  1.00  0.00    -0.084 Cl
ENDBRANCH  18  20
ENDBRANCH  15  16
ENDBRANCH   8  15
ENDBRANCH   4   7
ENDBRANCH   2   3
ENDBRANCH   1   2
BRANCH   1  27
ATOM     27  C   UNL A   1      38.287  24.043  26.620  1.00  0.00     0.118 C 
BRANCH  27  28
ATOM     28  N   UNL A   1      39.692  23.869  26.283  1.00  0.00    -0.352 N 
ATOM     29  C   UNL A   1      40.775  24.647  26.608  1.00  0.00     0.251 C 
ATOM     30  H   UNL A   1      39.897  23.073  25.740  1.00  0.00     0.163 HD
ATOM     31  O   UNL A   1      41.854  24.447  26.054  1.00  0.00    -0.269 OA
BRANCH  29  32
ATOM     32  C   UNL A   1      40.638  25.730  27.602  1.00  0.00     0.039 A 
ATOM     33  C   UNL A   1      39.676  25.614  28.609  1.00  0.00     0.014 A 
ATOM     34  C   UNL A   1      41.452  26.864  27.536  1.00  0.00     0.014 A 
ATOM     35  C   UNL A   1      39.575  26.605  29.588  1.00  0.00     0.010 A 
ATOM     36  C   UNL A   1      41.406  27.808  28.557  1.00  0.00     0.010 A 
ATOM     37  C   UNL A   1      40.463  27.693  29.591  1.00  0.00    -0.014 A 
BRANCH  37  38
ATOM     38  C   UNL A   1      40.420  28.739  30.645  1.00  0.00     0.031 A 
ATOM     39  C   UNL A   1      41.306  28.612  31.855  1.00  0.00     0.074 A 
ATOM     40  C   UNL A   1      39.532  29.749  30.555  1.00  0.00     0.049 A 
ATOM     41  N   UNL A   1      41.320  29.331  32.947  1.00  0.00    -0.248 NA
ATOM     42  C   UNL A   1      42.284  27.511  31.848  1.00  0.00     0.031 C 
ATOM     43  C   UNL A   1      38.597  29.960  29.448  1.00  0.00     0.029 A 
ATOM     44  N   UNL A   1      39.252  30.775  31.423  1.00  0.00    -0.354 N 
ATOM     45  C   UNL A   1      42.291  28.762  33.761  1.00  0.00     0.074 A 
ATOM     46  C   UNL A   1      42.805  27.603  33.063  1.00  0.00     0.031 C 
ATOM     47  C   UNL A   1      37.855  31.050  29.699  1.00  0.00     0.029 A 
ATOM     48  C   UNL A   1      38.225  31.589  31.005  1.00  0.00     0.049 A 
ATOM     49  H   UNL A   1      39.742  30.916  32.265  1.00  0.00     0.167 HD
ATOM     50  C   UNL A   1      42.733  29.179  34.972  1.00  0.00     0.037 A 
ATOM     51  C   UNL A   1      37.632  32.635  31.614  1.00  0.00     0.037 A 
ATOM     52  C   UNL A   1      42.232  30.344  35.650  1.00  0.00     0.049 A 
ATOM     53  C   UNL A   1      38.127  33.071  32.967  1.00  0.00     0.074 A 
ATOM     54  C   UNL A   1      42.639  30.876  36.861  1.00  0.00     0.029 A 
ATOM     55  N   UNL A   1      41.215  31.162  35.176  1.00  0.00    -0.354 N 
ATOM     56  N   UNL A   1      39.077  32.546  33.705  1.00  0.00    -0.248 NA
ATOM     57  C   UNL A   1      37.478  34.243  33.570  1.00  0.00     0.031 C 
ATOM     58  C   UNL A   1      41.836  31.985  37.144  1.00  0.00     0.029 A 
ATOM     59  C   UNL A   1      40.972  32.184  36.079  1.00  0.00     0.049 A 
ATOM     60  H   UNL A   1      40.738  31.034  34.325  1.00  0.00     0.167 HD
ATOM     61  C   UNL A   1      39.166  33.349  34.838  1.00  0.00     0.074 A 
ATOM     62  C   UNL A   1      38.176  34.394  34.687  1.00  0.00     0.031 C 
ATOM     63  C   UNL A   1      39.999  33.233  35.901  1.00  0.00     0.037 A 
BRANCH  50  64
ATOM     64  C   UNL A   1      43.815  28.372  35.640  1.00  0.00     0.058 A 
ATOM     65  C   UNL A   1      45.175  28.611  35.386  1.00  0.00     0.135 A 
ATOM     66  C   UNL A   1      43.490  27.377  36.575  1.00  0.00     0.135 A 
ATOM     67  F   UNL A   1      45.543  29.540  34.489  1.00  0.00    -0.206 F 
ATOM     68  C   UNL A   1      46.173  27.872  36.012  1.00  0.00     0.059 A 
ATOM     69  C   UNL A   1      44.473  26.647  37.238  1.00  0.00     0.059 A 
ATOM     70  F   UNL A   1      42.205  27.105  36.856  1.00  0.00    -0.206 F 
ATOM     71  C   UNL A   1      45.812  26.893  36.938  1.00  0.00     0.060 A 
BRANCH  71  72
ATOM     72  S   UNL A   1      47.121  25.951  37.748  1.00  0.00     0.124 S 
ATOM     73  O   UNL A   1      48.192  26.033  36.760  1.00  0.00    -0.237 OA
ATOM     74  O   UNL A   1      47.335  26.709  38.977  1.00  0.00    -0.237 OA
ATOM     75  O   UNL A   1      46.530  24.628  37.925  1.00  0.00    -0.744 OA
ENDBRANCH  71  72
ENDBRANCH  50  64
BRANCH  51  76
ATOM     76  C   UNL A   1      36.508  33.347  30.946  1.00  0.00     0.058 A 
ATOM     77  C   UNL A   1      36.729  34.159  29.823  1.00  0.00     0.135 A 
ATOM     78  C   UNL A   1      35.189  33.227  31.414  1.00  0.00     0.135 A 
ATOM     79  F   UNL A   1      37.971  34.310  29.339  1.00  0.00    -0.206 F 
ATOM     80  C   UNL A   1      35.689  34.846  29.203  1.00  0.00     0.059 A 
ATOM     81  C   UNL A   1      34.130  33.880  30.793  1.00  0.00     0.059 A 
ATOM     82  F   UNL A   1      34.919  32.448  32.473  1.00  0.00    -0.206 F 
ATOM     83  C   UNL A   1      34.392  34.698  29.695  1.00  0.00     0.060 A 
BRANCH  83  84
ATOM     84  S   UNL A   1      33.045  35.562  28.859  1.00  0.00     0.124 S 
ATOM     85  O   UNL A   1      32.261  36.049  29.989  1.00  0.00    -0.237 OA
ATOM     86  O   UNL A   1      33.761  36.576  28.092  1.00  0.00    -0.237 OA
ATOM     87  O   UNL A   1      32.418  34.513  28.061  1.00  0.00    -0.744 OA
ENDBRANCH  83  84
ENDBRANCH  51  76
BRANCH  63  88
ATOM     88  C   UNL A   1      39.932  34.298  36.964  1.00  0.00     0.058 A 
ATOM     89  C   UNL A   1      40.659  35.493  36.868  1.00  0.00     0.135 A 
ATOM     90  C   UNL A   1      39.057  34.147  38.052  1.00  0.00     0.135 A 
ATOM     91  F   UNL A   1      41.515  35.685  35.852  1.00  0.00    -0.206 F 
ATOM     92  C   UNL A   1      40.531  36.498  37.822  1.00  0.00     0.059 A 
ATOM     93  C   UNL A   1      38.890  35.150  39.001  1.00  0.00     0.059 A 
ATOM     94  F   UNL A   1      38.331  33.025  38.186  1.00  0.00    -0.206 F 
ATOM     95  C   UNL A   1      39.637  36.320  38.881  1.00  0.00     0.060 A 
BRANCH  95  96
ATOM     96  S   UNL A   1      39.438  37.656  40.079  1.00  0.00     0.124 S 
ATOM     97  O   UNL A   1      39.298  36.914  41.327  1.00  0.00    -0.237 OA
ATOM     98  O   UNL A   1      40.683  38.402  39.920  1.00  0.00    -0.237 OA
ATOM     99  O   UNL A   1      38.237  38.347  39.621  1.00  0.00    -0.744 OA
ENDBRANCH  95  96
ENDBRANCH  63  88
ENDBRANCH  37  38
ENDBRANCH  29  32
ENDBRANCH  27  28
ENDBRANCH   1  27
TORSDOF 16
ENDMDL
MODEL 2
REMARK VINA RESULT:     -12.3      1.140      8.250
REMARK SMILES O=C(C[C@H]1SC[C@@H](C(=O)NCCCNC(=O)c2ccc(-c3c4nc(c(-c5c(F)cc(S(=O)(=O)[O-])cc5F)c5ccc([nH]5)c(-c5c(F)cc(S(=O)(=O)[O-])cc5F)c5nc(c(-c6c(F)cc(S(=O)(=O)[O-])cc6F)c6ccc3[nH]6)C=C5)C=C4)cc2)NC1=O)Nc1cccc(Cl)c1
REMARK SMILES IDX 12 1 11 2 10 3 8 4 9 5 7 7 4 8 5 9 84 10 6 11 83 12 85 13
REMARK SMILES IDX 3 15 2 16 1 17 86 18 87 20 88 21 93 22 89 23 91 24 90 25
REMARK SMILES IDX 92 26 13 27 14 28 15 29 16 31 17 32 18 33 82 34 19 35 81 36
REMARK SMILES IDX 20 37 21 38 22 39 75 40 23 41 80 42 74 43 76 44 24 45 79 46
REMARK SMILES IDX 73 47 72 48 25 50 59 51 38 52 58 53 39 54 42 55 57 56 77 57
REMARK SMILES IDX 40 58 41 59 56 61 78 62 43 63 26 64 27 65 36 66 28 67 29 68
REMARK SMILES IDX 35 69 37 70 30 71 31 72 32 73 33 74 34 75 60 76 61 77 70 78
REMARK SMILES IDX 62 79 63 80 69 81 71 82 64 83 65 84 66 85 67 86 68 87 44 88
REMARK SMILES IDX 45 89 54 90 46 91 47 92 53 93 55 94 48 95 49 96 50 97 51 98
REMARK SMILES IDX 52 99
REMARK H PARENT 10 6 83 14 86 19 14 30 76 49 42 60
REMARK Flexibility Score: inf
ROOT
ATOM      1  C   UNL A   1      39.705  21.970  26.693  1.00  0.00     0.042 C 
ENDROOT
BRANCH   1   2
ATOM      2  C   UNL A   1      38.514  21.837  25.752  1.00  0.00     0.117 C 
BRANCH   2   3
ATOM      3  N   UNL A   1      37.545  22.892  25.977  1.00  0.00    -0.354 N 
ATOM      4  C   UNL A   1      36.180  22.828  25.990  1.00  0.00     0.243 C 
ATOM      5  O   UNL A   1      35.566  23.890  26.096  1.00  0.00    -0.273 OA
ATOM      6  H   UNL A   1      37.926  23.785  26.145  1.00  0.00     0.163 HD
BRANCH   4   7
ATOM      7  C   UNL A   1      35.501  21.447  26.082  1.00  0.00     0.181 C 
ATOM      8  C   UNL A   1      32.444  21.694  26.003  1.00  0.00     0.145 C 
ATOM      9  S   UNL A   1      33.298  21.907  24.404  1.00  0.00    -0.145 SA
ATOM     10  C   UNL A   1      33.327  21.971  27.222  1.00  0.00     0.234 C 
ATOM     11  C   UNL A   1      34.830  21.014  24.783  1.00  0.00     0.105 C 
ATOM     12  N   UNL A   1      34.615  21.521  27.239  1.00  0.00    -0.343 N 
ATOM     13  O   UNL A   1      32.877  22.401  28.284  1.00  0.00    -0.274 OA
ATOM     14  H   UNL A   1      34.978  21.223  28.103  1.00  0.00     0.164 HD
BRANCH   8  15
ATOM     15  C   UNL A   1      31.181  22.557  25.970  1.00  0.00     0.124 C 
BRANCH  15  16
ATOM     16  C   UNL A   1      31.304  23.972  25.418  1.00  0.00     0.226 C 
ATOM     17  O   UNL A   1      30.719  24.259  24.375  1.00  0.00    -0.275 OA
ATOM     18  N   UNL A   1      32.007  24.861  26.209  1.00  0.00    -0.326 N 
ATOM     19  H   UNL A   1      32.360  24.513  27.060  1.00  0.00     0.169 HD
BRANCH  18  20
ATOM     20  C   UNL A   1      32.270  26.218  25.922  1.00  0.00     0.042 A 
ATOM     21  C   UNL A   1      31.697  27.169  26.778  1.00  0.00     0.026 A 
ATOM     22  C   UNL A   1      33.067  26.651  24.862  1.00  0.00     0.046 A 
ATOM     23  C   UNL A   1      31.947  28.532  26.599  1.00  0.00     0.004 A 
ATOM     24  C   UNL A   1      33.302  28.014  24.677  1.00  0.00     0.043 A 
ATOM     25  C   UNL A   1      32.753  28.955  25.546  1.00  0.00     0.020 A 
ATOM     26  Cl  UNL A   1      34.274  28.545  23.359  1.00  0.00    -0.084 Cl
ENDBRANCH  18  20
ENDBRANCH  15  16
ENDBRANCH   8  15
ENDBRANCH   4   7
ENDBRANCH   2   3
ENDBRANCH   1   2
BRANCH   1  27
ATOM     27  C   UNL A   1      39.995  23.413  27.102  1.00  0.00     0.118 C 
BRANCH  27  28
ATOM     28  N   UNL A   1      40.791  24.123  26.111  1.00  0.00    -0.352 N 
ATOM     29  C   UNL A   1      41.157  25.445  26.064  1.00  0.00     0.251 C 
ATOM     30  H   UNL A   1      41.116  23.573  25.362  1.00  0.00     0.163 HD
ATOM     31  O   UNL A   1      41.656  25.901  25.038  1.00  0.00    -0.269 OA
BRANCH  29  32
ATOM     32  C   UNL A   1      40.933  26.318  27.235  1.00  0.00     0.039 A 
ATOM     33  C   UNL A   1      39.912  26.003  28.135  1.00  0.00     0.014 A 
ATOM     34  C   UNL A   1      41.723  27.452  27.438  1.00  0.00     0.014 A 
ATOM     35  C   UNL A   1      39.727  26.789  29.275  1.00  0.00     0.010 A 
ATOM     36  C   UNL A   1      41.592  28.185  28.613  1.00  0.00     0.010 A 
ATOM     37  C   UNL A   1      40.589  27.866  29.542  1.00  0.00    -0.014 A 
BRANCH  37  38
ATOM     38  C   UNL A   1      40.456  28.691  30.769  1.00  0.00     0.031 A 
ATOM     39  C   UNL A   1      39.448  29.808  30.809  1.00  0.00     0.074 A 
ATOM     40  C   UNL A   1      41.291  28.493  31.808  1.00  0.00     0.049 A 
ATOM     41  N   UNL A   1      39.270  30.730  31.720  1.00  0.00    -0.248 NA
ATOM     42  C   UNL A   1      38.539  29.922  29.656  1.00  0.00     0.031 C 
ATOM     43  C   UNL A   1      42.331  27.465  31.875  1.00  0.00     0.029 A 
ATOM     44  N   UNL A   1      41.414  29.164  32.999  1.00  0.00    -0.354 N 
ATOM     45  C   UNL A   1      38.247  31.540  31.244  1.00  0.00     0.074 A 
ATOM     46  C   UNL A   1      37.880  31.036  29.938  1.00  0.00     0.031 C 
ATOM     47  C   UNL A   1      42.979  27.568  33.046  1.00  0.00     0.029 A 
ATOM     48  C   UNL A   1      42.436  28.698  33.794  1.00  0.00     0.049 A 
ATOM     49  H   UNL A   1      40.826  29.909  33.261  1.00  0.00     0.167 HD
ATOM     50  C   UNL A   1      37.650  32.594  31.850  1.00  0.00     0.037 A 
ATOM     51  C   UNL A   1      42.898  29.144  34.980  1.00  0.00     0.037 A 
ATOM     52  C   UNL A   1      38.005  33.075  33.158  1.00  0.00     0.049 A 
ATOM     53  C   UNL A   1      42.230  30.328  35.627  1.00  0.00     0.074 A 
ATOM     54  C   UNL A   1      37.436  34.110  33.878  1.00  0.00     0.029 A 
ATOM     55  N   UNL A   1      39.023  32.552  33.945  1.00  0.00    -0.354 N 
ATOM     56  N   UNL A   1      41.233  31.057  35.182  1.00  0.00    -0.248 NA
ATOM     57  C   UNL A   1      42.741  30.749  36.938  1.00  0.00     0.031 C 
ATOM     58  C   UNL A   1      38.140  34.246  35.078  1.00  0.00     0.029 A 
ATOM     59  C   UNL A   1      39.106  33.254  35.135  1.00  0.00     0.049 A 
ATOM     60  H   UNL A   1      39.599  31.795  33.693  1.00  0.00     0.167 HD
ATOM     61  C   UNL A   1      40.973  31.994  36.176  1.00  0.00     0.074 A 
ATOM     62  C   UNL A   1      41.915  31.739  37.246  1.00  0.00     0.031 C 
ATOM     63  C   UNL A   1      40.033  32.971  36.203  1.00  0.00     0.037 A 
BRANCH  50  64
ATOM     64  C   UNL A   1      36.545  33.296  31.105  1.00  0.00     0.058 A 
ATOM     65  C   UNL A   1      36.810  34.125  30.003  1.00  0.00     0.135 A 
ATOM     66  C   UNL A   1      35.203  33.107  31.472  1.00  0.00     0.135 A 
ATOM     67  F   UNL A   1      38.075  34.354  29.617  1.00  0.00    -0.206 F 
ATOM     68  C   UNL A   1      35.787  34.764  29.309  1.00  0.00     0.059 A 
ATOM     69  C   UNL A   1      34.162  33.711  30.774  1.00  0.00     0.059 A 
ATOM     70  F   UNL A   1      34.892  32.327  32.520  1.00  0.00    -0.206 F 
ATOM     71  C   UNL A   1      34.465  34.549  29.701  1.00  0.00     0.060 A 
BRANCH  71  72
ATOM     72  S   UNL A   1      33.152  35.379  28.784  1.00  0.00     0.124 S 
ATOM     73  O   UNL A   1      32.379  35.983  29.865  1.00  0.00    -0.237 OA
ATOM     74  O   UNL A   1      33.899  36.310  27.944  1.00  0.00    -0.237 OA
ATOM     75  O   UNL A   1      32.491  34.288  28.073  1.00  0.00    -0.744 OA
ENDBRANCH  71  72
ENDBRANCH  50  64
BRANCH  51  76
ATOM     76  C   UNL A   1      44.049  28.464  35.634  1.00  0.00     0.058 A 
ATOM     77  C   UNL A   1      45.371  28.821  35.329  1.00  0.00     0.135 A 
ATOM     78  C   UNL A   1      43.851  27.447  36.582  1.00  0.00     0.135 A 
ATOM     79  F   UNL A   1      45.614  29.784  34.427  1.00  0.00    -0.206 F 
ATOM     80  C   UNL A   1      46.455  28.179  35.920  1.00  0.00     0.059 A 
ATOM     81  C   UNL A   1      44.918  26.811  37.207  1.00  0.00     0.059 A 
ATOM     82  F   UNL A   1      42.607  27.080  36.926  1.00  0.00    -0.206 F 
ATOM     83  C   UNL A   1      46.218  27.175  36.860  1.00  0.00     0.060 A 
BRANCH  83  84
ATOM     84  S   UNL A   1      47.631  26.376  37.649  1.00  0.00     0.124 S 
ATOM     85  O   UNL A   1      48.722  26.764  36.762  1.00  0.00    -0.237 OA
ATOM     86  O   UNL A   1      47.632  26.991  38.972  1.00  0.00    -0.237 OA
ATOM     87  O   UNL A   1      47.272  24.961  37.625  1.00  0.00    -0.744 OA
ENDBRANCH  83  84
ENDBRANCH  51  76
BRANCH  63  88
ATOM     88  C   UNL A   1      39.921  33.803  37.452  1.00  0.00     0.058 A 
ATOM     89  C   UNL A   1      40.643  34.993  37.621  1.00  0.00     0.135 A 
ATOM     90  C   UNL A   1      39.010  33.439  38.457  1.00  0.00     0.135 A 
ATOM     91  F   UNL A   1      41.532  35.383  36.695  1.00  0.00    -0.206 F 
ATOM     92  C   UNL A   1      40.474  35.789  38.751  1.00  0.00     0.059 A 
ATOM     93  C   UNL A   1      38.803  34.234  39.580  1.00  0.00     0.059 A 
ATOM     94  F   UNL A   1      38.287  32.313  38.340  1.00  0.00    -0.206 F 
ATOM     95  C   UNL A   1      39.545  35.404  39.720  1.00  0.00     0.060 A 
BRANCH  95  96
ATOM     96  S   UNL A   1      39.295  36.476  41.152  1.00  0.00     0.124 S 
ATOM     97  O   UNL A   1      40.646  36.562  41.695  1.00  0.00    -0.237 OA
ATOM     98  O   UNL A   1      38.779  37.697  40.538  1.00  0.00    -0.237 OA
ATOM     99  O   UNL A   1      38.336  35.737  41.967  1.00  0.00    -0.744 OA
ENDBRANCH  95  96
ENDBRANCH  63  88
ENDBRANCH  37  38
ENDBRANCH  29  32
ENDBRANCH  27  28
ENDBRANCH   1  27
TORSDOF 16
ENDMDL
MODEL 3
REMARK VINA RESULT:     -12.0      6.359     11.913
REMARK SMILES O=C(C[C@H]1SC[C@@H](C(=O)NCCCNC(=O)c2ccc(-c3c4nc(c(-c5c(F)cc(S(=O)(=O)[O-])cc5F)c5ccc([nH]5)c(-c5c(F)cc(S(=O)(=O)[O-])cc5F)c5nc(c(-c6c(F)cc(S(=O)(=O)[O-])cc6F)c6ccc3[nH]6)C=C5)C=C4)cc2)NC1=O)Nc1cccc(Cl)c1
REMARK SMILES IDX 12 1 11 2 10 3 8 4 9 5 7 7 4 8 5 9 84 10 6 11 83 12 85 13
REMARK SMILES IDX 3 15 2 16 1 17 86 18 87 20 88 21 93 22 89 23 91 24 90 25
REMARK SMILES IDX 92 26 13 27 14 28 15 29 16 31 17 32 18 33 82 34 19 35 81 36
REMARK SMILES IDX 20 37 21 38 22 39 75 40 23 41 80 42 74 43 76 44 24 45 79 46
REMARK SMILES IDX 73 47 72 48 25 50 59 51 38 52 58 53 39 54 42 55 57 56 77 57
REMARK SMILES IDX 40 58 41 59 56 61 78 62 43 63 26 64 27 65 36 66 28 67 29 68
REMARK SMILES IDX 35 69 37 70 30 71 31 72 32 73 33 74 34 75 60 76 61 77 70 78
REMARK SMILES IDX 62 79 63 80 69 81 71 82 64 83 65 84 66 85 67 86 68 87 44 88
REMARK SMILES IDX 45 89 54 90 46 91 47 92 53 93 55 94 48 95 49 96 50 97 51 98
REMARK SMILES IDX 52 99
REMARK H PARENT 10 6 83 14 86 19 14 30 76 49 42 60
REMARK Flexibility Score: inf
ROOT
ATOM      1  C   UNL A   1      34.091  31.420  27.628  1.00  0.00     0.042 C 
ENDROOT
BRANCH   1   2
ATOM      2  C   UNL A   1      33.131  30.452  26.946  1.00  0.00     0.117 C 
BRANCH   2   3
ATOM      3  N   UNL A   1      33.780  29.746  25.859  1.00  0.00    -0.354 N 
ATOM      4  C   UNL A   1      33.350  28.658  25.151  1.00  0.00     0.243 C 
ATOM      5  O   UNL A   1      34.134  28.167  24.339  1.00  0.00    -0.273 OA
ATOM      6  H   UNL A   1      34.659  30.101  25.591  1.00  0.00     0.163 HD
BRANCH   4   7
ATOM      7  C   UNL A   1      31.868  28.245  25.251  1.00  0.00     0.181 C 
ATOM      8  C   UNL A   1      31.430  25.391  24.216  1.00  0.00     0.145 C 
ATOM      9  S   UNL A   1      32.192  25.526  25.869  1.00  0.00    -0.145 SA
ATOM     10  C   UNL A   1      31.610  26.634  23.343  1.00  0.00     0.234 C 
ATOM     11  C   UNL A   1      31.605  27.183  26.313  1.00  0.00     0.105 C 
ATOM     12  N   UNL A   1      31.472  27.874  23.897  1.00  0.00    -0.343 N 
ATOM     13  O   UNL A   1      31.672  26.580  22.115  1.00  0.00    -0.274 OA
ATOM     14  H   UNL A   1      31.073  28.576  23.336  1.00  0.00     0.164 HD
BRANCH   8  15
ATOM     15  C   UNL A   1      31.969  24.116  23.563  1.00  0.00     0.124 C 
BRANCH  15  16
ATOM     16  C   UNL A   1      33.474  23.884  23.598  1.00  0.00     0.226 C 
ATOM     17  O   UNL A   1      34.178  24.393  22.727  1.00  0.00    -0.275 OA
ATOM     18  N   UNL A   1      33.943  23.178  24.690  1.00  0.00    -0.326 N 
ATOM     19  H   UNL A   1      33.273  22.894  25.354  1.00  0.00     0.169 HD
BRANCH  18  20
ATOM     20  C   UNL A   1      35.284  22.825  24.952  1.00  0.00     0.042 A 
ATOM     21  C   UNL A   1      35.681  21.529  24.591  1.00  0.00     0.026 A 
ATOM     22  C   UNL A   1      36.220  23.686  25.527  1.00  0.00     0.046 A 
ATOM     23  C   UNL A   1      37.003  21.113  24.767  1.00  0.00     0.004 A 
ATOM     24  C   UNL A   1      37.536  23.261  25.715  1.00  0.00     0.043 A 
ATOM     25  C   UNL A   1      37.933  21.983  25.329  1.00  0.00     0.020 A 
ATOM     26  Cl  UNL A   1      38.683  24.322  26.438  1.00  0.00    -0.084 Cl
ENDBRANCH  18  20
ENDBRANCH  15  16
ENDBRANCH   8  15
ENDBRANCH   4   7
ENDBRANCH   2   3
ENDBRANCH   1   2
BRANCH   1  27
ATOM     27  C   UNL A   1      35.205  30.721  28.403  1.00  0.00     0.118 C 
BRANCH  27  28
ATOM     28  N   UNL A   1      35.278  31.160  29.790  1.00  0.00    -0.352 N 
ATOM     29  C   UNL A   1      36.280  30.986  30.713  1.00  0.00     0.251 C 
ATOM     30  H   UNL A   1      34.493  31.657  30.114  1.00  0.00     0.163 HD
ATOM     31  O   UNL A   1      36.068  31.250  31.894  1.00  0.00    -0.269 OA
BRANCH  29  32
ATOM     32  C   UNL A   1      37.596  30.466  30.290  1.00  0.00     0.039 A 
ATOM     33  C   UNL A   1      37.951  30.527  28.939  1.00  0.00     0.014 A 
ATOM     34  C   UNL A   1      38.475  29.911  31.223  1.00  0.00     0.014 A 
ATOM     35  C   UNL A   1      39.215  30.090  28.536  1.00  0.00     0.010 A 
ATOM     36  C   UNL A   1      39.762  29.554  30.833  1.00  0.00     0.010 A 
ATOM     37  C   UNL A   1      40.145  29.633  29.485  1.00  0.00    -0.014 A 
BRANCH  37  38
ATOM     38  C   UNL A   1      41.515  29.210  29.100  1.00  0.00     0.031 A 
ATOM     39  C   UNL A   1      42.616  30.234  29.026  1.00  0.00     0.074 A 
ATOM     40  C   UNL A   1      41.749  27.933  28.738  1.00  0.00     0.049 A 
ATOM     41  N   UNL A   1      43.838  30.102  28.578  1.00  0.00    -0.248 NA
ATOM     42  C   UNL A   1      42.290  31.593  29.489  1.00  0.00     0.031 C 
ATOM     43  C   UNL A   1      40.756  26.857  28.736  1.00  0.00     0.029 A 
ATOM     44  N   UNL A   1      42.892  27.328  28.278  1.00  0.00    -0.354 N 
ATOM     45  C   UNL A   1      44.418  31.360  28.688  1.00  0.00     0.074 A 
ATOM     46  C   UNL A   1      43.398  32.255  29.191  1.00  0.00     0.031 C 
ATOM     47  C   UNL A   1      41.333  25.724  28.306  1.00  0.00     0.029 A 
ATOM     48  C   UNL A   1      42.723  26.001  27.954  1.00  0.00     0.049 A 
ATOM     49  H   UNL A   1      43.752  27.798  28.190  1.00  0.00     0.167 HD
ATOM     50  C   UNL A   1      45.692  31.732  28.416  1.00  0.00     0.037 A 
ATOM     51  C   UNL A   1      43.583  25.114  27.414  1.00  0.00     0.037 A 
ATOM     52  C   UNL A   1      46.705  30.831  27.936  1.00  0.00     0.049 A 
ATOM     53  C   UNL A   1      44.989  25.554  27.103  1.00  0.00     0.074 A 
ATOM     54  C   UNL A   1      48.036  31.098  27.667  1.00  0.00     0.029 A 
ATOM     55  N   UNL A   1      46.502  29.487  27.654  1.00  0.00    -0.354 N 
ATOM     56  N   UNL A   1      45.534  26.738  27.255  1.00  0.00    -0.248 NA
ATOM     57  C   UNL A   1      45.901  24.540  26.557  1.00  0.00     0.031 C 
ATOM     58  C   UNL A   1      48.626  29.930  27.177  1.00  0.00     0.029 A 
ATOM     59  C   UNL A   1      47.680  28.918  27.200  1.00  0.00     0.049 A 
ATOM     60  H   UNL A   1      45.648  29.011  27.761  1.00  0.00     0.167 HD
ATOM     61  C   UNL A   1      46.861  26.600  26.861  1.00  0.00     0.074 A 
ATOM     62  C   UNL A   1      47.037  25.218  26.467  1.00  0.00     0.031 C 
ATOM     63  C   UNL A   1      47.845  27.532  26.836  1.00  0.00     0.037 A 
BRANCH  50  64
ATOM     64  C   UNL A   1      46.063  33.174  28.636  1.00  0.00     0.058 A 
ATOM     65  C   UNL A   1      45.929  34.134  27.619  1.00  0.00     0.135 A 
ATOM     66  C   UNL A   1      46.519  33.612  29.890  1.00  0.00     0.135 A 
ATOM     67  F   UNL A   1      45.512  33.770  26.396  1.00  0.00    -0.206 F 
ATOM     68  C   UNL A   1      46.262  35.468  27.828  1.00  0.00     0.059 A 
ATOM     69  C   UNL A   1      46.827  34.947  30.132  1.00  0.00     0.059 A 
ATOM     70  F   UNL A   1      46.667  32.737  30.899  1.00  0.00    -0.206 F 
ATOM     71  C   UNL A   1      46.708  35.866  29.089  1.00  0.00     0.060 A 
BRANCH  71  72
ATOM     72  S   UNL A   1      47.125  37.603  29.344  1.00  0.00     0.124 S 
ATOM     73  O   UNL A   1      45.864  38.133  29.852  1.00  0.00    -0.237 OA
ATOM     74  O   UNL A   1      48.214  37.522  30.314  1.00  0.00    -0.237 OA
ATOM     75  O   UNL A   1      47.508  38.061  28.012  1.00  0.00    -0.744 OA
ENDBRANCH  71  72
ENDBRANCH  50  64
BRANCH  51  76
ATOM     76  C   UNL A   1      43.140  23.720  27.137  1.00  0.00     0.058 A 
ATOM     77  C   UNL A   1      43.095  22.758  28.158  1.00  0.00     0.135 A 
ATOM     78  C   UNL A   1      42.750  23.323  25.848  1.00  0.00     0.135 A 
ATOM     79  F   UNL A   1      43.461  23.087  29.406  1.00  0.00    -0.206 F 
ATOM     80  C   UNL A   1      42.702  21.446  27.907  1.00  0.00     0.059 A 
ATOM     81  C   UNL A   1      42.326  22.025  25.580  1.00  0.00     0.059 A 
ATOM     82  F   UNL A   1      42.756  24.207  24.840  1.00  0.00    -0.206 F 
ATOM     83  C   UNL A   1      42.318  21.090  26.614  1.00  0.00     0.060 A 
BRANCH  83  84
ATOM     84  S   UNL A   1      41.773  19.397  26.308  1.00  0.00     0.124 S 
ATOM     85  O   UNL A   1      40.331  19.571  26.172  1.00  0.00    -0.237 OA
ATOM     86  O   UNL A   1      42.495  19.058  25.086  1.00  0.00    -0.237 OA
ATOM     87  O   UNL A   1      42.212  18.682  27.503  1.00  0.00    -0.744 OA
ENDBRANCH  83  84
ENDBRANCH  51  76
BRANCH  63  88
ATOM     88  C   UNL A   1      49.225  27.085  26.433  1.00  0.00     0.058 A 
ATOM     89  C   UNL A   1      50.135  26.550  27.357  1.00  0.00     0.135 A 
ATOM     90  C   UNL A   1      49.605  27.118  25.081  1.00  0.00     0.135 A 
ATOM     91  F   UNL A   1      49.824  26.501  28.662  1.00  0.00    -0.206 F 
ATOM     92  C   UNL A   1      51.380  26.074  26.956  1.00  0.00     0.059 A 
ATOM     93  C   UNL A   1      50.832  26.621  24.654  1.00  0.00     0.059 A 
ATOM     94  F   UNL A   1      48.768  27.613  24.155  1.00  0.00    -0.206 F 
ATOM     95  C   UNL A   1      51.715  26.106  25.600  1.00  0.00     0.060 A 
BRANCH  95  96
ATOM     96  S   UNL A   1      53.310  25.432  25.088  1.00  0.00     0.124 S 
ATOM     97  O   UNL A   1      53.144  24.016  25.396  1.00  0.00    -0.237 OA
ATOM     98  O   UNL A   1      53.348  25.773  23.668  1.00  0.00    -0.237 OA
ATOM     99  O   UNL A   1      54.267  26.150  25.924  1.00  0.00    -0.744 OA
ENDBRANCH  95  96
ENDBRANCH  63  88
ENDBRANCH  37  38
ENDBRANCH  29  32
ENDBRANCH  27  28
ENDBRANCH   1  27
TORSDOF 16
ENDMDL
