MODEL 1
REMARK VINA RESULT:     -11.6      0.000      0.000
REMARK SMILES C[C@@H](NC(=O)c1cc(C(=O)NCCCNC(=O)c2ccc(-c3c4nc(c(-c5c(F)cc(S(=O)(=O)[O-])cc5F)c5ccc([nH]5)c(-c5c(F)cc(S(=O)(=O)[O-])cc5F)c5nc(c(-c6c(F)cc(S(=O)(=O)[O-])cc6F)c6ccc3[nH]6)C=C5)C=C4)cc2)n(C)n1)c1ccccc1
REMARK SMILES IDX 13 1 12 2 11 3 9 4 10 5 8 7 6 8 7 9 86 10 84 11 85 12 4 13
REMARK SMILES IDX 3 14 5 16 2 17 1 18 87 19 88 20 92 21 89 22 91 23 90 24
REMARK SMILES IDX 14 25 15 26 16 27 17 29 18 30 19 31 83 32 20 33 82 34 21 35
REMARK SMILES IDX 22 36 23 37 76 38 24 39 81 40 75 41 77 42 25 43 80 44 74 45
REMARK SMILES IDX 73 46 26 48 60 49 39 50 59 51 40 52 43 53 58 54 78 55 41 56
REMARK SMILES IDX 42 57 57 59 79 60 44 61 27 62 28 63 37 64 29 65 30 66 36 67
REMARK SMILES IDX 38 68 31 69 32 70 33 71 34 72 35 73 61 74 62 75 71 76 63 77
REMARK SMILES IDX 64 78 70 79 72 80 65 81 66 82 67 83 68 84 69 85 45 86 46 87
REMARK SMILES IDX 55 88 47 89 48 90 54 91 56 92 49 93 50 94 51 95 52 96 53 97
REMARK H PARENT 11 6 3 15 15 28 77 47 43 58
REMARK Flexibility Score: inf
ROOT
ATOM      1  C   UNL A   1      34.052  27.914  25.780  1.00  0.00     0.042 C 
ENDROOT
BRANCH   1   2
ATOM      2  C   UNL A   1      33.089  27.045  24.969  1.00  0.00     0.118 C 
BRANCH   2   3
ATOM      3  N   UNL A   1      33.601  26.743  23.653  1.00  0.00    -0.351 N 
ATOM      4  C   UNL A   1      33.321  25.820  22.687  1.00  0.00     0.269 C 
ATOM      5  O   UNL A   1      33.842  26.107  21.600  1.00  0.00    -0.268 OA
ATOM      6  H   UNL A   1      34.327  27.352  23.388  1.00  0.00     0.163 HD
BRANCH   4   7
ATOM      7  C   UNL A   1      32.527  24.610  22.816  1.00  0.00     0.126 A 
ATOM      8  C   UNL A   1      32.170  22.406  23.142  1.00  0.00     0.151 A 
ATOM      9  C   UNL A   1      33.114  23.345  22.699  1.00  0.00     0.069 A 
ATOM     10  N   UNL A   1      30.979  22.995  23.287  1.00  0.00    -0.167 NA
ATOM     11  N   UNL A   1      31.234  24.316  23.195  1.00  0.00    -0.262 N 
ATOM     12  C   UNL A   1      30.151  25.149  23.651  1.00  0.00     0.174 C 
BRANCH   8  13
ATOM     13  C   UNL A   1      32.338  20.994  23.452  1.00  0.00     0.272 C 
ATOM     14  N   UNL A   1      32.699  20.614  24.722  1.00  0.00    -0.344 N 
ATOM     15  H   UNL A   1      32.377  19.714  24.962  1.00  0.00     0.164 HD
ATOM     16  O   UNL A   1      32.078  20.102  22.638  1.00  0.00    -0.267 OA
BRANCH  14  17
ATOM     17  C   UNL A   1      33.461  21.258  25.797  1.00  0.00     0.109 C 
ATOM     18  C   UNL A   1      32.543  22.247  26.529  1.00  0.00     0.036 C 
BRANCH  17  19
ATOM     19  C   UNL A   1      34.763  21.953  25.459  1.00  0.00    -0.026 A 
ATOM     20  C   UNL A   1      35.773  21.339  24.703  1.00  0.00     0.006 A 
ATOM     21  C   UNL A   1      34.950  23.290  25.861  1.00  0.00     0.006 A 
ATOM     22  C   UNL A   1      36.944  22.033  24.383  1.00  0.00     0.000 A 
ATOM     23  C   UNL A   1      36.122  23.979  25.544  1.00  0.00     0.000 A 
ATOM     24  C   UNL A   1      37.121  23.349  24.809  1.00  0.00     0.000 A 
ENDBRANCH  17  19
ENDBRANCH  14  17
ENDBRANCH   8  13
ENDBRANCH   4   7
ENDBRANCH   2   3
ENDBRANCH   1   2
BRANCH   1  25
ATOM     25  C   UNL A   1      33.570  28.238  27.194  1.00  0.00     0.118 C 
BRANCH  25  26
ATOM     26  N   UNL A   1      33.492  29.672  27.431  1.00  0.00    -0.352 N 
ATOM     27  C   UNL A   1      34.362  30.525  28.064  1.00  0.00     0.251 C 
ATOM     28  H   UNL A   1      32.680  30.102  27.079  1.00  0.00     0.163 HD
ATOM     29  O   UNL A   1      33.960  31.638  28.394  1.00  0.00    -0.269 OA
BRANCH  27  30
ATOM     30  C   UNL A   1      35.759  30.132  28.352  1.00  0.00     0.039 A 
ATOM     31  C   UNL A   1      36.689  30.137  27.306  1.00  0.00     0.014 A 
ATOM     32  C   UNL A   1      36.146  29.679  29.616  1.00  0.00     0.014 A 
ATOM     33  C   UNL A   1      38.011  29.743  27.539  1.00  0.00     0.010 A 
ATOM     34  C   UNL A   1      37.477  29.346  29.864  1.00  0.00     0.010 A 
ATOM     35  C   UNL A   1      38.423  29.372  28.828  1.00  0.00    -0.014 A 
BRANCH  35  36
ATOM     36  C   UNL A   1      39.838  29.022  29.121  1.00  0.00     0.031 A 
ATOM     37  C   UNL A   1      40.781  30.062  29.666  1.00  0.00     0.074 A 
ATOM     38  C   UNL A   1      40.292  27.790  28.821  1.00  0.00     0.049 A 
ATOM     39  N   UNL A   1      42.071  29.983  29.867  1.00  0.00    -0.248 NA
ATOM     40  C   UNL A   1      40.200  31.371  30.006  1.00  0.00     0.031 C 
ATOM     41  C   UNL A   1      39.483  26.706  28.260  1.00  0.00     0.029 A 
ATOM     42  N   UNL A   1      41.548  27.247  28.923  1.00  0.00    -0.354 N 
ATOM     43  C   UNL A   1      42.461  31.231  30.339  1.00  0.00     0.074 A 
ATOM     44  C   UNL A   1      41.275  32.062  30.356  1.00  0.00     0.031 C 
ATOM     45  C   UNL A   1      40.260  25.627  28.075  1.00  0.00     0.029 A 
ATOM     46  C   UNL A   1      41.630  25.954  28.460  1.00  0.00     0.049 A 
ATOM     47  H   UNL A   1      42.319  27.736  29.292  1.00  0.00     0.167 HD
ATOM     48  C   UNL A   1      43.690  31.641  30.735  1.00  0.00     0.037 A 
ATOM     49  C   UNL A   1      42.689  25.132  28.337  1.00  0.00     0.037 A 
ATOM     50  C   UNL A   1      44.859  30.799  30.737  1.00  0.00     0.049 A 
ATOM     51  C   UNL A   1      44.047  25.615  28.767  1.00  0.00     0.074 A 
ATOM     52  C   UNL A   1      46.136  31.103  31.177  1.00  0.00     0.029 A 
ATOM     53  N   UNL A   1      44.896  29.492  30.275  1.00  0.00    -0.354 N 
ATOM     54  N   UNL A   1      44.387  26.781  29.260  1.00  0.00    -0.248 NA
ATOM     55  C   UNL A   1      45.167  24.672  28.622  1.00  0.00     0.031 C 
ATOM     56  C   UNL A   1      46.955  29.994  30.941  1.00  0.00     0.029 A 
ATOM     57  C   UNL A   1      46.178  28.983  30.396  1.00  0.00     0.049 A 
ATOM     58  H   UNL A   1      44.124  28.998  29.915  1.00  0.00     0.167 HD
ATOM     59  C   UNL A   1      45.753  26.707  29.506  1.00  0.00     0.074 A 
ATOM     60  C   UNL A   1      46.176  25.377  29.117  1.00  0.00     0.031 C 
ATOM     61  C   UNL A   1      46.583  27.655  30.008  1.00  0.00     0.037 A 
BRANCH  48  62
ATOM     62  C   UNL A   1      43.837  33.064  31.200  1.00  0.00     0.058 A 
ATOM     63  C   UNL A   1      44.167  34.101  30.311  1.00  0.00     0.135 A 
ATOM     64  C   UNL A   1      43.606  33.405  32.543  1.00  0.00     0.135 A 
ATOM     65  F   UNL A   1      44.409  33.831  29.019  1.00  0.00    -0.206 F 
ATOM     66  C   UNL A   1      44.291  35.417  30.742  1.00  0.00     0.059 A 
ATOM     67  C   UNL A   1      43.699  34.720  32.991  1.00  0.00     0.059 A 
ATOM     68  F   UNL A   1      43.287  32.455  33.436  1.00  0.00    -0.206 F 
ATOM     69  C   UNL A   1      44.057  35.717  32.085  1.00  0.00     0.060 A 
BRANCH  69  70
ATOM     70  S   UNL A   1      44.225  37.430  32.628  1.00  0.00     0.124 S 
ATOM     71  O   UNL A   1      43.880  38.156  31.409  1.00  0.00    -0.237 OA
ATOM     72  O   UNL A   1      43.250  37.512  33.711  1.00  0.00    -0.237 OA
ATOM     73  O   UNL A   1      45.622  37.524  33.038  1.00  0.00    -0.744 OA
ENDBRANCH  69  70
ENDBRANCH  48  62
BRANCH  49  74
ATOM     74  C   UNL A   1      42.504  23.763  27.787  1.00  0.00     0.058 A 
ATOM     75  C   UNL A   1      42.433  23.548  26.403  1.00  0.00     0.135 A 
ATOM     76  C   UNL A   1      42.415  22.644  28.629  1.00  0.00     0.135 A 
ATOM     77  F   UNL A   1      42.505  24.587  25.559  1.00  0.00    -0.206 F 
ATOM     78  C   UNL A   1      42.272  22.272  25.871  1.00  0.00     0.059 A 
ATOM     79  C   UNL A   1      42.278  21.356  28.120  1.00  0.00     0.059 A 
ATOM     80  F   UNL A   1      42.494  22.795  29.960  1.00  0.00    -0.206 F 
ATOM     81  C   UNL A   1      42.198  21.182  26.739  1.00  0.00     0.060 A 
BRANCH  81  82
ATOM     82  S   UNL A   1      42.046  19.524  26.038  1.00  0.00     0.124 S 
ATOM     83  O   UNL A   1      42.457  18.692  27.161  1.00  0.00    -0.237 OA
ATOM     84  O   UNL A   1      40.629  19.470  25.688  1.00  0.00    -0.237 OA
ATOM     85  O   UNL A   1      42.963  19.556  24.903  1.00  0.00    -0.744 OA
ENDBRANCH  81  82
ENDBRANCH  49  74
BRANCH  61  86
ATOM     86  C   UNL A   1      48.028  27.286  30.191  1.00  0.00     0.058 A 
ATOM     87  C   UNL A   1      48.979  27.519  29.186  1.00  0.00     0.135 A 
ATOM     88  C   UNL A   1      48.479  26.756  31.412  1.00  0.00     0.135 A 
ATOM     89  F   UNL A   1      48.598  28.014  27.997  1.00  0.00    -0.206 F 
ATOM     90  C   UNL A   1      50.326  27.232  29.380  1.00  0.00     0.059 A 
ATOM     91  C   UNL A   1      49.824  26.485  31.637  1.00  0.00     0.059 A 
ATOM     92  F   UNL A   1      47.610  26.521  32.407  1.00  0.00    -0.206 F 
ATOM     93  C   UNL A   1      50.740  26.721  30.613  1.00  0.00     0.060 A 
BRANCH  93  94
ATOM     94  S   UNL A   1      52.498  26.405  30.871  1.00  0.00     0.124 S 
ATOM     95  O   UNL A   1      52.983  26.294  29.499  1.00  0.00    -0.237 OA
ATOM     96  O   UNL A   1      52.926  27.596  31.599  1.00  0.00    -0.237 OA
ATOM     97  O   UNL A   1      52.511  25.167  31.644  1.00  0.00    -0.744 OA
ENDBRANCH  93  94
ENDBRANCH  61  86
ENDBRANCH  35  36
ENDBRANCH  27  30
ENDBRANCH  25  26
ENDBRANCH   1  25
TORSDOF 16
ENDMDL
MODEL 2
REMARK VINA RESULT:     -11.4      4.887     10.475
REMARK SMILES C[C@@H](NC(=O)c1cc(C(=O)NCCCNC(=O)c2ccc(-c3c4nc(c(-c5c(F)cc(S(=O)(=O)[O-])cc5F)c5ccc([nH]5)c(-c5c(F)cc(S(=O)(=O)[O-])cc5F)c5nc(c(-c6c(F)cc(S(=O)(=O)[O-])cc6F)c6ccc3[nH]6)C=C5)C=C4)cc2)n(C)n1)c1ccccc1
REMARK SMILES IDX 13 1 12 2 11 3 9 4 10 5 8 7 6 8 7 9 86 10 84 11 85 12 4 13
REMARK SMILES IDX 3 14 5 16 2 17 1 18 87 19 88 20 92 21 89 22 91 23 90 24
REMARK SMILES IDX 14 25 15 26 16 27 17 29 18 30 19 31 83 32 20 33 82 34 21 35
REMARK SMILES IDX 22 36 23 37 76 38 24 39 81 40 75 41 77 42 25 43 80 44 74 45
REMARK SMILES IDX 73 46 26 48 60 49 39 50 59 51 40 52 43 53 58 54 78 55 41 56
REMARK SMILES IDX 42 57 57 59 79 60 44 61 27 62 28 63 37 64 29 65 30 66 36 67
REMARK SMILES IDX 38 68 31 69 32 70 33 71 34 72 35 73 61 74 62 75 71 76 63 77
REMARK SMILES IDX 64 78 70 79 72 80 65 81 66 82 67 83 68 84 69 85 45 86 46 87
REMARK SMILES IDX 55 88 47 89 48 90 54 91 56 92 49 93 50 94 51 95 52 96 53 97
REMARK H PARENT 11 6 3 15 15 28 77 47 43 58
REMARK Flexibility Score: inf
ROOT
ATOM      1  C   UNL A   1      37.871  23.689  25.743  1.00  0.00     0.042 C 
ENDROOT
BRANCH   1   2
ATOM      2  C   UNL A   1      37.305  22.292  25.480  1.00  0.00     0.118 C 
BRANCH   2   3
ATOM      3  N   UNL A   1      36.192  21.982  26.346  1.00  0.00    -0.351 N 
ATOM      4  C   UNL A   1      34.833  22.086  26.261  1.00  0.00     0.269 C 
ATOM      5  O   UNL A   1      34.258  21.444  27.151  1.00  0.00    -0.268 OA
ATOM      6  H   UNL A   1      36.484  21.601  27.205  1.00  0.00     0.163 HD
BRANCH   4   7
ATOM      7  C   UNL A   1      34.058  22.838  25.289  1.00  0.00     0.126 A 
ATOM      8  C   UNL A   1      33.552  24.608  23.983  1.00  0.00     0.151 A 
ATOM      9  C   UNL A   1      34.205  24.224  25.164  1.00  0.00     0.069 A 
ATOM     10  N   UNL A   1      32.821  23.589  23.520  1.00  0.00    -0.167 NA
ATOM     11  N   UNL A   1      33.217  22.522  24.243  1.00  0.00    -0.262 N 
ATOM     12  C   UNL A   1      32.802  21.259  23.689  1.00  0.00     0.174 C 
BRANCH   8  13
ATOM     13  C   UNL A   1      33.597  25.872  23.264  1.00  0.00     0.272 C 
ATOM     14  N   UNL A   1      33.372  27.047  23.937  1.00  0.00    -0.344 N 
ATOM     15  H   UNL A   1      33.828  27.819  23.530  1.00  0.00     0.164 HD
ATOM     16  O   UNL A   1      33.923  25.945  22.075  1.00  0.00    -0.267 OA
BRANCH  14  17
ATOM     17  C   UNL A   1      32.600  27.400  25.133  1.00  0.00     0.109 C 
ATOM     18  C   UNL A   1      31.119  27.525  24.746  1.00  0.00     0.036 C 
BRANCH  17  19
ATOM     19  C   UNL A   1      33.004  28.620  25.934  1.00  0.00    -0.026 A 
ATOM     20  C   UNL A   1      32.190  29.758  26.038  1.00  0.00     0.006 A 
ATOM     21  C   UNL A   1      34.212  28.596  26.657  1.00  0.00     0.006 A 
ATOM     22  C   UNL A   1      32.587  30.848  26.820  1.00  0.00     0.000 A 
ATOM     23  C   UNL A   1      34.608  29.686  27.432  1.00  0.00     0.000 A 
ATOM     24  C   UNL A   1      33.797  30.814  27.511  1.00  0.00     0.000 A 
ENDBRANCH  17  19
ENDBRANCH  14  17
ENDBRANCH   8  13
ENDBRANCH   4   7
ENDBRANCH   2   3
ENDBRANCH   1   2
BRANCH   1  25
ATOM     25  C   UNL A   1      38.938  23.742  26.836  1.00  0.00     0.118 C 
BRANCH  25  26
ATOM     26  N   UNL A   1      40.278  23.887  26.288  1.00  0.00    -0.352 N 
ATOM     27  C   UNL A   1      41.202  24.892  26.431  1.00  0.00     0.251 C 
ATOM     28  H   UNL A   1      40.571  23.139  25.720  1.00  0.00     0.163 HD
ATOM     29  O   UNL A   1      42.152  24.934  25.653  1.00  0.00    -0.269 OA
BRANCH  27  30
ATOM     30  C   UNL A   1      41.077  25.913  27.495  1.00  0.00     0.039 A 
ATOM     31  C   UNL A   1      40.033  25.796  28.421  1.00  0.00     0.014 A 
ATOM     32  C   UNL A   1      41.920  27.027  27.542  1.00  0.00     0.014 A 
ATOM     33  C   UNL A   1      39.870  26.761  29.420  1.00  0.00     0.010 A 
ATOM     34  C   UNL A   1      41.796  27.955  28.576  1.00  0.00     0.010 A 
ATOM     35  C   UNL A   1      40.769  27.833  29.524  1.00  0.00    -0.014 A 
BRANCH  35  36
ATOM     36  C   UNL A   1      40.666  28.831  30.622  1.00  0.00     0.031 A 
ATOM     37  C   UNL A   1      41.522  28.698  31.852  1.00  0.00     0.074 A 
ATOM     38  C   UNL A   1      39.743  29.810  30.542  1.00  0.00     0.049 A 
ATOM     39  N   UNL A   1      41.489  29.392  32.961  1.00  0.00    -0.248 NA
ATOM     40  C   UNL A   1      42.533  27.628  31.844  1.00  0.00     0.031 C 
ATOM     41  C   UNL A   1      38.834  30.024  29.415  1.00  0.00     0.029 A 
ATOM     42  N   UNL A   1      39.401  30.795  31.435  1.00  0.00    -0.354 N 
ATOM     43  C   UNL A   1      42.457  28.836  33.789  1.00  0.00     0.074 A 
ATOM     44  C   UNL A   1      43.034  27.720  33.068  1.00  0.00     0.031 C 
ATOM     45  C   UNL A   1      38.044  31.077  29.681  1.00  0.00     0.029 A 
ATOM     46  C   UNL A   1      38.357  31.584  31.013  1.00  0.00     0.049 A 
ATOM     47  H   UNL A   1      39.859  30.923  32.298  1.00  0.00     0.167 HD
ATOM     48  C   UNL A   1      42.839  29.228  35.028  1.00  0.00     0.037 A 
ATOM     49  C   UNL A   1      37.710  32.589  31.634  1.00  0.00     0.037 A 
ATOM     50  C   UNL A   1      42.276  30.355  35.727  1.00  0.00     0.049 A 
ATOM     51  C   UNL A   1      38.140  32.995  33.017  1.00  0.00     0.074 A 
ATOM     52  C   UNL A   1      42.638  30.869  36.960  1.00  0.00     0.029 A 
ATOM     53  N   UNL A   1      41.232  31.138  35.258  1.00  0.00    -0.354 N 
ATOM     54  N   UNL A   1      39.094  32.491  33.763  1.00  0.00    -0.248 NA
ATOM     55  C   UNL A   1      37.408  34.106  33.644  1.00  0.00     0.031 C 
ATOM     56  C   UNL A   1      41.783  31.937  37.256  1.00  0.00     0.029 A 
ATOM     57  C   UNL A   1      40.919  32.116  36.186  1.00  0.00     0.049 A 
ATOM     58  H   UNL A   1      40.779  31.016  34.391  1.00  0.00     0.167 HD
ATOM     59  C   UNL A   1      39.091  33.235  34.937  1.00  0.00     0.074 A 
ATOM     60  C   UNL A   1      38.048  34.231  34.798  1.00  0.00     0.031 C 
ATOM     61  C   UNL A   1      39.881  33.105  36.032  1.00  0.00     0.037 A 
BRANCH  48  62
ATOM     62  C   UNL A   1      43.919  28.434  35.711  1.00  0.00     0.058 A 
ATOM     63  C   UNL A   1      45.280  28.727  35.526  1.00  0.00     0.135 A 
ATOM     64  C   UNL A   1      43.590  27.393  36.596  1.00  0.00     0.135 A 
ATOM     65  F   UNL A   1      45.652  29.703  34.683  1.00  0.00    -0.206 F 
ATOM     66  C   UNL A   1      46.275  27.998  36.167  1.00  0.00     0.059 A 
ATOM     67  C   UNL A   1      44.569  26.669  37.270  1.00  0.00     0.059 A 
ATOM     68  F   UNL A   1      42.305  27.071  36.812  1.00  0.00    -0.206 F 
ATOM     69  C   UNL A   1      45.910  26.969  37.037  1.00  0.00     0.060 A 
BRANCH  69  70
ATOM     70  S   UNL A   1      47.215  26.032  37.861  1.00  0.00     0.124 S 
ATOM     71  O   UNL A   1      46.821  24.659  37.560  1.00  0.00    -0.237 OA
ATOM     72  O   UNL A   1      48.417  26.508  37.185  1.00  0.00    -0.237 OA
ATOM     73  O   UNL A   1      47.087  26.427  39.260  1.00  0.00    -0.744 OA
ENDBRANCH  69  70
ENDBRANCH  48  62
BRANCH  49  74
ATOM     74  C   UNL A   1      36.589  33.283  30.947  1.00  0.00     0.058 A 
ATOM     75  C   UNL A   1      36.833  34.183  29.901  1.00  0.00     0.135 A 
ATOM     76  C   UNL A   1      35.253  33.044  31.308  1.00  0.00     0.135 A 
ATOM     77  F   UNL A   1      38.092  34.449  29.525  1.00  0.00    -0.206 F 
ATOM     78  C   UNL A   1      35.793  34.831  29.240  1.00  0.00     0.059 A 
ATOM     79  C   UNL A   1      34.196  33.661  30.646  1.00  0.00     0.059 A 
ATOM     80  F   UNL A   1      34.966  32.178  32.293  1.00  0.00    -0.206 F 
ATOM     81  C   UNL A   1      34.478  34.560  29.619  1.00  0.00     0.060 A 
BRANCH  81  82
ATOM     82  S   UNL A   1      33.133  35.363  28.718  1.00  0.00     0.124 S 
ATOM     83  O   UNL A   1      33.866  36.290  27.865  1.00  0.00    -0.237 OA
ATOM     84  O   UNL A   1      32.502  34.234  28.041  1.00  0.00    -0.237 OA
ATOM     85  O   UNL A   1      32.337  35.972  29.779  1.00  0.00    -0.744 OA
ENDBRANCH  81  82
ENDBRANCH  49  74
BRANCH  61  86
ATOM     86  C   UNL A   1      39.669  34.075  37.160  1.00  0.00     0.058 A 
ATOM     87  C   UNL A   1      38.873  33.750  38.268  1.00  0.00     0.135 A 
ATOM     88  C   UNL A   1      40.327  35.316  37.164  1.00  0.00     0.135 A 
ATOM     89  F   UNL A   1      38.214  32.581  38.308  1.00  0.00    -0.206 F 
ATOM     90  C   UNL A   1      38.727  34.626  39.339  1.00  0.00     0.059 A 
ATOM     91  C   UNL A   1      40.215  36.197  38.235  1.00  0.00     0.059 A 
ATOM     92  F   UNL A   1      41.106  35.671  36.131  1.00  0.00    -0.206 F 
ATOM     93  C   UNL A   1      39.408  35.845  39.316  1.00  0.00     0.060 A 
BRANCH  93  94
ATOM     94  S   UNL A   1      39.254  36.948  40.736  1.00  0.00     0.124 S 
ATOM     95  O   UNL A   1      38.426  38.019  40.190  1.00  0.00    -0.237 OA
ATOM     96  O   UNL A   1      38.611  36.092  41.728  1.00  0.00    -0.237 OA
ATOM     97  O   UNL A   1      40.637  37.314  41.034  1.00  0.00    -0.744 OA
ENDBRANCH  93  94
ENDBRANCH  61  86
ENDBRANCH  35  36
ENDBRANCH  27  30
ENDBRANCH  25  26
ENDBRANCH   1  25
TORSDOF 16
ENDMDL
MODEL 3
REMARK VINA RESULT:     -11.3      2.741      3.581
REMARK SMILES C[C@@H](NC(=O)c1cc(C(=O)NCCCNC(=O)c2ccc(-c3c4nc(c(-c5c(F)cc(S(=O)(=O)[O-])cc5F)c5ccc([nH]5)c(-c5c(F)cc(S(=O)(=O)[O-])cc5F)c5nc(c(-c6c(F)cc(S(=O)(=O)[O-])cc6F)c6ccc3[nH]6)C=C5)C=C4)cc2)n(C)n1)c1ccccc1
REMARK SMILES IDX 13 1 12 2 11 3 9 4 10 5 8 7 6 8 7 9 86 10 84 11 85 12 4 13
REMARK SMILES IDX 3 14 5 16 2 17 1 18 87 19 88 20 92 21 89 22 91 23 90 24
REMARK SMILES IDX 14 25 15 26 16 27 17 29 18 30 19 31 83 32 20 33 82 34 21 35
REMARK SMILES IDX 22 36 23 37 76 38 24 39 81 40 75 41 77 42 25 43 80 44 74 45
REMARK SMILES IDX 73 46 26 48 60 49 39 50 59 51 40 52 43 53 58 54 78 55 41 56
REMARK SMILES IDX 42 57 57 59 79 60 44 61 27 62 28 63 37 64 29 65 30 66 36 67
REMARK SMILES IDX 38 68 31 69 32 70 33 71 34 72 35 73 61 74 62 75 71 76 63 77
REMARK SMILES IDX 64 78 70 79 72 80 65 81 66 82 67 83 68 84 69 85 45 86 46 87
REMARK SMILES IDX 55 88 47 89 48 90 54 91 56 92 49 93 50 94 51 95 52 96 53 97
REMARK H PARENT 11 6 3 15 15 28 77 47 43 58
REMARK Flexibility Score: inf
ROOT
ATOM      1  C   UNL A   1      34.232  29.247  27.419  1.00  0.00     0.042 C 
ENDROOT
BRANCH   1   2
ATOM      2  C   UNL A   1      33.285  29.619  26.277  1.00  0.00     0.118 C 
BRANCH   2   3
ATOM      3  N   UNL A   1      33.837  29.298  24.982  1.00  0.00    -0.351 N 
ATOM      4  C   UNL A   1      33.625  28.327  24.046  1.00  0.00     0.269 C 
ATOM      5  O   UNL A   1      34.150  28.603  22.958  1.00  0.00    -0.268 OA
ATOM      6  H   UNL A   1      34.535  29.934  24.707  1.00  0.00     0.163 HD
BRANCH   4   7
ATOM      7  C   UNL A   1      32.892  27.082  24.205  1.00  0.00     0.126 A 
ATOM      8  C   UNL A   1      32.246  25.194  25.259  1.00  0.00     0.151 A 
ATOM      9  C   UNL A   1      33.287  26.128  25.151  1.00  0.00     0.069 A 
ATOM     10  N   UNL A   1      31.363  25.385  24.274  1.00  0.00    -0.167 NA
ATOM     11  N   UNL A   1      31.705  26.570  23.728  1.00  0.00    -0.262 N 
ATOM     12  C   UNL A   1      30.691  27.128  22.871  1.00  0.00     0.174 C 
BRANCH   8  13
ATOM     13  C   UNL A   1      32.033  24.149  26.249  1.00  0.00     0.272 C 
ATOM     14  N   UNL A   1      32.705  22.957  26.136  1.00  0.00    -0.344 N 
ATOM     15  H   UNL A   1      32.854  22.513  27.003  1.00  0.00     0.164 HD
ATOM     16  O   UNL A   1      31.334  24.320  27.253  1.00  0.00    -0.267 OA
BRANCH  14  17
ATOM     17  C   UNL A   1      33.249  22.201  25.003  1.00  0.00     0.109 C 
ATOM     18  C   UNL A   1      32.552  20.835  24.938  1.00  0.00     0.036 C 
BRANCH  17  19
ATOM     19  C   UNL A   1      34.746  21.994  24.909  1.00  0.00    -0.026 A 
ATOM     20  C   UNL A   1      35.647  23.058  24.747  1.00  0.00     0.006 A 
ATOM     21  C   UNL A   1      35.269  20.694  25.052  1.00  0.00     0.006 A 
ATOM     22  C   UNL A   1      37.025  22.823  24.704  1.00  0.00     0.000 A 
ATOM     23  C   UNL A   1      36.644  20.462  25.003  1.00  0.00     0.000 A 
ATOM     24  C   UNL A   1      37.522  21.526  24.825  1.00  0.00     0.000 A 
ENDBRANCH  17  19
ENDBRANCH  14  17
ENDBRANCH   8  13
ENDBRANCH   4   7
ENDBRANCH   2   3
ENDBRANCH   1   2
BRANCH   1  25
ATOM     25  C   UNL A   1      35.324  30.279  27.695  1.00  0.00     0.118 C 
BRANCH  25  26
ATOM     26  N   UNL A   1      35.354  30.688  29.091  1.00  0.00    -0.352 N 
ATOM     27  C   UNL A   1      36.314  30.515  30.056  1.00  0.00     0.251 C 
ATOM     28  H   UNL A   1      34.550  31.168  29.394  1.00  0.00     0.163 HD
ATOM     29  O   UNL A   1      36.006  30.692  31.232  1.00  0.00    -0.269 OA
BRANCH  27  30
ATOM     30  C   UNL A   1      37.699  30.125  29.709  1.00  0.00     0.039 A 
ATOM     31  C   UNL A   1      38.577  29.769  30.741  1.00  0.00     0.014 A 
ATOM     32  C   UNL A   1      38.169  30.187  28.395  1.00  0.00     0.014 A 
ATOM     33  C   UNL A   1      39.900  29.425  30.448  1.00  0.00     0.010 A 
ATOM     34  C   UNL A   1      39.470  29.783  28.097  1.00  0.00     0.010 A 
ATOM     35  C   UNL A   1      40.350  29.400  29.120  1.00  0.00    -0.014 A 
BRANCH  35  36
ATOM     36  C   UNL A   1      41.729  28.964  28.773  1.00  0.00     0.031 A 
ATOM     37  C   UNL A   1      42.849  29.968  28.712  1.00  0.00     0.074 A 
ATOM     38  C   UNL A   1      41.952  27.679  28.435  1.00  0.00     0.049 A 
ATOM     39  N   UNL A   1      44.083  29.804  28.311  1.00  0.00    -0.248 NA
ATOM     40  C   UNL A   1      42.533  31.341  29.134  1.00  0.00     0.031 C 
ATOM     41  C   UNL A   1      40.942  26.620  28.425  1.00  0.00     0.029 A 
ATOM     42  N   UNL A   1      43.096  27.049  28.012  1.00  0.00    -0.354 N 
ATOM     43  C   UNL A   1      44.687  31.052  28.415  1.00  0.00     0.074 A 
ATOM     44  C   UNL A   1      43.670  31.972  28.880  1.00  0.00     0.031 C 
ATOM     45  C   UNL A   1      41.510  25.472  28.025  1.00  0.00     0.029 A 
ATOM     46  C   UNL A   1      42.913  25.721  27.706  1.00  0.00     0.049 A 
ATOM     47  H   UNL A   1      43.965  27.505  27.934  1.00  0.00     0.167 HD
ATOM     48  C   UNL A   1      45.973  31.395  28.161  1.00  0.00     0.037 A 
ATOM     49  C   UNL A   1      43.770  24.810  27.205  1.00  0.00     0.037 A 
ATOM     50  C   UNL A   1      46.984  30.466  27.723  1.00  0.00     0.049 A 
ATOM     51  C   UNL A   1      45.188  25.218  26.914  1.00  0.00     0.074 A 
ATOM     52  C   UNL A   1      48.329  30.703  27.497  1.00  0.00     0.029 A 
ATOM     53  N   UNL A   1      46.762  29.127  27.439  1.00  0.00    -0.354 N 
ATOM     54  N   UNL A   1      45.754  26.391  27.069  1.00  0.00    -0.248 NA
ATOM     55  C   UNL A   1      46.083  24.182  26.379  1.00  0.00     0.031 C 
ATOM     56  C   UNL A   1      48.911  29.517  27.036  1.00  0.00     0.029 A 
ATOM     57  C   UNL A   1      47.938  28.530  27.018  1.00  0.00     0.049 A 
ATOM     58  H   UNL A   1      45.894  28.667  27.526  1.00  0.00     0.167 HD
ATOM     59  C   UNL A   1      47.077  26.229  26.673  1.00  0.00     0.074 A 
ATOM     60  C   UNL A   1      47.229  24.842  26.281  1.00  0.00     0.031 C 
ATOM     61  C   UNL A   1      48.075  27.147  26.636  1.00  0.00     0.037 A 
BRANCH  48  62
ATOM     62  C   UNL A   1      46.364  32.834  28.350  1.00  0.00     0.058 A 
ATOM     63  C   UNL A   1      46.851  33.312  29.579  1.00  0.00     0.135 A 
ATOM     64  C   UNL A   1      46.291  33.742  27.281  1.00  0.00     0.135 A 
ATOM     65  F   UNL A   1      46.931  32.492  30.638  1.00  0.00    -0.206 F 
ATOM     66  C   UNL A   1      47.222  34.641  29.748  1.00  0.00     0.059 A 
ATOM     67  C   UNL A   1      46.683  35.071  27.419  1.00  0.00     0.059 A 
ATOM     68  F   UNL A   1      45.835  33.340  26.084  1.00  0.00    -0.206 F 
ATOM     69  C   UNL A   1      47.132  35.514  28.662  1.00  0.00     0.060 A 
BRANCH  69  70
ATOM     70  S   UNL A   1      47.617  37.238  28.899  1.00  0.00     0.124 S 
ATOM     71  O   UNL A   1      48.734  37.100  29.829  1.00  0.00    -0.237 OA
ATOM     72  O   UNL A   1      47.967  37.653  27.545  1.00  0.00    -0.237 OA
ATOM     73  O   UNL A   1      46.416  37.857  29.452  1.00  0.00    -0.744 OA
ENDBRANCH  69  70
ENDBRANCH  48  62
BRANCH  49  74
ATOM     74  C   UNL A   1      43.307  23.421  26.952  1.00  0.00     0.058 A 
ATOM     75  C   UNL A   1      43.116  22.953  25.644  1.00  0.00     0.135 A 
ATOM     76  C   UNL A   1      43.067  22.527  28.008  1.00  0.00     0.135 A 
ATOM     77  F   UNL A   1      43.325  23.772  24.603  1.00  0.00    -0.206 F 
ATOM     78  C   UNL A   1      42.695  21.651  25.390  1.00  0.00     0.059 A 
ATOM     79  C   UNL A   1      42.669  21.214  27.778  1.00  0.00     0.059 A 
ATOM     80  F   UNL A   1      43.252  22.921  29.278  1.00  0.00    -0.206 F 
ATOM     81  C   UNL A   1      42.477  20.788  26.465  1.00  0.00     0.060 A 
BRANCH  81  82
ATOM     82  S   UNL A   1      41.985  19.084  26.123  1.00  0.00     0.124 S 
ATOM     83  O   UNL A   1      42.896  18.728  25.043  1.00  0.00    -0.237 OA
ATOM     84  O   UNL A   1      42.229  18.432  27.406  1.00  0.00    -0.237 OA
ATOM     85  O   UNL A   1      40.579  19.210  25.751  1.00  0.00    -0.744 OA
ENDBRANCH  81  82
ENDBRANCH  49  74
BRANCH  61  86
ATOM     86  C   UNL A   1      49.429  26.681  26.180  1.00  0.00     0.058 A 
ATOM     87  C   UNL A   1      49.881  26.907  24.871  1.00  0.00     0.135 A 
ATOM     88  C   UNL A   1      50.310  26.064  27.082  1.00  0.00     0.135 A 
ATOM     89  F   UNL A   1      49.073  27.483  23.967  1.00  0.00    -0.206 F 
ATOM     90  C   UNL A   1      51.158  26.528  24.468  1.00  0.00     0.059 A 
ATOM     91  C   UNL A   1      51.600  25.700  26.709  1.00  0.00     0.059 A 
ATOM     92  F   UNL A   1      49.928  25.832  28.348  1.00  0.00    -0.206 F 
ATOM     93  C   UNL A   1      52.013  25.931  25.397  1.00  0.00     0.060 A 
BRANCH  93  94
ATOM     94  S   UNL A   1      53.685  25.495  24.878  1.00  0.00     0.124 S 
ATOM     95  O   UNL A   1      53.818  24.143  25.411  1.00  0.00    -0.237 OA
ATOM     96  O   UNL A   1      53.597  25.597  23.424  1.00  0.00    -0.237 OA
ATOM     97  O   UNL A   1      54.517  26.509  25.521  1.00  0.00    -0.744 OA
ENDBRANCH  93  94
ENDBRANCH  61  86
ENDBRANCH  35  36
ENDBRANCH  27  30
ENDBRANCH  25  26
ENDBRANCH   1  25
TORSDOF 16
ENDMDL
