MODEL 1
REMARK VINA RESULT:     -13.9      0.000      0.000
REMARK SMILES Cc1coc2cc3oc(=O)c(CC(=O)N[C@H](Cc4c[nH]c5ccc(O)cc45)C(=O)NCCCNC(=O)c4ccc(-c5c6nc(c(-c7c(F)cc(S(=O)(=O)[O-])cc7F)c7ccc([nH]7)c(-c7c(F)cc(S(=O)(=O)[O-])cc7F)c7nc(c(-c8c(F)cc(S(=O)(=O)[O-])cc8F)c8ccc5[nH]8)C=C7)C=C6)cc4)c(C)c3cc12
REMARK SMILES IDX 32 1 31 2 30 3 28 4 29 5 16 7 15 8 13 9 14 10 12 12 11 13
REMARK SMILES IDX 1 14 2 15 3 16 107 17 4 18 5 19 106 20 6 21 105 22 7 23
REMARK SMILES IDX 103 24 8 25 104 26 9 27 10 28 17 29 18 30 19 31 27 32 20 33
REMARK SMILES IDX 21 34 26 35 22 37 24 38 23 39 25 40 33 42 34 43 35 44 36 46
REMARK SMILES IDX 37 47 38 48 102 49 39 50 101 51 40 52 41 53 42 54 95 55
REMARK SMILES IDX 43 56 100 57 94 58 96 59 44 60 99 61 93 62 92 63 45 65 79 66
REMARK SMILES IDX 58 67 78 68 59 69 62 70 77 71 97 72 60 73 61 74 76 76 98 77
REMARK SMILES IDX 63 78 46 79 47 80 56 81 48 82 49 83 55 84 57 85 50 86 51 87
REMARK SMILES IDX 52 88 53 89 54 90 80 91 81 92 90 93 82 94 83 95 89 96 91 97
REMARK SMILES IDX 84 98 85 99 86 100 87 101 88 102 64 103 65 104 74 105 66 106
REMARK SMILES IDX 67 107 73 108 75 109 68 110 69 111 70 112 71 113 72 114
REMARK H PARENT 30 6 15 11 20 36 25 41 34 45 96 64 62 75
REMARK Flexibility Score: inf
ROOT
ATOM      1  C   UNL A   1      37.945  21.944  25.138  1.00  0.00     0.042 C 
ENDROOT
BRANCH   1   2
ATOM      2  C   UNL A   1      36.733  22.669  25.719  1.00  0.00     0.117 C 
BRANCH   2   3
ATOM      3  N   UNL A   1      35.921  21.734  26.475  1.00  0.00    -0.354 N 
ATOM      4  C   UNL A   1      34.569  21.607  26.492  1.00  0.00     0.242 C 
ATOM      5  O   UNL A   1      34.042  21.323  27.570  1.00  0.00    -0.273 OA
ATOM      6  H   UNL A   1      36.416  21.110  27.053  1.00  0.00     0.163 HD
BRANCH   4   7
ATOM      7  C   UNL A   1      33.708  21.842  25.241  1.00  0.00     0.175 C 
BRANCH   7   8
ATOM      8  N   UNL A   1      32.278  21.917  25.561  1.00  0.00    -0.344 N 
ATOM      9  C   UNL A   1      31.387  22.930  25.389  1.00  0.00     0.225 C 
ATOM     10  O   UNL A   1      30.243  22.771  25.825  1.00  0.00    -0.275 OA
ATOM     11  H   UNL A   1      31.904  21.102  25.966  1.00  0.00     0.164 HD
BRANCH   9  12
ATOM     12  C   UNL A   1      31.753  24.212  24.643  1.00  0.00     0.143 C 
BRANCH  12  13
ATOM     13  C   UNL A   1      31.915  25.432  25.524  1.00  0.00     0.051 A 
ATOM     14  C   UNL A   1      36.766  30.158  27.446  1.00  0.00     0.048 C 
ATOM     15  C   UNL A   1      35.292  30.316  27.425  1.00  0.00    -0.005 A 
ATOM     16  C   UNL A   1      34.581  31.484  27.620  1.00  0.00     0.199 A 
ATOM     17  C   UNL A   1      34.311  29.305  27.184  1.00  0.00     0.024 A 
ATOM     18  O   UNL A   1      33.246  31.261  27.545  1.00  0.00    -0.464 OA
ATOM     19  C   UNL A   1      33.079  29.940  27.276  1.00  0.00     0.137 A 
ATOM     20  C   UNL A   1      34.336  27.927  26.867  1.00  0.00     0.024 A 
ATOM     21  C   UNL A   1      31.860  29.304  27.098  1.00  0.00     0.095 A 
ATOM     22  C   UNL A   1      33.128  27.247  26.606  1.00  0.00     0.022 A 
ATOM     23  C   UNL A   1      31.931  27.952  26.748  1.00  0.00     0.142 A 
ATOM     24  C   UNL A   1      33.085  25.881  26.034  1.00  0.00    -0.029 A 
ATOM     25  O   UNL A   1      30.696  27.343  26.471  1.00  0.00    -0.422 OA
ATOM     26  C   UNL A   1      34.384  25.123  25.933  1.00  0.00     0.046 C 
ATOM     27  C   UNL A   1      30.633  26.150  25.783  1.00  0.00     0.340 A 
ATOM     28  O   UNL A   1      29.552  25.684  25.435  1.00  0.00    -0.246 OA
ENDBRANCH  12  13
ENDBRANCH   9  12
ENDBRANCH   7   8
BRANCH   7  29
ATOM     29  C   UNL A   1      34.139  20.878  24.114  1.00  0.00     0.072 C 
BRANCH  29  30
ATOM     30  C   UNL A   1      33.443  19.554  24.011  1.00  0.00    -0.020 A 
ATOM     31  C   UNL A   1      32.260  19.296  23.338  1.00  0.00     0.087 A 
ATOM     32  C   UNL A   1      33.934  18.283  24.470  1.00  0.00     0.006 A 
ATOM     33  N   UNL A   1      31.971  17.964  23.453  1.00  0.00    -0.361 N 
ATOM     34  C   UNL A   1      32.978  17.327  24.132  1.00  0.00     0.046 A 
ATOM     35  C   UNL A   1      35.112  17.839  25.110  1.00  0.00     0.056 A 
ATOM     36  H   UNL A   1      31.161  17.529  23.101  1.00  0.00     0.166 HD
ATOM     37  C   UNL A   1      33.116  15.969  24.426  1.00  0.00     0.030 A 
ATOM     38  C   UNL A   1      35.278  16.472  25.360  1.00  0.00     0.116 A 
ATOM     39  C   UNL A   1      34.295  15.546  25.037  1.00  0.00     0.048 A 
BRANCH  38  40
ATOM     40  O   UNL A   1      36.455  16.064  25.921  1.00  0.00    -0.508 OA
ATOM     41  H   UNL A   1      37.253  16.125  25.433  1.00  0.00     0.293 HD
ENDBRANCH  38  40
ENDBRANCH  29  30
ENDBRANCH   7  29
ENDBRANCH   4   7
ENDBRANCH   2   3
ENDBRANCH   1   2
BRANCH   1  42
ATOM     42  C   UNL A   1      39.031  21.628  26.174  1.00  0.00     0.118 C 
BRANCH  42  43
ATOM     43  N   UNL A   1      40.388  21.777  25.686  1.00  0.00    -0.352 N 
ATOM     44  C   UNL A   1      41.400  22.661  25.953  1.00  0.00     0.251 C 
ATOM     45  H   UNL A   1      40.636  21.096  25.020  1.00  0.00     0.163 HD
ATOM     46  O   UNL A   1      42.505  22.377  25.482  1.00  0.00    -0.269 OA
BRANCH  44  47
ATOM     47  C   UNL A   1      41.235  23.941  26.697  1.00  0.00     0.039 A 
ATOM     48  C   UNL A   1      40.299  24.928  26.396  1.00  0.00     0.014 A 
ATOM     49  C   UNL A   1      42.151  24.187  27.740  1.00  0.00     0.014 A 
ATOM     50  C   UNL A   1      40.355  26.166  27.018  1.00  0.00     0.010 A 
ATOM     51  C   UNL A   1      42.182  25.415  28.400  1.00  0.00     0.010 A 
ATOM     52  C   UNL A   1      41.313  26.422  28.002  1.00  0.00    -0.014 A 
BRANCH  52  53
ATOM     53  C   UNL A   1      41.265  27.739  28.630  1.00  0.00     0.031 A 
ATOM     54  C   UNL A   1      42.373  28.657  28.238  1.00  0.00     0.074 A 
ATOM     55  C   UNL A   1      40.306  28.155  29.479  1.00  0.00     0.049 A 
ATOM     56  N   UNL A   1      43.348  29.090  28.971  1.00  0.00    -0.248 NA
ATOM     57  C   UNL A   1      42.478  29.026  26.821  1.00  0.00     0.031 C 
ATOM     58  C   UNL A   1      39.026  27.520  29.796  1.00  0.00     0.029 A 
ATOM     59  N   UNL A   1      40.267  29.310  30.202  1.00  0.00    -0.354 N 
ATOM     60  C   UNL A   1      44.091  29.944  28.159  1.00  0.00     0.074 A 
ATOM     61  C   UNL A   1      43.595  29.755  26.821  1.00  0.00     0.031 C 
ATOM     62  C   UNL A   1      38.254  28.394  30.481  1.00  0.00     0.029 A 
ATOM     63  C   UNL A   1      39.035  29.585  30.777  1.00  0.00     0.049 A 
ATOM     64  H   UNL A   1      41.047  29.901  30.306  1.00  0.00     0.167 HD
ATOM     65  C   UNL A   1      44.936  30.877  28.681  1.00  0.00     0.037 A 
ATOM     66  C   UNL A   1      38.675  30.730  31.409  1.00  0.00     0.037 A 
ATOM     67  C   UNL A   1      45.281  30.564  30.045  1.00  0.00     0.049 A 
ATOM     68  C   UNL A   1      39.926  31.379  31.881  1.00  0.00     0.074 A 
ATOM     69  C   UNL A   1      45.927  29.516  30.672  1.00  0.00     0.029 A 
ATOM     70  N   UNL A   1      44.655  31.264  31.046  1.00  0.00    -0.354 N 
ATOM     71  N   UNL A   1      40.700  30.887  32.809  1.00  0.00    -0.248 NA
ATOM     72  C   UNL A   1      40.536  32.392  31.034  1.00  0.00     0.031 C 
ATOM     73  C   UNL A   1      45.269  29.370  31.928  1.00  0.00     0.029 A 
ATOM     74  C   UNL A   1      44.286  30.358  32.006  1.00  0.00     0.049 A 
ATOM     75  H   UNL A   1      44.499  32.236  31.069  1.00  0.00     0.167 HD
ATOM     76  C   UNL A   1      41.988  31.211  32.408  1.00  0.00     0.074 A 
ATOM     77  C   UNL A   1      41.817  32.223  31.371  1.00  0.00     0.031 C 
ATOM     78  C   UNL A   1      43.058  30.440  32.766  1.00  0.00     0.037 A 
BRANCH  65  79
ATOM     79  C   UNL A   1      45.177  32.248  28.083  1.00  0.00     0.058 A 
ATOM     80  C   UNL A   1      46.431  32.538  27.503  1.00  0.00     0.135 A 
ATOM     81  C   UNL A   1      44.350  33.370  28.319  1.00  0.00     0.135 A 
ATOM     82  F   UNL A   1      47.299  31.554  27.216  1.00  0.00    -0.206 F 
ATOM     83  C   UNL A   1      46.873  33.844  27.281  1.00  0.00     0.059 A 
ATOM     84  C   UNL A   1      44.750  34.675  28.056  1.00  0.00     0.059 A 
ATOM     85  F   UNL A   1      43.152  33.268  28.905  1.00  0.00    -0.206 F 
ATOM     86  C   UNL A   1      46.032  34.908  27.589  1.00  0.00     0.060 A 
BRANCH  86  87
ATOM     87  S   UNL A   1      46.651  36.593  27.454  1.00  0.00     0.124 S 
ATOM     88  O   UNL A   1      46.967  36.670  26.033  1.00  0.00    -0.237 OA
ATOM     89  O   UNL A   1      45.501  37.374  27.898  1.00  0.00    -0.237 OA
ATOM     90  O   UNL A   1      47.796  36.604  28.359  1.00  0.00    -0.744 OA
ENDBRANCH  86  87
ENDBRANCH  65  79
BRANCH  66  91
ATOM     91  C   UNL A   1      37.375  31.450  31.333  1.00  0.00     0.058 A 
ATOM     92  C   UNL A   1      36.455  31.401  32.397  1.00  0.00     0.135 A 
ATOM     93  C   UNL A   1      37.132  32.430  30.350  1.00  0.00     0.135 A 
ATOM     94  F   UNL A   1      36.615  30.510  33.388  1.00  0.00    -0.206 F 
ATOM     95  C   UNL A   1      35.397  32.310  32.513  1.00  0.00     0.059 A 
ATOM     96  C   UNL A   1      36.079  33.338  30.437  1.00  0.00     0.059 A 
ATOM     97  F   UNL A   1      37.970  32.600  29.316  1.00  0.00    -0.206 F 
ATOM     98  C   UNL A   1      35.233  33.292  31.538  1.00  0.00     0.060 A 
BRANCH  98  99
ATOM     99  S   UNL A   1      33.987  34.580  31.777  1.00  0.00     0.124 S 
ATOM    100  O   UNL A   1      33.417  34.702  30.440  1.00  0.00    -0.237 OA
ATOM    101  O   UNL A   1      33.121  33.986  32.789  1.00  0.00    -0.237 OA
ATOM    102  O   UNL A   1      34.769  35.730  32.227  1.00  0.00    -0.744 OA
ENDBRANCH  98  99
ENDBRANCH  66  91
BRANCH  78 103
ATOM    103  C   UNL A   1      42.876  29.430  33.870  1.00  0.00     0.058 A 
ATOM    104  C   UNL A   1      42.327  28.148  33.693  1.00  0.00     0.135 A 
ATOM    105  C   UNL A   1      43.423  29.721  35.130  1.00  0.00     0.135 A 
ATOM    106  F   UNL A   1      41.881  27.748  32.495  1.00  0.00    -0.206 F 
ATOM    107  C   UNL A   1      42.281  27.216  34.735  1.00  0.00     0.059 A 
ATOM    108  C   UNL A   1      43.416  28.798  36.173  1.00  0.00     0.059 A 
ATOM    109  F   UNL A   1      44.023  30.904  35.345  1.00  0.00    -0.206 F 
ATOM    110  C   UNL A   1      42.824  27.552  35.975  1.00  0.00     0.060 A 
BRANCH 110 111
ATOM    111  S   UNL A   1      42.815  26.342  37.318  1.00  0.00     0.124 S 
ATOM    112  O   UNL A   1      41.403  26.317  37.697  1.00  0.00    -0.237 OA
ATOM    113  O   UNL A   1      43.303  25.125  36.667  1.00  0.00    -0.237 OA
ATOM    114  O   UNL A   1      43.721  26.916  38.299  1.00  0.00    -0.744 OA
ENDBRANCH 110 111
ENDBRANCH  78 103
ENDBRANCH  52  53
ENDBRANCH  44  47
ENDBRANCH  42  43
ENDBRANCH   1  42
TORSDOF 19
ENDMDL
MODEL 2
REMARK VINA RESULT:     -13.7      3.059     10.225
REMARK SMILES Cc1coc2cc3oc(=O)c(CC(=O)N[C@H](Cc4c[nH]c5ccc(O)cc45)C(=O)NCCCNC(=O)c4ccc(-c5c6nc(c(-c7c(F)cc(S(=O)(=O)[O-])cc7F)c7ccc([nH]7)c(-c7c(F)cc(S(=O)(=O)[O-])cc7F)c7nc(c(-c8c(F)cc(S(=O)(=O)[O-])cc8F)c8ccc5[nH]8)C=C7)C=C6)cc4)c(C)c3cc12
REMARK SMILES IDX 32 1 31 2 30 3 28 4 29 5 16 7 15 8 13 9 14 10 12 12 11 13
REMARK SMILES IDX 1 14 2 15 3 16 107 17 4 18 5 19 106 20 6 21 105 22 7 23
REMARK SMILES IDX 103 24 8 25 104 26 9 27 10 28 17 29 18 30 19 31 27 32 20 33
REMARK SMILES IDX 21 34 26 35 22 37 24 38 23 39 25 40 33 42 34 43 35 44 36 46
REMARK SMILES IDX 37 47 38 48 102 49 39 50 101 51 40 52 41 53 42 54 95 55
REMARK SMILES IDX 43 56 100 57 94 58 96 59 44 60 99 61 93 62 92 63 45 65 79 66
REMARK SMILES IDX 58 67 78 68 59 69 62 70 77 71 97 72 60 73 61 74 76 76 98 77
REMARK SMILES IDX 63 78 46 79 47 80 56 81 48 82 49 83 55 84 57 85 50 86 51 87
REMARK SMILES IDX 52 88 53 89 54 90 80 91 81 92 90 93 82 94 83 95 89 96 91 97
REMARK SMILES IDX 84 98 85 99 86 100 87 101 88 102 64 103 65 104 74 105 66 106
REMARK SMILES IDX 67 107 73 108 75 109 68 110 69 111 70 112 71 113 72 114
REMARK H PARENT 30 6 15 11 20 36 25 41 34 45 96 64 62 75
REMARK Flexibility Score: inf
ROOT
ATOM      1  C   UNL A   1      34.110  30.010  27.065  1.00  0.00     0.042 C 
ENDROOT
BRANCH   1   2
ATOM      2  C   UNL A   1      33.060  29.377  26.155  1.00  0.00     0.117 C 
BRANCH   2   3
ATOM      3  N   UNL A   1      32.383  28.306  26.862  1.00  0.00    -0.354 N 
ATOM      4  C   UNL A   1      31.720  27.237  26.348  1.00  0.00     0.242 C 
ATOM      5  O   UNL A   1      30.707  26.862  26.944  1.00  0.00    -0.273 OA
ATOM      6  H   UNL A   1      32.407  28.361  27.844  1.00  0.00     0.163 HD
BRANCH   4   7
ATOM      7  C   UNL A   1      32.170  26.536  25.058  1.00  0.00     0.175 C 
BRANCH   7   8
ATOM      8  N   UNL A   1      33.581  26.137  25.109  1.00  0.00    -0.344 N 
ATOM      9  C   UNL A   1      34.165  25.019  25.617  1.00  0.00     0.225 C 
ATOM     10  O   UNL A   1      35.398  24.960  25.614  1.00  0.00    -0.275 OA
ATOM     11  H   UNL A   1      34.207  26.785  24.711  1.00  0.00     0.164 HD
BRANCH   9  12
ATOM     12  C   UNL A   1      33.342  23.842  26.139  1.00  0.00     0.143 C 
BRANCH  12  13
ATOM     13  C   UNL A   1      33.390  22.603  25.272  1.00  0.00     0.051 A 
ATOM     14  C   UNL A   1      35.701  15.954  25.391  1.00  0.00     0.048 C 
ATOM     15  C   UNL A   1      34.587  16.522  24.594  1.00  0.00    -0.005 A 
ATOM     16  C   UNL A   1      33.668  15.821  23.838  1.00  0.00     0.199 A 
ATOM     17  C   UNL A   1      34.226  17.899  24.459  1.00  0.00     0.024 A 
ATOM     18  O   UNL A   1      32.794  16.660  23.230  1.00  0.00    -0.464 OA
ATOM     19  C   UNL A   1      33.128  17.922  23.608  1.00  0.00     0.137 A 
ATOM     20  C   UNL A   1      34.693  19.123  24.988  1.00  0.00     0.024 A 
ATOM     21  C   UNL A   1      32.465  19.078  23.224  1.00  0.00     0.095 A 
ATOM     22  C   UNL A   1      34.013  20.321  24.688  1.00  0.00     0.022 A 
ATOM     23  C   UNL A   1      32.935  20.262  23.802  1.00  0.00     0.142 A 
ATOM     24  C   UNL A   1      34.285  21.596  25.390  1.00  0.00    -0.029 A 
ATOM     25  O   UNL A   1      32.195  21.412  23.486  1.00  0.00    -0.422 OA
ATOM     26  C   UNL A   1      35.482  21.649  26.306  1.00  0.00     0.046 C 
ATOM     27  C   UNL A   1      32.311  22.560  24.242  1.00  0.00     0.340 A 
ATOM     28  O   UNL A   1      31.574  23.520  24.040  1.00  0.00    -0.246 OA
ENDBRANCH  12  13
ENDBRANCH   9  12
ENDBRANCH   7   8
BRANCH   7  29
ATOM     29  C   UNL A   1      31.699  27.342  23.826  1.00  0.00     0.072 C 
BRANCH  29  30
ATOM     30  C   UNL A   1      30.225  27.506  23.611  1.00  0.00    -0.020 A 
ATOM     31  C   UNL A   1      29.238  26.594  23.948  1.00  0.00     0.087 A 
ATOM     32  C   UNL A   1      29.546  28.685  23.147  1.00  0.00     0.006 A 
ATOM     33  N   UNL A   1      28.020  27.124  23.621  1.00  0.00    -0.361 N 
ATOM     34  C   UNL A   1      28.183  28.398  23.138  1.00  0.00     0.046 A 
ATOM     35  C   UNL A   1      29.949  29.984  22.765  1.00  0.00     0.056 A 
ATOM     36  H   UNL A   1      27.157  26.661  23.717  1.00  0.00     0.166 HD
ATOM     37  C   UNL A   1      27.209  29.316  22.737  1.00  0.00     0.030 A 
ATOM     38  C   UNL A   1      28.972  30.923  22.413  1.00  0.00     0.116 A 
ATOM     39  C   UNL A   1      27.623  30.599  22.386  1.00  0.00     0.048 A 
BRANCH  38  40
ATOM     40  O   UNL A   1      29.386  32.190  22.110  1.00  0.00    -0.508 OA
ATOM     41  H   UNL A   1      28.776  32.901  22.133  1.00  0.00     0.293 HD
ENDBRANCH  38  40
ENDBRANCH  29  30
ENDBRANCH   7  29
ENDBRANCH   4   7
ENDBRANCH   2   3
ENDBRANCH   1   2
BRANCH   1  42
ATOM     42  C   UNL A   1      33.896  31.510  27.305  1.00  0.00     0.118 C 
BRANCH  42  43
ATOM     43  N   UNL A   1      33.937  31.908  28.698  1.00  0.00    -0.352 N 
ATOM     44  C   UNL A   1      34.911  31.888  29.661  1.00  0.00     0.251 C 
ATOM     45  H   UNL A   1      33.082  32.271  29.022  1.00  0.00     0.163 HD
ATOM     46  O   UNL A   1      34.648  32.483  30.709  1.00  0.00    -0.269 OA
BRANCH  44  47
ATOM     47  C   UNL A   1      36.202  31.153  29.548  1.00  0.00     0.039 A 
ATOM     48  C   UNL A   1      36.346  29.769  29.615  1.00  0.00     0.014 A 
ATOM     49  C   UNL A   1      37.367  31.939  29.435  1.00  0.00     0.014 A 
ATOM     50  C   UNL A   1      37.605  29.194  29.699  1.00  0.00     0.010 A 
ATOM     51  C   UNL A   1      38.635  31.362  29.474  1.00  0.00     0.010 A 
ATOM     52  C   UNL A   1      38.752  29.990  29.656  1.00  0.00    -0.014 A 
BRANCH  52  53
ATOM     53  C   UNL A   1      40.032  29.290  29.708  1.00  0.00     0.031 A 
ATOM     54  C   UNL A   1      40.547  29.034  31.084  1.00  0.00     0.074 A 
ATOM     55  C   UNL A   1      40.721  28.862  28.634  1.00  0.00     0.049 A 
ATOM     56  N   UNL A   1      41.579  29.560  31.660  1.00  0.00    -0.248 NA
ATOM     57  C   UNL A   1      39.730  28.192  31.967  1.00  0.00     0.031 C 
ATOM     58  C   UNL A   1      40.288  28.789  27.238  1.00  0.00     0.029 A 
ATOM     59  N   UNL A   1      41.974  28.326  28.599  1.00  0.00    -0.354 N 
ATOM     60  C   UNL A   1      41.659  28.971  32.921  1.00  0.00     0.074 A 
ATOM     61  C   UNL A   1      40.425  28.252  33.104  1.00  0.00     0.031 C 
ATOM     62  C   UNL A   1      41.180  28.054  26.534  1.00  0.00     0.029 A 
ATOM     63  C   UNL A   1      42.311  27.734  27.390  1.00  0.00     0.049 A 
ATOM     64  H   UNL A   1      42.589  28.356  29.367  1.00  0.00     0.167 HD
ATOM     65  C   UNL A   1      42.815  28.972  33.643  1.00  0.00     0.037 A 
ATOM     66  C   UNL A   1      43.419  26.997  27.132  1.00  0.00     0.037 A 
ATOM     67  C   UNL A   1      43.723  29.988  33.172  1.00  0.00     0.049 A 
ATOM     68  C   UNL A   1      44.449  27.395  28.126  1.00  0.00     0.074 A 
ATOM     69  C   UNL A   1      43.685  31.367  33.085  1.00  0.00     0.029 A 
ATOM     70  N   UNL A   1      44.776  29.597  32.383  1.00  0.00    -0.354 N 
ATOM     71  N   UNL A   1      45.011  28.572  28.166  1.00  0.00    -0.248 NA
ATOM     72  C   UNL A   1      44.573  26.605  29.342  1.00  0.00     0.031 C 
ATOM     73  C   UNL A   1      44.399  31.684  31.893  1.00  0.00     0.029 A 
ATOM     74  C   UNL A   1      44.856  30.486  31.343  1.00  0.00     0.049 A 
ATOM     75  H   UNL A   1      45.363  28.821  32.535  1.00  0.00     0.167 HD
ATOM     76  C   UNL A   1      45.190  28.837  29.515  1.00  0.00     0.074 A 
ATOM     77  C   UNL A   1      45.000  27.552  30.181  1.00  0.00     0.031 C 
ATOM     78  C   UNL A   1      45.214  30.118  29.991  1.00  0.00     0.037 A 
BRANCH  65  79
ATOM     79  C   UNL A   1      43.268  27.840  34.542  1.00  0.00     0.058 A 
ATOM     80  C   UNL A   1      43.531  28.102  35.904  1.00  0.00     0.135 A 
ATOM     81  C   UNL A   1      43.736  26.594  34.068  1.00  0.00     0.135 A 
ATOM     82  F   UNL A   1      43.121  29.247  36.474  1.00  0.00    -0.206 F 
ATOM     83  C   UNL A   1      44.297  27.247  36.700  1.00  0.00     0.059 A 
ATOM     84  C   UNL A   1      44.456  25.704  34.858  1.00  0.00     0.059 A 
ATOM     85  F   UNL A   1      43.607  26.216  32.791  1.00  0.00    -0.206 F 
ATOM     86  C   UNL A   1      44.779  26.062  36.155  1.00  0.00     0.060 A 
BRANCH  86  87
ATOM     87  S   UNL A   1      45.895  25.033  37.124  1.00  0.00     0.124 S 
ATOM     88  O   UNL A   1      45.187  23.759  37.121  1.00  0.00    -0.237 OA
ATOM     89  O   UNL A   1      47.119  25.088  36.332  1.00  0.00    -0.237 OA
ATOM     90  O   UNL A   1      45.955  25.722  38.410  1.00  0.00    -0.744 OA
ENDBRANCH  86  87
ENDBRANCH  65  79
BRANCH  66  91
ATOM     91  C   UNL A   1      43.526  25.757  26.316  1.00  0.00     0.058 A 
ATOM     92  C   UNL A   1      44.580  25.580  25.399  1.00  0.00     0.135 A 
ATOM     93  C   UNL A   1      42.775  24.605  26.623  1.00  0.00     0.135 A 
ATOM     94  F   UNL A   1      45.361  26.617  25.059  1.00  0.00    -0.206 F 
ATOM     95  C   UNL A   1      44.908  24.326  24.871  1.00  0.00     0.059 A 
ATOM     96  C   UNL A   1      43.074  23.349  26.100  1.00  0.00     0.059 A 
ATOM     97  F   UNL A   1      41.778  24.645  27.521  1.00  0.00    -0.206 F 
ATOM     98  C   UNL A   1      44.163  23.211  25.248  1.00  0.00     0.060 A 
BRANCH  98  99
ATOM     99  S   UNL A   1      44.694  21.566  24.717  1.00  0.00     0.124 S 
ATOM    100  O   UNL A   1      43.687  20.709  25.332  1.00  0.00    -0.237 OA
ATOM    101  O   UNL A   1      44.637  21.680  23.264  1.00  0.00    -0.237 OA
ATOM    102  O   UNL A   1      46.039  21.447  25.277  1.00  0.00    -0.744 OA
ENDBRANCH  98  99
ENDBRANCH  66  91
BRANCH  78 103
ATOM    103  C   UNL A   1      45.379  31.245  29.004  1.00  0.00     0.058 A 
ATOM    104  C   UNL A   1      46.618  31.768  28.593  1.00  0.00     0.135 A 
ATOM    105  C   UNL A   1      44.237  31.710  28.333  1.00  0.00     0.135 A 
ATOM    106  F   UNL A   1      47.766  31.303  29.104  1.00  0.00    -0.206 F 
ATOM    107  C   UNL A   1      46.711  32.743  27.595  1.00  0.00     0.059 A 
ATOM    108  C   UNL A   1      44.308  32.658  27.315  1.00  0.00     0.059 A 
ATOM    109  F   UNL A   1      43.029  31.202  28.631  1.00  0.00    -0.206 F 
ATOM    110  C   UNL A   1      45.549  33.187  26.964  1.00  0.00     0.060 A 
BRANCH 110 111
ATOM    111  S   UNL A   1      45.658  34.413  25.639  1.00  0.00     0.124 S 
ATOM    112  O   UNL A   1      44.725  33.875  24.650  1.00  0.00    -0.237 OA
ATOM    113  O   UNL A   1      45.222  35.646  26.296  1.00  0.00    -0.237 OA
ATOM    114  O   UNL A   1      47.061  34.383  25.263  1.00  0.00    -0.744 OA
ENDBRANCH 110 111
ENDBRANCH  78 103
ENDBRANCH  52  53
ENDBRANCH  44  47
ENDBRANCH  42  43
ENDBRANCH   1  42
TORSDOF 19
ENDMDL
MODEL 3
REMARK VINA RESULT:     -13.6      1.657      3.456
REMARK SMILES Cc1coc2cc3oc(=O)c(CC(=O)N[C@H](Cc4c[nH]c5ccc(O)cc45)C(=O)NCCCNC(=O)c4ccc(-c5c6nc(c(-c7c(F)cc(S(=O)(=O)[O-])cc7F)c7ccc([nH]7)c(-c7c(F)cc(S(=O)(=O)[O-])cc7F)c7nc(c(-c8c(F)cc(S(=O)(=O)[O-])cc8F)c8ccc5[nH]8)C=C7)C=C6)cc4)c(C)c3cc12
REMARK SMILES IDX 32 1 31 2 30 3 28 4 29 5 16 7 15 8 13 9 14 10 12 12 11 13
REMARK SMILES IDX 1 14 2 15 3 16 107 17 4 18 5 19 106 20 6 21 105 22 7 23
REMARK SMILES IDX 103 24 8 25 104 26 9 27 10 28 17 29 18 30 19 31 27 32 20 33
REMARK SMILES IDX 21 34 26 35 22 37 24 38 23 39 25 40 33 42 34 43 35 44 36 46
REMARK SMILES IDX 37 47 38 48 102 49 39 50 101 51 40 52 41 53 42 54 95 55
REMARK SMILES IDX 43 56 100 57 94 58 96 59 44 60 99 61 93 62 92 63 45 65 79 66
REMARK SMILES IDX 58 67 78 68 59 69 62 70 77 71 97 72 60 73 61 74 76 76 98 77
REMARK SMILES IDX 63 78 46 79 47 80 56 81 48 82 49 83 55 84 57 85 50 86 51 87
REMARK SMILES IDX 52 88 53 89 54 90 80 91 81 92 90 93 82 94 83 95 89 96 91 97
REMARK SMILES IDX 84 98 85 99 86 100 87 101 88 102 64 103 65 104 74 105 66 106
REMARK SMILES IDX 67 107 73 108 75 109 68 110 69 111 70 112 71 113 72 114
REMARK H PARENT 30 6 15 11 20 36 25 41 34 45 96 64 62 75
REMARK Flexibility Score: inf
ROOT
ATOM      1  C   UNL A   1      38.560  23.532  26.449  1.00  0.00     0.042 C 
ENDROOT
BRANCH   1   2
ATOM      2  C   UNL A   1      37.490  23.634  25.364  1.00  0.00     0.117 C 
BRANCH   2   3
ATOM      3  N   UNL A   1      37.357  22.357  24.688  1.00  0.00    -0.354 N 
ATOM      4  C   UNL A   1      36.247  21.587  24.542  1.00  0.00     0.242 C 
ATOM      5  O   UNL A   1      36.399  20.364  24.591  1.00  0.00    -0.273 OA
ATOM      6  H   UNL A   1      38.180  22.002  24.282  1.00  0.00     0.163 HD
BRANCH   4   7
ATOM      7  C   UNL A   1      34.847  22.193  24.365  1.00  0.00     0.175 C 
BRANCH   7   8
ATOM      8  N   UNL A   1      33.837  21.171  24.068  1.00  0.00    -0.344 N 
ATOM      9  C   UNL A   1      32.915  20.580  24.875  1.00  0.00     0.225 C 
ATOM     10  O   UNL A   1      32.227  19.673  24.396  1.00  0.00    -0.275 OA
ATOM     11  H   UNL A   1      33.824  20.864  23.133  1.00  0.00     0.164 HD
BRANCH   9  12
ATOM     12  C   UNL A   1      32.690  21.035  26.316  1.00  0.00     0.143 C 
BRANCH  12  13
ATOM     13  C   UNL A   1      32.189  22.456  26.459  1.00  0.00     0.051 A 
ATOM     14  C   UNL A   1      34.525  29.096  26.330  1.00  0.00     0.048 C 
ATOM     15  C   UNL A   1      33.162  28.599  26.028  1.00  0.00    -0.005 A 
ATOM     16  C   UNL A   1      32.115  29.325  25.496  1.00  0.00     0.199 A 
ATOM     17  C   UNL A   1      32.657  27.273  26.208  1.00  0.00     0.024 A 
ATOM     18  O   UNL A   1      31.005  28.558  25.363  1.00  0.00    -0.464 OA
ATOM     19  C   UNL A   1      31.333  27.310  25.790  1.00  0.00     0.137 A 
ATOM     20  C   UNL A   1      33.189  26.041  26.650  1.00  0.00     0.024 A 
ATOM     21  C   UNL A   1      30.484  26.215  25.797  1.00  0.00     0.095 A 
ATOM     22  C   UNL A   1      32.391  24.879  26.611  1.00  0.00     0.022 A 
ATOM     23  C   UNL A   1      31.061  25.008  26.205  1.00  0.00     0.142 A 
ATOM     24  C   UNL A   1      32.941  23.520  26.821  1.00  0.00    -0.029 A 
ATOM     25  O   UNL A   1      30.222  23.886  26.113  1.00  0.00    -0.422 OA
ATOM     26  C   UNL A   1      34.365  23.409  27.305  1.00  0.00     0.046 C 
ATOM     27  C   UNL A   1      30.741  22.608  26.134  1.00  0.00     0.340 A 
ATOM     28  O   UNL A   1      30.021  21.636  25.929  1.00  0.00    -0.246 OA
ENDBRANCH  12  13
ENDBRANCH   9  12
ENDBRANCH   7   8
BRANCH   7  29
ATOM     29  C   UNL A   1      34.917  23.422  23.431  1.00  0.00     0.072 C 
BRANCH  29  30
ATOM     30  C   UNL A   1      33.630  24.068  23.015  1.00  0.00    -0.020 A 
ATOM     31  C   UNL A   1      32.396  23.448  22.907  1.00  0.00     0.087 A 
ATOM     32  C   UNL A   1      33.402  25.468  22.783  1.00  0.00     0.006 A 
ATOM     33  N   UNL A   1      31.468  24.380  22.531  1.00  0.00    -0.361 N 
ATOM     34  C   UNL A   1      32.056  25.617  22.456  1.00  0.00     0.046 A 
ATOM     35  C   UNL A   1      34.197  26.634  22.852  1.00  0.00     0.056 A 
ATOM     36  H   UNL A   1      30.520  24.191  22.343  1.00  0.00     0.166 HD
ATOM     37  C   UNL A   1      31.472  26.851  22.161  1.00  0.00     0.030 A 
ATOM     38  C   UNL A   1      33.603  27.878  22.608  1.00  0.00     0.116 A 
ATOM     39  C   UNL A   1      32.265  27.992  22.257  1.00  0.00     0.048 A 
BRANCH  38  40
ATOM     40  O   UNL A   1      34.381  28.994  22.746  1.00  0.00    -0.508 OA
ATOM     41  H   UNL A   1      35.035  29.029  23.415  1.00  0.00     0.293 HD
ENDBRANCH  38  40
ENDBRANCH  29  30
ENDBRANCH   7  29
ENDBRANCH   4   7
ENDBRANCH   2   3
ENDBRANCH   1   2
BRANCH   1  42
ATOM     42  C   UNL A   1      39.322  22.201  26.442  1.00  0.00     0.118 C 
BRANCH  42  43
ATOM     43  N   UNL A   1      40.595  22.241  25.749  1.00  0.00    -0.352 N 
ATOM     44  C   UNL A   1      41.680  23.075  25.807  1.00  0.00     0.251 C 
ATOM     45  H   UNL A   1      40.702  21.511  25.097  1.00  0.00     0.163 HD
ATOM     46  O   UNL A   1      42.683  22.700  25.195  1.00  0.00    -0.269 OA
BRANCH  44  47
ATOM     47  C   UNL A   1      41.697  24.401  26.486  1.00  0.00     0.039 A 
ATOM     48  C   UNL A   1      42.033  24.614  27.821  1.00  0.00     0.014 A 
ATOM     49  C   UNL A   1      41.268  25.505  25.722  1.00  0.00     0.014 A 
ATOM     50  C   UNL A   1      41.827  25.851  28.411  1.00  0.00     0.010 A 
ATOM     51  C   UNL A   1      41.102  26.763  26.300  1.00  0.00     0.010 A 
ATOM     52  C   UNL A   1      41.336  26.922  27.660  1.00  0.00    -0.014 A 
BRANCH  52  53
ATOM     53  C   UNL A   1      41.194  28.196  28.359  1.00  0.00     0.031 A 
ATOM     54  C   UNL A   1      42.327  29.145  28.159  1.00  0.00     0.074 A 
ATOM     55  C   UNL A   1      40.136  28.549  29.112  1.00  0.00     0.049 A 
ATOM     56  N   UNL A   1      43.201  29.538  29.029  1.00  0.00    -0.248 NA
ATOM     57  C   UNL A   1      42.594  29.605  26.790  1.00  0.00     0.031 C 
ATOM     58  C   UNL A   1      38.837  27.885  29.234  1.00  0.00     0.029 A 
ATOM     59  N   UNL A   1      39.994  29.656  29.895  1.00  0.00    -0.354 N 
ATOM     60  C   UNL A   1      44.023  30.448  28.366  1.00  0.00     0.074 A 
ATOM     61  C   UNL A   1      43.691  30.341  26.969  1.00  0.00     0.031 C 
ATOM     62  C   UNL A   1      37.976  28.708  29.875  1.00  0.00     0.029 A 
ATOM     63  C   UNL A   1      38.698  29.884  30.335  1.00  0.00     0.049 A 
ATOM     64  H   UNL A   1      40.747  30.244  30.128  1.00  0.00     0.167 HD
ATOM     65  C   UNL A   1      44.785  31.353  29.043  1.00  0.00     0.037 A 
ATOM     66  C   UNL A   1      38.248  30.982  30.991  1.00  0.00     0.037 A 
ATOM     67  C   UNL A   1      44.971  30.956  30.416  1.00  0.00     0.049 A 
ATOM     68  C   UNL A   1      39.424  31.610  31.647  1.00  0.00     0.074 A 
ATOM     69  C   UNL A   1      45.554  29.875  31.049  1.00  0.00     0.029 A 
ATOM     70  N   UNL A   1      44.220  31.585  31.376  1.00  0.00    -0.354 N 
ATOM     71  N   UNL A   1      40.091  31.066  32.629  1.00  0.00    -0.248 NA
ATOM     72  C   UNL A   1      40.115  32.680  30.944  1.00  0.00     0.031 C 
ATOM     73  C   UNL A   1      44.755  29.644  32.206  1.00  0.00     0.029 A 
ATOM     74  C   UNL A   1      43.754  30.617  32.227  1.00  0.00     0.049 A 
ATOM     75  H   UNL A   1      44.048  32.553  31.442  1.00  0.00     0.167 HD
ATOM     76  C   UNL A   1      41.412  31.425  32.405  1.00  0.00     0.074 A 
ATOM     77  C   UNL A   1      41.350  32.500  31.420  1.00  0.00     0.031 C 
ATOM     78  C   UNL A   1      42.444  30.642  32.839  1.00  0.00     0.037 A 
BRANCH  65  79
ATOM     79  C   UNL A   1      45.074  32.761  28.564  1.00  0.00     0.058 A 
ATOM     80  C   UNL A   1      46.415  33.176  28.406  1.00  0.00     0.135 A 
ATOM     81  C   UNL A   1      44.117  33.800  28.543  1.00  0.00     0.135 A 
ATOM     82  F   UNL A   1      47.414  32.278  28.394  1.00  0.00    -0.206 F 
ATOM     83  C   UNL A   1      46.784  34.521  28.347  1.00  0.00     0.059 A 
ATOM     84  C   UNL A   1      44.459  35.143  28.432  1.00  0.00     0.059 A 
ATOM     85  F   UNL A   1      42.811  33.578  28.725  1.00  0.00    -0.206 F 
ATOM     86  C   UNL A   1      45.796  35.499  28.390  1.00  0.00     0.060 A 
BRANCH  86  87
ATOM     87  S   UNL A   1      46.271  37.233  28.472  1.00  0.00     0.124 S 
ATOM     88  O   UNL A   1      44.972  37.891  28.407  1.00  0.00    -0.237 OA
ATOM     89  O   UNL A   1      46.959  37.298  29.757  1.00  0.00    -0.237 OA
ATOM     90  O   UNL A   1      47.126  37.404  27.300  1.00  0.00    -0.744 OA
ENDBRANCH  86  87
ENDBRANCH  65  79
BRANCH  66  91
ATOM     91  C   UNL A   1      36.956  31.696  30.805  1.00  0.00     0.058 A 
ATOM     92  C   UNL A   1      36.001  31.748  31.838  1.00  0.00     0.135 A 
ATOM     93  C   UNL A   1      36.750  32.582  29.728  1.00  0.00     0.135 A 
ATOM     94  F   UNL A   1      36.124  30.953  32.912  1.00  0.00    -0.206 F 
ATOM     95  C   UNL A   1      34.945  32.667  31.834  1.00  0.00     0.059 A 
ATOM     96  C   UNL A   1      35.700  33.496  29.696  1.00  0.00     0.059 A 
ATOM     97  F   UNL A   1      37.623  32.653  28.712  1.00  0.00    -0.206 F 
ATOM     98  C   UNL A   1      34.818  33.555  30.768  1.00  0.00     0.060 A 
BRANCH  98  99
ATOM     99  S   UNL A   1      33.572  34.863  30.845  1.00  0.00     0.124 S 
ATOM    100  O   UNL A   1      32.927  34.591  32.124  1.00  0.00    -0.237 OA
ATOM    101  O   UNL A   1      34.391  36.069  30.786  1.00  0.00    -0.237 OA
ATOM    102  O   UNL A   1      32.747  34.616  29.665  1.00  0.00    -0.744 OA
ENDBRANCH  98  99
ENDBRANCH  66  91
BRANCH  78 103
ATOM    103  C   UNL A   1      42.148  29.561  33.849  1.00  0.00     0.058 A 
ATOM    104  C   UNL A   1      41.718  28.263  33.522  1.00  0.00     0.135 A 
ATOM    105  C   UNL A   1      42.462  29.810  35.194  1.00  0.00     0.135 A 
ATOM    106  F   UNL A   1      41.501  27.909  32.248  1.00  0.00    -0.206 F 
ATOM    107  C   UNL A   1      41.561  27.273  34.497  1.00  0.00     0.059 A 
ATOM    108  C   UNL A   1      42.342  28.830  36.177  1.00  0.00     0.059 A 
ATOM    109  F   UNL A   1      42.942  31.010  35.562  1.00  0.00    -0.206 F 
ATOM    110  C   UNL A   1      41.871  27.566  35.825  1.00  0.00     0.060 A 
BRANCH 110 111
ATOM    111  S   UNL A   1      41.719  26.283  37.089  1.00  0.00     0.124 S 
ATOM    112  O   UNL A   1      41.768  25.060  36.288  1.00  0.00    -0.237 OA
ATOM    113  O   UNL A   1      42.889  26.516  37.936  1.00  0.00    -0.237 OA
ATOM    114  O   UNL A   1      40.441  26.575  37.717  1.00  0.00    -0.744 OA
ENDBRANCH 110 111
ENDBRANCH  78 103
ENDBRANCH  52  53
ENDBRANCH  44  47
ENDBRANCH  42  43
ENDBRANCH   1  42
TORSDOF 19
ENDMDL
