MODEL 1
REMARK VINA RESULT:     -10.5      0.000      0.000
REMARK SMILES O=C(NCCCNC(=O)c1ccc(Cl)cc1NC(=O)c1cc(Cl)nnc1Cl)c1ccc(-c2c3nc(c(-c4c(F)cc(S(=O)(=O)[O-])cc4F)c4ccc([nH]4)c(-c4c(F)cc(S(=O)(=O)[O-])cc4F)c4nc(c(-c5c(F)cc(S(=O)(=O)[O-])cc5F)c5ccc2[nH]5)C=C4)C=C3)cc1
REMARK SMILES IDX 4 1 3 2 1 3 2 4 28 6 29 7 93 8 30 9 92 10 31 11 32 12 33 13
REMARK SMILES IDX 86 14 34 15 91 16 85 17 87 18 35 19 90 20 84 21 83 22 36 24
REMARK SMILES IDX 70 25 49 26 69 27 50 28 53 29 68 30 88 31 51 32 52 33 67 35
REMARK SMILES IDX 89 36 54 37 37 38 38 39 47 40 39 41 40 42 46 43 48 44 41 45
REMARK SMILES IDX 42 46 43 47 44 48 45 49 71 50 72 51 81 52 73 53 74 54 80 55
REMARK SMILES IDX 82 56 75 57 76 58 77 59 78 60 79 61 55 62 56 63 65 64 57 65
REMARK SMILES IDX 58 66 64 67 66 68 59 69 60 70 61 71 62 72 63 73 5 74 6 75
REMARK SMILES IDX 7 76 8 77 9 79 10 80 11 81 16 82 12 83 15 84 13 85 14 86
REMARK SMILES IDX 17 87 18 88 19 90 20 91 21 92 26 93 22 94 25 95 27 96 23 97
REMARK SMILES IDX 24 98
REMARK H PARENT 3 5 87 23 53 34 7 78 17 89
REMARK Flexibility Score: inf
ROOT
ATOM      1  C   UNL A   1      34.535  32.474  27.896  1.00  0.00     0.118 C 
ENDROOT
BRANCH   1   2
ATOM      2  N   UNL A   1      33.879  31.174  27.851  1.00  0.00    -0.352 N 
ATOM      3  O   UNL A   1      33.695  28.951  27.594  1.00  0.00    -0.269 OA
ATOM      4  C   UNL A   1      34.412  29.909  27.869  1.00  0.00     0.251 C 
ATOM      5  H   UNL A   1      32.896  31.209  27.799  1.00  0.00     0.163 HD
BRANCH   4   6
ATOM      6  C   UNL A   1      35.838  29.696  28.203  1.00  0.00     0.039 A 
ATOM      7  C   UNL A   1      36.839  29.929  27.258  1.00  0.00     0.014 A 
ATOM      8  C   UNL A   1      36.180  29.306  29.503  1.00  0.00     0.014 A 
ATOM      9  C   UNL A   1      38.168  29.651  27.571  1.00  0.00     0.010 A 
ATOM     10  C   UNL A   1      37.519  29.080  29.833  1.00  0.00     0.010 A 
ATOM     11  C   UNL A   1      38.519  29.215  28.857  1.00  0.00    -0.014 A 
BRANCH  11  12
ATOM     12  C   UNL A   1      39.940  28.914  29.157  1.00  0.00     0.031 A 
ATOM     13  C   UNL A   1      40.531  27.581  28.796  1.00  0.00     0.074 A 
ATOM     14  C   UNL A   1      40.711  29.869  29.713  1.00  0.00     0.049 A 
ATOM     15  N   UNL A   1      41.775  27.186  28.877  1.00  0.00    -0.248 NA
ATOM     16  C   UNL A   1      39.610  26.557  28.275  1.00  0.00     0.031 C 
ATOM     17  C   UNL A   1      40.242  31.192  30.132  1.00  0.00     0.029 A 
ATOM     18  N   UNL A   1      42.049  29.881  30.010  1.00  0.00    -0.354 N 
ATOM     19  C   UNL A   1      41.790  25.877  28.412  1.00  0.00     0.074 A 
ATOM     20  C   UNL A   1      40.425  25.527  28.088  1.00  0.00     0.031 C 
ATOM     21  C   UNL A   1      41.280  31.894  30.612  1.00  0.00     0.029 A 
ATOM     22  C   UNL A   1      42.482  31.067  30.554  1.00  0.00     0.049 A 
ATOM     23  H   UNL A   1      42.644  29.113  29.849  1.00  0.00     0.167 HD
ATOM     24  C   UNL A   1      42.852  25.052  28.250  1.00  0.00     0.037 A 
ATOM     25  C   UNL A   1      43.710  31.445  30.960  1.00  0.00     0.037 A 
ATOM     26  C   UNL A   1      44.211  25.409  28.559  1.00  0.00     0.049 A 
ATOM     27  C   UNL A   1      44.864  30.496  30.803  1.00  0.00     0.074 A 
ATOM     28  C   UNL A   1      45.361  24.668  28.354  1.00  0.00     0.029 A 
ATOM     29  N   UNL A   1      44.601  26.600  29.151  1.00  0.00    -0.354 N 
ATOM     30  N   UNL A   1      44.875  29.295  30.274  1.00  0.00    -0.248 NA
ATOM     31  C   UNL A   1      46.173  30.948  31.296  1.00  0.00     0.031 C 
ATOM     32  C   UNL A   1      46.444  25.393  28.862  1.00  0.00     0.029 A 
ATOM     33  C   UNL A   1      45.971  26.599  29.354  1.00  0.00     0.049 A 
ATOM     34  H   UNL A   1      43.995  27.337  29.393  1.00  0.00     0.167 HD
ATOM     35  C   UNL A   1      46.187  28.851  30.367  1.00  0.00     0.074 A 
ATOM     36  C   UNL A   1      46.949  29.917  30.983  1.00  0.00     0.031 C 
ATOM     37  C   UNL A   1      46.713  27.664  29.980  1.00  0.00     0.037 A 
BRANCH  24  38
ATOM     38  C   UNL A   1      42.598  23.678  27.697  1.00  0.00     0.058 A 
ATOM     39  C   UNL A   1      42.579  23.445  26.313  1.00  0.00     0.135 A 
ATOM     40  C   UNL A   1      42.460  22.576  28.553  1.00  0.00     0.135 A 
ATOM     41  F   UNL A   1      42.693  24.468  25.452  1.00  0.00    -0.206 F 
ATOM     42  C   UNL A   1      42.425  22.163  25.797  1.00  0.00     0.059 A 
ATOM     43  C   UNL A   1      42.321  21.282  28.059  1.00  0.00     0.059 A 
ATOM     44  F   UNL A   1      42.468  22.750  29.884  1.00  0.00    -0.206 F 
ATOM     45  C   UNL A   1      42.300  21.087  26.679  1.00  0.00     0.060 A 
BRANCH  45  46
ATOM     46  S   UNL A   1      42.128  19.428  25.988  1.00  0.00     0.124 S 
ATOM     47  O   UNL A   1      43.003  19.508  24.821  1.00  0.00    -0.237 OA
ATOM     48  O   UNL A   1      42.604  18.585  27.079  1.00  0.00    -0.237 OA
ATOM     49  O   UNL A   1      40.702  19.327  25.695  1.00  0.00    -0.744 OA
ENDBRANCH  45  46
ENDBRANCH  24  38
BRANCH  25  50
ATOM     50  C   UNL A   1      43.906  32.790  31.557  1.00  0.00     0.058 A 
ATOM     51  C   UNL A   1      43.989  32.961  32.946  1.00  0.00     0.135 A 
ATOM     52  C   UNL A   1      44.031  33.929  30.746  1.00  0.00     0.135 A 
ATOM     53  F   UNL A   1      43.869  31.902  33.761  1.00  0.00    -0.206 F 
ATOM     54  C   UNL A   1      44.179  34.217  33.512  1.00  0.00     0.059 A 
ATOM     55  C   UNL A   1      44.242  35.192  31.288  1.00  0.00     0.059 A 
ATOM     56  F   UNL A   1      43.972  33.812  29.411  1.00  0.00    -0.206 F 
ATOM     57  C   UNL A   1      44.305  35.326  32.674  1.00  0.00     0.060 A 
BRANCH  57  58
ATOM     58  S   UNL A   1      44.598  36.946  33.418  1.00  0.00     0.124 S 
ATOM     59  O   UNL A   1      43.955  36.793  34.717  1.00  0.00    -0.237 OA
ATOM     60  O   UNL A   1      46.056  37.019  33.431  1.00  0.00    -0.237 OA
ATOM     61  O   UNL A   1      43.942  37.864  32.491  1.00  0.00    -0.744 OA
ENDBRANCH  57  58
ENDBRANCH  25  50
BRANCH  37  62
ATOM     62  C   UNL A   1      48.176  27.437  30.225  1.00  0.00     0.058 A 
ATOM     63  C   UNL A   1      48.619  26.731  31.354  1.00  0.00     0.135 A 
ATOM     64  C   UNL A   1      49.135  27.845  29.284  1.00  0.00     0.135 A 
ATOM     65  F   UNL A   1      47.741  26.328  32.286  1.00  0.00    -0.206 F 
ATOM     66  C   UNL A   1      49.965  26.436  31.541  1.00  0.00     0.059 A 
ATOM     67  C   UNL A   1      50.484  27.542  29.442  1.00  0.00     0.059 A 
ATOM     68  F   UNL A   1      48.759  28.516  28.185  1.00  0.00    -0.206 F 
ATOM     69  C   UNL A   1      50.889  26.837  30.576  1.00  0.00     0.060 A 
BRANCH  69  70
ATOM     70  S   UNL A   1      52.623  26.384  30.798  1.00  0.00     0.124 S 
ATOM     71  O   UNL A   1      52.509  25.169  31.598  1.00  0.00    -0.237 OA
ATOM     72  O   UNL A   1      53.075  26.197  29.423  1.00  0.00    -0.237 OA
ATOM     73  O   UNL A   1      53.190  27.539  31.487  1.00  0.00    -0.744 OA
ENDBRANCH  69  70
ENDBRANCH  37  62
ENDBRANCH  11  12
ENDBRANCH   4   6
ENDBRANCH   1   2
BRANCH   1  74
ATOM     74  C   UNL A   1      33.632  33.559  28.475  1.00  0.00     0.042 C 
BRANCH  74  75
ATOM     75  C   UNL A   1      34.029  34.028  29.870  1.00  0.00     0.118 C 
BRANCH  75  76
ATOM     76  N   UNL A   1      34.377  32.928  30.763  1.00  0.00    -0.352 N 
ATOM     77  C   UNL A   1      35.616  32.532  31.209  1.00  0.00     0.253 C 
ATOM     78  H   UNL A   1      33.619  32.395  31.092  1.00  0.00     0.163 HD
ATOM     79  O   UNL A   1      35.755  31.472  31.811  1.00  0.00    -0.269 OA
BRANCH  77  80
ATOM     80  C   UNL A   1      36.801  33.363  30.900  1.00  0.00     0.063 A 
ATOM     81  C   UNL A   1      37.018  33.735  29.564  1.00  0.00     0.017 A 
ATOM     82  C   UNL A   1      37.702  33.744  31.918  1.00  0.00     0.055 A 
ATOM     83  C   UNL A   1      38.205  34.359  29.201  1.00  0.00     0.021 A 
ATOM     84  C   UNL A   1      38.923  34.293  31.517  1.00  0.00     0.047 A 
ATOM     85  C   UNL A   1      39.167  34.597  30.173  1.00  0.00     0.043 A 
ATOM     86  Cl  UNL A   1      40.681  35.282  29.723  1.00  0.00    -0.084 Cl
BRANCH  82  87
ATOM     87  N   UNL A   1      37.328  33.556  33.273  1.00  0.00    -0.321 N 
ATOM     88  C   UNL A   1      37.707  32.658  34.242  1.00  0.00     0.258 C 
ATOM     89  H   UNL A   1      36.655  34.203  33.584  1.00  0.00     0.170 HD
ATOM     90  O   UNL A   1      37.171  32.655  35.348  1.00  0.00    -0.269 OA
BRANCH  88  91
ATOM     91  C   UNL A   1      38.761  31.675  34.028  1.00  0.00     0.082 A 
ATOM     92  C   UNL A   1      38.401  30.427  33.515  1.00  0.00     0.060 A 
ATOM     93  C   UNL A   1      40.083  31.927  34.350  1.00  0.00     0.164 A 
ATOM     94  C   UNL A   1      39.415  29.524  33.288  1.00  0.00     0.152 A 
ATOM     95  N   UNL A   1      41.047  31.015  34.105  1.00  0.00    -0.136 NA
ATOM     96  Cl  UNL A   1      40.660  33.381  35.049  1.00  0.00    -0.059 Cl
ATOM     97  Cl  UNL A   1      39.112  27.981  32.619  1.00  0.00    -0.060 Cl
ATOM     98  N   UNL A   1      40.708  29.801  33.555  1.00  0.00    -0.137 NA
ENDBRANCH  88  91
ENDBRANCH  82  87
ENDBRANCH  77  80
ENDBRANCH  75  76
ENDBRANCH  74  75
ENDBRANCH   1  74
TORSDOF 15
ENDMDL
MODEL 2
REMARK VINA RESULT:     -10.3      4.498      9.477
REMARK SMILES O=C(NCCCNC(=O)c1ccc(Cl)cc1NC(=O)c1cc(Cl)nnc1Cl)c1ccc(-c2c3nc(c(-c4c(F)cc(S(=O)(=O)[O-])cc4F)c4ccc([nH]4)c(-c4c(F)cc(S(=O)(=O)[O-])cc4F)c4nc(c(-c5c(F)cc(S(=O)(=O)[O-])cc5F)c5ccc2[nH]5)C=C4)C=C3)cc1
REMARK SMILES IDX 4 1 3 2 1 3 2 4 28 6 29 7 93 8 30 9 92 10 31 11 32 12 33 13
REMARK SMILES IDX 86 14 34 15 91 16 85 17 87 18 35 19 90 20 84 21 83 22 36 24
REMARK SMILES IDX 70 25 49 26 69 27 50 28 53 29 68 30 88 31 51 32 52 33 67 35
REMARK SMILES IDX 89 36 54 37 37 38 38 39 47 40 39 41 40 42 46 43 48 44 41 45
REMARK SMILES IDX 42 46 43 47 44 48 45 49 71 50 72 51 81 52 73 53 74 54 80 55
REMARK SMILES IDX 82 56 75 57 76 58 77 59 78 60 79 61 55 62 56 63 65 64 57 65
REMARK SMILES IDX 58 66 64 67 66 68 59 69 60 70 61 71 62 72 63 73 5 74 6 75
REMARK SMILES IDX 7 76 8 77 9 79 10 80 11 81 16 82 12 83 15 84 13 85 14 86
REMARK SMILES IDX 17 87 18 88 19 90 20 91 21 92 26 93 22 94 25 95 27 96 23 97
REMARK SMILES IDX 24 98
REMARK H PARENT 3 5 87 23 53 34 7 78 17 89
REMARK Flexibility Score: inf
ROOT
ATOM      1  C   UNL A   1      36.097  24.308  25.430  1.00  0.00     0.118 C 
ENDROOT
BRANCH   1   2
ATOM      2  N   UNL A   1      36.865  23.092  25.664  1.00  0.00    -0.352 N 
ATOM      3  O   UNL A   1      38.685  21.822  26.009  1.00  0.00    -0.269 OA
ATOM      4  C   UNL A   1      38.158  22.928  26.096  1.00  0.00     0.251 C 
ATOM      5  H   UNL A   1      36.380  22.255  25.482  1.00  0.00     0.163 HD
BRANCH   4   6
ATOM      6  C   UNL A   1      38.919  24.069  26.651  1.00  0.00     0.039 A 
ATOM      7  C   UNL A   1      38.885  24.358  28.017  1.00  0.00     0.014 A 
ATOM      8  C   UNL A   1      39.722  24.831  25.795  1.00  0.00     0.014 A 
ATOM      9  C   UNL A   1      39.549  25.481  28.506  1.00  0.00     0.010 A 
ATOM     10  C   UNL A   1      40.432  25.926  26.296  1.00  0.00     0.010 A 
ATOM     11  C   UNL A   1      40.320  26.280  27.649  1.00  0.00    -0.014 A 
BRANCH  11  12
ATOM     12  C   UNL A   1      41.005  27.477  28.196  1.00  0.00     0.031 A 
ATOM     13  C   UNL A   1      42.500  27.603  28.118  1.00  0.00     0.074 A 
ATOM     14  C   UNL A   1      40.267  28.475  28.720  1.00  0.00     0.049 A 
ATOM     15  N   UNL A   1      43.255  28.622  28.438  1.00  0.00    -0.248 NA
ATOM     16  C   UNL A   1      43.247  26.437  27.617  1.00  0.00     0.031 C 
ATOM     17  C   UNL A   1      38.811  28.454  28.873  1.00  0.00     0.029 A 
ATOM     18  N   UNL A   1      40.635  29.703  29.206  1.00  0.00    -0.354 N 
ATOM     19  C   UNL A   1      44.560  28.228  28.170  1.00  0.00     0.074 A 
ATOM     20  C   UNL A   1      44.502  26.861  27.700  1.00  0.00     0.031 C 
ATOM     21  C   UNL A   1      38.408  29.622  29.397  1.00  0.00     0.029 A 
ATOM     22  C   UNL A   1      39.576  30.465  29.636  1.00  0.00     0.049 A 
ATOM     23  H   UNL A   1      41.570  30.009  29.246  1.00  0.00     0.167 HD
ATOM     24  C   UNL A   1      45.700  28.950  28.285  1.00  0.00     0.037 A 
ATOM     25  C   UNL A   1      39.548  31.705  30.162  1.00  0.00     0.037 A 
ATOM     26  C   UNL A   1      45.752  30.315  28.738  1.00  0.00     0.049 A 
ATOM     27  C   UNL A   1      40.832  32.471  30.313  1.00  0.00     0.074 A 
ATOM     28  C   UNL A   1      46.850  31.153  28.812  1.00  0.00     0.029 A 
ATOM     29  N   UNL A   1      44.665  31.035  29.208  1.00  0.00    -0.354 N 
ATOM     30  N   UNL A   1      42.046  32.116  29.967  1.00  0.00    -0.248 NA
ATOM     31  C   UNL A   1      40.747  33.805  30.926  1.00  0.00     0.031 C 
ATOM     32  C   UNL A   1      46.436  32.368  29.368  1.00  0.00     0.029 A 
ATOM     33  C   UNL A   1      45.073  32.296  29.609  1.00  0.00     0.049 A 
ATOM     34  H   UNL A   1      43.740  30.701  29.250  1.00  0.00     0.167 HD
ATOM     35  C   UNL A   1      42.867  33.181  30.315  1.00  0.00     0.074 A 
ATOM     36  C   UNL A   1      42.012  34.203  30.880  1.00  0.00     0.031 C 
ATOM     37  C   UNL A   1      44.211  33.299  30.182  1.00  0.00     0.037 A 
BRANCH  24  38
ATOM     38  C   UNL A   1      46.993  28.291  27.900  1.00  0.00     0.058 A 
ATOM     39  C   UNL A   1      47.746  27.567  28.837  1.00  0.00     0.135 A 
ATOM     40  C   UNL A   1      47.439  28.311  26.570  1.00  0.00     0.135 A 
ATOM     41  F   UNL A   1      47.370  27.529  30.125  1.00  0.00    -0.206 F 
ATOM     42  C   UNL A   1      48.903  26.889  28.468  1.00  0.00     0.059 A 
ATOM     43  C   UNL A   1      48.584  27.626  26.175  1.00  0.00     0.059 A 
ATOM     44  F   UNL A   1      46.754  28.994  25.639  1.00  0.00    -0.206 F 
ATOM     45  C   UNL A   1      49.312  26.921  27.132  1.00  0.00     0.060 A 
BRANCH  45  46
ATOM     46  S   UNL A   1      50.801  26.011  26.670  1.00  0.00     0.124 S 
ATOM     47  O   UNL A   1      50.680  25.979  25.214  1.00  0.00    -0.237 OA
ATOM     48  O   UNL A   1      51.862  26.862  27.197  1.00  0.00    -0.237 OA
ATOM     49  O   UNL A   1      50.637  24.725  27.340  1.00  0.00    -0.744 OA
ENDBRANCH  45  46
ENDBRANCH  24  38
BRANCH  25  50
ATOM     50  C   UNL A   1      38.254  32.297  30.585  1.00  0.00     0.058 A 
ATOM     51  C   UNL A   1      37.735  32.063  31.866  1.00  0.00     0.135 A 
ATOM     52  C   UNL A   1      37.520  33.123  29.719  1.00  0.00     0.135 A 
ATOM     53  F   UNL A   1      38.399  31.276  32.726  1.00  0.00    -0.206 F 
ATOM     54  C   UNL A   1      36.527  32.620  32.272  1.00  0.00     0.059 A 
ATOM     55  C   UNL A   1      36.319  33.707  30.109  1.00  0.00     0.059 A 
ATOM     56  F   UNL A   1      37.984  33.386  28.488  1.00  0.00    -0.206 F 
ATOM     57  C   UNL A   1      35.827  33.441  31.387  1.00  0.00     0.060 A 
BRANCH  57  58
ATOM     58  S   UNL A   1      34.282  34.195  31.940  1.00  0.00     0.124 S 
ATOM     59  O   UNL A   1      34.767  35.384  32.630  1.00  0.00    -0.237 OA
ATOM     60  O   UNL A   1      33.584  34.427  30.678  1.00  0.00    -0.237 OA
ATOM     61  O   UNL A   1      33.693  33.166  32.791  1.00  0.00    -0.744 OA
ENDBRANCH  57  58
ENDBRANCH  25  50
BRANCH  37  62
ATOM     62  C   UNL A   1      44.851  34.565  30.670  1.00  0.00     0.058 A 
ATOM     63  C   UNL A   1      44.917  35.704  29.853  1.00  0.00     0.135 A 
ATOM     64  C   UNL A   1      45.317  34.673  31.991  1.00  0.00     0.135 A 
ATOM     65  F   UNL A   1      44.493  35.647  28.581  1.00  0.00    -0.206 F 
ATOM     66  C   UNL A   1      45.424  36.908  30.328  1.00  0.00     0.059 A 
ATOM     67  C   UNL A   1      45.809  35.874  32.493  1.00  0.00     0.059 A 
ATOM     68  F   UNL A   1      45.267  33.614  32.813  1.00  0.00    -0.206 F 
ATOM     69  C   UNL A   1      45.859  36.986  31.653  1.00  0.00     0.060 A 
BRANCH  69  70
ATOM     70  S   UNL A   1      46.447  38.576  32.276  1.00  0.00     0.124 S 
ATOM     71  O   UNL A   1      47.374  38.157  33.323  1.00  0.00    -0.237 OA
ATOM     72  O   UNL A   1      47.057  39.169  31.091  1.00  0.00    -0.237 OA
ATOM     73  O   UNL A   1      45.228  39.230  32.741  1.00  0.00    -0.744 OA
ENDBRANCH  69  70
ENDBRANCH  37  62
ENDBRANCH  11  12
ENDBRANCH   4   6
ENDBRANCH   1   2
BRANCH   1  74
ATOM     74  C   UNL A   1      34.668  24.198  25.951  1.00  0.00     0.042 C 
BRANCH  74  75
ATOM     75  C   UNL A   1      33.803  25.423  25.676  1.00  0.00     0.118 C 
BRANCH  75  76
ATOM     76  N   UNL A   1      32.374  25.139  25.751  1.00  0.00    -0.352 N 
ATOM     77  C   UNL A   1      31.333  25.995  26.019  1.00  0.00     0.253 C 
ATOM     78  H   UNL A   1      32.120  24.203  25.586  1.00  0.00     0.163 HD
ATOM     79  O   UNL A   1      30.203  25.563  26.227  1.00  0.00    -0.269 OA
BRANCH  77  80
ATOM     80  C   UNL A   1      31.593  27.449  26.124  1.00  0.00     0.063 A 
ATOM     81  C   UNL A   1      31.852  27.983  27.396  1.00  0.00     0.017 A 
ATOM     82  C   UNL A   1      31.552  28.275  24.981  1.00  0.00     0.055 A 
ATOM     83  C   UNL A   1      31.924  29.361  27.569  1.00  0.00     0.021 A 
ATOM     84  C   UNL A   1      31.542  29.657  25.192  1.00  0.00     0.047 A 
ATOM     85  C   UNL A   1      31.728  30.189  26.472  1.00  0.00     0.043 A 
ATOM     86  Cl  UNL A   1      31.720  31.897  26.687  1.00  0.00    -0.084 Cl
BRANCH  82  87
ATOM     87  N   UNL A   1      31.526  27.671  23.697  1.00  0.00    -0.321 N 
ATOM     88  C   UNL A   1      30.634  27.713  22.651  1.00  0.00     0.258 C 
ATOM     89  H   UNL A   1      32.309  27.104  23.519  1.00  0.00     0.170 HD
ATOM     90  O   UNL A   1      30.806  27.028  21.646  1.00  0.00    -0.269 OA
BRANCH  88  91
ATOM     91  C   UNL A   1      29.455  28.569  22.663  1.00  0.00     0.082 A 
ATOM     92  C   UNL A   1      29.573  29.857  22.139  1.00  0.00     0.060 A 
ATOM     93  C   UNL A   1      28.250  28.159  23.206  1.00  0.00     0.164 A 
ATOM     94  C   UNL A   1      28.440  30.639  22.129  1.00  0.00     0.152 A 
ATOM     95  N   UNL A   1      27.161  28.955  23.170  1.00  0.00    -0.136 NA
ATOM     96  Cl  UNL A   1      27.977  26.637  23.945  1.00  0.00    -0.059 Cl
ATOM     97  Cl  UNL A   1      28.441  32.216  21.472  1.00  0.00    -0.060 Cl
ATOM     98  N   UNL A   1      27.255  30.208  22.612  1.00  0.00    -0.137 NA
ENDBRANCH  88  91
ENDBRANCH  82  87
ENDBRANCH  77  80
ENDBRANCH  75  76
ENDBRANCH  74  75
ENDBRANCH   1  74
TORSDOF 15
ENDMDL
MODEL 3
REMARK VINA RESULT:     -10.3      3.994      6.922
REMARK SMILES O=C(NCCCNC(=O)c1ccc(Cl)cc1NC(=O)c1cc(Cl)nnc1Cl)c1ccc(-c2c3nc(c(-c4c(F)cc(S(=O)(=O)[O-])cc4F)c4ccc([nH]4)c(-c4c(F)cc(S(=O)(=O)[O-])cc4F)c4nc(c(-c5c(F)cc(S(=O)(=O)[O-])cc5F)c5ccc2[nH]5)C=C4)C=C3)cc1
REMARK SMILES IDX 4 1 3 2 1 3 2 4 28 6 29 7 93 8 30 9 92 10 31 11 32 12 33 13
REMARK SMILES IDX 86 14 34 15 91 16 85 17 87 18 35 19 90 20 84 21 83 22 36 24
REMARK SMILES IDX 70 25 49 26 69 27 50 28 53 29 68 30 88 31 51 32 52 33 67 35
REMARK SMILES IDX 89 36 54 37 37 38 38 39 47 40 39 41 40 42 46 43 48 44 41 45
REMARK SMILES IDX 42 46 43 47 44 48 45 49 71 50 72 51 81 52 73 53 74 54 80 55
REMARK SMILES IDX 82 56 75 57 76 58 77 59 78 60 79 61 55 62 56 63 65 64 57 65
REMARK SMILES IDX 58 66 64 67 66 68 59 69 60 70 61 71 62 72 63 73 5 74 6 75
REMARK SMILES IDX 7 76 8 77 9 79 10 80 11 81 16 82 12 83 15 84 13 85 14 86
REMARK SMILES IDX 17 87 18 88 19 90 20 91 21 92 26 93 22 94 25 95 27 96 23 97
REMARK SMILES IDX 24 98
REMARK H PARENT 3 5 87 23 53 34 7 78 17 89
REMARK Flexibility Score: inf
ROOT
ATOM      1  C   UNL A   1      34.007  28.390  27.122  1.00  0.00     0.118 C 
ENDROOT
BRANCH   1   2
ATOM      2  N   UNL A   1      33.882  29.769  27.577  1.00  0.00    -0.352 N 
ATOM      3  O   UNL A   1      34.358  31.611  28.769  1.00  0.00    -0.269 OA
ATOM      4  C   UNL A   1      34.753  30.549  28.297  1.00  0.00     0.251 C 
ATOM      5  H   UNL A   1      33.038  30.211  27.328  1.00  0.00     0.163 HD
BRANCH   4   6
ATOM      6  C   UNL A   1      36.150  30.115  28.516  1.00  0.00     0.039 A 
ATOM      7  C   UNL A   1      36.567  29.636  29.760  1.00  0.00     0.014 A 
ATOM      8  C   UNL A   1      37.045  30.140  27.440  1.00  0.00     0.014 A 
ATOM      9  C   UNL A   1      37.905  29.303  29.963  1.00  0.00     0.010 A 
ATOM     10  C   UNL A   1      38.375  29.753  27.631  1.00  0.00     0.010 A 
ATOM     11  C   UNL A   1      38.822  29.368  28.904  1.00  0.00    -0.014 A 
BRANCH  11  12
ATOM     12  C   UNL A   1      40.242  29.020  29.154  1.00  0.00     0.031 A 
ATOM     13  C   UNL A   1      40.772  27.663  28.784  1.00  0.00     0.074 A 
ATOM     14  C   UNL A   1      41.066  29.952  29.671  1.00  0.00     0.049 A 
ATOM     15  N   UNL A   1      42.004  27.225  28.823  1.00  0.00    -0.248 NA
ATOM     16  C   UNL A   1      39.797  26.667  28.309  1.00  0.00     0.031 C 
ATOM     17  C   UNL A   1      40.660  31.294  30.093  1.00  0.00     0.029 A 
ATOM     18  N   UNL A   1      42.415  29.919  29.917  1.00  0.00    -0.354 N 
ATOM     19  C   UNL A   1      41.955  25.912  28.372  1.00  0.00     0.074 A 
ATOM     20  C   UNL A   1      40.567  25.608  28.102  1.00  0.00     0.031 C 
ATOM     21  C   UNL A   1      41.740  31.963  30.526  1.00  0.00     0.029 A 
ATOM     22  C   UNL A   1      42.909  31.093  30.432  1.00  0.00     0.049 A 
ATOM     23  H   UNL A   1      42.976  29.129  29.742  1.00  0.00     0.167 HD
ATOM     24  C   UNL A   1      42.980  25.049  28.178  1.00  0.00     0.037 A 
ATOM     25  C   UNL A   1      44.164  31.432  30.788  1.00  0.00     0.037 A 
ATOM     26  C   UNL A   1      44.362  25.360  28.433  1.00  0.00     0.049 A 
ATOM     27  C   UNL A   1      45.277  30.440  30.598  1.00  0.00     0.074 A 
ATOM     28  C   UNL A   1      45.477  24.577  28.192  1.00  0.00     0.029 A 
ATOM     29  N   UNL A   1      44.816  26.541  28.998  1.00  0.00    -0.354 N 
ATOM     30  N   UNL A   1      45.226  29.236  30.082  1.00  0.00    -0.248 NA
ATOM     31  C   UNL A   1      46.619  30.850  31.037  1.00  0.00     0.031 C 
ATOM     32  C   UNL A   1      46.603  25.267  28.652  1.00  0.00     0.029 A 
ATOM     33  C   UNL A   1      46.192  26.494  29.149  1.00  0.00     0.049 A 
ATOM     34  H   UNL A   1      44.246  27.302  29.254  1.00  0.00     0.167 HD
ATOM     35  C   UNL A   1      46.525  28.746  30.130  1.00  0.00     0.074 A 
ATOM     36  C   UNL A   1      47.346  29.790  30.706  1.00  0.00     0.031 C 
ATOM     37  C   UNL A   1      46.994  27.537  29.736  1.00  0.00     0.037 A 
BRANCH  24  38
ATOM     38  C   UNL A   1      42.658  23.680  27.649  1.00  0.00     0.058 A 
ATOM     39  C   UNL A   1      42.587  23.433  26.270  1.00  0.00     0.135 A 
ATOM     40  C   UNL A   1      42.505  22.592  28.523  1.00  0.00     0.135 A 
ATOM     41  F   UNL A   1      42.712  24.442  25.394  1.00  0.00    -0.206 F 
ATOM     42  C   UNL A   1      42.368  22.153  25.773  1.00  0.00     0.059 A 
ATOM     43  C   UNL A   1      42.302  21.300  28.048  1.00  0.00     0.059 A 
ATOM     44  F   UNL A   1      42.562  22.780  29.850  1.00  0.00    -0.206 F 
ATOM     45  C   UNL A   1      42.231  21.091  26.671  1.00  0.00     0.060 A 
BRANCH  45  46
ATOM     46  S   UNL A   1      41.975  19.433  26.005  1.00  0.00     0.124 S 
ATOM     47  O   UNL A   1      42.411  18.601  27.124  1.00  0.00    -0.237 OA
ATOM     48  O   UNL A   1      40.542  19.424  25.732  1.00  0.00    -0.237 OA
ATOM     49  O   UNL A   1      42.837  19.402  24.828  1.00  0.00    -0.744 OA
ENDBRANCH  45  46
ENDBRANCH  24  38
BRANCH  25  50
ATOM     50  C   UNL A   1      44.429  32.774  31.364  1.00  0.00     0.058 A 
ATOM     51  C   UNL A   1      44.730  33.869  30.540  1.00  0.00     0.135 A 
ATOM     52  C   UNL A   1      44.370  32.991  32.749  1.00  0.00     0.135 A 
ATOM     53  F   UNL A   1      44.803  33.708  29.210  1.00  0.00    -0.206 F 
ATOM     54  C   UNL A   1      44.973  35.131  31.072  1.00  0.00     0.059 A 
ATOM     55  C   UNL A   1      44.589  34.248  33.302  1.00  0.00     0.059 A 
ATOM     56  F   UNL A   1      44.072  31.976  33.575  1.00  0.00    -0.206 F 
ATOM     57  C   UNL A   1      44.900  35.310  32.454  1.00  0.00     0.060 A 
BRANCH  57  58
ATOM     58  S   UNL A   1      45.172  36.963  33.130  1.00  0.00     0.124 S 
ATOM     59  O   UNL A   1      46.059  37.546  32.130  1.00  0.00    -0.237 OA
ATOM     60  O   UNL A   1      43.816  37.503  33.175  1.00  0.00    -0.237 OA
ATOM     61  O   UNL A   1      45.775  36.696  34.433  1.00  0.00    -0.744 OA
ENDBRANCH  57  58
ENDBRANCH  25  50
BRANCH  37  62
ATOM     62  C   UNL A   1      48.456  27.261  29.929  1.00  0.00     0.058 A 
ATOM     63  C   UNL A   1      49.406  27.714  29.001  1.00  0.00     0.135 A 
ATOM     64  C   UNL A   1      48.921  26.622  31.089  1.00  0.00     0.135 A 
ATOM     65  F   UNL A   1      49.009  28.322  27.871  1.00  0.00    -0.206 F 
ATOM     66  C   UNL A   1      50.769  27.544  29.217  1.00  0.00     0.059 A 
ATOM     67  C   UNL A   1      50.280  26.460  31.336  1.00  0.00     0.059 A 
ATOM     68  F   UNL A   1      48.051  26.178  32.010  1.00  0.00    -0.206 F 
ATOM     69  C   UNL A   1      51.197  26.924  30.392  1.00  0.00     0.060 A 
BRANCH  69  70
ATOM     70  S   UNL A   1      52.971  26.775  30.692  1.00  0.00     0.124 S 
ATOM     71  O   UNL A   1      53.315  28.133  31.103  1.00  0.00    -0.237 OA
ATOM     72  O   UNL A   1      53.027  25.763  31.742  1.00  0.00    -0.237 OA
ATOM     73  O   UNL A   1      53.501  26.357  29.397  1.00  0.00    -0.744 OA
ENDBRANCH  69  70
ENDBRANCH  37  62
ENDBRANCH  11  12
ENDBRANCH   4   6
ENDBRANCH   1   2
BRANCH   1  74
ATOM     74  C   UNL A   1      32.659  27.776  26.758  1.00  0.00     0.042 C 
BRANCH  74  75
ATOM     75  C   UNL A   1      32.731  26.318  26.320  1.00  0.00     0.118 C 
BRANCH  75  76
ATOM     76  N   UNL A   1      31.683  25.494  26.912  1.00  0.00    -0.352 N 
ATOM     77  C   UNL A   1      31.540  24.127  26.895  1.00  0.00     0.253 C 
ATOM     78  H   UNL A   1      30.979  25.986  27.392  1.00  0.00     0.163 HD
ATOM     79  O   UNL A   1      30.502  23.600  27.284  1.00  0.00    -0.269 OA
BRANCH  77  80
ATOM     80  C   UNL A   1      32.625  23.288  26.338  1.00  0.00     0.063 A 
ATOM     81  C   UNL A   1      33.702  22.957  27.177  1.00  0.00     0.017 A 
ATOM     82  C   UNL A   1      32.590  22.860  24.994  1.00  0.00     0.055 A 
ATOM     83  C   UNL A   1      34.823  22.327  26.651  1.00  0.00     0.021 A 
ATOM     84  C   UNL A   1      33.761  22.305  24.470  1.00  0.00     0.047 A 
ATOM     85  C   UNL A   1      34.862  22.042  25.293  1.00  0.00     0.043 A 
ATOM     86  Cl  UNL A   1      36.282  21.348  24.609  1.00  0.00    -0.084 Cl
BRANCH  82  87
ATOM     87  N   UNL A   1      31.388  23.009  24.256  1.00  0.00    -0.321 N 
ATOM     88  C   UNL A   1      30.965  23.914  23.312  1.00  0.00     0.258 C 
ATOM     89  H   UNL A   1      30.716  22.321  24.464  1.00  0.00     0.170 HD
ATOM     90  O   UNL A   1      29.822  23.872  22.861  1.00  0.00    -0.269 OA
BRANCH  88  91
ATOM     91  C   UNL A   1      31.835  24.957  22.784  1.00  0.00     0.082 A 
ATOM     92  C   UNL A   1      31.603  26.273  23.187  1.00  0.00     0.060 A 
ATOM     93  C   UNL A   1      32.845  24.688  21.877  1.00  0.00     0.164 A 
ATOM     94  C   UNL A   1      32.455  27.240  22.705  1.00  0.00     0.152 A 
ATOM     95  N   UNL A   1      33.663  25.665  21.433  1.00  0.00    -0.136 NA
ATOM     96  Cl  UNL A   1      33.202  23.138  21.240  1.00  0.00    -0.059 Cl
ATOM     97  Cl  UNL A   1      32.307  28.880  23.160  1.00  0.00    -0.060 Cl
ATOM     98  N   UNL A   1      33.472  26.957  21.863  1.00  0.00    -0.137 NA
ENDBRANCH  88  91
ENDBRANCH  82  87
ENDBRANCH  77  80
ENDBRANCH  75  76
ENDBRANCH  74  75
ENDBRANCH   1  74
TORSDOF 15
ENDMDL
