MODEL 1
REMARK VINA RESULT:     -11.3      0.000      0.000
REMARK SMILES C[C@H](CNC(=O)c1ccc(Br)nc1)C(=O)NCCCNC(=O)c1ccc(-c2c3nc(c(-c4c(F)cc(S(=O)(=O)[O-])cc4F)c4ccc([nH]4)c(-c4c(F)cc(S(=O)(=O)[O-])cc4F)c4nc(c(-c5c(F)cc(S(=O)(=O)[O-])cc5F)c5ccc2[nH]5)C=C4)C=C3)cc1
REMARK SMILES IDX 18 1 17 2 16 3 14 4 15 5 2 7 1 8 3 9 4 10 5 11 6 13 7 14
REMARK SMILES IDX 8 15 13 16 9 17 12 18 10 19 11 20 19 21 20 22 21 23 22 25
REMARK SMILES IDX 23 26 24 27 88 28 25 29 87 30 26 31 27 32 28 33 81 34 29 35
REMARK SMILES IDX 86 36 80 37 82 38 30 39 85 40 79 41 78 42 31 44 65 45 44 46
REMARK SMILES IDX 64 47 45 48 48 49 63 50 83 51 46 52 47 53 62 55 84 56 49 57
REMARK SMILES IDX 32 58 33 59 42 60 34 61 35 62 41 63 43 64 36 65 37 66 38 67
REMARK SMILES IDX 39 68 40 69 66 70 67 71 76 72 68 73 69 74 75 75 77 76 70 77
REMARK SMILES IDX 71 78 72 79 73 80 74 81 50 82 51 83 60 84 52 85 53 86 59 87
REMARK SMILES IDX 61 88 54 89 55 90 56 91 57 92 58 93
REMARK H PARENT 16 6 4 12 20 24 82 43 48 54
REMARK Flexibility Score: inf
ROOT
ATOM      1  C   UNL A   1      35.183  33.929  28.346  1.00  0.00     0.042 C 
ENDROOT
BRANCH   1   2
ATOM      2  C   UNL A   1      34.275  34.179  29.545  1.00  0.00     0.117 C 
BRANCH   2   3
ATOM      3  N   UNL A   1      33.810  35.555  29.618  1.00  0.00    -0.356 N 
ATOM      4  C   UNL A   1      33.305  36.280  30.651  1.00  0.00     0.224 C 
ATOM      5  O   UNL A   1      32.961  37.442  30.421  1.00  0.00    -0.275 OA
ATOM      6  H   UNL A   1      33.870  36.048  28.768  1.00  0.00     0.163 HD
BRANCH   4   7
ATOM      7  C   UNL A   1      33.171  35.703  32.053  1.00  0.00     0.094 C 
ATOM      8  C   UNL A   1      31.752  35.868  32.594  1.00  0.00     0.020 C 
BRANCH   7   9
ATOM      9  C   UNL A   1      34.334  36.153  32.950  1.00  0.00     0.129 C 
BRANCH   9  10
ATOM     10  N   UNL A   1      34.576  35.295  34.103  1.00  0.00    -0.351 N 
ATOM     11  C   UNL A   1      35.597  34.416  34.340  1.00  0.00     0.252 C 
ATOM     12  H   UNL A   1      33.903  35.359  34.819  1.00  0.00     0.163 HD
ATOM     13  O   UNL A   1      35.517  33.624  35.279  1.00  0.00    -0.269 OA
BRANCH  11  14
ATOM     14  C   UNL A   1      36.779  34.384  33.469  1.00  0.00     0.058 A 
ATOM     15  C   UNL A   1      36.696  34.192  32.090  1.00  0.00     0.018 A 
ATOM     16  C   UNL A   1      38.028  34.605  34.030  1.00  0.00     0.126 A 
ATOM     17  C   UNL A   1      37.870  34.171  31.338  1.00  0.00     0.037 A 
ATOM     18  N   UNL A   1      39.185  34.577  33.324  1.00  0.00    -0.249 NA
ATOM     19  C   UNL A   1      39.080  34.360  31.994  1.00  0.00     0.106 A 
ATOM     20  Br  UNL A   1      40.686  34.302  30.987  1.00  0.00    -0.029 Br
ENDBRANCH  11  14
ENDBRANCH   9  10
ENDBRANCH   7   9
ENDBRANCH   4   7
ENDBRANCH   2   3
ENDBRANCH   1   2
BRANCH   1  21
ATOM     21  C   UNL A   1      36.032  32.667  28.450  1.00  0.00     0.118 C 
BRANCH  21  22
ATOM     22  N   UNL A   1      35.707  31.865  29.621  1.00  0.00    -0.352 N 
ATOM     23  C   UNL A   1      36.416  30.857  30.231  1.00  0.00     0.251 C 
ATOM     24  H   UNL A   1      34.843  32.077  30.042  1.00  0.00     0.163 HD
ATOM     25  O   UNL A   1      35.870  30.178  31.097  1.00  0.00    -0.269 OA
BRANCH  23  26
ATOM     26  C   UNL A   1      37.814  30.573  29.836  1.00  0.00     0.039 A 
ATOM     27  C   UNL A   1      38.828  30.716  30.789  1.00  0.00     0.014 A 
ATOM     28  C   UNL A   1      38.132  30.183  28.534  1.00  0.00     0.014 A 
ATOM     29  C   UNL A   1      40.143  30.384  30.458  1.00  0.00     0.010 A 
ATOM     30  C   UNL A   1      39.430  29.781  28.226  1.00  0.00     0.010 A 
ATOM     31  C   UNL A   1      40.448  29.869  29.187  1.00  0.00    -0.014 A 
BRANCH  31  32
ATOM     32  C   UNL A   1      41.814  29.394  28.848  1.00  0.00     0.031 A 
ATOM     33  C   UNL A   1      42.963  30.364  28.783  1.00  0.00     0.074 A 
ATOM     34  C   UNL A   1      42.003  28.102  28.512  1.00  0.00     0.049 A 
ATOM     35  N   UNL A   1      44.196  30.159  28.395  1.00  0.00    -0.248 NA
ATOM     36  C   UNL A   1      42.681  31.752  29.181  1.00  0.00     0.031 C 
ATOM     37  C   UNL A   1      40.961  27.072  28.491  1.00  0.00     0.029 A 
ATOM     38  N   UNL A   1      43.132  27.436  28.106  1.00  0.00    -0.354 N 
ATOM     39  C   UNL A   1      44.831  31.391  28.483  1.00  0.00     0.074 A 
ATOM     40  C   UNL A   1      43.837  32.348  28.920  1.00  0.00     0.031 C 
ATOM     41  C   UNL A   1      41.502  25.905  28.106  1.00  0.00     0.029 A 
ATOM     42  C   UNL A   1      42.917  26.110  27.815  1.00  0.00     0.049 A 
ATOM     43  H   UNL A   1      44.013  27.868  28.029  1.00  0.00     0.167 HD
ATOM     44  C   UNL A   1      46.129  31.695  28.241  1.00  0.00     0.037 A 
ATOM     45  C   UNL A   1      43.760  25.166  27.350  1.00  0.00     0.037 A 
ATOM     46  C   UNL A   1      47.121  30.735  27.836  1.00  0.00     0.049 A 
ATOM     47  C   UNL A   1      45.196  25.527  27.088  1.00  0.00     0.074 A 
ATOM     48  C   UNL A   1      48.477  30.931  27.631  1.00  0.00     0.029 A 
ATOM     49  N   UNL A   1      46.869  29.395  27.572  1.00  0.00    -0.354 N 
ATOM     50  N   UNL A   1      45.792  26.686  27.232  1.00  0.00    -0.248 NA
ATOM     51  C   UNL A   1      46.073  24.454  26.599  1.00  0.00     0.031 C 
ATOM     52  C   UNL A   1      49.036  29.720  27.207  1.00  0.00     0.029 A 
ATOM     53  C   UNL A   1      48.037  28.760  27.186  1.00  0.00     0.049 A 
ATOM     54  H   UNL A   1      45.988  28.962  27.648  1.00  0.00     0.167 HD
ATOM     55  C   UNL A   1      47.118  26.478  26.869  1.00  0.00     0.074 A 
ATOM     56  C   UNL A   1      47.239  25.079  26.514  1.00  0.00     0.031 C 
ATOM     57  C   UNL A   1      48.141  27.366  26.834  1.00  0.00     0.037 A 
BRANCH  44  58
ATOM     58  C   UNL A   1      46.552  33.127  28.413  1.00  0.00     0.058 A 
ATOM     59  C   UNL A   1      46.983  33.622  29.655  1.00  0.00     0.135 A 
ATOM     60  C   UNL A   1      46.557  34.008  27.320  1.00  0.00     0.135 A 
ATOM     61  F   UNL A   1      46.985  32.826  30.735  1.00  0.00    -0.206 F 
ATOM     62  C   UNL A   1      47.375  34.946  29.813  1.00  0.00     0.059 A 
ATOM     63  C   UNL A   1      46.969  35.332  27.450  1.00  0.00     0.059 A 
ATOM     64  F   UNL A   1      46.154  33.588  26.111  1.00  0.00    -0.206 F 
ATOM     65  C   UNL A   1      47.361  35.795  28.704  1.00  0.00     0.060 A 
BRANCH  65  66
ATOM     66  S   UNL A   1      47.870  37.513  28.927  1.00  0.00     0.124 S 
ATOM     67  O   UNL A   1      48.507  37.795  27.644  1.00  0.00    -0.237 OA
ATOM     68  O   UNL A   1      46.598  38.189  29.166  1.00  0.00    -0.237 OA
ATOM     69  O   UNL A   1      48.769  37.454  30.075  1.00  0.00    -0.744 OA
ENDBRANCH  65  66
ENDBRANCH  44  58
BRANCH  45  70
ATOM     70  C   UNL A   1      43.267  23.784  27.115  1.00  0.00     0.058 A 
ATOM     71  C   UNL A   1      42.950  23.344  25.822  1.00  0.00     0.135 A 
ATOM     72  C   UNL A   1      43.121  22.871  28.171  1.00  0.00     0.135 A 
ATOM     73  F   UNL A   1      43.068  24.183  24.781  1.00  0.00    -0.206 F 
ATOM     74  C   UNL A   1      42.494  22.053  25.583  1.00  0.00     0.059 A 
ATOM     75  C   UNL A   1      42.687  21.568  27.956  1.00  0.00     0.059 A 
ATOM     76  F   UNL A   1      43.429  23.239  29.425  1.00  0.00    -0.206 F 
ATOM     77  C   UNL A   1      42.366  21.170  26.657  1.00  0.00     0.060 A 
BRANCH  77  78
ATOM     78  S   UNL A   1      41.824  19.479  26.332  1.00  0.00     0.124 S 
ATOM     79  O   UNL A   1      42.533  19.177  25.094  1.00  0.00    -0.237 OA
ATOM     80  O   UNL A   1      42.289  18.773  27.523  1.00  0.00    -0.237 OA
ATOM     81  O   UNL A   1      40.375  19.610  26.217  1.00  0.00    -0.744 OA
ENDBRANCH  77  78
ENDBRANCH  45  70
BRANCH  57  82
ATOM     82  C   UNL A   1      49.488  26.849  26.412  1.00  0.00     0.058 A 
ATOM     83  C   UNL A   1      50.294  26.106  27.288  1.00  0.00     0.135 A 
ATOM     84  C   UNL A   1      49.955  27.058  25.105  1.00  0.00     0.135 A 
ATOM     85  F   UNL A   1      49.897  25.888  28.551  1.00  0.00    -0.206 F 
ATOM     86  C   UNL A   1      51.527  25.600  26.886  1.00  0.00     0.059 A 
ATOM     87  C   UNL A   1      51.172  26.540  24.675  1.00  0.00     0.059 A 
ATOM     88  F   UNL A   1      49.217  27.755  24.227  1.00  0.00    -0.206 F 
ATOM     89  C   UNL A   1      51.957  25.821  25.577  1.00  0.00     0.060 A 
BRANCH  89  90
ATOM     90  S   UNL A   1      53.539  25.126  25.055  1.00  0.00     0.124 S 
ATOM     91  O   UNL A   1      53.356  23.713  25.369  1.00  0.00    -0.237 OA
ATOM     92  O   UNL A   1      53.575  25.460  23.633  1.00  0.00    -0.237 OA
ATOM     93  O   UNL A   1      54.510  25.835  25.882  1.00  0.00    -0.744 OA
ENDBRANCH  89  90
ENDBRANCH  57  82
ENDBRANCH  31  32
ENDBRANCH  23  26
ENDBRANCH  21  22
ENDBRANCH   1  21
TORSDOF 16
ENDMDL
MODEL 2
REMARK VINA RESULT:     -11.2      7.235     14.182
REMARK SMILES C[C@H](CNC(=O)c1ccc(Br)nc1)C(=O)NCCCNC(=O)c1ccc(-c2c3nc(c(-c4c(F)cc(S(=O)(=O)[O-])cc4F)c4ccc([nH]4)c(-c4c(F)cc(S(=O)(=O)[O-])cc4F)c4nc(c(-c5c(F)cc(S(=O)(=O)[O-])cc5F)c5ccc2[nH]5)C=C4)C=C3)cc1
REMARK SMILES IDX 18 1 17 2 16 3 14 4 15 5 2 7 1 8 3 9 4 10 5 11 6 13 7 14
REMARK SMILES IDX 8 15 13 16 9 17 12 18 10 19 11 20 19 21 20 22 21 23 22 25
REMARK SMILES IDX 23 26 24 27 88 28 25 29 87 30 26 31 27 32 28 33 81 34 29 35
REMARK SMILES IDX 86 36 80 37 82 38 30 39 85 40 79 41 78 42 31 44 65 45 44 46
REMARK SMILES IDX 64 47 45 48 48 49 63 50 83 51 46 52 47 53 62 55 84 56 49 57
REMARK SMILES IDX 32 58 33 59 42 60 34 61 35 62 41 63 43 64 36 65 37 66 38 67
REMARK SMILES IDX 39 68 40 69 66 70 67 71 76 72 68 73 69 74 75 75 77 76 70 77
REMARK SMILES IDX 71 78 72 79 73 80 74 81 50 82 51 83 60 84 52 85 53 86 59 87
REMARK SMILES IDX 61 88 54 89 55 90 56 91 57 92 58 93
REMARK H PARENT 16 6 4 12 20 24 82 43 48 54
REMARK Flexibility Score: inf
ROOT
ATOM      1  C   UNL A   1      40.509  21.646  27.239  1.00  0.00     0.042 C 
ENDROOT
BRANCH   1   2
ATOM      2  C   UNL A   1      39.522  21.768  26.083  1.00  0.00     0.117 C 
BRANCH   2   3
ATOM      3  N   UNL A   1      38.376  22.601  26.411  1.00  0.00    -0.356 N 
ATOM      4  C   UNL A   1      37.170  22.749  25.803  1.00  0.00     0.224 C 
ATOM      5  O   UNL A   1      36.378  23.559  26.293  1.00  0.00    -0.275 OA
ATOM      6  H   UNL A   1      38.496  23.156  27.215  1.00  0.00     0.163 HD
BRANCH   4   7
ATOM      7  C   UNL A   1      36.782  21.947  24.569  1.00  0.00     0.094 C 
ATOM      8  C   UNL A   1      36.680  22.837  23.332  1.00  0.00     0.020 C 
BRANCH   7   9
ATOM      9  C   UNL A   1      35.609  21.002  24.868  1.00  0.00     0.129 C 
BRANCH   9  10
ATOM     10  N   UNL A   1      34.316  21.473  24.391  1.00  0.00    -0.351 N 
ATOM     11  C   UNL A   1      33.199  20.761  24.045  1.00  0.00     0.252 C 
ATOM     12  H   UNL A   1      34.233  22.450  24.304  1.00  0.00     0.163 HD
ATOM     13  O   UNL A   1      32.272  21.322  23.461  1.00  0.00    -0.269 OA
BRANCH  11  14
ATOM     14  C   UNL A   1      33.104  19.324  24.334  1.00  0.00     0.058 A 
ATOM     15  C   UNL A   1      33.471  18.342  23.414  1.00  0.00     0.018 A 
ATOM     16  C   UNL A   1      32.679  18.924  25.592  1.00  0.00     0.126 A 
ATOM     17  C   UNL A   1      33.344  17.000  23.771  1.00  0.00     0.037 A 
ATOM     18  N   UNL A   1      32.535  17.627  25.960  1.00  0.00    -0.249 NA
ATOM     19  C   UNL A   1      32.870  16.694  25.041  1.00  0.00     0.106 A 
ATOM     20  Br  UNL A   1      32.663  14.872  25.526  1.00  0.00    -0.029 Br
ENDBRANCH  11  14
ENDBRANCH   9  10
ENDBRANCH   7   9
ENDBRANCH   4   7
ENDBRANCH   2   3
ENDBRANCH   1   2
BRANCH   1  21
ATOM     21  C   UNL A   1      41.389  22.874  27.449  1.00  0.00     0.118 C 
BRANCH  21  22
ATOM     22  N   UNL A   1      41.427  23.745  26.284  1.00  0.00    -0.352 N 
ATOM     23  C   UNL A   1      41.276  25.109  26.189  1.00  0.00     0.251 C 
ATOM     24  H   UNL A   1      41.583  23.286  25.427  1.00  0.00     0.163 HD
ATOM     25  O   UNL A   1      41.150  25.624  25.082  1.00  0.00    -0.269 OA
BRANCH  23  26
ATOM     26  C   UNL A   1      41.241  25.949  27.407  1.00  0.00     0.039 A 
ATOM     27  C   UNL A   1      42.300  26.828  27.653  1.00  0.00     0.014 A 
ATOM     28  C   UNL A   1      40.182  25.864  28.314  1.00  0.00     0.014 A 
ATOM     29  C   UNL A   1      42.253  27.681  28.758  1.00  0.00     0.010 A 
ATOM     30  C   UNL A   1      40.100  26.766  29.372  1.00  0.00     0.010 A 
ATOM     31  C   UNL A   1      41.130  27.690  29.601  1.00  0.00    -0.014 A 
BRANCH  31  32
ATOM     32  C   UNL A   1      40.998  28.670  30.711  1.00  0.00     0.031 A 
ATOM     33  C   UNL A   1      41.862  28.551  31.937  1.00  0.00     0.074 A 
ATOM     34  C   UNL A   1      40.037  29.614  30.651  1.00  0.00     0.049 A 
ATOM     35  N   UNL A   1      41.814  29.237  33.050  1.00  0.00    -0.248 NA
ATOM     36  C   UNL A   1      42.898  27.507  31.919  1.00  0.00     0.031 C 
ATOM     37  C   UNL A   1      39.105  29.804  29.537  1.00  0.00     0.029 A 
ATOM     38  N   UNL A   1      39.673  30.581  31.554  1.00  0.00    -0.354 N 
ATOM     39  C   UNL A   1      42.797  28.698  33.871  1.00  0.00     0.074 A 
ATOM     40  C   UNL A   1      43.396  27.599  33.145  1.00  0.00     0.031 C 
ATOM     41  C   UNL A   1      38.286  30.831  29.817  1.00  0.00     0.029 A 
ATOM     42  C   UNL A   1      38.607  31.346  31.144  1.00  0.00     0.049 A 
ATOM     43  H   UNL A   1      40.131  30.713  32.415  1.00  0.00     0.167 HD
ATOM     44  C   UNL A   1      43.178  29.093  35.109  1.00  0.00     0.037 A 
ATOM     45  C   UNL A   1      37.949  32.342  31.771  1.00  0.00     0.037 A 
ATOM     46  C   UNL A   1      42.599  30.205  35.816  1.00  0.00     0.049 A 
ATOM     47  C   UNL A   1      38.390  32.763  33.146  1.00  0.00     0.074 A 
ATOM     48  C   UNL A   1      42.962  30.726  37.047  1.00  0.00     0.029 A 
ATOM     49  N   UNL A   1      41.535  30.970  35.358  1.00  0.00    -0.354 N 
ATOM     50  N   UNL A   1      39.360  32.277  33.883  1.00  0.00    -0.248 NA
ATOM     51  C   UNL A   1      37.648  33.865  33.774  1.00  0.00     0.031 C 
ATOM     52  C   UNL A   1      42.094  31.781  37.349  1.00  0.00     0.029 A 
ATOM     53  C   UNL A   1      41.215  31.943  36.290  1.00  0.00     0.049 A 
ATOM     54  H   UNL A   1      41.076  30.838  34.498  1.00  0.00     0.167 HD
ATOM     55  C   UNL A   1      39.357  33.026  35.055  1.00  0.00     0.074 A 
ATOM     56  C   UNL A   1      38.298  34.006  34.921  1.00  0.00     0.031 C 
ATOM     57  C   UNL A   1      40.157  32.911  36.142  1.00  0.00     0.037 A 
BRANCH  44  58
ATOM     58  C   UNL A   1      44.279  28.319  35.779  1.00  0.00     0.058 A 
ATOM     59  C   UNL A   1      44.004  27.239  36.633  1.00  0.00     0.135 A 
ATOM     60  C   UNL A   1      45.625  28.640  35.541  1.00  0.00     0.135 A 
ATOM     61  F   UNL A   1      42.735  26.899  36.905  1.00  0.00    -0.206 F 
ATOM     62  C   UNL A   1      45.024  26.523  37.251  1.00  0.00     0.059 A 
ATOM     63  C   UNL A   1      46.663  27.921  36.129  1.00  0.00     0.059 A 
ATOM     64  F   UNL A   1      45.944  29.663  34.734  1.00  0.00    -0.206 F 
ATOM     65  C   UNL A   1      46.351  26.874  36.995  1.00  0.00     0.060 A 
BRANCH  65  66
ATOM     66  S   UNL A   1      47.663  25.937  37.807  1.00  0.00     0.124 S 
ATOM     67  O   UNL A   1      47.329  26.132  39.214  1.00  0.00    -0.237 OA
ATOM     68  O   UNL A   1      47.455  24.589  37.287  1.00  0.00    -0.237 OA
ATOM     69  O   UNL A   1      48.883  26.599  37.354  1.00  0.00    -0.744 OA
ENDBRANCH  65  66
ENDBRANCH  44  58
BRANCH  45  70
ATOM     70  C   UNL A   1      36.810  33.017  31.097  1.00  0.00     0.058 A 
ATOM     71  C   UNL A   1      37.030  33.954  30.078  1.00  0.00     0.135 A 
ATOM     72  C   UNL A   1      35.481  32.726  31.444  1.00  0.00     0.135 A 
ATOM     73  F   UNL A   1      38.284  34.268  29.716  1.00  0.00    -0.206 F 
ATOM     74  C   UNL A   1      35.976  34.590  29.433  1.00  0.00     0.059 A 
ATOM     75  C   UNL A   1      34.409  33.333  30.799  1.00  0.00     0.059 A 
ATOM     76  F   UNL A   1      35.218  31.823  32.401  1.00  0.00    -0.206 F 
ATOM     77  C   UNL A   1      34.667  34.272  29.799  1.00  0.00     0.060 A 
BRANCH  77  78
ATOM     78  S   UNL A   1      33.303  35.063  28.920  1.00  0.00     0.124 S 
ATOM     79  O   UNL A   1      32.886  34.002  28.011  1.00  0.00    -0.237 OA
ATOM     80  O   UNL A   1      32.377  35.374  30.006  1.00  0.00    -0.237 OA
ATOM     81  O   UNL A   1      33.935  36.221  28.296  1.00  0.00    -0.744 OA
ENDBRANCH  77  78
ENDBRANCH  45  70
BRANCH  57  82
ATOM     82  C   UNL A   1      39.934  33.880  37.269  1.00  0.00     0.058 A 
ATOM     83  C   UNL A   1      40.552  35.139  37.286  1.00  0.00     0.135 A 
ATOM     84  C   UNL A   1      39.054  33.565  38.316  1.00  0.00     0.135 A 
ATOM     85  F   UNL A   1      41.409  35.484  36.312  1.00  0.00    -0.206 F 
ATOM     86  C   UNL A   1      40.319  36.049  38.312  1.00  0.00     0.059 A 
ATOM     87  C   UNL A   1      38.787  34.469  39.340  1.00  0.00     0.059 A 
ATOM     88  F   UNL A   1      38.431  32.377  38.342  1.00  0.00    -0.206 F 
ATOM     89  C   UNL A   1      39.433  35.705  39.335  1.00  0.00     0.060 A 
BRANCH  89  90
ATOM     90  S   UNL A   1      39.107  36.908  40.641  1.00  0.00     0.124 S 
ATOM     91  O   UNL A   1      38.589  38.038  39.876  1.00  0.00    -0.237 OA
ATOM     92  O   UNL A   1      38.134  36.209  41.476  1.00  0.00    -0.237 OA
ATOM     93  O   UNL A   1      40.417  37.109  41.252  1.00  0.00    -0.744 OA
ENDBRANCH  89  90
ENDBRANCH  57  82
ENDBRANCH  31  32
ENDBRANCH  23  26
ENDBRANCH  21  22
ENDBRANCH   1  21
TORSDOF 16
ENDMDL
MODEL 3
REMARK VINA RESULT:     -11.0      5.244      7.599
REMARK SMILES C[C@H](CNC(=O)c1ccc(Br)nc1)C(=O)NCCCNC(=O)c1ccc(-c2c3nc(c(-c4c(F)cc(S(=O)(=O)[O-])cc4F)c4ccc([nH]4)c(-c4c(F)cc(S(=O)(=O)[O-])cc4F)c4nc(c(-c5c(F)cc(S(=O)(=O)[O-])cc5F)c5ccc2[nH]5)C=C4)C=C3)cc1
REMARK SMILES IDX 18 1 17 2 16 3 14 4 15 5 2 7 1 8 3 9 4 10 5 11 6 13 7 14
REMARK SMILES IDX 8 15 13 16 9 17 12 18 10 19 11 20 19 21 20 22 21 23 22 25
REMARK SMILES IDX 23 26 24 27 88 28 25 29 87 30 26 31 27 32 28 33 81 34 29 35
REMARK SMILES IDX 86 36 80 37 82 38 30 39 85 40 79 41 78 42 31 44 65 45 44 46
REMARK SMILES IDX 64 47 45 48 48 49 63 50 83 51 46 52 47 53 62 55 84 56 49 57
REMARK SMILES IDX 32 58 33 59 42 60 34 61 35 62 41 63 43 64 36 65 37 66 38 67
REMARK SMILES IDX 39 68 40 69 66 70 67 71 76 72 68 73 69 74 75 75 77 76 70 77
REMARK SMILES IDX 71 78 72 79 73 80 74 81 50 82 51 83 60 84 52 85 53 86 59 87
REMARK SMILES IDX 61 88 54 89 55 90 56 91 57 92 58 93
REMARK H PARENT 16 6 4 12 20 24 82 43 48 54
REMARK Flexibility Score: inf
ROOT
ATOM      1  C   UNL A   1      32.190  27.821  27.400  1.00  0.00     0.042 C 
ENDROOT
BRANCH   1   2
ATOM      2  C   UNL A   1      31.581  27.072  26.220  1.00  0.00     0.117 C 
BRANCH   2   3
ATOM      3  N   UNL A   1      31.161  25.724  26.570  1.00  0.00    -0.356 N 
ATOM      4  C   UNL A   1      31.174  24.566  25.858  1.00  0.00     0.224 C 
ATOM      5  O   UNL A   1      30.727  23.554  26.404  1.00  0.00    -0.275 OA
ATOM      6  H   UNL A   1      30.802  25.635  27.482  1.00  0.00     0.163 HD
BRANCH   4   7
ATOM      7  C   UNL A   1      31.729  24.493  24.443  1.00  0.00     0.094 C 
ATOM      8  C   UNL A   1      30.646  24.106  23.437  1.00  0.00     0.020 C 
BRANCH   7   9
ATOM      9  C   UNL A   1      33.051  23.713  24.405  1.00  0.00     0.129 C 
BRANCH   9  10
ATOM     10  N   UNL A   1      33.657  23.486  25.710  1.00  0.00    -0.351 N 
ATOM     11  C   UNL A   1      33.931  22.310  26.354  1.00  0.00     0.252 C 
ATOM     12  H   UNL A   1      33.908  24.301  26.201  1.00  0.00     0.163 HD
ATOM     13  O   UNL A   1      34.250  22.323  27.542  1.00  0.00    -0.269 OA
BRANCH  11  14
ATOM     14  C   UNL A   1      33.819  21.024  25.652  1.00  0.00     0.058 A 
ATOM     15  C   UNL A   1      32.591  20.437  25.343  1.00  0.00     0.018 A 
ATOM     16  C   UNL A   1      34.978  20.389  25.233  1.00  0.00     0.126 A 
ATOM     17  C   UNL A   1      32.577  19.212  24.677  1.00  0.00     0.037 A 
ATOM     18  N   UNL A   1      34.992  19.192  24.597  1.00  0.00    -0.249 NA
ATOM     19  C   UNL A   1      33.791  18.630  24.334  1.00  0.00     0.106 A 
ATOM     20  Br  UNL A   1      33.785  16.948  23.457  1.00  0.00    -0.029 Br
ENDBRANCH  11  14
ENDBRANCH   9  10
ENDBRANCH   7   9
ENDBRANCH   4   7
ENDBRANCH   2   3
ENDBRANCH   1   2
BRANCH   1  21
ATOM     21  C   UNL A   1      33.483  28.562  27.077  1.00  0.00     0.118 C 
BRANCH  21  22
ATOM     22  N   UNL A   1      33.447  29.959  27.482  1.00  0.00    -0.352 N 
ATOM     23  C   UNL A   1      34.386  30.717  28.142  1.00  0.00     0.251 C 
ATOM     24  H   UNL A   1      32.620  30.438  27.247  1.00  0.00     0.163 HD
ATOM     25  O   UNL A   1      34.075  31.830  28.558  1.00  0.00    -0.269 OA
BRANCH  23  26
ATOM     26  C   UNL A   1      35.751  30.193  28.373  1.00  0.00     0.039 A 
ATOM     27  C   UNL A   1      36.670  30.214  27.320  1.00  0.00     0.014 A 
ATOM     28  C   UNL A   1      36.123  29.668  29.612  1.00  0.00     0.014 A 
ATOM     29  C   UNL A   1      37.983  29.791  27.535  1.00  0.00     0.010 A 
ATOM     30  C   UNL A   1      37.451  29.317  29.847  1.00  0.00     0.010 A 
ATOM     31  C   UNL A   1      38.397  29.383  28.814  1.00  0.00    -0.014 A 
BRANCH  31  32
ATOM     32  C   UNL A   1      39.815  29.045  29.101  1.00  0.00     0.031 A 
ATOM     33  C   UNL A   1      40.748  30.088  29.655  1.00  0.00     0.074 A 
ATOM     34  C   UNL A   1      40.285  27.822  28.780  1.00  0.00     0.049 A 
ATOM     35  N   UNL A   1      42.038  30.015  29.862  1.00  0.00    -0.248 NA
ATOM     36  C   UNL A   1      40.157  31.391  29.996  1.00  0.00     0.031 C 
ATOM     37  C   UNL A   1      39.492  26.738  28.194  1.00  0.00     0.029 A 
ATOM     38  N   UNL A   1      41.545  27.290  28.884  1.00  0.00    -0.354 N 
ATOM     39  C   UNL A   1      42.417  31.265  30.338  1.00  0.00     0.074 A 
ATOM     40  C   UNL A   1      41.228  32.090  30.348  1.00  0.00     0.031 C 
ATOM     41  C   UNL A   1      40.280  25.668  28.004  1.00  0.00     0.029 A 
ATOM     42  C   UNL A   1      41.641  26.001  28.414  1.00  0.00     0.049 A 
ATOM     43  H   UNL A   1      42.309  27.784  29.258  1.00  0.00     0.167 HD
ATOM     44  C   UNL A   1      43.640  31.681  30.746  1.00  0.00     0.037 A 
ATOM     45  C   UNL A   1      42.706  25.182  28.310  1.00  0.00     0.037 A 
ATOM     46  C   UNL A   1      44.813  30.848  30.762  1.00  0.00     0.049 A 
ATOM     47  C   UNL A   1      44.054  25.667  28.770  1.00  0.00     0.074 A 
ATOM     48  C   UNL A   1      46.083  31.157  31.221  1.00  0.00     0.029 A 
ATOM     49  N   UNL A   1      44.865  29.540  30.298  1.00  0.00    -0.354 N 
ATOM     50  N   UNL A   1      44.381  26.834  29.271  1.00  0.00    -0.248 NA
ATOM     51  C   UNL A   1      45.176  24.725  28.650  1.00  0.00     0.031 C 
ATOM     52  C   UNL A   1      46.910  30.050  31.000  1.00  0.00     0.029 A 
ATOM     53  C   UNL A   1      46.147  29.038  30.440  1.00  0.00     0.049 A 
ATOM     54  H   UNL A   1      44.102  29.045  29.924  1.00  0.00     0.167 HD
ATOM     55  C   UNL A   1      45.743  26.761  29.542  1.00  0.00     0.074 A 
ATOM     56  C   UNL A   1      46.173  25.431  29.164  1.00  0.00     0.031 C 
ATOM     57  C   UNL A   1      46.561  27.711  30.057  1.00  0.00     0.037 A 
BRANCH  44  58
ATOM     58  C   UNL A   1      43.769  33.103  31.216  1.00  0.00     0.058 A 
ATOM     59  C   UNL A   1      43.622  33.446  32.569  1.00  0.00     0.135 A 
ATOM     60  C   UNL A   1      44.074  34.130  30.309  1.00  0.00     0.135 A 
ATOM     61  F   UNL A   1      43.317  32.505  33.476  1.00  0.00    -0.206 F 
ATOM     62  C   UNL A   1      43.743  34.762  33.003  1.00  0.00     0.059 A 
ATOM     63  C   UNL A   1      44.224  35.451  30.724  1.00  0.00     0.059 A 
ATOM     64  F   UNL A   1      44.224  33.858  29.003  1.00  0.00    -0.206 F 
ATOM     65  C   UNL A   1      44.041  35.758  32.071  1.00  0.00     0.060 A 
BRANCH  65  66
ATOM     66  S   UNL A   1      44.192  37.462  32.650  1.00  0.00     0.124 S 
ATOM     67  O   UNL A   1      43.990  38.207  31.412  1.00  0.00    -0.237 OA
ATOM     68  O   UNL A   1      43.114  37.557  33.630  1.00  0.00    -0.237 OA
ATOM     69  O   UNL A   1      45.542  37.515  33.202  1.00  0.00    -0.744 OA
ENDBRANCH  65  66
ENDBRANCH  44  58
BRANCH  45  70
ATOM     70  C   UNL A   1      42.538  23.813  27.757  1.00  0.00     0.058 A 
ATOM     71  C   UNL A   1      42.427  22.703  28.607  1.00  0.00     0.135 A 
ATOM     72  C   UNL A   1      42.464  23.589  26.374  1.00  0.00     0.135 A 
ATOM     73  F   UNL A   1      42.497  22.868  29.937  1.00  0.00    -0.206 F 
ATOM     74  C   UNL A   1      42.263  21.417  28.107  1.00  0.00     0.059 A 
ATOM     75  C   UNL A   1      42.279  22.315  25.849  1.00  0.00     0.059 A 
ATOM     76  F   UNL A   1      42.547  24.622  25.520  1.00  0.00    -0.206 F 
ATOM     77  C   UNL A   1      42.189  21.232  26.725  1.00  0.00     0.060 A 
BRANCH  77  78
ATOM     78  S   UNL A   1      41.922  19.565  26.085  1.00  0.00     0.124 S 
ATOM     79  O   UNL A   1      42.343  18.746  27.216  1.00  0.00    -0.237 OA
ATOM     80  O   UNL A   1      40.490  19.571  25.798  1.00  0.00    -0.237 OA
ATOM     81  O   UNL A   1      42.787  19.516  24.910  1.00  0.00    -0.744 OA
ENDBRANCH  77  78
ENDBRANCH  45  70
BRANCH  57  82
ATOM     82  C   UNL A   1      48.004  27.342  30.260  1.00  0.00     0.058 A 
ATOM     83  C   UNL A   1      48.955  27.520  29.244  1.00  0.00     0.135 A 
ATOM     84  C   UNL A   1      48.448  26.853  31.498  1.00  0.00     0.135 A 
ATOM     85  F   UNL A   1      48.579  27.977  28.039  1.00  0.00    -0.206 F 
ATOM     86  C   UNL A   1      50.297  27.210  29.444  1.00  0.00     0.059 A 
ATOM     87  C   UNL A   1      49.788  26.559  31.728  1.00  0.00     0.059 A 
ATOM     88  F   UNL A   1      47.578  26.672  32.505  1.00  0.00    -0.206 F 
ATOM     89  C   UNL A   1      50.704  26.731  30.691  1.00  0.00     0.060 A 
BRANCH  89  90
ATOM     90  S   UNL A   1      52.453  26.370  30.951  1.00  0.00     0.124 S 
ATOM     91  O   UNL A   1      52.939  26.266  29.579  1.00  0.00    -0.237 OA
ATOM     92  O   UNL A   1      52.908  27.540  31.698  1.00  0.00    -0.237 OA
ATOM     93  O   UNL A   1      52.433  25.122  31.708  1.00  0.00    -0.744 OA
ENDBRANCH  89  90
ENDBRANCH  57  82
ENDBRANCH  31  32
ENDBRANCH  23  26
ENDBRANCH  21  22
ENDBRANCH   1  21
TORSDOF 16
ENDMDL
