MODEL 1
REMARK VINA RESULT:     -11.2      0.000      0.000
REMARK SMILES CC(=O)NS(=O)(=O)c1cc(-c2ccn(C(F)F)c(=O)c2)ccc1C(=O)NCCCNC(=O)c1ccc(-c2c3nc(c(-c4c(F)cc(S(=O)(=O)[O-])cc4F)c4ccc([nH]4)c(-c4c(F)cc(S(=O)(=O)[O-])cc4F)c4nc(c(-c5c(F)cc(S(=O)(=O)[O-])cc5F)c5ccc2[nH]5)C=C4)C=C3)cc1
REMARK SMILES IDX 28 1 27 2 26 3 24 4 25 5 23 7 8 8 9 9 10 10 22 11 21 12 5 13
REMARK SMILES IDX 6 14 7 15 4 16 1 17 2 18 3 19 11 21 12 22 20 23 13 24 18 25
REMARK SMILES IDX 14 26 19 27 15 28 16 29 17 30 29 31 30 32 31 33 32 35 33 36
REMARK SMILES IDX 34 37 98 38 35 39 97 40 36 41 37 42 38 43 91 44 39 45 96 46
REMARK SMILES IDX 90 47 92 48 40 49 95 50 89 51 88 52 41 54 75 55 54 56 74 57
REMARK SMILES IDX 55 58 58 59 73 60 93 61 56 62 57 63 72 65 94 66 59 67 42 68
REMARK SMILES IDX 43 69 52 70 44 71 45 72 51 73 53 74 46 75 47 76 48 77 49 78
REMARK SMILES IDX 50 79 76 80 77 81 86 82 78 83 79 84 85 85 87 86 80 87 81 88
REMARK SMILES IDX 82 89 83 90 84 91 60 92 61 93 70 94 62 95 63 96 69 97 71 98
REMARK SMILES IDX 64 99 65 100 66 101 67 102 68 103
REMARK H PARENT 26 6 4 20 30 34 92 53 58 64
REMARK Flexibility Score: inf
ROOT
ATOM      1  C   UNL A   1      34.582  30.947  27.341  1.00  0.00     0.042 C 
ENDROOT
BRANCH   1   2
ATOM      2  C   UNL A   1      33.638  31.819  28.178  1.00  0.00     0.118 C 
BRANCH   2   3
ATOM      3  N   UNL A   1      33.963  33.221  27.970  1.00  0.00    -0.352 N 
ATOM      4  C   UNL A   1      34.873  34.065  28.534  1.00  0.00     0.252 C 
ATOM      5  O   UNL A   1      34.781  35.266  28.272  1.00  0.00    -0.269 OA
ATOM      6  H   UNL A   1      33.411  33.650  27.276  1.00  0.00     0.163 HD
BRANCH   4   7
ATOM      7  C   UNL A   1      36.047  33.655  29.337  1.00  0.00     0.060 A 
ATOM      8  C   UNL A   1      36.229  33.782  30.715  1.00  0.00     0.101 A 
ATOM      9  C   UNL A   1      37.516  33.621  31.271  1.00  0.00     0.031 A 
ATOM     10  C   UNL A   1      38.650  33.464  30.469  1.00  0.00    -0.017 A 
ATOM     11  C   UNL A   1      37.195  33.398  28.545  1.00  0.00     0.016 A 
ATOM     12  C   UNL A   1      38.484  33.328  29.096  1.00  0.00     0.009 A 
BRANCH   8  13
ATOM     13  S   UNL A   1      35.032  34.393  31.863  1.00  0.00     0.264 S 
ATOM     14  O   UNL A   1      35.761  34.862  33.036  1.00  0.00    -0.201 OA
ATOM     15  O   UNL A   1      34.029  33.379  31.992  1.00  0.00    -0.201 OA
BRANCH  13  16
ATOM     16  N   UNL A   1      34.346  35.735  31.195  1.00  0.00    -0.249 N 
ATOM     17  C   UNL A   1      32.565  36.250  32.869  1.00  0.00     0.115 C 
ATOM     18  C   UNL A   1      33.081  36.279  31.462  1.00  0.00     0.230 C 
ATOM     19  O   UNL A   1      32.499  36.861  30.563  1.00  0.00    -0.274 OA
ATOM     20  H   UNL A   1      34.890  36.214  30.530  1.00  0.00     0.183 HD
ENDBRANCH  13  16
ENDBRANCH   8  13
BRANCH  10  21
ATOM     21  C   UNL A   1      39.960  33.705  31.098  1.00  0.00    -0.011 A 
ATOM     22  C   UNL A   1      40.370  32.944  32.266  1.00  0.00     0.027 A 
ATOM     23  C   UNL A   1      40.851  34.510  30.495  1.00  0.00     0.080 A 
ATOM     24  C   UNL A   1      41.636  32.977  32.692  1.00  0.00     0.095 A 
ATOM     25  C   UNL A   1      42.254  34.602  30.999  1.00  0.00     0.255 A 
ATOM     26  N   UNL A   1      42.575  33.773  32.064  1.00  0.00    -0.258 N 
ATOM     27  O   UNL A   1      43.029  35.369  30.435  1.00  0.00    -0.269 OA
BRANCH  26  28
ATOM     28  C   UNL A   1      43.945  33.766  32.508  1.00  0.00     0.451 C 
ATOM     29  F   UNL A   1      44.044  33.341  33.791  1.00  0.00    -0.185 F 
ATOM     30  F   UNL A   1      44.703  32.950  31.736  1.00  0.00    -0.185 F 
ENDBRANCH  26  28
ENDBRANCH  10  21
ENDBRANCH   4   7
ENDBRANCH   2   3
ENDBRANCH   1   2
BRANCH   1  31
ATOM     31  C   UNL A   1      35.297  29.842  28.113  1.00  0.00     0.118 C 
BRANCH  31  32
ATOM     32  N   UNL A   1      35.399  30.166  29.522  1.00  0.00    -0.352 N 
ATOM     33  C   UNL A   1      36.447  30.091  30.409  1.00  0.00     0.251 C 
ATOM     34  H   UNL A   1      34.563  30.502  29.917  1.00  0.00     0.163 HD
ATOM     35  O   UNL A   1      36.167  30.143  31.608  1.00  0.00    -0.269 OA
BRANCH  33  36
ATOM     36  C   UNL A   1      37.877  29.960  30.006  1.00  0.00     0.039 A 
ATOM     37  C   UNL A   1      38.163  29.932  28.632  1.00  0.00     0.014 A 
ATOM     38  C   UNL A   1      38.918  29.710  30.903  1.00  0.00     0.014 A 
ATOM     39  C   UNL A   1      39.454  29.642  28.168  1.00  0.00     0.010 A 
ATOM     40  C   UNL A   1      40.228  29.504  30.442  1.00  0.00     0.010 A 
ATOM     41  C   UNL A   1      40.504  29.417  29.070  1.00  0.00    -0.014 A 
BRANCH  41  42
ATOM     42  C   UNL A   1      41.850  28.988  28.586  1.00  0.00     0.031 A 
ATOM     43  C   UNL A   1      42.991  29.981  28.537  1.00  0.00     0.074 A 
ATOM     44  C   UNL A   1      42.068  27.718  28.189  1.00  0.00     0.049 A 
ATOM     45  N   UNL A   1      44.221  29.814  28.118  1.00  0.00    -0.248 NA
ATOM     46  C   UNL A   1      42.700  31.349  28.993  1.00  0.00     0.031 C 
ATOM     47  C   UNL A   1      41.059  26.659  28.142  1.00  0.00     0.029 A 
ATOM     48  N   UNL A   1      43.215  27.101  27.752  1.00  0.00    -0.354 N 
ATOM     49  C   UNL A   1      44.834  31.059  28.220  1.00  0.00     0.074 A 
ATOM     50  C   UNL A   1      43.831  31.979  28.711  1.00  0.00     0.031 C 
ATOM     51  C   UNL A   1      41.637  25.519  27.730  1.00  0.00     0.029 A 
ATOM     52  C   UNL A   1      43.051  25.766  27.465  1.00  0.00     0.049 A 
ATOM     53  H   UNL A   1      44.075  27.571  27.652  1.00  0.00     0.167 HD
ATOM     54  C   UNL A   1      46.117  31.408  27.954  1.00  0.00     0.037 A 
ATOM     55  C   UNL A   1      43.941  24.842  27.051  1.00  0.00     0.037 A 
ATOM     56  C   UNL A   1      47.139  30.487  27.533  1.00  0.00     0.049 A 
ATOM     57  C   UNL A   1      45.383  25.227  26.862  1.00  0.00     0.074 A 
ATOM     58  C   UNL A   1      48.477  30.739  27.276  1.00  0.00     0.029 A 
ATOM     59  N   UNL A   1      46.944  29.130  27.333  1.00  0.00    -0.354 N 
ATOM     60  N   UNL A   1      45.943  26.406  26.983  1.00  0.00    -0.248 NA
ATOM     61  C   UNL A   1      46.316  24.152  26.495  1.00  0.00     0.031 C 
ATOM     62  C   UNL A   1      49.090  29.532  26.918  1.00  0.00     0.029 A 
ATOM     63  C   UNL A   1      48.138  28.528  26.972  1.00  0.00     0.049 A 
ATOM     64  H   UNL A   1      46.083  28.662  27.433  1.00  0.00     0.167 HD
ATOM     65  C   UNL A   1      47.297  26.210  26.733  1.00  0.00     0.074 A 
ATOM     66  C   UNL A   1      47.474  24.798  26.462  1.00  0.00     0.031 C 
ATOM     67  C   UNL A   1      48.303  27.119  26.725  1.00  0.00     0.037 A 
BRANCH  54  68
ATOM     68  C   UNL A   1      46.484  32.856  28.122  1.00  0.00     0.058 A 
ATOM     69  C   UNL A   1      46.283  33.790  27.092  1.00  0.00     0.135 A 
ATOM     70  C   UNL A   1      47.042  33.318  29.325  1.00  0.00     0.135 A 
ATOM     71  F   UNL A   1      45.768  33.398  25.916  1.00  0.00    -0.206 F 
ATOM     72  C   UNL A   1      46.662  35.121  27.233  1.00  0.00     0.059 A 
ATOM     73  C   UNL A   1      47.406  34.651  29.497  1.00  0.00     0.059 A 
ATOM     74  F   UNL A   1      47.250  32.469  30.343  1.00  0.00    -0.206 F 
ATOM     75  C   UNL A   1      47.232  35.540  28.436  1.00  0.00     0.060 A 
BRANCH  75  76
ATOM     76  S   UNL A   1      47.746  37.263  28.604  1.00  0.00     0.124 S 
ATOM     77  O   UNL A   1      47.683  37.444  30.052  1.00  0.00    -0.237 OA
ATOM     78  O   UNL A   1      49.085  37.254  28.026  1.00  0.00    -0.237 OA
ATOM     79  O   UNL A   1      46.741  37.990  27.835  1.00  0.00    -0.744 OA
ENDBRANCH  75  76
ENDBRANCH  54  68
BRANCH  55  80
ATOM     80  C   UNL A   1      43.503  23.437  26.842  1.00  0.00     0.058 A 
ATOM     81  C   UNL A   1      43.353  22.919  25.548  1.00  0.00     0.135 A 
ATOM     82  C   UNL A   1      43.240  22.587  27.925  1.00  0.00     0.135 A 
ATOM     83  F   UNL A   1      43.587  23.699  24.482  1.00  0.00    -0.206 F 
ATOM     84  C   UNL A   1      42.945  21.607  25.331  1.00  0.00     0.059 A 
ATOM     85  C   UNL A   1      42.848  21.266  27.735  1.00  0.00     0.059 A 
ATOM     86  F   UNL A   1      43.382  23.035  29.182  1.00  0.00    -0.206 F 
ATOM     87  C   UNL A   1      42.695  20.787  26.433  1.00  0.00     0.060 A 
BRANCH  87  88
ATOM     88  S   UNL A   1      42.222  19.067  26.150  1.00  0.00     0.124 S 
ATOM     89  O   UNL A   1      43.181  18.664  25.127  1.00  0.00    -0.237 OA
ATOM     90  O   UNL A   1      42.409  18.470  27.469  1.00  0.00    -0.237 OA
ATOM     91  O   UNL A   1      40.833  19.173  25.710  1.00  0.00    -0.744 OA
ENDBRANCH  87  88
ENDBRANCH  55  80
BRANCH  67  92
ATOM     92  C   UNL A   1      49.687  26.606  26.459  1.00  0.00     0.058 A 
ATOM     93  C   UNL A   1      50.455  26.006  27.469  1.00  0.00     0.135 A 
ATOM     94  C   UNL A   1      50.244  26.697  25.174  1.00  0.00     0.135 A 
ATOM     95  F   UNL A   1      49.967  25.899  28.714  1.00  0.00    -0.206 F 
ATOM     96  C   UNL A   1      51.742  25.540  27.221  1.00  0.00     0.059 A 
ATOM     97  C   UNL A   1      51.524  26.222  24.900  1.00  0.00     0.059 A 
ATOM     98  F   UNL A   1      49.546  27.255  24.173  1.00  0.00    -0.206 F 
ATOM     99  C   UNL A   1      52.271  25.660  25.934  1.00  0.00     0.060 A 
BRANCH  99 100
ATOM    100  S   UNL A   1      53.939  25.047  25.611  1.00  0.00     0.124 S 
ATOM    101  O   UNL A   1      53.723  23.604  25.603  1.00  0.00    -0.237 OA
ATOM    102  O   UNL A   1      54.255  25.647  24.319  1.00  0.00    -0.237 OA
ATOM    103  O   UNL A   1      54.710  25.563  26.738  1.00  0.00    -0.744 OA
ENDBRANCH  99 100
ENDBRANCH  67  92
ENDBRANCH  41  42
ENDBRANCH  33  36
ENDBRANCH  31  32
ENDBRANCH   1  31
TORSDOF 17
ENDMDL
MODEL 2
REMARK VINA RESULT:     -10.9      0.973      8.027
REMARK SMILES CC(=O)NS(=O)(=O)c1cc(-c2ccn(C(F)F)c(=O)c2)ccc1C(=O)NCCCNC(=O)c1ccc(-c2c3nc(c(-c4c(F)cc(S(=O)(=O)[O-])cc4F)c4ccc([nH]4)c(-c4c(F)cc(S(=O)(=O)[O-])cc4F)c4nc(c(-c5c(F)cc(S(=O)(=O)[O-])cc5F)c5ccc2[nH]5)C=C4)C=C3)cc1
REMARK SMILES IDX 28 1 27 2 26 3 24 4 25 5 23 7 8 8 9 9 10 10 22 11 21 12 5 13
REMARK SMILES IDX 6 14 7 15 4 16 1 17 2 18 3 19 11 21 12 22 20 23 13 24 18 25
REMARK SMILES IDX 14 26 19 27 15 28 16 29 17 30 29 31 30 32 31 33 32 35 33 36
REMARK SMILES IDX 34 37 98 38 35 39 97 40 36 41 37 42 38 43 91 44 39 45 96 46
REMARK SMILES IDX 90 47 92 48 40 49 95 50 89 51 88 52 41 54 75 55 54 56 74 57
REMARK SMILES IDX 55 58 58 59 73 60 93 61 56 62 57 63 72 65 94 66 59 67 42 68
REMARK SMILES IDX 43 69 52 70 44 71 45 72 51 73 53 74 46 75 47 76 48 77 49 78
REMARK SMILES IDX 50 79 76 80 77 81 86 82 78 83 79 84 85 85 87 86 80 87 81 88
REMARK SMILES IDX 82 89 83 90 84 91 60 92 61 93 70 94 62 95 63 96 69 97 71 98
REMARK SMILES IDX 64 99 65 100 66 101 67 102 68 103
REMARK H PARENT 26 6 4 20 30 34 92 53 58 64
REMARK Flexibility Score: inf
ROOT
ATOM      1  C   UNL A   1      34.736  30.847  27.341  1.00  0.00     0.042 C 
ENDROOT
BRANCH   1   2
ATOM      2  C   UNL A   1      33.756  31.703  28.152  1.00  0.00     0.118 C 
BRANCH   2   3
ATOM      3  N   UNL A   1      34.032  33.110  27.915  1.00  0.00    -0.352 N 
ATOM      4  C   UNL A   1      34.894  34.004  28.478  1.00  0.00     0.252 C 
ATOM      5  O   UNL A   1      34.763  35.193  28.182  1.00  0.00    -0.269 OA
ATOM      6  H   UNL A   1      33.482  33.500  27.197  1.00  0.00     0.163 HD
BRANCH   4   7
ATOM      7  C   UNL A   1      36.063  33.660  29.320  1.00  0.00     0.060 A 
ATOM      8  C   UNL A   1      36.199  33.814  30.700  1.00  0.00     0.101 A 
ATOM      9  C   UNL A   1      37.476  33.722  31.295  1.00  0.00     0.031 A 
ATOM     10  C   UNL A   1      38.638  33.610  30.528  1.00  0.00    -0.017 A 
ATOM     11  C   UNL A   1      37.245  33.450  28.564  1.00  0.00     0.016 A 
ATOM     12  C   UNL A   1      38.519  33.449  29.153  1.00  0.00     0.009 A 
BRANCH   8  13
ATOM     13  S   UNL A   1      34.941  34.380  31.805  1.00  0.00     0.264 S 
ATOM     14  O   UNL A   1      35.611  34.881  33.000  1.00  0.00    -0.201 OA
ATOM     15  O   UNL A   1      33.975  33.328  31.905  1.00  0.00    -0.201 OA
BRANCH  13  16
ATOM     16  N   UNL A   1      34.225  35.693  31.109  1.00  0.00    -0.249 N 
ATOM     17  C   UNL A   1      32.847  36.552  33.007  1.00  0.00     0.115 C 
ATOM     18  C   UNL A   1      33.076  36.373  31.536  1.00  0.00     0.230 C 
ATOM     19  O   UNL A   1      32.367  36.898  30.694  1.00  0.00    -0.274 OA
ATOM     20  H   UNL A   1      34.658  36.041  30.297  1.00  0.00     0.183 HD
ENDBRANCH  13  16
ENDBRANCH   8  13
BRANCH  10  21
ATOM     21  C   UNL A   1      39.917  33.921  31.190  1.00  0.00    -0.011 A 
ATOM     22  C   UNL A   1      41.050  34.401  30.417  1.00  0.00     0.027 A 
ATOM     23  C   UNL A   1      39.991  33.921  32.530  1.00  0.00     0.080 A 
ATOM     24  C   UNL A   1      42.123  34.914  31.028  1.00  0.00     0.095 A 
ATOM     25  C   UNL A   1      41.209  34.436  33.225  1.00  0.00     0.255 A 
ATOM     26  N   UNL A   1      42.203  34.954  32.406  1.00  0.00    -0.258 N 
ATOM     27  O   UNL A   1      41.246  34.395  34.450  1.00  0.00    -0.269 OA
BRANCH  26  28
ATOM     28  C   UNL A   1      43.346  35.549  33.050  1.00  0.00     0.451 C 
ATOM     29  F   UNL A   1      44.348  35.772  32.164  1.00  0.00    -0.185 F 
ATOM     30  F   UNL A   1      43.022  36.732  33.624  1.00  0.00    -0.185 F 
ENDBRANCH  26  28
ENDBRANCH  10  21
ENDBRANCH   4   7
ENDBRANCH   2   3
ENDBRANCH   1   2
BRANCH   1  31
ATOM     31  C   UNL A   1      35.485  29.786  28.142  1.00  0.00     0.118 C 
BRANCH  31  32
ATOM     32  N   UNL A   1      35.529  30.123  29.551  1.00  0.00    -0.352 N 
ATOM     33  C   UNL A   1      36.552  30.107  30.468  1.00  0.00     0.251 C 
ATOM     34  H   UNL A   1      34.665  30.419  29.919  1.00  0.00     0.163 HD
ATOM     35  O   UNL A   1      36.234  30.152  31.658  1.00  0.00    -0.269 OA
BRANCH  33  36
ATOM     36  C   UNL A   1      37.998  30.046  30.108  1.00  0.00     0.039 A 
ATOM     37  C   UNL A   1      38.323  29.937  28.747  1.00  0.00     0.014 A 
ATOM     38  C   UNL A   1      39.029  29.938  31.045  1.00  0.00     0.014 A 
ATOM     39  C   UNL A   1      39.643  29.704  28.336  1.00  0.00     0.010 A 
ATOM     40  C   UNL A   1      40.362  29.789  30.630  1.00  0.00     0.010 A 
ATOM     41  C   UNL A   1      40.680  29.621  29.275  1.00  0.00    -0.014 A 
BRANCH  41  42
ATOM     42  C   UNL A   1      42.065  29.252  28.855  1.00  0.00     0.031 A 
ATOM     43  C   UNL A   1      42.358  27.857  28.347  1.00  0.00     0.074 A 
ATOM     44  C   UNL A   1      43.069  30.150  28.922  1.00  0.00     0.049 A 
ATOM     45  N   UNL A   1      43.497  27.333  27.968  1.00  0.00    -0.248 NA
ATOM     46  C   UNL A   1      41.224  26.922  28.283  1.00  0.00     0.031 C 
ATOM     47  C   UNL A   1      42.950  31.518  29.428  1.00  0.00     0.029 A 
ATOM     48  N   UNL A   1      44.390  30.046  28.560  1.00  0.00    -0.354 N 
ATOM     49  C   UNL A   1      43.225  26.002  27.664  1.00  0.00     0.074 A 
ATOM     50  C   UNL A   1      41.819  25.791  27.933  1.00  0.00     0.031 C 
ATOM     51  C   UNL A   1      44.139  32.134  29.314  1.00  0.00     0.029 A 
ATOM     52  C   UNL A   1      45.110  31.202  28.747  1.00  0.00     0.049 A 
ATOM     53  H   UNL A   1      44.785  29.218  28.198  1.00  0.00     0.167 HD
ATOM     54  C   UNL A   1      44.057  25.045  27.184  1.00  0.00     0.037 A 
ATOM     55  C   UNL A   1      46.400  31.486  28.480  1.00  0.00     0.037 A 
ATOM     56  C   UNL A   1      45.439  25.262  26.847  1.00  0.00     0.049 A 
ATOM     57  C   UNL A   1      47.279  30.440  27.851  1.00  0.00     0.074 A 
ATOM     58  C   UNL A   1      46.351  24.363  26.319  1.00  0.00     0.029 A 
ATOM     59  N   UNL A   1      46.101  26.471  26.981  1.00  0.00    -0.354 N 
ATOM     60  N   UNL A   1      46.994  29.194  27.555  1.00  0.00    -0.248 NA
ATOM     61  C   UNL A   1      48.650  30.843  27.505  1.00  0.00     0.031 C 
ATOM     62  C   UNL A   1      47.569  25.031  26.135  1.00  0.00     0.029 A 
ATOM     63  C   UNL A   1      47.406  26.349  26.530  1.00  0.00     0.049 A 
ATOM     64  H   UNL A   1      45.705  27.296  27.343  1.00  0.00     0.167 HD
ATOM     65  C   UNL A   1      48.141  28.674  26.965  1.00  0.00     0.074 A 
ATOM     66  C   UNL A   1      49.121  29.741  26.938  1.00  0.00     0.031 C 
ATOM     67  C   UNL A   1      48.363  27.423  26.491  1.00  0.00     0.037 A 
BRANCH  54  68
ATOM     68  C   UNL A   1      43.481  23.669  26.988  1.00  0.00     0.058 A 
ATOM     69  C   UNL A   1      43.344  22.770  28.058  1.00  0.00     0.135 A 
ATOM     70  C   UNL A   1      43.059  23.245  25.718  1.00  0.00     0.135 A 
ATOM     71  F   UNL A   1      43.747  23.120  29.290  1.00  0.00    -0.206 F 
ATOM     72  C   UNL A   1      42.850  21.483  27.868  1.00  0.00     0.059 A 
ATOM     73  C   UNL A   1      42.539  21.971  25.509  1.00  0.00     0.059 A 
ATOM     74  F   UNL A   1      43.162  24.067  24.662  1.00  0.00    -0.206 F 
ATOM     75  C   UNL A   1      42.459  21.089  26.587  1.00  0.00     0.060 A 
BRANCH  75  76
ATOM     76  S   UNL A   1      41.843  19.410  26.342  1.00  0.00     0.124 S 
ATOM     77  O   UNL A   1      42.324  18.746  27.550  1.00  0.00    -0.237 OA
ATOM     78  O   UNL A   1      40.400  19.608  26.260  1.00  0.00    -0.237 OA
ATOM     79  O   UNL A   1      42.485  18.995  25.098  1.00  0.00    -0.744 OA
ENDBRANCH  75  76
ENDBRANCH  54  68
BRANCH  55  80
ATOM     80  C   UNL A   1      46.928  32.848  28.755  1.00  0.00     0.058 A 
ATOM     81  C   UNL A   1      46.859  33.853  27.780  1.00  0.00     0.135 A 
ATOM     82  C   UNL A   1      47.496  33.173  29.994  1.00  0.00     0.135 A 
ATOM     83  F   UNL A   1      46.330  33.584  26.576  1.00  0.00    -0.206 F 
ATOM     84  C   UNL A   1      47.348  35.133  28.017  1.00  0.00     0.059 A 
ATOM     85  C   UNL A   1      47.975  34.451  30.263  1.00  0.00     0.059 A 
ATOM     86  F   UNL A   1      47.572  32.247  30.963  1.00  0.00    -0.206 F 
ATOM     87  C   UNL A   1      47.904  35.423  29.264  1.00  0.00     0.060 A 
BRANCH  87  88
ATOM     88  S   UNL A   1      48.483  37.102  29.591  1.00  0.00     0.124 S 
ATOM     89  O   UNL A   1      47.416  37.621  30.438  1.00  0.00    -0.237 OA
ATOM     90  O   UNL A   1      49.765  36.868  30.249  1.00  0.00    -0.237 OA
ATOM     91  O   UNL A   1      48.574  37.688  28.255  1.00  0.00    -0.744 OA
ENDBRANCH  87  88
ENDBRANCH  55  80
BRANCH  67  92
ATOM     92  C   UNL A   1      49.700  27.156  25.864  1.00  0.00     0.058 A 
ATOM     93  C   UNL A   1      50.798  26.733  26.628  1.00  0.00     0.135 A 
ATOM     94  C   UNL A   1      49.878  27.305  24.480  1.00  0.00     0.135 A 
ATOM     95  F   UNL A   1      50.678  26.580  27.956  1.00  0.00    -0.206 F 
ATOM     96  C   UNL A   1      52.038  26.496  26.045  1.00  0.00     0.059 A 
ATOM     97  C   UNL A   1      51.106  27.056  23.873  1.00  0.00     0.059 A 
ATOM     98  F   UNL A   1      48.855  27.698  23.705  1.00  0.00    -0.206 F 
ATOM     99  C   UNL A   1      52.184  26.667  24.667  1.00  0.00     0.060 A 
BRANCH  99 100
ATOM    100  S   UNL A   1      53.793  26.350  23.909  1.00  0.00     0.124 S 
ATOM    101  O   UNL A   1      54.494  27.601  24.179  1.00  0.00    -0.237 OA
ATOM    102  O   UNL A   1      54.269  25.184  24.647  1.00  0.00    -0.237 OA
ATOM    103  O   UNL A   1      53.461  26.102  22.509  1.00  0.00    -0.744 OA
ENDBRANCH  99 100
ENDBRANCH  67  92
ENDBRANCH  41  42
ENDBRANCH  33  36
ENDBRANCH  31  32
ENDBRANCH   1  31
TORSDOF 17
ENDMDL
MODEL 3
REMARK VINA RESULT:     -10.8      4.303      7.194
REMARK SMILES CC(=O)NS(=O)(=O)c1cc(-c2ccn(C(F)F)c(=O)c2)ccc1C(=O)NCCCNC(=O)c1ccc(-c2c3nc(c(-c4c(F)cc(S(=O)(=O)[O-])cc4F)c4ccc([nH]4)c(-c4c(F)cc(S(=O)(=O)[O-])cc4F)c4nc(c(-c5c(F)cc(S(=O)(=O)[O-])cc5F)c5ccc2[nH]5)C=C4)C=C3)cc1
REMARK SMILES IDX 28 1 27 2 26 3 24 4 25 5 23 7 8 8 9 9 10 10 22 11 21 12 5 13
REMARK SMILES IDX 6 14 7 15 4 16 1 17 2 18 3 19 11 21 12 22 20 23 13 24 18 25
REMARK SMILES IDX 14 26 19 27 15 28 16 29 17 30 29 31 30 32 31 33 32 35 33 36
REMARK SMILES IDX 34 37 98 38 35 39 97 40 36 41 37 42 38 43 91 44 39 45 96 46
REMARK SMILES IDX 90 47 92 48 40 49 95 50 89 51 88 52 41 54 75 55 54 56 74 57
REMARK SMILES IDX 55 58 58 59 73 60 93 61 56 62 57 63 72 65 94 66 59 67 42 68
REMARK SMILES IDX 43 69 52 70 44 71 45 72 51 73 53 74 46 75 47 76 48 77 49 78
REMARK SMILES IDX 50 79 76 80 77 81 86 82 78 83 79 84 85 85 87 86 80 87 81 88
REMARK SMILES IDX 82 89 83 90 84 91 60 92 61 93 70 94 62 95 63 96 69 97 71 98
REMARK SMILES IDX 64 99 65 100 66 101 67 102 68 103
REMARK H PARENT 26 6 4 20 30 34 92 53 58 64
REMARK Flexibility Score: inf
ROOT
ATOM      1  C   UNL A   1      34.260  31.263  27.895  1.00  0.00     0.042 C 
ENDROOT
BRANCH   1   2
ATOM      2  C   UNL A   1      34.287  29.981  27.054  1.00  0.00     0.118 C 
BRANCH   2   3
ATOM      3  N   UNL A   1      32.945  29.684  26.582  1.00  0.00    -0.352 N 
ATOM      4  C   UNL A   1      32.424  28.696  25.800  1.00  0.00     0.252 C 
ATOM      5  O   UNL A   1      31.259  28.820  25.419  1.00  0.00    -0.269 OA
ATOM      6  H   UNL A   1      32.270  30.331  26.892  1.00  0.00     0.163 HD
BRANCH   4   7
ATOM      7  C   UNL A   1      33.092  27.417  25.469  1.00  0.00     0.060 A 
ATOM      8  C   UNL A   1      33.563  26.993  24.225  1.00  0.00     0.101 A 
ATOM      9  C   UNL A   1      33.895  25.636  24.025  1.00  0.00     0.031 A 
ATOM     10  C   UNL A   1      33.645  24.666  24.999  1.00  0.00    -0.017 A 
ATOM     11  C   UNL A   1      32.936  26.434  26.480  1.00  0.00     0.016 A 
ATOM     12  C   UNL A   1      33.184  25.073  26.245  1.00  0.00     0.009 A 
BRANCH   8  13
ATOM     13  S   UNL A   1      33.555  27.948  22.738  1.00  0.00     0.264 S 
ATOM     14  O   UNL A   1      33.649  27.011  21.624  1.00  0.00    -0.201 OA
ATOM     15  O   UNL A   1      34.537  28.976  22.903  1.00  0.00    -0.201 OA
BRANCH  13  16
ATOM     16  N   UNL A   1      32.069  28.650  22.609  1.00  0.00    -0.249 N 
ATOM     17  C   UNL A   1      30.574  26.662  22.836  1.00  0.00     0.115 C 
ATOM     18  C   UNL A   1      30.850  28.034  22.296  1.00  0.00     0.230 C 
ATOM     19  O   UNL A   1      30.009  28.681  21.694  1.00  0.00    -0.274 OA
ATOM     20  H   UNL A   1      32.033  29.620  22.772  1.00  0.00     0.183 HD
ENDBRANCH  13  16
ENDBRANCH   8  13
BRANCH  10  21
ATOM     21  C   UNL A   1      33.646  23.258  24.566  1.00  0.00    -0.011 A 
ATOM     22  C   UNL A   1      34.484  22.279  25.238  1.00  0.00     0.027 A 
ATOM     23  C   UNL A   1      32.749  22.839  23.659  1.00  0.00     0.080 A 
ATOM     24  C   UNL A   1      34.314  20.971  25.020  1.00  0.00     0.095 A 
ATOM     25  C   UNL A   1      32.590  21.384  23.363  1.00  0.00     0.255 A 
ATOM     26  N   UNL A   1      33.372  20.520  24.116  1.00  0.00    -0.258 N 
ATOM     27  O   UNL A   1      31.777  21.046  22.508  1.00  0.00    -0.269 OA
BRANCH  26  28
ATOM     28  C   UNL A   1      33.170  19.107  23.924  1.00  0.00     0.451 C 
ATOM     29  F   UNL A   1      34.285  18.404  24.240  1.00  0.00    -0.185 F 
ATOM     30  F   UNL A   1      32.153  18.650  24.694  1.00  0.00    -0.185 F 
ENDBRANCH  26  28
ENDBRANCH  10  21
ENDBRANCH   4   7
ENDBRANCH   2   3
ENDBRANCH   1   2
BRANCH   1  31
ATOM     31  C   UNL A   1      35.566  31.595  28.611  1.00  0.00     0.118 C 
BRANCH  31  32
ATOM     32  N   UNL A   1      35.587  31.043  29.951  1.00  0.00    -0.352 N 
ATOM     33  C   UNL A   1      36.521  30.287  30.619  1.00  0.00     0.251 C 
ATOM     34  H   UNL A   1      34.783  31.246  30.481  1.00  0.00     0.163 HD
ATOM     35  O   UNL A   1      36.142  29.705  31.637  1.00  0.00    -0.269 OA
BRANCH  33  36
ATOM     36  C   UNL A   1      37.942  30.143  30.190  1.00  0.00     0.039 A 
ATOM     37  C   UNL A   1      38.206  30.139  28.812  1.00  0.00     0.014 A 
ATOM     38  C   UNL A   1      38.994  29.860  31.065  1.00  0.00     0.014 A 
ATOM     39  C   UNL A   1      39.485  29.839  28.322  1.00  0.00     0.010 A 
ATOM     40  C   UNL A   1      40.293  29.642  30.579  1.00  0.00     0.010 A 
ATOM     41  C   UNL A   1      40.545  29.580  29.201  1.00  0.00    -0.014 A 
BRANCH  41  42
ATOM     42  C   UNL A   1      41.877  29.140  28.687  1.00  0.00     0.031 A 
ATOM     43  C   UNL A   1      43.027  30.121  28.622  1.00  0.00     0.074 A 
ATOM     44  C   UNL A   1      42.073  27.871  28.277  1.00  0.00     0.049 A 
ATOM     45  N   UNL A   1      44.246  29.945  28.177  1.00  0.00    -0.248 NA
ATOM     46  C   UNL A   1      42.760  31.489  29.095  1.00  0.00     0.031 C 
ATOM     47  C   UNL A   1      41.051  26.824  28.241  1.00  0.00     0.029 A 
ATOM     48  N   UNL A   1      43.204  27.245  27.811  1.00  0.00    -0.354 N 
ATOM     49  C   UNL A   1      44.875  31.183  28.277  1.00  0.00     0.074 A 
ATOM     50  C   UNL A   1      43.891  32.109  28.794  1.00  0.00     0.031 C 
ATOM     51  C   UNL A   1      41.609  25.680  27.809  1.00  0.00     0.029 A 
ATOM     52  C   UNL A   1      43.021  25.914  27.518  1.00  0.00     0.049 A 
ATOM     53  H   UNL A   1      44.067  27.707  27.698  1.00  0.00     0.167 HD
ATOM     54  C   UNL A   1      46.155  31.520  27.987  1.00  0.00     0.037 A 
ATOM     55  C   UNL A   1      43.892  24.984  27.079  1.00  0.00     0.037 A 
ATOM     56  C   UNL A   1      47.159  30.592  27.539  1.00  0.00     0.049 A 
ATOM     57  C   UNL A   1      45.333  25.355  26.864  1.00  0.00     0.074 A 
ATOM     58  C   UNL A   1      48.495  30.832  27.257  1.00  0.00     0.029 A 
ATOM     59  N   UNL A   1      46.945  29.238  27.333  1.00  0.00    -0.354 N 
ATOM     60  N   UNL A   1      45.909  26.528  26.983  1.00  0.00    -0.248 NA
ATOM     61  C   UNL A   1      46.248  24.273  26.470  1.00  0.00     0.031 C 
ATOM     62  C   UNL A   1      49.087  29.621  26.877  1.00  0.00     0.029 A 
ATOM     63  C   UNL A   1      48.125  28.626  26.943  1.00  0.00     0.049 A 
ATOM     64  H   UNL A   1      46.082  28.779  27.446  1.00  0.00     0.167 HD
ATOM     65  C   UNL A   1      47.255  26.319  26.703  1.00  0.00     0.074 A 
ATOM     66  C   UNL A   1      47.411  24.907  26.419  1.00  0.00     0.031 C 
ATOM     67  C   UNL A   1      48.270  27.218  26.682  1.00  0.00     0.037 A 
BRANCH  54  68
ATOM     68  C   UNL A   1      46.541  32.963  28.158  1.00  0.00     0.058 A 
ATOM     69  C   UNL A   1      46.343  33.903  27.135  1.00  0.00     0.135 A 
ATOM     70  C   UNL A   1      47.115  33.412  29.359  1.00  0.00     0.135 A 
ATOM     71  F   UNL A   1      45.814  33.523  25.962  1.00  0.00    -0.206 F 
ATOM     72  C   UNL A   1      46.739  35.230  27.278  1.00  0.00     0.059 A 
ATOM     73  C   UNL A   1      47.496  34.740  29.534  1.00  0.00     0.059 A 
ATOM     74  F   UNL A   1      47.321  32.556  30.371  1.00  0.00    -0.206 F 
ATOM     75  C   UNL A   1      47.324  35.636  28.479  1.00  0.00     0.060 A 
BRANCH  75  76
ATOM     76  S   UNL A   1      47.860  37.352  28.651  1.00  0.00     0.124 S 
ATOM     77  O   UNL A   1      46.594  38.023  28.933  1.00  0.00    -0.237 OA
ATOM     78  O   UNL A   1      48.801  37.282  29.764  1.00  0.00    -0.237 OA
ATOM     79  O   UNL A   1      48.455  37.650  27.352  1.00  0.00    -0.744 OA
ENDBRANCH  75  76
ENDBRANCH  54  68
BRANCH  55  80
ATOM     80  C   UNL A   1      43.435  23.586  26.869  1.00  0.00     0.058 A 
ATOM     81  C   UNL A   1      43.247  23.081  25.574  1.00  0.00     0.135 A 
ATOM     82  C   UNL A   1      43.191  22.728  27.950  1.00  0.00     0.135 A 
ATOM     83  F   UNL A   1      43.462  23.869  24.509  1.00  0.00    -0.206 F 
ATOM     84  C   UNL A   1      42.820  21.776  25.356  1.00  0.00     0.059 A 
ATOM     85  C   UNL A   1      42.781  21.412  27.757  1.00  0.00     0.059 A 
ATOM     86  F   UNL A   1      43.369  23.163  29.207  1.00  0.00    -0.206 F 
ATOM     87  C   UNL A   1      42.590  20.948  26.455  1.00  0.00     0.060 A 
BRANCH  87  88
ATOM     88  S   UNL A   1      42.093  19.235  26.169  1.00  0.00     0.124 S 
ATOM     89  O   UNL A   1      40.660  19.379  25.942  1.00  0.00    -0.237 OA
ATOM     90  O   UNL A   1      42.890  18.870  25.001  1.00  0.00    -0.237 OA
ATOM     91  O   UNL A   1      42.475  18.567  27.410  1.00  0.00    -0.744 OA
ENDBRANCH  87  88
ENDBRANCH  55  80
BRANCH  67  92
ATOM     92  C   UNL A   1      49.644  26.692  26.384  1.00  0.00     0.058 A 
ATOM     93  C   UNL A   1      50.110  26.561  25.067  1.00  0.00     0.135 A 
ATOM     94  C   UNL A   1      50.510  26.335  27.429  1.00  0.00     0.135 A 
ATOM     95  F   UNL A   1      49.317  26.886  24.035  1.00  0.00    -0.206 F 
ATOM     96  C   UNL A   1      51.380  26.064  24.794  1.00  0.00     0.059 A 
ATOM     97  C   UNL A   1      51.792  25.852  27.179  1.00  0.00     0.059 A 
ATOM     98  F   UNL A   1      50.114  26.451  28.705  1.00  0.00    -0.206 F 
ATOM     99  C   UNL A   1      52.211  25.705  25.857  1.00  0.00     0.060 A 
BRANCH  99 100
ATOM    100  S   UNL A   1      53.864  25.068  25.501  1.00  0.00     0.124 S 
ATOM    101  O   UNL A   1      54.454  26.182  24.767  1.00  0.00    -0.237 OA
ATOM    102  O   UNL A   1      54.407  24.829  26.835  1.00  0.00    -0.237 OA
ATOM    103  O   UNL A   1      53.598  23.866  24.717  1.00  0.00    -0.744 OA
ENDBRANCH  99 100
ENDBRANCH  67  92
ENDBRANCH  41  42
ENDBRANCH  33  36
ENDBRANCH  31  32
ENDBRANCH   1  31
TORSDOF 17
ENDMDL
