MODEL 1
REMARK VINA RESULT:     -11.4      0.000      0.000
REMARK SMILES Cc1cc(S[C@@H](C)c2ccc(C(=O)NCCCNC(=O)c3ccc(-c4c5nc(c(-c6c(F)cc(S(=O)(=O)[O-])cc6F)c6ccc([nH]6)c(-c6c(F)cc(S(=O)(=O)[O-])cc6F)c6nc(c(-c7c(F)cc(S(=O)(=O)[O-])cc7F)c7ccc4[nH]7)C=C6)C=C5)cc3)o2)n(C)n1
REMARK SMILES IDX 16 1 15 2 14 3 12 4 13 5 11 7 8 8 9 9 87 10 10 11 6 12 7 13
REMARK SMILES IDX 5 14 4 15 1 16 2 17 3 18 90 19 88 20 89 21 17 22 18 23 19 24
REMARK SMILES IDX 20 26 21 27 22 28 86 29 23 30 85 31 24 32 25 33 26 34 79 35
REMARK SMILES IDX 27 36 84 37 78 38 80 39 28 40 83 41 77 42 76 43 29 45 63 46
REMARK SMILES IDX 42 47 62 48 43 49 46 50 61 51 81 52 44 53 45 54 60 56 82 57
REMARK SMILES IDX 47 58 30 59 31 60 40 61 32 62 33 63 39 64 41 65 34 66 35 67
REMARK SMILES IDX 36 68 37 69 38 70 64 71 65 72 74 73 66 74 67 75 73 76 75 77
REMARK SMILES IDX 68 78 69 79 70 80 71 81 72 82 48 83 49 84 58 85 50 86 51 87
REMARK SMILES IDX 57 88 59 89 52 90 53 91 54 92 55 93 56 94
REMARK H PARENT 14 6 18 25 80 44 46 55
REMARK Flexibility Score: inf
ROOT
ATOM      1  C   UNL A   1      44.055  22.960  27.094  1.00  0.00     0.042 C 
ENDROOT
BRANCH   1   2
ATOM      2  C   UNL A   1      43.004  22.299  26.205  1.00  0.00     0.118 C 
BRANCH   2   3
ATOM      3  N   UNL A   1      42.361  21.188  26.873  1.00  0.00    -0.349 N 
ATOM      4  C   UNL A   1      41.032  20.897  27.076  1.00  0.00     0.286 C 
ATOM      5  O   UNL A   1      40.808  19.812  27.617  1.00  0.00    -0.266 OA
ATOM      6  H   UNL A   1      42.983  20.524  27.248  1.00  0.00     0.163 HD
BRANCH   4   7
ATOM      7  C   UNL A   1      39.979  21.809  26.670  1.00  0.00     0.191 A 
ATOM      8  C   UNL A   1      38.031  22.219  25.677  1.00  0.00     0.118 A 
ATOM      9  C   UNL A   1      38.463  23.417  26.206  1.00  0.00     0.047 A 
ATOM     10  O   UNL A   1      38.960  21.260  25.935  1.00  0.00    -0.455 OA
ATOM     11  C   UNL A   1      39.691  23.148  26.866  1.00  0.00     0.056 A 
BRANCH   8  12
ATOM     12  C   UNL A   1      36.782  21.835  24.943  1.00  0.00     0.116 C 
ATOM     13  C   UNL A   1      36.648  22.574  23.612  1.00  0.00     0.028 C 
BRANCH  12  14
ATOM     14  S   UNL A   1      35.237  21.858  25.913  1.00  0.00    -0.096 SA
BRANCH  14  15
ATOM     15  C   UNL A   1      34.177  20.648  25.252  1.00  0.00     0.095 A 
ATOM     16  C   UNL A   1      32.802  17.715  23.523  1.00  0.00     0.069 C 
ATOM     17  C   UNL A   1      33.124  18.953  24.271  1.00  0.00     0.061 A 
ATOM     18  C   UNL A   1      34.399  19.443  24.626  1.00  0.00     0.060 A 
ATOM     19  N   UNL A   1      32.151  19.770  24.686  1.00  0.00    -0.178 NA
ATOM     20  N   UNL A   1      32.812  20.815  25.235  1.00  0.00    -0.262 N 
ATOM     21  C   UNL A   1      32.014  21.930  25.686  1.00  0.00     0.175 C 
ENDBRANCH  14  15
ENDBRANCH  12  14
ENDBRANCH   8  12
ENDBRANCH   4   7
ENDBRANCH   2   3
ENDBRANCH   1   2
BRANCH   1  22
ATOM     22  C   UNL A   1      44.099  24.482  26.952  1.00  0.00     0.118 C 
BRANCH  22  23
ATOM     23  N   UNL A   1      43.208  24.956  25.900  1.00  0.00    -0.352 N 
ATOM     24  C   UNL A   1      42.123  25.794  25.964  1.00  0.00     0.251 C 
ATOM     25  H   UNL A   1      43.419  24.622  24.999  1.00  0.00     0.163 HD
ATOM     26  O   UNL A   1      41.367  25.864  24.998  1.00  0.00    -0.269 OA
BRANCH  24  27
ATOM     27  C   UNL A   1      41.854  26.602  27.173  1.00  0.00     0.039 A 
ATOM     28  C   UNL A   1      40.951  26.114  28.123  1.00  0.00     0.014 A 
ATOM     29  C   UNL A   1      42.434  27.862  27.349  1.00  0.00     0.014 A 
ATOM     30  C   UNL A   1      40.670  26.862  29.268  1.00  0.00     0.010 A 
ATOM     31  C   UNL A   1      42.202  28.580  28.521  1.00  0.00     0.010 A 
ATOM     32  C   UNL A   1      41.315  28.090  29.491  1.00  0.00    -0.014 A 
BRANCH  32  33
ATOM     33  C   UNL A   1      41.069  28.878  30.727  1.00  0.00     0.031 A 
ATOM     34  C   UNL A   1      39.972  29.909  30.758  1.00  0.00     0.074 A 
ATOM     35  C   UNL A   1      41.865  28.701  31.800  1.00  0.00     0.049 A 
ATOM     36  N   UNL A   1      39.669  30.765  31.701  1.00  0.00    -0.248 NA
ATOM     37  C   UNL A   1      39.116  30.007  29.564  1.00  0.00     0.031 C 
ATOM     38  C   UNL A   1      42.981  27.755  31.880  1.00  0.00     0.029 A 
ATOM     39  N   UNL A   1      41.868  29.320  33.024  1.00  0.00    -0.354 N 
ATOM     40  C   UNL A   1      38.595  31.501  31.216  1.00  0.00     0.074 A 
ATOM     41  C   UNL A   1      38.331  31.029  29.874  1.00  0.00     0.031 C 
ATOM     42  C   UNL A   1      43.551  27.847  33.093  1.00  0.00     0.029 A 
ATOM     43  C   UNL A   1      42.868  28.882  33.862  1.00  0.00     0.049 A 
ATOM     44  H   UNL A   1      41.216  30.011  33.280  1.00  0.00     0.167 HD
ATOM     45  C   UNL A   1      37.876  32.464  31.842  1.00  0.00     0.037 A 
ATOM     46  C   UNL A   1      43.205  29.282  35.104  1.00  0.00     0.037 A 
ATOM     47  C   UNL A   1      38.128  32.917  33.185  1.00  0.00     0.049 A 
ATOM     48  C   UNL A   1      42.400  30.366  35.769  1.00  0.00     0.074 A 
ATOM     49  C   UNL A   1      37.450  33.879  33.911  1.00  0.00     0.029 A 
ATOM     50  N   UNL A   1      39.132  32.429  34.008  1.00  0.00    -0.354 N 
ATOM     51  N   UNL A   1      41.372  31.034  35.301  1.00  0.00    -0.248 NA
ATOM     52  C   UNL A   1      42.797  30.749  37.132  1.00  0.00     0.031 C 
ATOM     53  C   UNL A   1      38.056  33.990  35.167  1.00  0.00     0.029 A 
ATOM     54  C   UNL A   1      39.090  33.070  35.235  1.00  0.00     0.049 A 
ATOM     55  H   UNL A   1      39.778  31.729  33.759  1.00  0.00     0.167 HD
ATOM     56  C   UNL A   1      40.979  31.890  36.324  1.00  0.00     0.074 A 
ATOM     57  C   UNL A   1      41.872  31.649  37.438  1.00  0.00     0.031 C 
ATOM     58  C   UNL A   1      39.972  32.797  36.340  1.00  0.00     0.037 A 
BRANCH  45  59
ATOM     59  C   UNL A   1      36.726  33.077  31.092  1.00  0.00     0.058 A 
ATOM     60  C   UNL A   1      35.396  32.815  31.459  1.00  0.00     0.135 A 
ATOM     61  C   UNL A   1      36.948  33.977  30.038  1.00  0.00     0.135 A 
ATOM     62  F   UNL A   1      35.127  31.948  32.449  1.00  0.00    -0.206 F 
ATOM     63  C   UNL A   1      34.327  33.412  30.799  1.00  0.00     0.059 A 
ATOM     64  C   UNL A   1      35.895  34.605  29.378  1.00  0.00     0.059 A 
ATOM     65  F   UNL A   1      38.200  34.261  29.644  1.00  0.00    -0.206 F 
ATOM     66  C   UNL A   1      34.586  34.309  29.761  1.00  0.00     0.060 A 
BRANCH  66  67
ATOM     67  S   UNL A   1      33.188  35.094  28.934  1.00  0.00     0.124 S 
ATOM     68  O   UNL A   1      32.285  35.336  30.056  1.00  0.00    -0.237 OA
ATOM     69  O   UNL A   1      33.800  36.282  28.346  1.00  0.00    -0.237 OA
ATOM     70  O   UNL A   1      32.745  34.083  27.980  1.00  0.00    -0.744 OA
ENDBRANCH  66  67
ENDBRANCH  45  59
BRANCH  46  71
ATOM     71  C   UNL A   1      44.356  28.656  35.811  1.00  0.00     0.058 A 
ATOM     72  C   UNL A   1      45.661  29.138  35.630  1.00  0.00     0.135 A 
ATOM     73  C   UNL A   1      44.178  27.546  36.649  1.00  0.00     0.135 A 
ATOM     74  F   UNL A   1      45.880  30.197  34.836  1.00  0.00    -0.206 F 
ATOM     75  C   UNL A   1      46.755  28.518  36.224  1.00  0.00     0.059 A 
ATOM     76  C   UNL A   1      45.254  26.924  37.275  1.00  0.00     0.059 A 
ATOM     77  F   UNL A   1      42.948  27.059  36.872  1.00  0.00    -0.206 F 
ATOM     78  C   UNL A   1      46.541  27.406  37.040  1.00  0.00     0.060 A 
BRANCH  78  79
ATOM     79  S   UNL A   1      47.964  26.605  37.811  1.00  0.00     0.124 S 
ATOM     80  O   UNL A   1      47.465  25.249  38.004  1.00  0.00    -0.237 OA
ATOM     81  O   UNL A   1      48.999  26.767  36.794  1.00  0.00    -0.237 OA
ATOM     82  O   UNL A   1      48.167  27.386  39.028  1.00  0.00    -0.744 OA
ENDBRANCH  78  79
ENDBRANCH  46  71
BRANCH  58  83
ATOM     83  C   UNL A   1      39.749  33.558  37.617  1.00  0.00     0.058 A 
ATOM     84  C   UNL A   1      40.382  34.786  37.862  1.00  0.00     0.135 A 
ATOM     85  C   UNL A   1      38.856  33.072  38.584  1.00  0.00     0.135 A 
ATOM     86  F   UNL A   1      41.251  35.289  36.972  1.00  0.00    -0.206 F 
ATOM     87  C   UNL A   1      40.154  35.496  39.037  1.00  0.00     0.059 A 
ATOM     88  C   UNL A   1      38.593  33.778  39.754  1.00  0.00     0.059 A 
ATOM     89  F   UNL A   1      38.218  31.906  38.392  1.00  0.00    -0.206 F 
ATOM     90  C   UNL A   1      39.257  34.984  39.976  1.00  0.00     0.060 A 
BRANCH  90  91
ATOM     91  S   UNL A   1      38.943  35.931  41.480  1.00  0.00     0.124 S 
ATOM     92  O   UNL A   1      37.624  35.440  41.867  1.00  0.00    -0.237 OA
ATOM     93  O   UNL A   1      40.048  35.525  42.344  1.00  0.00    -0.237 OA
ATOM     94  O   UNL A   1      38.989  37.317  41.026  1.00  0.00    -0.744 OA
ENDBRANCH  90  91
ENDBRANCH  58  83
ENDBRANCH  32  33
ENDBRANCH  24  27
ENDBRANCH  22  23
ENDBRANCH   1  22
TORSDOF 16
ENDMDL
MODEL 2
REMARK VINA RESULT:     -11.4      0.605      8.276
REMARK SMILES Cc1cc(S[C@@H](C)c2ccc(C(=O)NCCCNC(=O)c3ccc(-c4c5nc(c(-c6c(F)cc(S(=O)(=O)[O-])cc6F)c6ccc([nH]6)c(-c6c(F)cc(S(=O)(=O)[O-])cc6F)c6nc(c(-c7c(F)cc(S(=O)(=O)[O-])cc7F)c7ccc4[nH]7)C=C6)C=C5)cc3)o2)n(C)n1
REMARK SMILES IDX 16 1 15 2 14 3 12 4 13 5 11 7 8 8 9 9 87 10 10 11 6 12 7 13
REMARK SMILES IDX 5 14 4 15 1 16 2 17 3 18 90 19 88 20 89 21 17 22 18 23 19 24
REMARK SMILES IDX 20 26 21 27 22 28 86 29 23 30 85 31 24 32 25 33 26 34 79 35
REMARK SMILES IDX 27 36 84 37 78 38 80 39 28 40 83 41 77 42 76 43 29 45 63 46
REMARK SMILES IDX 42 47 62 48 43 49 46 50 61 51 81 52 44 53 45 54 60 56 82 57
REMARK SMILES IDX 47 58 30 59 31 60 40 61 32 62 33 63 39 64 41 65 34 66 35 67
REMARK SMILES IDX 36 68 37 69 38 70 64 71 65 72 74 73 66 74 67 75 73 76 75 77
REMARK SMILES IDX 68 78 69 79 70 80 71 81 72 82 48 83 49 84 58 85 50 86 51 87
REMARK SMILES IDX 57 88 59 89 52 90 53 91 54 92 55 93 56 94
REMARK H PARENT 14 6 18 25 80 44 46 55
REMARK Flexibility Score: inf
ROOT
ATOM      1  C   UNL A   1      43.980  22.844  27.159  1.00  0.00     0.042 C 
ENDROOT
BRANCH   1   2
ATOM      2  C   UNL A   1      43.033  22.097  26.222  1.00  0.00     0.118 C 
BRANCH   2   3
ATOM      3  N   UNL A   1      42.375  20.997  26.894  1.00  0.00    -0.349 N 
ATOM      4  C   UNL A   1      41.041  20.713  27.075  1.00  0.00     0.286 C 
ATOM      5  O   UNL A   1      40.804  19.635  27.627  1.00  0.00    -0.266 OA
ATOM      6  H   UNL A   1      42.988  20.337  27.291  1.00  0.00     0.163 HD
BRANCH   4   7
ATOM      7  C   UNL A   1      39.998  21.621  26.635  1.00  0.00     0.191 A 
ATOM      8  C   UNL A   1      38.105  22.033  25.545  1.00  0.00     0.118 A 
ATOM      9  C   UNL A   1      38.486  23.221  26.132  1.00  0.00     0.047 A 
ATOM     10  O   UNL A   1      39.032  21.079  25.828  1.00  0.00    -0.455 OA
ATOM     11  C   UNL A   1      39.679  22.949  26.853  1.00  0.00     0.056 A 
BRANCH   8  12
ATOM     12  C   UNL A   1      36.905  21.652  24.729  1.00  0.00     0.116 C 
ATOM     13  C   UNL A   1      36.697  22.592  23.541  1.00  0.00     0.028 C 
BRANCH  12  14
ATOM     14  S   UNL A   1      35.364  21.346  25.655  1.00  0.00    -0.096 SA
BRANCH  14  15
ATOM     15  C   UNL A   1      34.627  19.913  25.001  1.00  0.00     0.095 A 
ATOM     16  C   UNL A   1      34.025  16.608  23.521  1.00  0.00     0.069 C 
ATOM     17  C   UNL A   1      34.025  17.965  24.113  1.00  0.00     0.061 A 
ATOM     18  C   UNL A   1      35.125  18.687  24.626  1.00  0.00     0.060 A 
ATOM     19  N   UNL A   1      32.892  18.670  24.200  1.00  0.00    -0.178 NA
ATOM     20  N   UNL A   1      33.287  19.866  24.695  1.00  0.00    -0.262 N 
ATOM     21  C   UNL A   1      32.279  20.894  24.803  1.00  0.00     0.175 C 
ENDBRANCH  14  15
ENDBRANCH  12  14
ENDBRANCH   8  12
ENDBRANCH   4   7
ENDBRANCH   2   3
ENDBRANCH   1   2
BRANCH   1  22
ATOM     22  C   UNL A   1      43.934  24.362  26.982  1.00  0.00     0.118 C 
BRANCH  22  23
ATOM     23  N   UNL A   1      43.027  24.759  25.913  1.00  0.00    -0.352 N 
ATOM     24  C   UNL A   1      41.954  25.614  25.927  1.00  0.00     0.251 C 
ATOM     25  H   UNL A   1      43.214  24.346  25.039  1.00  0.00     0.163 HD
ATOM     26  O   UNL A   1      41.178  25.613  24.974  1.00  0.00    -0.269 OA
BRANCH  24  27
ATOM     27  C   UNL A   1      41.722  26.526  27.068  1.00  0.00     0.039 A 
ATOM     28  C   UNL A   1      40.817  26.142  28.064  1.00  0.00     0.014 A 
ATOM     29  C   UNL A   1      42.336  27.779  27.133  1.00  0.00     0.014 A 
ATOM     30  C   UNL A   1      40.570  26.989  29.147  1.00  0.00     0.010 A 
ATOM     31  C   UNL A   1      42.137  28.597  28.244  1.00  0.00     0.010 A 
ATOM     32  C   UNL A   1      41.250  28.213  29.261  1.00  0.00    -0.014 A 
BRANCH  32  33
ATOM     33  C   UNL A   1      41.040  29.106  30.430  1.00  0.00     0.031 A 
ATOM     34  C   UNL A   1      41.913  28.971  31.650  1.00  0.00     0.074 A 
ATOM     35  C   UNL A   1      40.031  30.000  30.413  1.00  0.00     0.049 A 
ATOM     36  N   UNL A   1      41.821  29.583  32.803  1.00  0.00    -0.248 NA
ATOM     37  C   UNL A   1      43.022  28.006  31.570  1.00  0.00     0.031 C 
ATOM     38  C   UNL A   1      39.098  30.203  29.302  1.00  0.00     0.029 A 
ATOM     39  N   UNL A   1      39.613  30.897  31.363  1.00  0.00    -0.354 N 
ATOM     40  C   UNL A   1      42.853  29.077  33.584  1.00  0.00     0.074 A 
ATOM     41  C   UNL A   1      43.526  28.070  32.794  1.00  0.00     0.031 C 
ATOM     42  C   UNL A   1      38.226  31.171  29.629  1.00  0.00     0.029 A 
ATOM     43  C   UNL A   1      38.513  31.631  30.983  1.00  0.00     0.049 A 
ATOM     44  H   UNL A   1      40.059  31.006  32.234  1.00  0.00     0.167 HD
ATOM     45  C   UNL A   1      43.224  29.440  34.836  1.00  0.00     0.037 A 
ATOM     46  C   UNL A   1      37.807  32.560  31.658  1.00  0.00     0.037 A 
ATOM     47  C   UNL A   1      42.564  30.457  35.612  1.00  0.00     0.049 A 
ATOM     48  C   UNL A   1      38.230  32.930  33.055  1.00  0.00     0.074 A 
ATOM     49  C   UNL A   1      42.869  30.905  36.885  1.00  0.00     0.029 A 
ATOM     50  N   UNL A   1      41.472  31.197  35.181  1.00  0.00    -0.354 N 
ATOM     51  N   UNL A   1      39.225  32.457  33.768  1.00  0.00    -0.248 NA
ATOM     52  C   UNL A   1      37.439  33.964  33.738  1.00  0.00     0.031 C 
ATOM     53  C   UNL A   1      41.949  31.898  37.234  1.00  0.00     0.029 A 
ATOM     54  C   UNL A   1      41.093  32.096  36.163  1.00  0.00     0.049 A 
ATOM     55  H   UNL A   1      41.032  31.098  34.305  1.00  0.00     0.167 HD
ATOM     56  C   UNL A   1      39.198  33.159  34.968  1.00  0.00     0.074 A 
ATOM     57  C   UNL A   1      38.098  34.096  34.881  1.00  0.00     0.031 C 
ATOM     58  C   UNL A   1      40.010  33.038  36.046  1.00  0.00     0.037 A 
BRANCH  45  59
ATOM     59  C   UNL A   1      44.416  28.751  35.440  1.00  0.00     0.058 A 
ATOM     60  C   UNL A   1      44.271  27.578  36.198  1.00  0.00     0.135 A 
ATOM     61  C   UNL A   1      45.717  29.227  35.214  1.00  0.00     0.135 A 
ATOM     62  F   UNL A   1      43.048  27.089  36.459  1.00  0.00    -0.206 F 
ATOM     63  C   UNL A   1      45.372  26.910  36.724  1.00  0.00     0.059 A 
ATOM     64  C   UNL A   1      46.835  28.562  35.709  1.00  0.00     0.059 A 
ATOM     65  F   UNL A   1      45.913  30.346  34.497  1.00  0.00    -0.206 F 
ATOM     66  C   UNL A   1      46.651  27.408  36.471  1.00  0.00     0.060 A 
BRANCH  66  67
ATOM     67  S   UNL A   1      48.069  26.513  37.138  1.00  0.00     0.124 S 
ATOM     68  O   UNL A   1      48.676  25.981  35.921  1.00  0.00    -0.237 OA
ATOM     69  O   UNL A   1      48.820  27.571  37.808  1.00  0.00    -0.237 OA
ATOM     70  O   UNL A   1      47.463  25.522  38.021  1.00  0.00    -0.744 OA
ENDBRANCH  66  67
ENDBRANCH  45  59
BRANCH  46  71
ATOM     71  C   UNL A   1      36.628  33.214  31.030  1.00  0.00     0.058 A 
ATOM     72  C   UNL A   1      36.789  34.173  30.019  1.00  0.00     0.135 A 
ATOM     73  C   UNL A   1      35.322  32.921  31.450  1.00  0.00     0.135 A 
ATOM     74  F   UNL A   1      38.019  34.488  29.585  1.00  0.00    -0.206 F 
ATOM     75  C   UNL A   1      35.702  34.848  29.473  1.00  0.00     0.059 A 
ATOM     76  C   UNL A   1      34.216  33.563  30.902  1.00  0.00     0.059 A 
ATOM     77  F   UNL A   1      35.111  31.996  32.400  1.00  0.00    -0.206 F 
ATOM     78  C   UNL A   1      34.419  34.540  29.928  1.00  0.00     0.060 A 
BRANCH  78  79
ATOM     79  S   UNL A   1      33.010  35.417  29.216  1.00  0.00     0.124 S 
ATOM     80  O   UNL A   1      32.528  34.448  28.238  1.00  0.00    -0.237 OA
ATOM     81  O   UNL A   1      32.155  35.628  30.381  1.00  0.00    -0.237 OA
ATOM     82  O   UNL A   1      33.614  36.627  28.666  1.00  0.00    -0.744 OA
ENDBRANCH  78  79
ENDBRANCH  46  71
BRANCH  58  83
ATOM     83  C   UNL A   1      39.771  33.974  37.198  1.00  0.00     0.058 A 
ATOM     84  C   UNL A   1      40.272  35.284  37.199  1.00  0.00     0.135 A 
ATOM     85  C   UNL A   1      38.992  33.566  38.292  1.00  0.00     0.135 A 
ATOM     86  F   UNL A   1      41.029  35.720  36.180  1.00  0.00    -0.206 F 
ATOM     87  C   UNL A   1      40.028  36.153  38.258  1.00  0.00     0.059 A 
ATOM     88  C   UNL A   1      38.713  34.425  39.350  1.00  0.00     0.059 A 
ATOM     89  F   UNL A   1      38.481  32.325  38.334  1.00  0.00    -0.206 F 
ATOM     90  C   UNL A   1      39.247  35.714  39.329  1.00  0.00     0.060 A 
BRANCH  90  91
ATOM     91  S   UNL A   1      38.908  36.859  40.682  1.00  0.00     0.124 S 
ATOM     92  O   UNL A   1      37.989  36.080  41.505  1.00  0.00    -0.237 OA
ATOM     93  O   UNL A   1      40.236  37.078  41.248  1.00  0.00    -0.237 OA
ATOM     94  O   UNL A   1      38.324  38.016  40.010  1.00  0.00    -0.744 OA
ENDBRANCH  90  91
ENDBRANCH  58  83
ENDBRANCH  32  33
ENDBRANCH  24  27
ENDBRANCH  22  23
ENDBRANCH   1  22
TORSDOF 16
ENDMDL
MODEL 3
REMARK VINA RESULT:     -11.4      5.073     11.964
REMARK SMILES Cc1cc(S[C@@H](C)c2ccc(C(=O)NCCCNC(=O)c3ccc(-c4c5nc(c(-c6c(F)cc(S(=O)(=O)[O-])cc6F)c6ccc([nH]6)c(-c6c(F)cc(S(=O)(=O)[O-])cc6F)c6nc(c(-c7c(F)cc(S(=O)(=O)[O-])cc7F)c7ccc4[nH]7)C=C6)C=C5)cc3)o2)n(C)n1
REMARK SMILES IDX 16 1 15 2 14 3 12 4 13 5 11 7 8 8 9 9 87 10 10 11 6 12 7 13
REMARK SMILES IDX 5 14 4 15 1 16 2 17 3 18 90 19 88 20 89 21 17 22 18 23 19 24
REMARK SMILES IDX 20 26 21 27 22 28 86 29 23 30 85 31 24 32 25 33 26 34 79 35
REMARK SMILES IDX 27 36 84 37 78 38 80 39 28 40 83 41 77 42 76 43 29 45 63 46
REMARK SMILES IDX 42 47 62 48 43 49 46 50 61 51 81 52 44 53 45 54 60 56 82 57
REMARK SMILES IDX 47 58 30 59 31 60 40 61 32 62 33 63 39 64 41 65 34 66 35 67
REMARK SMILES IDX 36 68 37 69 38 70 64 71 65 72 74 73 66 74 67 75 73 76 75 77
REMARK SMILES IDX 68 78 69 79 70 80 71 81 72 82 48 83 49 84 58 85 50 86 51 87
REMARK SMILES IDX 57 88 59 89 52 90 53 91 54 92 55 93 56 94
REMARK H PARENT 14 6 18 25 80 44 46 55
REMARK Flexibility Score: inf
ROOT
ATOM      1  C   UNL A   1      33.496  33.929  28.311  1.00  0.00     0.042 C 
ENDROOT
BRANCH   1   2
ATOM      2  C   UNL A   1      34.219  35.191  28.774  1.00  0.00     0.118 C 
BRANCH   2   3
ATOM      3  N   UNL A   1      33.588  35.770  29.942  1.00  0.00    -0.349 N 
ATOM      4  C   UNL A   1      33.738  35.497  31.282  1.00  0.00     0.286 C 
ATOM      5  O   UNL A   1      33.109  36.238  32.042  1.00  0.00    -0.266 OA
ATOM      6  H   UNL A   1      32.940  36.483  29.743  1.00  0.00     0.163 HD
BRANCH   4   7
ATOM      7  C   UNL A   1      34.584  34.417  31.754  1.00  0.00     0.191 A 
ATOM      8  C   UNL A   1      36.355  33.677  32.877  1.00  0.00     0.118 A 
ATOM      9  C   UNL A   1      35.697  32.562  32.402  1.00  0.00     0.047 A 
ATOM     10  O   UNL A   1      35.697  34.792  32.461  1.00  0.00    -0.455 OA
ATOM     11  C   UNL A   1      34.550  33.035  31.712  1.00  0.00     0.056 A 
BRANCH   8  12
ATOM     12  C   UNL A   1      37.573  33.837  33.736  1.00  0.00     0.116 C 
ATOM     13  C   UNL A   1      38.832  34.089  32.906  1.00  0.00     0.028 C 
BRANCH  12  14
ATOM     14  S   UNL A   1      37.827  32.568  35.021  1.00  0.00    -0.096 SA
BRANCH  14  15
ATOM     15  C   UNL A   1      38.721  31.259  34.305  1.00  0.00     0.095 A 
ATOM     16  C   UNL A   1      39.690  28.187  32.545  1.00  0.00     0.069 C 
ATOM     17  C   UNL A   1      39.539  29.453  33.298  1.00  0.00     0.061 A 
ATOM     18  C   UNL A   1      38.363  30.211  33.489  1.00  0.00     0.060 A 
ATOM     19  N   UNL A   1      40.586  30.009  33.913  1.00  0.00    -0.178 NA
ATOM     20  N   UNL A   1      40.060  31.076  34.559  1.00  0.00    -0.262 N 
ATOM     21  C   UNL A   1      40.948  31.828  35.413  1.00  0.00     0.175 C 
ENDBRANCH  14  15
ENDBRANCH  12  14
ENDBRANCH   8  12
ENDBRANCH   4   7
ENDBRANCH   2   3
ENDBRANCH   1   2
BRANCH   1  22
ATOM     22  C   UNL A   1      34.440  32.761  28.023  1.00  0.00     0.118 C 
BRANCH  22  23
ATOM     23  N   UNL A   1      33.734  31.486  27.988  1.00  0.00    -0.352 N 
ATOM     24  C   UNL A   1      34.216  30.203  27.937  1.00  0.00     0.251 C 
ATOM     25  H   UNL A   1      32.752  31.558  28.004  1.00  0.00     0.163 HD
ATOM     26  O   UNL A   1      33.444  29.286  27.665  1.00  0.00    -0.269 OA
BRANCH  24  27
ATOM     27  C   UNL A   1      35.643  29.913  28.200  1.00  0.00     0.039 A 
ATOM     28  C   UNL A   1      36.038  29.599  29.505  1.00  0.00     0.014 A 
ATOM     29  C   UNL A   1      36.602  30.010  27.187  1.00  0.00     0.014 A 
ATOM     30  C   UNL A   1      37.380  29.333  29.782  1.00  0.00     0.010 A 
ATOM     31  C   UNL A   1      37.931  29.684  27.452  1.00  0.00     0.010 A 
ATOM     32  C   UNL A   1      38.335  29.345  28.752  1.00  0.00    -0.014 A 
BRANCH  32  33
ATOM     33  C   UNL A   1      39.760  29.016  29.016  1.00  0.00     0.031 A 
ATOM     34  C   UNL A   1      40.679  30.056  29.600  1.00  0.00     0.074 A 
ATOM     35  C   UNL A   1      40.236  27.800  28.682  1.00  0.00     0.049 A 
ATOM     36  N   UNL A   1      41.970  29.995  29.807  1.00  0.00    -0.248 NA
ATOM     37  C   UNL A   1      40.072  31.342  29.983  1.00  0.00     0.031 C 
ATOM     38  C   UNL A   1      39.451  26.719  28.081  1.00  0.00     0.029 A 
ATOM     39  N   UNL A   1      41.498  27.272  28.788  1.00  0.00    -0.354 N 
ATOM     40  C   UNL A   1      42.329  31.228  30.338  1.00  0.00     0.074 A 
ATOM     41  C   UNL A   1      41.130  32.037  30.373  1.00  0.00     0.031 C 
ATOM     42  C   UNL A   1      40.245  25.654  27.883  1.00  0.00     0.029 A 
ATOM     43  C   UNL A   1      41.601  25.987  28.308  1.00  0.00     0.049 A 
ATOM     44  H   UNL A   1      42.258  27.766  29.172  1.00  0.00     0.167 HD
ATOM     45  C   UNL A   1      43.541  31.639  30.782  1.00  0.00     0.037 A 
ATOM     46  C   UNL A   1      42.672  25.175  28.207  1.00  0.00     0.037 A 
ATOM     47  C   UNL A   1      44.728  30.824  30.764  1.00  0.00     0.049 A 
ATOM     48  C   UNL A   1      44.011  25.664  28.692  1.00  0.00     0.074 A 
ATOM     49  C   UNL A   1      46.001  31.145  31.200  1.00  0.00     0.029 A 
ATOM     50  N   UNL A   1      44.784  29.519  30.296  1.00  0.00    -0.354 N 
ATOM     51  N   UNL A   1      44.324  26.826  29.214  1.00  0.00    -0.248 NA
ATOM     52  C   UNL A   1      45.140  24.731  28.579  1.00  0.00     0.031 C 
ATOM     53  C   UNL A   1      46.833  30.044  30.976  1.00  0.00     0.029 A 
ATOM     54  C   UNL A   1      46.069  29.023  30.433  1.00  0.00     0.049 A 
ATOM     55  H   UNL A   1      44.022  29.020  29.921  1.00  0.00     0.167 HD
ATOM     56  C   UNL A   1      45.678  26.751  29.521  1.00  0.00     0.074 A 
ATOM     57  C   UNL A   1      46.121  25.426  29.138  1.00  0.00     0.031 C 
ATOM     58  C   UNL A   1      46.484  27.692  30.069  1.00  0.00     0.037 A 
BRANCH  45  59
ATOM     59  C   UNL A   1      43.644  33.027  31.352  1.00  0.00     0.058 A 
ATOM     60  C   UNL A   1      43.709  33.240  32.739  1.00  0.00     0.135 A 
ATOM     61  C   UNL A   1      43.737  34.148  30.513  1.00  0.00     0.135 A 
ATOM     62  F   UNL A   1      43.606  32.204  33.587  1.00  0.00    -0.206 F 
ATOM     63  C   UNL A   1      43.847  34.516  33.273  1.00  0.00     0.059 A 
ATOM     64  C   UNL A   1      43.901  35.432  31.025  1.00  0.00     0.059 A 
ATOM     65  F   UNL A   1      43.678  34.001  29.180  1.00  0.00    -0.206 F 
ATOM     66  C   UNL A   1      43.946  35.607  32.408  1.00  0.00     0.060 A 
BRANCH  66  67
ATOM     67  S   UNL A   1      44.153  37.253  33.119  1.00  0.00     0.124 S 
ATOM     68  O   UNL A   1      45.353  37.069  33.931  1.00  0.00    -0.237 OA
ATOM     69  O   UNL A   1      44.313  38.088  31.933  1.00  0.00    -0.237 OA
ATOM     70  O   UNL A   1      42.917  37.459  33.866  1.00  0.00    -0.744 OA
ENDBRANCH  66  67
ENDBRANCH  45  59
BRANCH  46  71
ATOM     71  C   UNL A   1      42.532  23.811  27.629  1.00  0.00     0.058 A 
ATOM     72  C   UNL A   1      42.414  22.685  28.458  1.00  0.00     0.135 A 
ATOM     73  C   UNL A   1      42.549  23.602  26.242  1.00  0.00     0.135 A 
ATOM     74  F   UNL A   1      42.394  22.835  29.791  1.00  0.00    -0.206 F 
ATOM     75  C   UNL A   1      42.357  21.398  27.936  1.00  0.00     0.059 A 
ATOM     76  C   UNL A   1      42.468  22.326  25.694  1.00  0.00     0.059 A 
ATOM     77  F   UNL A   1      42.639  24.648  25.404  1.00  0.00    -0.206 F 
ATOM     78  C   UNL A   1      42.392  21.229  26.550  1.00  0.00     0.060 A 
BRANCH  78  79
ATOM     79  S   UNL A   1      42.317  19.555  25.876  1.00  0.00     0.124 S 
ATOM     80  O   UNL A   1      42.684  18.756  27.039  1.00  0.00    -0.237 OA
ATOM     81  O   UNL A   1      40.926  19.457  25.445  1.00  0.00    -0.237 OA
ATOM     82  O   UNL A   1      43.298  19.588  24.794  1.00  0.00    -0.744 OA
ENDBRANCH  78  79
ENDBRANCH  46  71
BRANCH  58  83
ATOM     83  C   UNL A   1      47.912  27.309  30.334  1.00  0.00     0.058 A 
ATOM     84  C   UNL A   1      48.916  27.497  29.373  1.00  0.00     0.135 A 
ATOM     85  C   UNL A   1      48.286  26.789  31.584  1.00  0.00     0.135 A 
ATOM     86  F   UNL A   1      48.609  27.983  28.160  1.00  0.00    -0.206 F 
ATOM     87  C   UNL A   1      50.241  27.160  29.633  1.00  0.00     0.059 A 
ATOM     88  C   UNL A   1      49.608  26.470  31.875  1.00  0.00     0.059 A 
ATOM     89  F   UNL A   1      47.364  26.600  32.541  1.00  0.00    -0.206 F 
ATOM     90  C   UNL A   1      50.577  26.648  30.888  1.00  0.00     0.060 A 
BRANCH  90  91
ATOM     91  S   UNL A   1      52.303  26.246  31.227  1.00  0.00     0.124 S 
ATOM     92  O   UNL A   1      52.743  27.431  31.956  1.00  0.00    -0.237 OA
ATOM     93  O   UNL A   1      52.193  25.022  32.014  1.00  0.00    -0.237 OA
ATOM     94  O   UNL A   1      52.880  26.077  29.897  1.00  0.00    -0.744 OA
ENDBRANCH  90  91
ENDBRANCH  58  83
ENDBRANCH  32  33
ENDBRANCH  24  27
ENDBRANCH  22  23
ENDBRANCH   1  22
TORSDOF 16
ENDMDL
