MODEL 1
REMARK VINA RESULT:     -12.7      0.000      0.000
REMARK SMILES Cc1cc(NS(=O)(=O)c2ccc(NC(=O)[C@@H]3CCCC[C@@H]3C(=O)NCCCNC(=O)c3ccc(-c4c5nc(c(-c6c(F)cc(S(=O)(=O)[O-])cc6F)c6ccc([nH]6)c(-c6c(F)cc(S(=O)(=O)[O-])cc6F)c6nc(c(-c7c(F)cc(S(=O)(=O)[O-])cc7F)c7ccc4[nH]7)C=C6)C=C5)cc3)cc2)no1
REMARK SMILES IDX 25 1 24 2 22 3 23 4 21 6 16 7 17 8 18 9 20 10 19 11 14 12
REMARK SMILES IDX 13 13 15 15 12 16 9 17 10 18 98 19 11 20 97 21 6 22 7 23
REMARK SMILES IDX 8 24 5 25 4 27 1 28 2 29 3 30 100 31 99 32 26 33 27 34 28 35
REMARK SMILES IDX 29 36 30 38 31 39 32 40 96 41 33 42 95 43 34 44 35 45 36 46
REMARK SMILES IDX 89 47 37 48 94 49 88 50 90 51 38 52 93 53 87 54 86 55 39 57
REMARK SMILES IDX 73 58 52 59 72 60 53 61 56 62 71 63 91 64 54 65 55 66 70 68
REMARK SMILES IDX 92 69 57 70 40 71 41 72 50 73 42 74 43 75 49 76 51 77 44 78
REMARK SMILES IDX 45 79 46 80 47 81 48 82 74 83 75 84 84 85 76 86 77 87 83 88
REMARK SMILES IDX 85 89 78 90 79 91 80 92 81 93 82 94 58 95 59 96 68 97 60 98
REMARK SMILES IDX 61 99 67 100 69 101 62 102 63 103 64 104 65 105 66 106
REMARK H PARENT 24 5 13 14 5 26 28 37 90 56 56 67
REMARK Flexibility Score: inf
ROOT
ATOM      1  C   UNL A   1      33.431  30.471  26.899  1.00  0.00     0.117 C 
ENDROOT
BRANCH   1   2
ATOM      2  N   UNL A   1      33.827  29.540  25.846  1.00  0.00    -0.356 N 
ATOM      3  C   UNL A   1      33.100  28.886  24.899  1.00  0.00     0.223 C 
ATOM      4  O   UNL A   1      33.714  28.201  24.080  1.00  0.00    -0.275 OA
ATOM      5  H   UNL A   1      34.792  29.351  25.817  1.00  0.00     0.163 HD
BRANCH   3   6
ATOM      6  C   UNL A   1      31.583  29.028  24.838  1.00  0.00     0.091 C 
ATOM      7  C   UNL A   1      30.797  27.858  25.477  1.00  0.00     0.091 C 
ATOM      8  C   UNL A   1      30.138  26.818  24.563  1.00  0.00     0.014 C 
ATOM      9  C   UNL A   1      29.733  27.336  23.190  1.00  0.00     0.001 C 
ATOM     10  C   UNL A   1      31.142  29.375  23.410  1.00  0.00     0.014 C 
ATOM     11  C   UNL A   1      30.842  28.156  22.554  1.00  0.00     0.001 C 
BRANCH   7  12
ATOM     12  C   UNL A   1      31.446  27.377  26.777  1.00  0.00     0.228 C 
ATOM     13  N   UNL A   1      32.303  26.344  26.971  1.00  0.00    -0.326 N 
ATOM     14  H   UNL A   1      32.689  26.333  27.877  1.00  0.00     0.169 HD
ATOM     15  O   UNL A   1      31.141  28.004  27.805  1.00  0.00    -0.274 OA
BRANCH  13  16
ATOM     16  C   UNL A   1      32.762  25.287  26.174  1.00  0.00     0.041 A 
ATOM     17  C   UNL A   1      34.119  23.087  25.151  1.00  0.00     0.088 A 
ATOM     18  C   UNL A   1      32.756  22.981  25.436  1.00  0.00     0.024 A 
ATOM     19  C   UNL A   1      34.749  24.331  25.169  1.00  0.00     0.024 A 
ATOM     20  C   UNL A   1      32.074  24.102  25.929  1.00  0.00     0.027 A 
ATOM     21  C   UNL A   1      34.058  25.435  25.663  1.00  0.00     0.027 A 
BRANCH  17  22
ATOM     22  S   UNL A   1      35.091  21.631  24.883  1.00  0.00     0.263 S 
ATOM     23  O   UNL A   1      35.474  21.072  26.164  1.00  0.00    -0.201 OA
ATOM     24  O   UNL A   1      36.100  21.969  23.899  1.00  0.00    -0.201 OA
BRANCH  22  25
ATOM     25  N   UNL A   1      34.095  20.526  24.120  1.00  0.00    -0.261 N 
ATOM     26  H   UNL A   1      33.862  20.721  23.184  1.00  0.00     0.182 HD
BRANCH  25  27
ATOM     27  C   UNL A   1      33.562  19.365  24.657  1.00  0.00     0.183 A 
ATOM     28  C   UNL A   1      33.160  15.747  25.158  1.00  0.00     0.091 C 
ATOM     29  C   UNL A   1      33.239  17.215  25.039  1.00  0.00     0.135 A 
ATOM     30  C   UNL A   1      34.132  18.085  24.462  1.00  0.00     0.096 A 
ATOM     31  O   UNL A   1      32.220  17.930  25.584  1.00  0.00    -0.360 OA
ATOM     32  N   UNL A   1      32.436  19.278  25.364  1.00  0.00    -0.061 NA
ENDBRANCH  25  27
ENDBRANCH  22  25
ENDBRANCH  17  22
ENDBRANCH  13  16
ENDBRANCH   7  12
ENDBRANCH   3   6
ENDBRANCH   1   2
BRANCH   1  33
ATOM     33  C   UNL A   1      34.620  31.182  27.538  1.00  0.00     0.042 C 
BRANCH  33  34
ATOM     34  C   UNL A   1      35.503  30.299  28.404  1.00  0.00     0.118 C 
BRANCH  34  35
ATOM     35  N   UNL A   1      35.475  30.669  29.809  1.00  0.00    -0.352 N 
ATOM     36  C   UNL A   1      36.484  30.645  30.745  1.00  0.00     0.251 C 
ATOM     37  H   UNL A   1      34.604  30.985  30.142  1.00  0.00     0.163 HD
ATOM     38  O   UNL A   1      36.216  30.838  31.928  1.00  0.00    -0.269 OA
BRANCH  36  39
ATOM     39  C   UNL A   1      37.880  30.357  30.339  1.00  0.00     0.039 A 
ATOM     40  C   UNL A   1      38.729  29.714  31.245  1.00  0.00     0.014 A 
ATOM     41  C   UNL A   1      38.359  30.720  29.078  1.00  0.00     0.014 A 
ATOM     42  C   UNL A   1      40.027  29.368  30.859  1.00  0.00     0.010 A 
ATOM     43  C   UNL A   1      39.620  30.297  28.664  1.00  0.00     0.010 A 
ATOM     44  C   UNL A   1      40.472  29.619  29.551  1.00  0.00    -0.014 A 
BRANCH  44  45
ATOM     45  C   UNL A   1      41.817  29.190  29.086  1.00  0.00     0.031 A 
ATOM     46  C   UNL A   1      42.932  30.196  28.968  1.00  0.00     0.074 A 
ATOM     47  C   UNL A   1      42.017  27.916  28.691  1.00  0.00     0.049 A 
ATOM     48  N   UNL A   1      44.135  30.044  28.481  1.00  0.00    -0.248 NA
ATOM     49  C   UNL A   1      42.641  31.563  29.431  1.00  0.00     0.031 C 
ATOM     50  C   UNL A   1      41.007  26.856  28.708  1.00  0.00     0.029 A 
ATOM     51  N   UNL A   1      43.134  27.299  28.182  1.00  0.00    -0.354 N 
ATOM     52  C   UNL A   1      44.736  31.296  28.553  1.00  0.00     0.074 A 
ATOM     53  C   UNL A   1      43.749  32.206  29.089  1.00  0.00     0.031 C 
ATOM     54  C   UNL A   1      41.553  25.719  28.244  1.00  0.00     0.029 A 
ATOM     55  C   UNL A   1      42.937  25.977  27.860  1.00  0.00     0.049 A 
ATOM     56  H   UNL A   1      43.994  27.761  28.059  1.00  0.00     0.167 HD
ATOM     57  C   UNL A   1      46.001  31.650  28.225  1.00  0.00     0.037 A 
ATOM     58  C   UNL A   1      43.770  25.075  27.303  1.00  0.00     0.037 A 
ATOM     59  C   UNL A   1      46.992  30.733  27.728  1.00  0.00     0.049 A 
ATOM     60  C   UNL A   1      45.175  25.487  26.959  1.00  0.00     0.074 A 
ATOM     61  C   UNL A   1      48.323  30.979  27.436  1.00  0.00     0.029 A 
ATOM     62  N   UNL A   1      46.764  29.392  27.451  1.00  0.00    -0.354 N 
ATOM     63  N   UNL A   1      45.746  26.661  27.097  1.00  0.00    -0.248 NA
ATOM     64  C   UNL A   1      46.053  24.456  26.387  1.00  0.00     0.031 C 
ATOM     65  C   UNL A   1      48.888  29.798  26.944  1.00  0.00     0.029 A 
ATOM     66  C   UNL A   1      47.923  28.803  26.973  1.00  0.00     0.049 A 
ATOM     67  H   UNL A   1      45.904  28.929  27.577  1.00  0.00     0.167 HD
ATOM     68  C   UNL A   1      47.054  26.502  26.653  1.00  0.00     0.074 A 
ATOM     69  C   UNL A   1      47.195  25.118  26.251  1.00  0.00     0.031 C 
ATOM     70  C   UNL A   1      48.050  27.421  26.588  1.00  0.00     0.037 A 
BRANCH  57  71
ATOM     71  C   UNL A   1      46.388  33.094  28.395  1.00  0.00     0.058 A 
ATOM     72  C   UNL A   1      46.921  33.578  29.601  1.00  0.00     0.135 A 
ATOM     73  C   UNL A   1      46.251  34.000  27.331  1.00  0.00     0.135 A 
ATOM     74  F   UNL A   1      47.061  32.758  30.655  1.00  0.00    -0.206 F 
ATOM     75  C   UNL A   1      47.273  34.915  29.756  1.00  0.00     0.059 A 
ATOM     76  C   UNL A   1      46.623  35.336  27.454  1.00  0.00     0.059 A 
ATOM     77  F   UNL A   1      45.747  33.592  26.155  1.00  0.00    -0.206 F 
ATOM     78  C   UNL A   1      47.117  35.786  28.678  1.00  0.00     0.060 A 
BRANCH  78  79
ATOM     79  S   UNL A   1      47.577  37.519  28.897  1.00  0.00     0.124 S 
ATOM     80  O   UNL A   1      47.313  38.059  27.567  1.00  0.00    -0.237 OA
ATOM     81  O   UNL A   1      46.666  37.955  29.950  1.00  0.00    -0.237 OA
ATOM     82  O   UNL A   1      48.985  37.451  29.279  1.00  0.00    -0.744 OA
ENDBRANCH  78  79
ENDBRANCH  57  71
BRANCH  58  83
ATOM     83  C   UNL A   1      43.299  23.687  27.052  1.00  0.00     0.058 A 
ATOM     84  C   UNL A   1      43.136  22.778  28.107  1.00  0.00     0.135 A 
ATOM     85  C   UNL A   1      42.980  23.248  25.756  1.00  0.00     0.135 A 
ATOM     86  F   UNL A   1      43.435  23.148  29.362  1.00  0.00    -0.206 F 
ATOM     87  C   UNL A   1      42.687  21.480  27.889  1.00  0.00     0.059 A 
ATOM     88  C   UNL A   1      42.506  21.962  25.516  1.00  0.00     0.059 A 
ATOM     89  F   UNL A   1      43.103  24.085  24.714  1.00  0.00    -0.206 F 
ATOM     90  C   UNL A   1      42.372  21.082  26.588  1.00  0.00     0.060 A 
BRANCH  90  91
ATOM     91  S   UNL A   1      41.737  19.412  26.324  1.00  0.00     0.124 S 
ATOM     92  O   UNL A   1      42.439  19.020  25.108  1.00  0.00    -0.237 OA
ATOM     93  O   UNL A   1      42.147  18.729  27.547  1.00  0.00    -0.237 OA
ATOM     94  O   UNL A   1      40.298  19.619  26.185  1.00  0.00    -0.744 OA
ENDBRANCH  90  91
ENDBRANCH  58  83
BRANCH  70  95
ATOM     95  C   UNL A   1      49.393  26.959  26.094  1.00  0.00     0.058 A 
ATOM     96  C   UNL A   1      49.754  27.055  24.741  1.00  0.00     0.135 A 
ATOM     97  C   UNL A   1      50.356  26.484  26.999  1.00  0.00     0.135 A 
ATOM     98  F   UNL A   1      48.867  27.496  23.835  1.00  0.00    -0.206 F 
ATOM     99  C   UNL A   1      51.022  26.687  24.302  1.00  0.00     0.059 A 
ATOM    100  C   UNL A   1      51.636  26.134  26.585  1.00  0.00     0.059 A 
ATOM    101  F   UNL A   1      50.063  26.381  28.305  1.00  0.00    -0.206 F 
ATOM    102  C   UNL A   1      51.958  26.232  25.231  1.00  0.00     0.060 A 
BRANCH 102 103
ATOM    103  S   UNL A   1      53.617  25.810  24.656  1.00  0.00     0.124 S 
ATOM    104  O   UNL A   1      53.610  24.357  24.783  1.00  0.00    -0.237 OA
ATOM    105  O   UNL A   1      53.616  26.328  23.292  1.00  0.00    -0.237 OA
ATOM    106  O   UNL A   1      54.490  26.518  25.588  1.00  0.00    -0.744 OA
ENDBRANCH 102 103
ENDBRANCH  70  95
ENDBRANCH  44  45
ENDBRANCH  36  39
ENDBRANCH  34  35
ENDBRANCH  33  34
ENDBRANCH   1  33
TORSDOF 18
ENDMDL
MODEL 2
REMARK VINA RESULT:     -12.1      5.741      7.847
REMARK SMILES Cc1cc(NS(=O)(=O)c2ccc(NC(=O)[C@@H]3CCCC[C@@H]3C(=O)NCCCNC(=O)c3ccc(-c4c5nc(c(-c6c(F)cc(S(=O)(=O)[O-])cc6F)c6ccc([nH]6)c(-c6c(F)cc(S(=O)(=O)[O-])cc6F)c6nc(c(-c7c(F)cc(S(=O)(=O)[O-])cc7F)c7ccc4[nH]7)C=C6)C=C5)cc3)cc2)no1
REMARK SMILES IDX 25 1 24 2 22 3 23 4 21 6 16 7 17 8 18 9 20 10 19 11 14 12
REMARK SMILES IDX 13 13 15 15 12 16 9 17 10 18 98 19 11 20 97 21 6 22 7 23
REMARK SMILES IDX 8 24 5 25 4 27 1 28 2 29 3 30 100 31 99 32 26 33 27 34 28 35
REMARK SMILES IDX 29 36 30 38 31 39 32 40 96 41 33 42 95 43 34 44 35 45 36 46
REMARK SMILES IDX 89 47 37 48 94 49 88 50 90 51 38 52 93 53 87 54 86 55 39 57
REMARK SMILES IDX 73 58 52 59 72 60 53 61 56 62 71 63 91 64 54 65 55 66 70 68
REMARK SMILES IDX 92 69 57 70 40 71 41 72 50 73 42 74 43 75 49 76 51 77 44 78
REMARK SMILES IDX 45 79 46 80 47 81 48 82 74 83 75 84 84 85 76 86 77 87 83 88
REMARK SMILES IDX 85 89 78 90 79 91 80 92 81 93 82 94 58 95 59 96 68 97 60 98
REMARK SMILES IDX 61 99 67 100 69 101 62 102 63 103 64 104 65 105 66 106
REMARK H PARENT 24 5 13 14 5 26 28 37 90 56 56 67
REMARK Flexibility Score: inf
ROOT
ATOM      1  C   UNL A   1      31.385  31.244  25.789  1.00  0.00     0.117 C 
ENDROOT
BRANCH   1   2
ATOM      2  N   UNL A   1      31.770  29.911  26.240  1.00  0.00    -0.356 N 
ATOM      3  C   UNL A   1      32.068  28.775  25.551  1.00  0.00     0.223 C 
ATOM      4  O   UNL A   1      32.432  27.792  26.199  1.00  0.00    -0.275 OA
ATOM      5  H   UNL A   1      31.820  29.815  27.218  1.00  0.00     0.163 HD
BRANCH   3   6
ATOM      6  C   UNL A   1      31.986  28.736  24.029  1.00  0.00     0.091 C 
ATOM      7  C   UNL A   1      31.371  27.442  23.446  1.00  0.00     0.091 C 
ATOM      8  C   UNL A   1      32.299  26.391  22.825  1.00  0.00     0.014 C 
ATOM      9  C   UNL A   1      33.589  26.944  22.235  1.00  0.00     0.001 C 
ATOM     10  C   UNL A   1      33.340  29.120  23.416  1.00  0.00     0.014 C 
ATOM     11  C   UNL A   1      34.256  27.931  23.178  1.00  0.00     0.001 C 
BRANCH   7  12
ATOM     12  C   UNL A   1      30.173  26.960  24.266  1.00  0.00     0.228 C 
ATOM     13  N   UNL A   1      30.082  25.893  25.099  1.00  0.00    -0.326 N 
ATOM     14  H   UNL A   1      29.246  25.884  25.619  1.00  0.00     0.169 HD
ATOM     15  O   UNL A   1      29.127  27.622  24.149  1.00  0.00    -0.274 OA
BRANCH  13  16
ATOM     16  C   UNL A   1      30.910  24.800  25.386  1.00  0.00     0.041 A 
ATOM     17  C   UNL A   1      32.908  22.868  25.371  1.00  0.00     0.088 A 
ATOM     18  C   UNL A   1      32.829  23.764  26.438  1.00  0.00     0.024 A 
ATOM     19  C   UNL A   1      31.878  22.793  24.434  1.00  0.00     0.024 A 
ATOM     20  C   UNL A   1      31.804  24.721  26.450  1.00  0.00     0.027 A 
ATOM     21  C   UNL A   1      30.868  23.751  24.458  1.00  0.00     0.027 A 
BRANCH  17  22
ATOM     22  S   UNL A   1      34.371  21.900  25.124  1.00  0.00     0.263 S 
ATOM     23  O   UNL A   1      34.863  21.445  26.410  1.00  0.00    -0.201 OA
ATOM     24  O   UNL A   1      35.232  22.651  24.234  1.00  0.00    -0.201 OA
BRANCH  22  25
ATOM     25  N   UNL A   1      33.910  20.553  24.247  1.00  0.00    -0.261 N 
ATOM     26  H   UNL A   1      33.984  20.623  23.268  1.00  0.00     0.182 HD
BRANCH  25  27
ATOM     27  C   UNL A   1      33.437  19.350  24.744  1.00  0.00     0.183 A 
ATOM     28  C   UNL A   1      33.334  15.713  25.259  1.00  0.00     0.091 C 
ATOM     29  C   UNL A   1      33.283  17.181  25.125  1.00  0.00     0.135 A 
ATOM     30  C   UNL A   1      34.144  18.130  24.632  1.00  0.00     0.096 A 
ATOM     31  O   UNL A   1      32.148  17.796  25.546  1.00  0.00    -0.360 OA
ATOM     32  N   UNL A   1      32.254  19.157  25.328  1.00  0.00    -0.061 NA
ENDBRANCH  25  27
ENDBRANCH  22  25
ENDBRANCH  17  22
ENDBRANCH  13  16
ENDBRANCH   7  12
ENDBRANCH   3   6
ENDBRANCH   1   2
BRANCH   1  33
ATOM     33  C   UNL A   1      31.414  32.279  26.908  1.00  0.00     0.042 C 
BRANCH  33  34
ATOM     34  C   UNL A   1      32.798  32.791  27.272  1.00  0.00     0.118 C 
BRANCH  34  35
ATOM     35  N   UNL A   1      32.786  34.149  27.789  1.00  0.00    -0.352 N 
ATOM     36  C   UNL A   1      33.528  34.712  28.802  1.00  0.00     0.251 C 
ATOM     37  H   UNL A   1      32.151  34.760  27.348  1.00  0.00     0.163 HD
ATOM     38  O   UNL A   1      33.248  35.838  29.202  1.00  0.00    -0.269 OA
BRANCH  36  39
ATOM     39  C   UNL A   1      34.638  33.956  29.429  1.00  0.00     0.039 A 
ATOM     40  C   UNL A   1      35.955  34.344  29.164  1.00  0.00     0.014 A 
ATOM     41  C   UNL A   1      34.392  32.868  30.270  1.00  0.00     0.014 A 
ATOM     42  C   UNL A   1      37.015  33.692  29.800  1.00  0.00     0.010 A 
ATOM     43  C   UNL A   1      35.442  32.279  30.971  1.00  0.00     0.010 A 
ATOM     44  C   UNL A   1      36.767  32.681  30.742  1.00  0.00    -0.014 A 
BRANCH  44  45
ATOM     45  C   UNL A   1      37.869  32.025  31.495  1.00  0.00     0.031 A 
ATOM     46  C   UNL A   1      38.297  32.570  32.833  1.00  0.00     0.074 A 
ATOM     47  C   UNL A   1      38.541  30.995  30.943  1.00  0.00     0.049 A 
ATOM     48  N   UNL A   1      39.302  32.211  33.588  1.00  0.00    -0.248 NA
ATOM     49  C   UNL A   1      37.507  33.687  33.376  1.00  0.00     0.031 C 
ATOM     50  C   UNL A   1      38.259  30.406  29.632  1.00  0.00     0.029 A 
ATOM     51  N   UNL A   1      39.611  30.270  31.406  1.00  0.00    -0.354 N 
ATOM     52  C   UNL A   1      39.283  33.072  34.680  1.00  0.00     0.074 A 
ATOM     53  C   UNL A   1      38.194  33.999  34.466  1.00  0.00     0.031 C 
ATOM     54  C   UNL A   1      39.124  29.403  29.403  1.00  0.00     0.029 A 
ATOM     55  C   UNL A   1      40.047  29.303  30.530  1.00  0.00     0.049 A 
ATOM     56  H   UNL A   1      40.028  30.427  32.284  1.00  0.00     0.167 HD
ATOM     57  C   UNL A   1      40.084  33.076  35.772  1.00  0.00     0.037 A 
ATOM     58  C   UNL A   1      41.081  28.443  30.614  1.00  0.00     0.037 A 
ATOM     59  C   UNL A   1      41.141  32.127  35.999  1.00  0.00     0.049 A 
ATOM     60  C   UNL A   1      41.949  28.456  31.842  1.00  0.00     0.074 A 
ATOM     61  C   UNL A   1      41.961  32.002  37.107  1.00  0.00     0.029 A 
ATOM     62  N   UNL A   1      41.526  31.139  35.104  1.00  0.00    -0.354 N 
ATOM     63  N   UNL A   1      41.874  29.235  32.896  1.00  0.00    -0.248 NA
ATOM     64  C   UNL A   1      43.041  27.474  31.899  1.00  0.00     0.031 C 
ATOM     65  C   UNL A   1      42.868  30.965  36.865  1.00  0.00     0.029 A 
ATOM     66  C   UNL A   1      42.584  30.413  35.626  1.00  0.00     0.049 A 
ATOM     67  H   UNL A   1      41.108  30.978  34.227  1.00  0.00     0.167 HD
ATOM     68  C   UNL A   1      42.890  28.820  33.749  1.00  0.00     0.074 A 
ATOM     69  C   UNL A   1      43.562  27.716  33.095  1.00  0.00     0.031 C 
ATOM     70  C   UNL A   1      43.234  29.308  34.967  1.00  0.00     0.037 A 
BRANCH  57  71
ATOM     71  C   UNL A   1      39.845  34.140  36.809  1.00  0.00     0.058 A 
ATOM     72  C   UNL A   1      39.051  33.900  37.942  1.00  0.00     0.135 A 
ATOM     73  C   UNL A   1      40.441  35.405  36.684  1.00  0.00     0.135 A 
ATOM     74  F   UNL A   1      38.446  32.713  38.105  1.00  0.00    -0.206 F 
ATOM     75  C   UNL A   1      38.828  34.888  38.896  1.00  0.00     0.059 A 
ATOM     76  C   UNL A   1      40.256  36.399  37.640  1.00  0.00     0.059 A 
ATOM     77  F   UNL A   1      41.212  35.688  35.621  1.00  0.00    -0.206 F 
ATOM     78  C   UNL A   1      39.433  36.135  38.735  1.00  0.00     0.060 A 
BRANCH  78  79
ATOM     79  S   UNL A   1      39.133  37.406  39.982  1.00  0.00     0.124 S 
ATOM     80  O   UNL A   1      38.261  38.324  39.255  1.00  0.00    -0.237 OA
ATOM     81  O   UNL A   1      38.500  36.649  41.056  1.00  0.00    -0.237 OA
ATOM     82  O   UNL A   1      40.469  37.913  40.279  1.00  0.00    -0.744 OA
ENDBRANCH  78  79
ENDBRANCH  57  71
BRANCH  58  83
ATOM     83  C   UNL A   1      41.340  27.486  29.506  1.00  0.00     0.058 A 
ATOM     84  C   UNL A   1      42.459  27.633  28.673  1.00  0.00     0.135 A 
ATOM     85  C   UNL A   1      40.489  26.394  29.271  1.00  0.00     0.135 A 
ATOM     86  F   UNL A   1      43.297  28.664  28.853  1.00  0.00    -0.206 F 
ATOM     87  C   UNL A   1      42.720  26.740  27.638  1.00  0.00     0.059 A 
ATOM     88  C   UNL A   1      40.742  25.474  28.257  1.00  0.00     0.059 A 
ATOM     89  F   UNL A   1      39.413  26.200  30.050  1.00  0.00    -0.206 F 
ATOM     90  C   UNL A   1      41.856  25.662  27.440  1.00  0.00     0.060 A 
BRANCH  90  91
ATOM     91  S   UNL A   1      42.235  24.478  26.130  1.00  0.00     0.124 S 
ATOM     92  O   UNL A   1      41.092  23.577  26.208  1.00  0.00    -0.237 OA
ATOM     93  O   UNL A   1      42.295  25.335  24.949  1.00  0.00    -0.237 OA
ATOM     94  O   UNL A   1      43.516  23.914  26.549  1.00  0.00    -0.744 OA
ENDBRANCH  90  91
ENDBRANCH  58  83
BRANCH  70  95
ATOM     95  C   UNL A   1      44.367  28.637  35.693  1.00  0.00     0.058 A 
ATOM     96  C   UNL A   1      44.147  27.560  36.566  1.00  0.00     0.135 A 
ATOM     97  C   UNL A   1      45.693  29.029  35.453  1.00  0.00     0.135 A 
ATOM     98  F   UNL A   1      42.897  27.153  36.835  1.00  0.00    -0.206 F 
ATOM     99  C   UNL A   1      45.205  26.901  37.184  1.00  0.00     0.059 A 
ATOM    100  C   UNL A   1      46.767  28.368  36.041  1.00  0.00     0.059 A 
ATOM    101  F   UNL A   1      45.957  30.048  34.619  1.00  0.00    -0.206 F 
ATOM    102  C   UNL A   1      46.512  27.309  36.912  1.00  0.00     0.060 A 
BRANCH 102 103
ATOM    103  S   UNL A   1      47.878  26.411  37.677  1.00  0.00     0.124 S 
ATOM    104  O   UNL A   1      48.448  27.430  38.551  1.00  0.00    -0.237 OA
ATOM    105  O   UNL A   1      47.192  25.311  38.348  1.00  0.00    -0.237 OA
ATOM    106  O   UNL A   1      48.708  26.021  36.541  1.00  0.00    -0.744 OA
ENDBRANCH 102 103
ENDBRANCH  70  95
ENDBRANCH  44  45
ENDBRANCH  36  39
ENDBRANCH  34  35
ENDBRANCH  33  34
ENDBRANCH   1  33
TORSDOF 18
ENDMDL
MODEL 3
REMARK VINA RESULT:     -12.1      0.940      2.012
REMARK SMILES Cc1cc(NS(=O)(=O)c2ccc(NC(=O)[C@@H]3CCCC[C@@H]3C(=O)NCCCNC(=O)c3ccc(-c4c5nc(c(-c6c(F)cc(S(=O)(=O)[O-])cc6F)c6ccc([nH]6)c(-c6c(F)cc(S(=O)(=O)[O-])cc6F)c6nc(c(-c7c(F)cc(S(=O)(=O)[O-])cc7F)c7ccc4[nH]7)C=C6)C=C5)cc3)cc2)no1
REMARK SMILES IDX 25 1 24 2 22 3 23 4 21 6 16 7 17 8 18 9 20 10 19 11 14 12
REMARK SMILES IDX 13 13 15 15 12 16 9 17 10 18 98 19 11 20 97 21 6 22 7 23
REMARK SMILES IDX 8 24 5 25 4 27 1 28 2 29 3 30 100 31 99 32 26 33 27 34 28 35
REMARK SMILES IDX 29 36 30 38 31 39 32 40 96 41 33 42 95 43 34 44 35 45 36 46
REMARK SMILES IDX 89 47 37 48 94 49 88 50 90 51 38 52 93 53 87 54 86 55 39 57
REMARK SMILES IDX 73 58 52 59 72 60 53 61 56 62 71 63 91 64 54 65 55 66 70 68
REMARK SMILES IDX 92 69 57 70 40 71 41 72 50 73 42 74 43 75 49 76 51 77 44 78
REMARK SMILES IDX 45 79 46 80 47 81 48 82 74 83 75 84 84 85 76 86 77 87 83 88
REMARK SMILES IDX 85 89 78 90 79 91 80 92 81 93 82 94 58 95 59 96 68 97 60 98
REMARK SMILES IDX 61 99 67 100 69 101 62 102 63 103 64 104 65 105 66 106
REMARK H PARENT 24 5 13 14 5 26 28 37 90 56 56 67
REMARK Flexibility Score: inf
ROOT
ATOM      1  C   UNL A   1      33.651  30.877  26.876  1.00  0.00     0.117 C 
ENDROOT
BRANCH   1   2
ATOM      2  N   UNL A   1      34.116  29.495  26.799  1.00  0.00    -0.356 N 
ATOM      3  C   UNL A   1      33.714  28.449  26.026  1.00  0.00     0.223 C 
ATOM      4  O   UNL A   1      34.341  27.392  26.124  1.00  0.00    -0.275 OA
ATOM      5  H   UNL A   1      34.852  29.282  27.417  1.00  0.00     0.163 HD
BRANCH   3   6
ATOM      6  C   UNL A   1      32.550  28.595  25.052  1.00  0.00     0.091 C 
ATOM      7  C   UNL A   1      31.526  27.436  25.088  1.00  0.00     0.091 C 
ATOM      8  C   UNL A   1      31.550  26.388  23.968  1.00  0.00     0.014 C 
ATOM      9  C   UNL A   1      32.071  26.891  22.630  1.00  0.00     0.001 C 
ATOM     10  C   UNL A   1      33.074  28.928  23.648  1.00  0.00     0.014 C 
ATOM     11  C   UNL A   1      33.346  27.699  22.796  1.00  0.00     0.001 C 
BRANCH   7  12
ATOM     12  C   UNL A   1      31.243  26.968  26.517  1.00  0.00     0.228 C 
ATOM     13  N   UNL A   1      31.532  25.777  27.098  1.00  0.00    -0.326 N 
ATOM     14  H   UNL A   1      31.377  25.778  28.069  1.00  0.00     0.169 HD
ATOM     15  O   UNL A   1      30.654  27.779  27.251  1.00  0.00    -0.274 OA
BRANCH  13  16
ATOM     16  C   UNL A   1      32.001  24.543  26.625  1.00  0.00     0.041 A 
ATOM     17  C   UNL A   1      32.702  22.360  25.055  1.00  0.00     0.088 A 
ATOM     18  C   UNL A   1      33.702  23.096  25.692  1.00  0.00     0.024 A 
ATOM     19  C   UNL A   1      31.360  22.573  25.369  1.00  0.00     0.024 A 
ATOM     20  C   UNL A   1      33.339  24.181  26.502  1.00  0.00     0.027 A 
ATOM     21  C   UNL A   1      31.015  23.656  26.173  1.00  0.00     0.027 A 
BRANCH  17  22
ATOM     22  S   UNL A   1      33.115  21.232  23.752  1.00  0.00     0.263 S 
ATOM     23  O   UNL A   1      34.496  20.818  23.901  1.00  0.00    -0.201 OA
ATOM     24  O   UNL A   1      32.658  21.829  22.514  1.00  0.00    -0.201 OA
BRANCH  22  25
ATOM     25  N   UNL A   1      32.150  19.883  23.966  1.00  0.00    -0.261 N 
ATOM     26  H   UNL A   1      31.190  20.050  24.105  1.00  0.00     0.182 HD
BRANCH  25  27
ATOM     27  C   UNL A   1      32.550  18.557  23.968  1.00  0.00     0.183 A 
ATOM     28  C   UNL A   1      33.848  15.421  25.374  1.00  0.00     0.091 C 
ATOM     29  C   UNL A   1      33.313  16.622  24.708  1.00  0.00     0.135 A 
ATOM     30  C   UNL A   1      32.836  17.833  25.148  1.00  0.00     0.096 A 
ATOM     31  O   UNL A   1      33.275  16.604  23.350  1.00  0.00    -0.360 OA
ATOM     32  N   UNL A   1      32.775  17.808  22.888  1.00  0.00    -0.061 NA
ENDBRANCH  25  27
ENDBRANCH  22  25
ENDBRANCH  17  22
ENDBRANCH  13  16
ENDBRANCH   7  12
ENDBRANCH   3   6
ENDBRANCH   1   2
BRANCH   1  33
ATOM     33  C   UNL A   1      34.274  31.647  28.036  1.00  0.00     0.042 C 
BRANCH  33  34
ATOM     34  C   UNL A   1      35.519  31.010  28.631  1.00  0.00     0.118 C 
BRANCH  34  35
ATOM     35  N   UNL A   1      35.522  31.017  30.085  1.00  0.00    -0.352 N 
ATOM     36  C   UNL A   1      36.457  30.520  30.965  1.00  0.00     0.251 C 
ATOM     37  H   UNL A   1      34.739  31.442  30.504  1.00  0.00     0.163 HD
ATOM     38  O   UNL A   1      36.194  30.475  32.163  1.00  0.00    -0.269 OA
BRANCH  36  39
ATOM     39  C   UNL A   1      37.759  30.014  30.472  1.00  0.00     0.039 A 
ATOM     40  C   UNL A   1      38.060  30.134  29.111  1.00  0.00     0.014 A 
ATOM     41  C   UNL A   1      38.682  29.419  31.335  1.00  0.00     0.014 A 
ATOM     42  C   UNL A   1      39.311  29.730  28.635  1.00  0.00     0.010 A 
ATOM     43  C   UNL A   1      39.958  29.100  30.877  1.00  0.00     0.010 A 
ATOM     44  C   UNL A   1      40.287  29.247  29.521  1.00  0.00    -0.014 A 
BRANCH  44  45
ATOM     45  C   UNL A   1      41.653  28.886  29.057  1.00  0.00     0.031 A 
ATOM     46  C   UNL A   1      42.722  29.944  28.960  1.00  0.00     0.074 A 
ATOM     47  C   UNL A   1      41.913  27.628  28.646  1.00  0.00     0.049 A 
ATOM     48  N   UNL A   1      43.933  29.854  28.477  1.00  0.00    -0.248 NA
ATOM     49  C   UNL A   1      42.366  31.290  29.440  1.00  0.00     0.031 C 
ATOM     50  C   UNL A   1      40.952  26.523  28.642  1.00  0.00     0.029 A 
ATOM     51  N   UNL A   1      43.059  27.071  28.134  1.00  0.00    -0.354 N 
ATOM     52  C   UNL A   1      44.475  31.130  28.570  1.00  0.00     0.074 A 
ATOM     53  C   UNL A   1      43.445  31.987  29.113  1.00  0.00     0.031 C 
ATOM     54  C   UNL A   1      41.551  25.419  28.166  1.00  0.00     0.029 A 
ATOM     55  C   UNL A   1      42.925  25.745  27.792  1.00  0.00     0.049 A 
ATOM     56  H   UNL A   1      43.898  27.572  28.022  1.00  0.00     0.167 HD
ATOM     57  C   UNL A   1      45.724  31.547  28.253  1.00  0.00     0.037 A 
ATOM     58  C   UNL A   1      43.800  24.891  27.228  1.00  0.00     0.037 A 
ATOM     59  C   UNL A   1      46.759  30.683  27.749  1.00  0.00     0.049 A 
ATOM     60  C   UNL A   1      45.187  25.371  26.897  1.00  0.00     0.074 A 
ATOM     61  C   UNL A   1      48.078  30.993  27.468  1.00  0.00     0.029 A 
ATOM     62  N   UNL A   1      46.593  29.337  27.452  1.00  0.00    -0.354 N 
ATOM     63  N   UNL A   1      45.703  26.568  27.054  1.00  0.00    -0.248 NA
ATOM     64  C   UNL A   1      46.113  24.390  26.315  1.00  0.00     0.031 C 
ATOM     65  C   UNL A   1      48.699  29.846  26.962  1.00  0.00     0.029 A 
ATOM     66  C   UNL A   1      47.780  28.809  26.972  1.00  0.00     0.049 A 
ATOM     67  H   UNL A   1      45.755  28.833  27.567  1.00  0.00     0.167 HD
ATOM     68  C   UNL A   1      47.019  26.475  26.615  1.00  0.00     0.074 A 
ATOM     69  C   UNL A   1      47.225  25.104  26.195  1.00  0.00     0.031 C 
ATOM     70  C   UNL A   1      47.972  27.439  26.568  1.00  0.00     0.037 A 
BRANCH  57  71
ATOM     71  C   UNL A   1      46.044  33.005  28.446  1.00  0.00     0.058 A 
ATOM     72  C   UNL A   1      45.852  33.943  27.419  1.00  0.00     0.135 A 
ATOM     73  C   UNL A   1      46.520  33.474  29.680  1.00  0.00     0.135 A 
ATOM     74  F   UNL A   1      45.412  33.547  26.214  1.00  0.00    -0.206 F 
ATOM     75  C   UNL A   1      46.153  35.290  27.599  1.00  0.00     0.059 A 
ATOM     76  C   UNL A   1      46.800  34.821  29.893  1.00  0.00     0.059 A 
ATOM     77  F   UNL A   1      46.720  32.620  30.697  1.00  0.00    -0.206 F 
ATOM     78  C   UNL A   1      46.630  35.718  28.839  1.00  0.00     0.060 A 
BRANCH  78  79
ATOM     79  S   UNL A   1      47.018  37.468  29.055  1.00  0.00     0.124 S 
ATOM     80  O   UNL A   1      48.477  37.445  29.044  1.00  0.00    -0.237 OA
ATOM     81  O   UNL A   1      46.385  38.076  27.890  1.00  0.00    -0.237 OA
ATOM     82  O   UNL A   1      46.405  37.796  30.339  1.00  0.00    -0.744 OA
ENDBRANCH  78  79
ENDBRANCH  57  71
BRANCH  58  83
ATOM     83  C   UNL A   1      43.394  23.486  26.955  1.00  0.00     0.058 A 
ATOM     84  C   UNL A   1      43.139  23.051  25.646  1.00  0.00     0.135 A 
ATOM     85  C   UNL A   1      43.274  22.547  27.992  1.00  0.00     0.135 A 
ATOM     86  F   UNL A   1      43.233  23.913  24.623  1.00  0.00    -0.206 F 
ATOM     87  C   UNL A   1      42.767  21.738  25.374  1.00  0.00     0.059 A 
ATOM     88  C   UNL A   1      42.927  21.222  27.742  1.00  0.00     0.059 A 
ATOM     89  F   UNL A   1      43.523  22.910  29.260  1.00  0.00    -0.206 F 
ATOM     90  C   UNL A   1      42.667  20.830  26.430  1.00  0.00     0.060 A 
BRANCH  90  91
ATOM     91  S   UNL A   1      42.238  19.115  26.058  1.00  0.00     0.124 S 
ATOM     92  O   UNL A   1      40.808  19.221  25.794  1.00  0.00    -0.237 OA
ATOM     93  O   UNL A   1      43.082  18.830  24.903  1.00  0.00    -0.237 OA
ATOM     94  O   UNL A   1      42.604  18.406  27.282  1.00  0.00    -0.744 OA
ENDBRANCH  90  91
ENDBRANCH  58  83
BRANCH  70  95
ATOM     95  C   UNL A   1      49.337  27.046  26.075  1.00  0.00     0.058 A 
ATOM     96  C   UNL A   1      50.306  26.509  26.937  1.00  0.00     0.135 A 
ATOM     97  C   UNL A   1      49.651  27.139  24.710  1.00  0.00     0.135 A 
ATOM     98  F   UNL A   1      50.058  26.406  28.251  1.00  0.00    -0.206 F 
ATOM     99  C   UNL A   1      51.544  26.087  26.462  1.00  0.00     0.059 A 
ATOM    100  C   UNL A   1      50.872  26.701  24.210  1.00  0.00     0.059 A 
ATOM    101  F   UNL A   1      48.755  27.638  23.842  1.00  0.00    -0.206 F 
ATOM    102  C   UNL A   1      51.816  26.182  25.096  1.00  0.00     0.060 A 
BRANCH 102 103
ATOM    103  S   UNL A   1      53.405  25.580  24.485  1.00  0.00     0.124 S 
ATOM    104  O   UNL A   1      53.273  25.807  23.050  1.00  0.00    -0.237 OA
ATOM    105  O   UNL A   1      54.355  26.443  25.179  1.00  0.00    -0.237 OA
ATOM    106  O   UNL A   1      53.421  24.180  24.901  1.00  0.00    -0.744 OA
ENDBRANCH 102 103
ENDBRANCH  70  95
ENDBRANCH  44  45
ENDBRANCH  36  39
ENDBRANCH  34  35
ENDBRANCH  33  34
ENDBRANCH   1  33
TORSDOF 18
ENDMDL
