MODEL 1
REMARK VINA RESULT:     -10.2      0.000      0.000
REMARK SMILES CCCN(CCC)c1ccc(C(=O)NCCCNC(=O)c2ccc(-c3c4nc(c(-c5c(F)cc(S(=O)(=O)[O-])cc5F)c5ccc([nH]5)c(-c5c(F)cc(S(=O)(=O)[O-])cc5F)c5nc(c(-c6c(F)cc(S(=O)(=O)[O-])cc6F)c6ccc3[nH]6)C=C5)C=C4)cc2)cc1[N+](=O)[O-]
REMARK SMILES IDX 16 1 15 2 14 3 12 4 13 5 11 7 8 8 9 9 88 10 10 11 87 12 4 13
REMARK SMILES IDX 3 14 2 15 1 16 5 17 6 18 7 19 89 20 90 21 91 22 17 23 18 24
REMARK SMILES IDX 19 25 20 27 21 28 22 29 86 30 23 31 85 32 24 33 25 34 26 35
REMARK SMILES IDX 79 36 27 37 84 38 78 39 80 40 28 41 83 42 77 43 76 44 29 46
REMARK SMILES IDX 63 47 42 48 62 49 43 50 46 51 61 52 81 53 44 54 45 55 60 57
REMARK SMILES IDX 82 58 47 59 30 60 31 61 40 62 32 63 33 64 39 65 41 66 34 67
REMARK SMILES IDX 35 68 36 69 37 70 38 71 64 72 65 73 74 74 66 75 67 76 73 77
REMARK SMILES IDX 75 78 68 79 69 80 70 81 71 82 72 83 48 84 49 85 58 86 50 87
REMARK SMILES IDX 51 88 57 89 59 90 52 91 53 92 54 93 55 94 56 95
REMARK H PARENT 14 6 18 26 80 45 46 56
REMARK Flexibility Score: inf
ROOT
ATOM      1  C   UNL A   1      33.819  27.776  25.906  1.00  0.00     0.042 C 
ENDROOT
BRANCH   1   2
ATOM      2  C   UNL A   1      32.717  27.526  24.881  1.00  0.00     0.118 C 
BRANCH   2   3
ATOM      3  N   UNL A   1      31.484  27.083  25.515  1.00  0.00    -0.352 N 
ATOM      4  C   UNL A   1      31.094  25.822  25.892  1.00  0.00     0.251 C 
ATOM      5  O   UNL A   1      30.062  25.654  26.528  1.00  0.00    -0.269 OA
ATOM      6  H   UNL A   1      30.832  27.796  25.703  1.00  0.00     0.163 HD
BRANCH   4   7
ATOM      7  C   UNL A   1      31.964  24.668  25.599  1.00  0.00     0.046 A 
ATOM      8  C   UNL A   1      33.832  22.611  25.077  1.00  0.00     0.116 A 
ATOM      9  C   UNL A   1      33.727  23.199  26.351  1.00  0.00     0.034 A 
ATOM     10  C   UNL A   1      32.940  23.066  24.090  1.00  0.00     0.293 A 
ATOM     11  C   UNL A   1      32.795  24.204  26.618  1.00  0.00     0.016 A 
ATOM     12  C   UNL A   1      31.999  24.073  24.341  1.00  0.00     0.101 A 
BRANCH   8  13
ATOM     13  N   UNL A   1      34.807  21.655  24.857  1.00  0.00    -0.366 N 
BRANCH  13  14
ATOM     14  C   UNL A   1      34.421  20.248  24.699  1.00  0.00     0.116 C 
BRANCH  14  15
ATOM     15  C   UNL A   1      33.242  19.860  25.605  1.00  0.00     0.018 C 
ATOM     16  C   UNL A   1      32.588  18.533  25.236  1.00  0.00     0.006 C 
ENDBRANCH  14  15
ENDBRANCH  13  14
BRANCH  13  17
ATOM     17  C   UNL A   1      36.162  22.096  24.490  1.00  0.00     0.116 C 
BRANCH  17  18
ATOM     18  C   UNL A   1      37.266  21.294  25.195  1.00  0.00     0.018 C 
ATOM     19  C   UNL A   1      38.380  22.171  25.760  1.00  0.00     0.006 C 
ENDBRANCH  17  18
ENDBRANCH  13  17
ENDBRANCH   8  13
BRANCH  10  20
ATOM     20  N   UNL A   1      33.068  22.630  22.709  1.00  0.00     0.065 N 
ATOM     21  O   UNL A   1      33.865  23.269  22.004  1.00  0.00    -0.258 OA
ATOM     22  O   UNL A   1      32.349  21.702  22.316  1.00  0.00    -0.258 OA
ENDBRANCH  10  20
ENDBRANCH   4   7
ENDBRANCH   2   3
ENDBRANCH   1   2
BRANCH   1  23
ATOM     23  C   UNL A   1      33.288  28.175  27.277  1.00  0.00     0.118 C 
BRANCH  23  24
ATOM     24  N   UNL A   1      33.176  29.619  27.423  1.00  0.00    -0.352 N 
ATOM     25  C   UNL A   1      34.068  30.518  27.952  1.00  0.00     0.251 C 
ATOM     26  H   UNL A   1      32.336  30.010  27.092  1.00  0.00     0.163 HD
ATOM     27  O   UNL A   1      33.699  31.665  28.189  1.00  0.00    -0.269 OA
BRANCH  25  28
ATOM     28  C   UNL A   1      35.459  30.109  28.248  1.00  0.00     0.039 A 
ATOM     29  C   UNL A   1      36.401  30.130  27.217  1.00  0.00     0.014 A 
ATOM     30  C   UNL A   1      35.830  29.679  29.525  1.00  0.00     0.014 A 
ATOM     31  C   UNL A   1      37.726  29.774  27.480  1.00  0.00     0.010 A 
ATOM     32  C   UNL A   1      37.166  29.402  29.804  1.00  0.00     0.010 A 
ATOM     33  C   UNL A   1      38.128  29.440  28.784  1.00  0.00    -0.014 A 
BRANCH  33  34
ATOM     34  C   UNL A   1      39.548  29.136  29.098  1.00  0.00     0.031 A 
ATOM     35  C   UNL A   1      40.442  30.202  29.674  1.00  0.00     0.074 A 
ATOM     36  C   UNL A   1      40.048  27.919  28.800  1.00  0.00     0.049 A 
ATOM     37  N   UNL A   1      41.721  30.148  29.944  1.00  0.00    -0.248 NA
ATOM     38  C   UNL A   1      39.829  31.511  29.959  1.00  0.00     0.031 C 
ATOM     39  C   UNL A   1      39.294  26.823  28.187  1.00  0.00     0.029 A 
ATOM     40  N   UNL A   1      41.311  27.404  28.953  1.00  0.00    -0.354 N 
ATOM     41  C   UNL A   1      42.068  31.413  30.404  1.00  0.00     0.074 A 
ATOM     42  C   UNL A   1      40.875  32.228  30.344  1.00  0.00     0.031 C 
ATOM     43  C   UNL A   1      40.105  25.765  28.025  1.00  0.00     0.029 A 
ATOM     44  C   UNL A   1      41.445  26.117  28.482  1.00  0.00     0.049 A 
ATOM     45  H   UNL A   1      42.052  27.906  29.361  1.00  0.00     0.167 HD
ATOM     46  C   UNL A   1      43.270  31.849  30.851  1.00  0.00     0.037 A 
ATOM     47  C   UNL A   1      42.527  25.319  28.406  1.00  0.00     0.037 A 
ATOM     48  C   UNL A   1      44.442  31.018  30.946  1.00  0.00     0.049 A 
ATOM     49  C   UNL A   1      43.846  25.825  28.927  1.00  0.00     0.074 A 
ATOM     50  C   UNL A   1      45.680  31.341  31.474  1.00  0.00     0.029 A 
ATOM     51  N   UNL A   1      44.528  29.708  30.497  1.00  0.00    -0.354 N 
ATOM     52  N   UNL A   1      44.131  26.995  29.451  1.00  0.00    -0.248 NA
ATOM     53  C   UNL A   1      44.990  24.906  28.858  1.00  0.00     0.031 C 
ATOM     54  C   UNL A   1      46.532  30.248  31.288  1.00  0.00     0.029 A 
ATOM     55  C   UNL A   1      45.808  29.222  30.704  1.00  0.00     0.049 A 
ATOM     56  H   UNL A   1      43.789  29.201  30.090  1.00  0.00     0.167 HD
ATOM     57  C   UNL A   1      45.477  26.938  29.797  1.00  0.00     0.074 A 
ATOM     58  C   UNL A   1      45.944  25.616  29.442  1.00  0.00     0.031 C 
ATOM     59  C   UNL A   1      46.256  27.897  30.357  1.00  0.00     0.037 A 
BRANCH  46  60
ATOM     60  C   UNL A   1      43.397  33.287  31.274  1.00  0.00     0.058 A 
ATOM     61  C   UNL A   1      43.191  33.691  32.602  1.00  0.00     0.135 A 
ATOM     62  C   UNL A   1      43.827  34.258  30.355  1.00  0.00     0.135 A 
ATOM     63  F   UNL A   1      42.764  32.808  33.520  1.00  0.00    -0.206 F 
ATOM     64  C   UNL A   1      43.401  35.007  33.003  1.00  0.00     0.059 A 
ATOM     65  C   UNL A   1      44.071  35.574  30.739  1.00  0.00     0.059 A 
ATOM     66  F   UNL A   1      44.035  33.928  29.071  1.00  0.00    -0.206 F 
ATOM     67  C   UNL A   1      43.851  35.939  32.066  1.00  0.00     0.060 A 
BRANCH  67  68
ATOM     68  S   UNL A   1      44.172  37.628  32.616  1.00  0.00     0.124 S 
ATOM     69  O   UNL A   1      43.860  38.392  31.412  1.00  0.00    -0.237 OA
ATOM     70  O   UNL A   1      43.230  37.778  33.721  1.00  0.00    -0.237 OA
ATOM     71  O   UNL A   1      45.581  37.603  32.995  1.00  0.00    -0.744 OA
ENDBRANCH  67  68
ENDBRANCH  46  60
BRANCH  47  72
ATOM     72  C   UNL A   1      42.420  23.961  27.804  1.00  0.00     0.058 A 
ATOM     73  C   UNL A   1      42.362  22.810  28.604  1.00  0.00     0.135 A 
ATOM     74  C   UNL A   1      42.399  23.786  26.411  1.00  0.00     0.135 A 
ATOM     75  F   UNL A   1      42.383  22.922  29.942  1.00  0.00    -0.206 F 
ATOM     76  C   UNL A   1      42.328  21.535  28.049  1.00  0.00     0.059 A 
ATOM     77  C   UNL A   1      42.330  22.523  25.831  1.00  0.00     0.059 A 
ATOM     78  F   UNL A   1      42.431  24.853  25.597  1.00  0.00    -0.206 F 
ATOM     79  C   UNL A   1      42.315  21.402  26.659  1.00  0.00     0.060 A 
BRANCH  79  80
ATOM     80  S   UNL A   1      42.265  19.743  25.947  1.00  0.00     0.124 S 
ATOM     81  O   UNL A   1      43.338  19.815  24.963  1.00  0.00    -0.237 OA
ATOM     82  O   UNL A   1      42.521  18.902  27.112  1.00  0.00    -0.237 OA
ATOM     83  O   UNL A   1      40.914  19.653  25.402  1.00  0.00    -0.744 OA
ENDBRANCH  79  80
ENDBRANCH  47  72
BRANCH  59  84
ATOM     84  C   UNL A   1      47.685  27.541  30.664  1.00  0.00     0.058 A 
ATOM     85  C   UNL A   1      48.034  26.779  31.790  1.00  0.00     0.135 A 
ATOM     86  C   UNL A   1      48.713  27.919  29.784  1.00  0.00     0.135 A 
ATOM     87  F   UNL A   1      47.091  26.397  32.666  1.00  0.00    -0.206 F 
ATOM     88  C   UNL A   1      49.355  26.426  32.046  1.00  0.00     0.059 A 
ATOM     89  C   UNL A   1      50.036  27.548  30.004  1.00  0.00     0.059 A 
ATOM     90  F   UNL A   1      48.434  28.638  28.685  1.00  0.00    -0.206 F 
ATOM     91  C   UNL A   1      50.348  26.812  31.145  1.00  0.00     0.060 A 
BRANCH  91  92
ATOM     92  S   UNL A   1      52.053  26.316  31.471  1.00  0.00     0.124 S 
ATOM     93  O   UNL A   1      52.625  27.553  31.992  1.00  0.00    -0.237 OA
ATOM     94  O   UNL A   1      51.883  25.238  32.441  1.00  0.00    -0.237 OA
ATOM     95  O   UNL A   1      52.544  25.900  30.160  1.00  0.00    -0.744 OA
ENDBRANCH  91  92
ENDBRANCH  59  84
ENDBRANCH  33  34
ENDBRANCH  25  28
ENDBRANCH  23  24
ENDBRANCH   1  23
TORSDOF 19
ENDMDL
MODEL 2
REMARK VINA RESULT:     -10.1      2.794      3.911
REMARK SMILES CCCN(CCC)c1ccc(C(=O)NCCCNC(=O)c2ccc(-c3c4nc(c(-c5c(F)cc(S(=O)(=O)[O-])cc5F)c5ccc([nH]5)c(-c5c(F)cc(S(=O)(=O)[O-])cc5F)c5nc(c(-c6c(F)cc(S(=O)(=O)[O-])cc6F)c6ccc3[nH]6)C=C5)C=C4)cc2)cc1[N+](=O)[O-]
REMARK SMILES IDX 16 1 15 2 14 3 12 4 13 5 11 7 8 8 9 9 88 10 10 11 87 12 4 13
REMARK SMILES IDX 3 14 2 15 1 16 5 17 6 18 7 19 89 20 90 21 91 22 17 23 18 24
REMARK SMILES IDX 19 25 20 27 21 28 22 29 86 30 23 31 85 32 24 33 25 34 26 35
REMARK SMILES IDX 79 36 27 37 84 38 78 39 80 40 28 41 83 42 77 43 76 44 29 46
REMARK SMILES IDX 63 47 42 48 62 49 43 50 46 51 61 52 81 53 44 54 45 55 60 57
REMARK SMILES IDX 82 58 47 59 30 60 31 61 40 62 32 63 33 64 39 65 41 66 34 67
REMARK SMILES IDX 35 68 36 69 37 70 38 71 64 72 65 73 74 74 66 75 67 76 73 77
REMARK SMILES IDX 75 78 68 79 69 80 70 81 71 82 72 83 48 84 49 85 58 86 50 87
REMARK SMILES IDX 51 88 57 89 59 90 52 91 53 92 54 93 55 94 56 95
REMARK H PARENT 14 6 18 26 80 45 46 56
REMARK Flexibility Score: inf
ROOT
ATOM      1  C   UNL A   1      34.053  31.233  27.575  1.00  0.00     0.042 C 
ENDROOT
BRANCH   1   2
ATOM      2  C   UNL A   1      33.308  29.934  27.285  1.00  0.00     0.118 C 
BRANCH   2   3
ATOM      3  N   UNL A   1      32.307  30.110  26.242  1.00  0.00    -0.352 N 
ATOM      4  C   UNL A   1      31.806  29.203  25.344  1.00  0.00     0.251 C 
ATOM      5  O   UNL A   1      30.872  29.502  24.611  1.00  0.00    -0.269 OA
ATOM      6  H   UNL A   1      31.934  31.018  26.172  1.00  0.00     0.163 HD
BRANCH   4   7
ATOM      7  C   UNL A   1      32.342  27.828  25.314  1.00  0.00     0.046 A 
ATOM      8  C   UNL A   1      33.311  25.191  25.006  1.00  0.00     0.116 A 
ATOM      9  C   UNL A   1      33.928  26.278  24.359  1.00  0.00     0.034 A 
ATOM     10  C   UNL A   1      32.219  25.483  25.842  1.00  0.00     0.293 A 
ATOM     11  C   UNL A   1      33.462  27.584  24.521  1.00  0.00     0.016 A 
ATOM     12  C   UNL A   1      31.739  26.788  26.015  1.00  0.00     0.101 A 
BRANCH   8  13
ATOM     13  N   UNL A   1      33.784  23.913  24.771  1.00  0.00    -0.366 N 
BRANCH  13  14
ATOM     14  C   UNL A   1      34.854  23.367  25.614  1.00  0.00     0.116 C 
BRANCH  14  15
ATOM     15  C   UNL A   1      36.252  23.687  25.063  1.00  0.00     0.018 C 
ATOM     16  C   UNL A   1      37.326  23.818  26.138  1.00  0.00     0.006 C 
ENDBRANCH  14  15
ENDBRANCH  13  14
BRANCH  13  17
ATOM     17  C   UNL A   1      33.013  23.024  23.887  1.00  0.00     0.116 C 
BRANCH  17  18
ATOM     18  C   UNL A   1      33.305  21.536  24.128  1.00  0.00     0.018 C 
ATOM     19  C   UNL A   1      32.175  20.810  24.853  1.00  0.00     0.006 C 
ENDBRANCH  17  18
ENDBRANCH  13  17
ENDBRANCH   8  13
BRANCH  10  20
ATOM     20  N   UNL A   1      31.425  24.418  26.433  1.00  0.00     0.065 N 
ATOM     21  O   UNL A   1      30.355  24.150  25.864  1.00  0.00    -0.258 OA
ATOM     22  O   UNL A   1      31.831  23.893  27.478  1.00  0.00    -0.258 OA
ENDBRANCH  10  20
ENDBRANCH   4   7
ENDBRANCH   2   3
ENDBRANCH   1   2
BRANCH   1  23
ATOM     23  C   UNL A   1      35.426  31.015  28.199  1.00  0.00     0.118 C 
BRANCH  23  24
ATOM     24  N   UNL A   1      35.421  31.258  29.634  1.00  0.00    -0.352 N 
ATOM     25  C   UNL A   1      36.341  30.900  30.588  1.00  0.00     0.251 C 
ATOM     26  H   UNL A   1      34.640  31.754  29.972  1.00  0.00     0.163 HD
ATOM     27  O   UNL A   1      36.048  31.003  31.776  1.00  0.00    -0.269 OA
BRANCH  25  28
ATOM     28  C   UNL A   1      37.669  30.384  30.191  1.00  0.00     0.039 A 
ATOM     29  C   UNL A   1      37.997  30.340  28.833  1.00  0.00     0.014 A 
ATOM     30  C   UNL A   1      38.578  29.917  31.144  1.00  0.00     0.014 A 
ATOM     31  C   UNL A   1      39.256  29.882  28.438  1.00  0.00     0.010 A 
ATOM     32  C   UNL A   1      39.860  29.536  30.755  1.00  0.00     0.010 A 
ATOM     33  C   UNL A   1      40.212  29.509  29.398  1.00  0.00    -0.014 A 
BRANCH  33  34
ATOM     34  C   UNL A   1      41.582  29.095  28.999  1.00  0.00     0.031 A 
ATOM     35  C   UNL A   1      42.688  30.114  28.917  1.00  0.00     0.074 A 
ATOM     36  C   UNL A   1      41.812  27.814  28.646  1.00  0.00     0.049 A 
ATOM     37  N   UNL A   1      43.925  29.958  28.521  1.00  0.00    -0.248 NA
ATOM     38  C   UNL A   1      42.357  31.496  29.305  1.00  0.00     0.031 C 
ATOM     39  C   UNL A   1      40.806  26.748  28.629  1.00  0.00     0.029 A 
ATOM     40  N   UNL A   1      42.956  27.192  28.213  1.00  0.00    -0.354 N 
ATOM     41  C   UNL A   1      44.509  31.217  28.587  1.00  0.00     0.074 A 
ATOM     42  C   UNL A   1      43.484  32.137  29.028  1.00  0.00     0.031 C 
ATOM     43  C   UNL A   1      41.380  25.606  28.218  1.00  0.00     0.029 A 
ATOM     44  C   UNL A   1      42.780  25.862  27.901  1.00  0.00     0.049 A 
ATOM     45  H   UNL A   1      43.823  27.652  28.133  1.00  0.00     0.167 HD
ATOM     46  C   UNL A   1      45.789  31.570  28.319  1.00  0.00     0.037 A 
ATOM     47  C   UNL A   1      43.643  24.958  27.397  1.00  0.00     0.037 A 
ATOM     48  C   UNL A   1      46.813  30.639  27.922  1.00  0.00     0.049 A 
ATOM     49  C   UNL A   1      45.064  25.376  27.126  1.00  0.00     0.074 A 
ATOM     50  C   UNL A   1      48.161  30.883  27.720  1.00  0.00     0.029 A 
ATOM     51  N   UNL A   1      46.605  29.293  27.655  1.00  0.00    -0.354 N 
ATOM     52  N   UNL A   1      45.622  26.552  27.290  1.00  0.00    -0.248 NA
ATOM     53  C   UNL A   1      45.977  24.346  26.612  1.00  0.00     0.031 C 
ATOM     54  C   UNL A   1      48.756  29.700  27.272  1.00  0.00     0.029 A 
ATOM     55  C   UNL A   1      47.794  28.703  27.258  1.00  0.00     0.049 A 
ATOM     56  H   UNL A   1      45.742  28.828  27.736  1.00  0.00     0.167 HD
ATOM     57  C   UNL A   1      46.955  26.394  26.926  1.00  0.00     0.074 A 
ATOM     58  C   UNL A   1      47.124  25.006  26.552  1.00  0.00     0.031 C 
ATOM     59  C   UNL A   1      47.950  27.316  26.901  1.00  0.00     0.037 A 
BRANCH  46  60
ATOM     60  C   UNL A   1      46.172  33.019  28.442  1.00  0.00     0.058 A 
ATOM     61  C   UNL A   1      46.069  33.909  27.362  1.00  0.00     0.135 A 
ATOM     62  C   UNL A   1      46.556  33.545  29.688  1.00  0.00     0.135 A 
ATOM     63  F   UNL A   1      45.722  33.460  26.145  1.00  0.00    -0.206 F 
ATOM     64  C   UNL A   1      46.337  35.267  27.510  1.00  0.00     0.059 A 
ATOM     65  C   UNL A   1      46.802  34.903  29.866  1.00  0.00     0.059 A 
ATOM     66  F   UNL A   1      46.675  32.737  30.754  1.00  0.00    -0.206 F 
ATOM     67  C   UNL A   1      46.693  35.755  28.769  1.00  0.00     0.060 A 
BRANCH  67  68
ATOM     68  S   UNL A   1      46.983  37.527  28.954  1.00  0.00     0.124 S 
ATOM     69  O   UNL A   1      45.632  38.020  29.205  1.00  0.00    -0.237 OA
ATOM     70  O   UNL A   1      47.895  37.576  30.092  1.00  0.00    -0.237 OA
ATOM     71  O   UNL A   1      47.563  37.916  27.672  1.00  0.00    -0.744 OA
ENDBRANCH  67  68
ENDBRANCH  46  60
BRANCH  47  72
ATOM     72  C   UNL A   1      43.189  23.571  27.101  1.00  0.00     0.058 A 
ATOM     73  C   UNL A   1      43.097  22.602  28.111  1.00  0.00     0.135 A 
ATOM     74  C   UNL A   1      42.863  23.179  25.793  1.00  0.00     0.135 A 
ATOM     75  F   UNL A   1      43.401  22.925  29.379  1.00  0.00    -0.206 F 
ATOM     76  C   UNL A   1      42.737  21.287  27.833  1.00  0.00     0.059 A 
ATOM     77  C   UNL A   1      42.467  21.878  25.494  1.00  0.00     0.059 A 
ATOM     78  F   UNL A   1      42.914  24.069  24.790  1.00  0.00    -0.206 F 
ATOM     79  C   UNL A   1      42.427  20.935  26.518  1.00  0.00     0.060 A 
BRANCH  79  80
ATOM     80  S   UNL A   1      41.957  19.227  26.167  1.00  0.00     0.124 S 
ATOM     81  O   UNL A   1      40.522  19.358  25.946  1.00  0.00    -0.237 OA
ATOM     82  O   UNL A   1      42.761  18.923  24.988  1.00  0.00    -0.237 OA
ATOM     83  O   UNL A   1      42.345  18.516  27.382  1.00  0.00    -0.744 OA
ENDBRANCH  79  80
ENDBRANCH  47  72
BRANCH  59  84
ATOM     84  C   UNL A   1      49.322  26.849  26.498  1.00  0.00     0.058 A 
ATOM     85  C   UNL A   1      50.203  26.256  27.417  1.00  0.00     0.135 A 
ATOM     86  C   UNL A   1      49.737  26.943  25.159  1.00  0.00     0.135 A 
ATOM     87  F   UNL A   1      49.858  26.146  28.709  1.00  0.00    -0.206 F 
ATOM     88  C   UNL A   1      51.456  25.796  27.027  1.00  0.00     0.059 A 
ATOM     89  C   UNL A   1      50.973  26.459  24.742  1.00  0.00     0.059 A 
ATOM     90  F   UNL A   1      48.930  27.490  24.237  1.00  0.00    -0.206 F 
ATOM     91  C   UNL A   1      51.830  25.899  25.686  1.00  0.00     0.060 A 
BRANCH  91  92
ATOM     92  S   UNL A   1      53.446  25.265  25.188  1.00  0.00     0.124 S 
ATOM     93  O   UNL A   1      54.324  25.888  26.173  1.00  0.00    -0.237 OA
ATOM     94  O   UNL A   1      53.268  23.822  25.321  1.00  0.00    -0.237 OA
ATOM     95  O   UNL A   1      53.594  25.749  23.818  1.00  0.00    -0.744 OA
ENDBRANCH  91  92
ENDBRANCH  59  84
ENDBRANCH  33  34
ENDBRANCH  25  28
ENDBRANCH  23  24
ENDBRANCH   1  23
TORSDOF 19
ENDMDL
MODEL 3
REMARK VINA RESULT:     -10.1      3.308      9.201
REMARK SMILES CCCN(CCC)c1ccc(C(=O)NCCCNC(=O)c2ccc(-c3c4nc(c(-c5c(F)cc(S(=O)(=O)[O-])cc5F)c5ccc([nH]5)c(-c5c(F)cc(S(=O)(=O)[O-])cc5F)c5nc(c(-c6c(F)cc(S(=O)(=O)[O-])cc6F)c6ccc3[nH]6)C=C5)C=C4)cc2)cc1[N+](=O)[O-]
REMARK SMILES IDX 16 1 15 2 14 3 12 4 13 5 11 7 8 8 9 9 88 10 10 11 87 12 4 13
REMARK SMILES IDX 3 14 2 15 1 16 5 17 6 18 7 19 89 20 90 21 91 22 17 23 18 24
REMARK SMILES IDX 19 25 20 27 21 28 22 29 86 30 23 31 85 32 24 33 25 34 26 35
REMARK SMILES IDX 79 36 27 37 84 38 78 39 80 40 28 41 83 42 77 43 76 44 29 46
REMARK SMILES IDX 63 47 42 48 62 49 43 50 46 51 61 52 81 53 44 54 45 55 60 57
REMARK SMILES IDX 82 58 47 59 30 60 31 61 40 62 32 63 33 64 39 65 41 66 34 67
REMARK SMILES IDX 35 68 36 69 37 70 38 71 64 72 65 73 74 74 66 75 67 76 73 77
REMARK SMILES IDX 75 78 68 79 69 80 70 81 71 82 72 83 48 84 49 85 58 86 50 87
REMARK SMILES IDX 51 88 57 89 59 90 52 91 53 92 54 93 55 94 56 95
REMARK H PARENT 14 6 18 26 80 45 46 56
REMARK Flexibility Score: inf
ROOT
ATOM      1  C   UNL A   1      38.465  20.014  24.943  1.00  0.00     0.042 C 
ENDROOT
BRANCH   1   2
ATOM      2  C   UNL A   1      37.182  20.834  25.030  1.00  0.00     0.118 C 
BRANCH   2   3
ATOM      3  N   UNL A   1      35.999  19.984  25.012  1.00  0.00    -0.352 N 
ATOM      4  C   UNL A   1      34.671  20.326  24.997  1.00  0.00     0.251 C 
ATOM      5  O   UNL A   1      33.808  19.470  24.859  1.00  0.00    -0.269 OA
ATOM      6  H   UNL A   1      36.182  19.016  25.008  1.00  0.00     0.163 HD
BRANCH   4   7
ATOM      7  C   UNL A   1      34.280  21.747  25.068  1.00  0.00     0.046 A 
ATOM      8  C   UNL A   1      33.313  24.392  25.312  1.00  0.00     0.116 A 
ATOM      9  C   UNL A   1      33.602  23.610  26.446  1.00  0.00     0.034 A 
ATOM     10  C   UNL A   1      33.566  23.812  24.057  1.00  0.00     0.293 A 
ATOM     11  C   UNL A   1      34.095  22.309  26.330  1.00  0.00     0.016 A 
ATOM     12  C   UNL A   1      34.060  22.508  23.922  1.00  0.00     0.101 A 
BRANCH   8  13
ATOM     13  N   UNL A   1      32.780  25.657  25.486  1.00  0.00    -0.366 N 
BRANCH  13  14
ATOM     14  C   UNL A   1      31.467  25.811  26.123  1.00  0.00     0.116 C 
BRANCH  14  15
ATOM     15  C   UNL A   1      30.316  25.775  25.106  1.00  0.00     0.018 C 
ATOM     16  C   UNL A   1      30.248  27.003  24.204  1.00  0.00     0.006 C 
ENDBRANCH  14  15
ENDBRANCH  13  14
BRANCH  13  17
ATOM     17  C   UNL A   1      33.656  26.825  25.305  1.00  0.00     0.116 C 
BRANCH  17  18
ATOM     18  C   UNL A   1      33.624  27.790  26.500  1.00  0.00     0.018 C 
ATOM     19  C   UNL A   1      33.140  29.190  26.131  1.00  0.00     0.006 C 
ENDBRANCH  17  18
ENDBRANCH  13  17
ENDBRANCH   8  13
BRANCH  10  20
ATOM     20  N   UNL A   1      33.161  24.480  22.830  1.00  0.00     0.065 N 
ATOM     21  O   UNL A   1      34.027  25.172  22.271  1.00  0.00    -0.258 OA
ATOM     22  O   UNL A   1      31.987  24.363  22.457  1.00  0.00    -0.258 OA
ENDBRANCH  10  20
ENDBRANCH   4   7
ENDBRANCH   2   3
ENDBRANCH   1   2
BRANCH   1  23
ATOM     23  C   UNL A   1      39.441  20.298  26.078  1.00  0.00     0.118 C 
BRANCH  23  24
ATOM     24  N   UNL A   1      40.527  19.329  26.123  1.00  0.00    -0.352 N 
ATOM     25  C   UNL A   1      41.884  19.533  26.126  1.00  0.00     0.251 C 
ATOM     26  H   UNL A   1      40.245  18.387  26.157  1.00  0.00     0.163 HD
ATOM     27  O   UNL A   1      42.636  18.581  25.942  1.00  0.00    -0.269 OA
BRANCH  25  28
ATOM     28  C   UNL A   1      42.438  20.889  26.336  1.00  0.00     0.039 A 
ATOM     29  C   UNL A   1      42.746  21.671  25.221  1.00  0.00     0.014 A 
ATOM     30  C   UNL A   1      42.678  21.380  27.622  1.00  0.00     0.014 A 
ATOM     31  C   UNL A   1      43.244  22.965  25.397  1.00  0.00     0.010 A 
ATOM     32  C   UNL A   1      43.098  22.697  27.797  1.00  0.00     0.010 A 
ATOM     33  C   UNL A   1      43.391  23.502  26.686  1.00  0.00    -0.014 A 
BRANCH  33  34
ATOM     34  C   UNL A   1      43.843  24.903  26.890  1.00  0.00     0.031 A 
ATOM     35  C   UNL A   1      45.293  25.266  26.709  1.00  0.00     0.074 A 
ATOM     36  C   UNL A   1      42.958  25.832  27.305  1.00  0.00     0.049 A 
ATOM     37  N   UNL A   1      45.887  26.413  26.911  1.00  0.00    -0.248 NA
ATOM     38  C   UNL A   1      46.203  24.194  26.268  1.00  0.00     0.031 C 
ATOM     39  C   UNL A   1      41.537  25.586  27.571  1.00  0.00     0.029 A 
ATOM     40  N   UNL A   1      43.121  27.163  27.596  1.00  0.00    -0.354 N 
ATOM     41  C   UNL A   1      47.235  26.198  26.649  1.00  0.00     0.074 A 
ATOM     42  C   UNL A   1      47.382  24.801  26.307  1.00  0.00     0.031 C 
ATOM     43  C   UNL A   1      40.960  26.729  27.975  1.00  0.00     0.029 A 
ATOM     44  C   UNL A   1      41.971  27.778  28.040  1.00  0.00     0.049 A 
ATOM     45  H   UNL A   1      43.979  27.635  27.497  1.00  0.00     0.167 HD
ATOM     46  C   UNL A   1      48.254  27.089  26.676  1.00  0.00     0.037 A 
ATOM     47  C   UNL A   1      41.761  29.037  28.469  1.00  0.00     0.037 A 
ATOM     48  C   UNL A   1      48.091  28.488  26.978  1.00  0.00     0.049 A 
ATOM     49  C   UNL A   1      42.910  30.011  28.471  1.00  0.00     0.074 A 
ATOM     50  C   UNL A   1      49.046  29.490  26.938  1.00  0.00     0.029 A 
ATOM     51  N   UNL A   1      46.905  29.081  27.383  1.00  0.00    -0.354 N 
ATOM     52  N   UNL A   1      44.160  29.810  28.124  1.00  0.00    -0.248 NA
ATOM     53  C   UNL A   1      42.623  31.382  28.913  1.00  0.00     0.031 C 
ATOM     54  C   UNL A   1      48.452  30.676  27.378  1.00  0.00     0.029 A 
ATOM     55  C   UNL A   1      47.113  30.429  27.630  1.00  0.00     0.049 A 
ATOM     56  H   UNL A   1      46.044  28.615  27.481  1.00  0.00     0.167 HD
ATOM     57  C   UNL A   1      44.798  31.036  28.280  1.00  0.00     0.074 A 
ATOM     58  C   UNL A   1      43.795  31.975  28.733  1.00  0.00     0.031 C 
ATOM     59  C   UNL A   1      46.099  31.355  28.068  1.00  0.00     0.037 A 
BRANCH  46  60
ATOM     60  C   UNL A   1      49.643  26.597  26.375  1.00  0.00     0.058 A 
ATOM     61  C   UNL A   1      50.492  26.108  27.380  1.00  0.00     0.135 A 
ATOM     62  C   UNL A   1      50.094  26.523  25.047  1.00  0.00     0.135 A 
ATOM     63  F   UNL A   1      50.121  26.169  28.669  1.00  0.00    -0.206 F 
ATOM     64  C   UNL A   1      51.740  25.569  27.080  1.00  0.00     0.059 A 
ATOM     65  C   UNL A   1      51.325  25.963  24.720  1.00  0.00     0.059 A 
ATOM     66  F   UNL A   1      49.324  26.980  24.046  1.00  0.00    -0.206 F 
ATOM     67  C   UNL A   1      52.142  25.492  25.745  1.00  0.00     0.060 A 
BRANCH  67  68
ATOM     68  S   UNL A   1      53.740  24.739  25.371  1.00  0.00     0.124 S 
ATOM     69  O   UNL A   1      53.345  23.383  25.002  1.00  0.00    -0.237 OA
ATOM     70  O   UNL A   1      54.228  25.574  24.278  1.00  0.00    -0.237 OA
ATOM     71  O   UNL A   1      54.477  24.857  26.625  1.00  0.00    -0.744 OA
ENDBRANCH  67  68
ENDBRANCH  46  60
BRANCH  47  72
ATOM     72  C   UNL A   1      40.413  29.453  28.947  1.00  0.00     0.058 A 
ATOM     73  C   UNL A   1      39.355  29.667  28.050  1.00  0.00     0.135 A 
ATOM     74  C   UNL A   1      40.162  29.669  30.312  1.00  0.00     0.135 A 
ATOM     75  F   UNL A   1      39.544  29.478  26.735  1.00  0.00    -0.206 F 
ATOM     76  C   UNL A   1      38.112  30.119  28.481  1.00  0.00     0.059 A 
ATOM     77  C   UNL A   1      38.917  30.087  30.771  1.00  0.00     0.059 A 
ATOM     78  F   UNL A   1      41.131  29.459  31.216  1.00  0.00    -0.206 F 
ATOM     79  C   UNL A   1      37.904  30.329  29.846  1.00  0.00     0.060 A 
BRANCH  79  80
ATOM     80  S   UNL A   1      36.285  30.910  30.396  1.00  0.00     0.124 S 
ATOM     81  O   UNL A   1      35.536  30.918  29.145  1.00  0.00    -0.237 OA
ATOM     82  O   UNL A   1      35.904  29.886  31.364  1.00  0.00    -0.237 OA
ATOM     83  O   UNL A   1      36.576  32.223  30.966  1.00  0.00    -0.744 OA
ENDBRANCH  79  80
ENDBRANCH  47  72
BRANCH  59  84
ATOM     84  C   UNL A   1      46.508  32.787  28.280  1.00  0.00     0.058 A 
ATOM     85  C   UNL A   1      47.030  33.236  29.504  1.00  0.00     0.135 A 
ATOM     86  C   UNL A   1      46.432  33.709  27.223  1.00  0.00     0.135 A 
ATOM     87  F   UNL A   1      47.119  32.397  30.548  1.00  0.00    -0.206 F 
ATOM     88  C   UNL A   1      47.437  34.554  29.679  1.00  0.00     0.059 A 
ATOM     89  C   UNL A   1      46.865  35.023  27.367  1.00  0.00     0.059 A 
ATOM     90  F   UNL A   1      45.953  33.331  26.027  1.00  0.00    -0.206 F 
ATOM     91  C   UNL A   1      47.354  35.439  28.603  1.00  0.00     0.060 A 
BRANCH  91  92
ATOM     92  S   UNL A   1      47.921  37.138  28.835  1.00  0.00     0.124 S 
ATOM     93  O   UNL A   1      46.714  37.784  29.340  1.00  0.00    -0.237 OA
ATOM     94  O   UNL A   1      49.004  36.976  29.800  1.00  0.00    -0.237 OA
ATOM     95  O   UNL A   1      48.337  37.544  27.496  1.00  0.00    -0.744 OA
ENDBRANCH  91  92
ENDBRANCH  59  84
ENDBRANCH  33  34
ENDBRANCH  25  28
ENDBRANCH  23  24
ENDBRANCH   1  23
TORSDOF 19
ENDMDL
