MODEL 1
REMARK VINA RESULT:     -13.8      0.000      0.000
REMARK SMILES C[C@H]1CC[C@H]([NH2+]Cc2c(C(=O)NCCCNC(=O)c3ccc(-c4c5nc(c(-c6c(F)cc(S(=O)(=O)[O-])cc6F)c6ccc([nH]6)c(-c6c(F)cc(S(=O)(=O)[O-])cc6F)c6nc(c(-c7c(F)cc(S(=O)(=O)[O-])cc7F)c7ccc4[nH]7)C=C6)C=C5)cc3)n(Cc3ccccc3F)c3ccccc23)CC1
REMARK SMILES IDX 14 1 13 2 12 3 10 4 11 5 9 7 8 8 99 9 85 10 94 11 98 12
REMARK SMILES IDX 95 13 97 14 96 15 7 16 6 17 5 20 1 21 2 22 3 23 101 24 4 25
REMARK SMILES IDX 100 26 86 27 87 28 88 29 92 30 89 31 91 32 93 33 90 34 15 35
REMARK SMILES IDX 16 36 17 37 18 39 19 40 20 41 84 42 21 43 83 44 22 45 23 46
REMARK SMILES IDX 24 47 77 48 25 49 82 50 76 51 78 52 26 53 81 54 75 55 74 56
REMARK SMILES IDX 27 58 61 59 40 60 60 61 41 62 44 63 59 64 79 65 42 66 43 67
REMARK SMILES IDX 58 69 80 70 45 71 28 72 29 73 38 74 30 75 31 76 37 77 39 78
REMARK SMILES IDX 32 79 33 80 34 81 35 82 36 83 62 84 63 85 72 86 64 87 65 88
REMARK SMILES IDX 71 89 73 90 66 91 67 92 68 93 69 94 70 95 46 96 47 97 56 98
REMARK SMILES IDX 48 99 49 100 55 101 57 102 50 103 51 104 52 105 53 106
REMARK SMILES IDX 54 107
REMARK H PARENT 12 6 6 18 6 19 16 38 78 57 44 68
REMARK Flexibility Score: inf
ROOT
ATOM      1  C   UNL A   1      37.027  22.267  24.262  1.00  0.00     0.042 C 
ENDROOT
BRANCH   1   2
ATOM      2  C   UNL A   1      36.162  23.470  23.897  1.00  0.00     0.118 C 
BRANCH   2   3
ATOM      3  N   UNL A   1      35.255  23.323  22.790  1.00  0.00    -0.351 N 
ATOM      4  C   UNL A   1      33.875  23.388  22.751  1.00  0.00     0.268 C 
ATOM      5  O   UNL A   1      33.427  23.376  21.603  1.00  0.00    -0.268 OA
ATOM      6  H   UNL A   1      35.686  23.150  21.921  1.00  0.00     0.163 HD
BRANCH   4   7
ATOM      7  C   UNL A   1      32.995  23.403  23.935  1.00  0.00     0.117 A 
ATOM      8  C   UNL A   1      32.826  22.550  25.045  1.00  0.00     0.045 A 
ATOM      9  C   UNL A   1      31.547  22.873  25.605  1.00  0.00     0.009 A 
ATOM     10  N   UNL A   1      32.193  24.527  24.277  1.00  0.00    -0.331 N 
ATOM     11  C   UNL A   1      31.321  24.205  25.310  1.00  0.00     0.049 A 
ATOM     12  C   UNL A   1      30.665  22.202  26.480  1.00  0.00     0.011 A 
ATOM     13  C   UNL A   1      30.369  24.949  26.032  1.00  0.00     0.027 A 
ATOM     14  C   UNL A   1      29.601  22.895  27.057  1.00  0.00     0.001 A 
ATOM     15  C   UNL A   1      29.485  24.264  26.872  1.00  0.00     0.002 A 
BRANCH   8  16
ATOM     16  C   UNL A   1      33.636  21.472  25.714  1.00  0.00     0.300 C 
BRANCH  16  17
ATOM     17  N   UNL A   1      34.263  20.488  24.854  1.00  0.00    -0.340 N 
ATOM     18  H   UNL A   1      34.428  20.962  23.966  1.00  0.00     0.346 HD
ATOM     19  H   UNL A   1      35.040  20.186  25.441  1.00  0.00     0.346 HD
BRANCH  17  20
ATOM     20  C   UNL A   1      33.662  19.201  24.509  1.00  0.00     0.182 C 
ATOM     21  C   UNL A   1      33.037  14.898  25.377  1.00  0.00     0.007 C 
ATOM     22  C   UNL A   1      33.383  16.378  25.444  1.00  0.00    -0.014 C 
ATOM     23  C   UNL A   1      32.153  17.254  25.191  1.00  0.00     0.009 C 
ATOM     24  C   UNL A   1      34.475  16.747  24.439  1.00  0.00     0.009 C 
ATOM     25  C   UNL A   1      32.512  18.720  25.398  1.00  0.00     0.065 C 
ATOM     26  C   UNL A   1      34.854  18.217  24.577  1.00  0.00     0.065 C 
ENDBRANCH  17  20
ENDBRANCH  16  17
ENDBRANCH   8  16
BRANCH  10  27
ATOM     27  C   UNL A   1      32.307  25.899  23.750  1.00  0.00     0.161 C 
BRANCH  27  28
ATOM     28  C   UNL A   1      32.571  26.964  24.792  1.00  0.00     0.008 A 
ATOM     29  C   UNL A   1      33.761  27.014  25.538  1.00  0.00     0.008 A 
ATOM     30  C   UNL A   1      31.657  28.002  24.996  1.00  0.00     0.128 A 
ATOM     31  C   UNL A   1      34.006  28.021  26.475  1.00  0.00     0.001 A 
ATOM     32  C   UNL A   1      31.885  29.006  25.940  1.00  0.00     0.039 A 
ATOM     33  F   UNL A   1      30.549  28.084  24.248  1.00  0.00    -0.207 F 
ATOM     34  C   UNL A   1      33.060  29.012  26.688  1.00  0.00     0.003 A 
ENDBRANCH  27  28
ENDBRANCH  10  27
ENDBRANCH   4   7
ENDBRANCH   2   3
ENDBRANCH   1   2
BRANCH   1  35
ATOM     35  C   UNL A   1      37.570  22.234  25.704  1.00  0.00     0.118 C 
BRANCH  35  36
ATOM     36  N   UNL A   1      38.898  21.666  25.894  1.00  0.00    -0.352 N 
ATOM     37  C   UNL A   1      39.920  21.969  26.760  1.00  0.00     0.251 C 
ATOM     38  H   UNL A   1      39.103  20.921  25.284  1.00  0.00     0.163 HD
ATOM     39  O   UNL A   1      40.591  21.025  27.183  1.00  0.00    -0.269 OA
BRANCH  37  40
ATOM     40  C   UNL A   1      40.347  23.355  27.085  1.00  0.00     0.039 A 
ATOM     41  C   UNL A   1      41.465  23.652  27.861  1.00  0.00     0.014 A 
ATOM     42  C   UNL A   1      39.461  24.397  26.744  1.00  0.00     0.014 A 
ATOM     43  C   UNL A   1      41.637  24.930  28.378  1.00  0.00     0.010 A 
ATOM     44  C   UNL A   1      39.635  25.682  27.250  1.00  0.00     0.010 A 
ATOM     45  C   UNL A   1      40.695  25.931  28.116  1.00  0.00    -0.014 A 
BRANCH  45  46
ATOM     46  C   UNL A   1      40.908  27.231  28.748  1.00  0.00     0.031 A 
ATOM     47  C   UNL A   1      42.054  28.016  28.206  1.00  0.00     0.074 A 
ATOM     48  C   UNL A   1      40.111  27.740  29.707  1.00  0.00     0.049 A 
ATOM     49  N   UNL A   1      43.147  28.362  28.806  1.00  0.00    -0.248 NA
ATOM     50  C   UNL A   1      42.023  28.356  26.776  1.00  0.00     0.031 C 
ATOM     51  C   UNL A   1      38.813  27.252  30.176  1.00  0.00     0.029 A 
ATOM     52  N   UNL A   1      40.281  28.888  30.420  1.00  0.00    -0.354 N 
ATOM     53  C   UNL A   1      43.875  29.114  27.884  1.00  0.00     0.074 A 
ATOM     54  C   UNL A   1      43.201  28.962  26.620  1.00  0.00     0.031 C 
ATOM     55  C   UNL A   1      38.220  28.213  30.921  1.00  0.00     0.029 A 
ATOM     56  C   UNL A   1      39.146  29.322  31.090  1.00  0.00     0.049 A 
ATOM     57  H   UNL A   1      41.138  29.371  30.457  1.00  0.00     0.167 HD
ATOM     58  C   UNL A   1      44.890  29.944  28.255  1.00  0.00     0.037 A 
ATOM     59  C   UNL A   1      38.963  30.535  31.670  1.00  0.00     0.037 A 
ATOM     60  C   UNL A   1      45.357  29.654  29.584  1.00  0.00     0.049 A 
ATOM     61  C   UNL A   1      40.310  31.111  31.929  1.00  0.00     0.074 A 
ATOM     62  C   UNL A   1      45.939  28.554  30.185  1.00  0.00     0.029 A 
ATOM     63  N   UNL A   1      44.937  30.459  30.616  1.00  0.00    -0.354 N 
ATOM     64  N   UNL A   1      41.153  30.624  32.801  1.00  0.00    -0.248 NA
ATOM     65  C   UNL A   1      40.905  31.944  30.893  1.00  0.00     0.031 C 
ATOM     66  C   UNL A   1      45.388  28.518  31.499  1.00  0.00     0.029 A 
ATOM     67  C   UNL A   1      44.545  29.623  31.631  1.00  0.00     0.049 A 
ATOM     68  H   UNL A   1      44.921  31.443  30.625  1.00  0.00     0.167 HD
ATOM     69  C   UNL A   1      42.399  30.735  32.200  1.00  0.00     0.074 A 
ATOM     70  C   UNL A   1      42.193  31.630  31.063  1.00  0.00     0.031 C 
ATOM     71  C   UNL A   1      43.423  29.883  32.506  1.00  0.00     0.037 A 
BRANCH  58  72
ATOM     72  C   UNL A   1      45.268  31.210  27.526  1.00  0.00     0.058 A 
ATOM     73  C   UNL A   1      46.528  31.314  26.900  1.00  0.00     0.135 A 
ATOM     74  C   UNL A   1      44.551  32.419  27.656  1.00  0.00     0.135 A 
ATOM     75  F   UNL A   1      47.298  30.228  26.728  1.00  0.00    -0.206 F 
ATOM     76  C   UNL A   1      47.067  32.540  26.503  1.00  0.00     0.059 A 
ATOM     77  C   UNL A   1      45.044  33.643  27.217  1.00  0.00     0.059 A 
ATOM     78  F   UNL A   1      43.383  32.487  28.306  1.00  0.00    -0.206 F 
ATOM     79  C   UNL A   1      46.322  33.702  26.686  1.00  0.00     0.060 A 
BRANCH  79  80
ATOM     80  S   UNL A   1      47.067  35.298  26.311  1.00  0.00     0.124 S 
ATOM     81  O   UNL A   1      47.890  35.521  27.495  1.00  0.00    -0.237 OA
ATOM     82  O   UNL A   1      47.788  35.016  25.074  1.00  0.00    -0.237 OA
ATOM     83  O   UNL A   1      45.913  36.183  26.170  1.00  0.00    -0.744 OA
ENDBRANCH  79  80
ENDBRANCH  58  72
BRANCH  59  84
ATOM     84  C   UNL A   1      37.711  31.338  31.688  1.00  0.00     0.058 A 
ATOM     85  C   UNL A   1      37.033  31.637  32.884  1.00  0.00     0.135 A 
ATOM     86  C   UNL A   1      37.283  32.043  30.544  1.00  0.00     0.135 A 
ATOM     87  F   UNL A   1      37.397  31.045  34.031  1.00  0.00    -0.206 F 
ATOM     88  C   UNL A   1      36.008  32.592  32.942  1.00  0.00     0.059 A 
ATOM     89  C   UNL A   1      36.259  32.987  30.574  1.00  0.00     0.059 A 
ATOM     90  F   UNL A   1      37.912  31.902  29.368  1.00  0.00    -0.206 F 
ATOM     91  C   UNL A   1      35.636  33.271  31.782  1.00  0.00     0.060 A 
BRANCH  91  92
ATOM     92  S   UNL A   1      34.410  34.598  31.873  1.00  0.00     0.124 S 
ATOM     93  O   UNL A   1      35.140  35.637  32.590  1.00  0.00    -0.237 OA
ATOM     94  O   UNL A   1      34.141  34.863  30.464  1.00  0.00    -0.237 OA
ATOM     95  O   UNL A   1      33.306  33.992  32.611  1.00  0.00    -0.744 OA
ENDBRANCH  91  92
ENDBRANCH  59  84
BRANCH  71  96
ATOM     96  C   UNL A   1      43.258  28.956  33.685  1.00  0.00     0.058 A 
ATOM     97  C   UNL A   1      43.521  29.328  35.015  1.00  0.00     0.135 A 
ATOM     98  C   UNL A   1      42.644  27.710  33.482  1.00  0.00     0.135 A 
ATOM     99  F   UNL A   1      43.999  30.545  35.308  1.00  0.00    -0.206 F 
ATOM    100  C   UNL A   1      43.228  28.488  36.089  1.00  0.00     0.059 A 
ATOM    101  C   UNL A   1      42.312  26.867  34.541  1.00  0.00     0.059 A 
ATOM    102  F   UNL A   1      42.301  27.322  32.242  1.00  0.00    -0.206 F 
ATOM    103  C   UNL A   1      42.619  27.259  35.843  1.00  0.00     0.060 A 
BRANCH 103 104
ATOM    104  S   UNL A   1      42.156  26.214  37.243  1.00  0.00     0.124 S 
ATOM    105  O   UNL A   1      42.274  24.872  36.675  1.00  0.00    -0.237 OA
ATOM    106  O   UNL A   1      43.163  26.564  38.245  1.00  0.00    -0.237 OA
ATOM    107  O   UNL A   1      40.801  26.642  37.560  1.00  0.00    -0.744 OA
ENDBRANCH 103 104
ENDBRANCH  71  96
ENDBRANCH  45  46
ENDBRANCH  37  40
ENDBRANCH  35  36
ENDBRANCH   1  35
TORSDOF 18
ENDMDL
MODEL 2
REMARK VINA RESULT:     -13.6      1.219      2.117
REMARK SMILES C[C@H]1CC[C@H]([NH2+]Cc2c(C(=O)NCCCNC(=O)c3ccc(-c4c5nc(c(-c6c(F)cc(S(=O)(=O)[O-])cc6F)c6ccc([nH]6)c(-c6c(F)cc(S(=O)(=O)[O-])cc6F)c6nc(c(-c7c(F)cc(S(=O)(=O)[O-])cc7F)c7ccc4[nH]7)C=C6)C=C5)cc3)n(Cc3ccccc3F)c3ccccc23)CC1
REMARK SMILES IDX 14 1 13 2 12 3 10 4 11 5 9 7 8 8 99 9 85 10 94 11 98 12
REMARK SMILES IDX 95 13 97 14 96 15 7 16 6 17 5 20 1 21 2 22 3 23 101 24 4 25
REMARK SMILES IDX 100 26 86 27 87 28 88 29 92 30 89 31 91 32 93 33 90 34 15 35
REMARK SMILES IDX 16 36 17 37 18 39 19 40 20 41 84 42 21 43 83 44 22 45 23 46
REMARK SMILES IDX 24 47 77 48 25 49 82 50 76 51 78 52 26 53 81 54 75 55 74 56
REMARK SMILES IDX 27 58 61 59 40 60 60 61 41 62 44 63 59 64 79 65 42 66 43 67
REMARK SMILES IDX 58 69 80 70 45 71 28 72 29 73 38 74 30 75 31 76 37 77 39 78
REMARK SMILES IDX 32 79 33 80 34 81 35 82 36 83 62 84 63 85 72 86 64 87 65 88
REMARK SMILES IDX 71 89 73 90 66 91 67 92 68 93 69 94 70 95 46 96 47 97 56 98
REMARK SMILES IDX 48 99 49 100 55 101 57 102 50 103 51 104 52 105 53 106
REMARK SMILES IDX 54 107
REMARK H PARENT 12 6 6 18 6 19 16 38 78 57 44 68
REMARK Flexibility Score: inf
ROOT
ATOM      1  C   UNL A   1      36.531  22.154  25.816  1.00  0.00     0.042 C 
ENDROOT
BRANCH   1   2
ATOM      2  C   UNL A   1      35.943  23.237  26.715  1.00  0.00     0.118 C 
BRANCH   2   3
ATOM      3  N   UNL A   1      34.719  22.931  27.408  1.00  0.00    -0.351 N 
ATOM      4  C   UNL A   1      33.420  22.866  26.940  1.00  0.00     0.268 C 
ATOM      5  O   UNL A   1      32.632  22.418  27.775  1.00  0.00    -0.268 OA
ATOM      6  H   UNL A   1      34.823  22.738  28.368  1.00  0.00     0.163 HD
BRANCH   4   7
ATOM      7  C   UNL A   1      32.973  23.333  25.614  1.00  0.00     0.117 A 
ATOM      8  C   UNL A   1      32.863  22.728  24.345  1.00  0.00     0.045 A 
ATOM      9  C   UNL A   1      32.779  23.800  23.399  1.00  0.00     0.009 A 
ATOM     10  N   UNL A   1      32.330  24.587  25.422  1.00  0.00    -0.331 N 
ATOM     11  C   UNL A   1      32.197  24.862  24.066  1.00  0.00     0.049 A 
ATOM     12  C   UNL A   1      32.980  23.891  22.004  1.00  0.00     0.011 A 
ATOM     13  C   UNL A   1      31.609  25.923  23.353  1.00  0.00     0.027 A 
ATOM     14  C   UNL A   1      32.564  25.031  21.316  1.00  0.00     0.001 A 
ATOM     15  C   UNL A   1      31.843  26.014  21.977  1.00  0.00     0.002 A 
BRANCH   8  16
ATOM     16  C   UNL A   1      32.808  21.318  23.819  1.00  0.00     0.300 C 
BRANCH  16  17
ATOM     17  N   UNL A   1      33.988  20.498  24.010  1.00  0.00    -0.340 N 
ATOM     18  H   UNL A   1      34.296  20.234  23.074  1.00  0.00     0.346 HD
ATOM     19  H   UNL A   1      34.555  21.110  24.597  1.00  0.00     0.346 HD
BRANCH  17  20
ATOM     20  C   UNL A   1      34.011  19.266  24.796  1.00  0.00     0.182 C 
ATOM     21  C   UNL A   1      32.796  15.037  25.346  1.00  0.00     0.007 C 
ATOM     22  C   UNL A   1      33.089  16.425  24.795  1.00  0.00    -0.014 C 
ATOM     23  C   UNL A   1      34.573  16.776  24.919  1.00  0.00     0.009 C 
ATOM     24  C   UNL A   1      32.261  17.498  25.503  1.00  0.00     0.009 C 
ATOM     25  C   UNL A   1      34.847  18.112  24.238  1.00  0.00     0.065 C 
ATOM     26  C   UNL A   1      32.518  18.867  24.884  1.00  0.00     0.065 C 
ENDBRANCH  17  20
ENDBRANCH  16  17
ENDBRANCH   8  16
BRANCH  10  27
ATOM     27  C   UNL A   1      31.743  25.458  26.457  1.00  0.00     0.161 C 
BRANCH  27  28
ATOM     28  C   UNL A   1      32.268  26.877  26.471  1.00  0.00     0.008 A 
ATOM     29  C   UNL A   1      31.458  27.980  26.788  1.00  0.00     0.008 A 
ATOM     30  C   UNL A   1      33.622  27.136  26.243  1.00  0.00     0.128 A 
ATOM     31  C   UNL A   1      31.963  29.282  26.827  1.00  0.00     0.001 A 
ATOM     32  C   UNL A   1      34.136  28.435  26.266  1.00  0.00     0.039 A 
ATOM     33  F   UNL A   1      34.480  26.127  26.040  1.00  0.00    -0.207 F 
ATOM     34  C   UNL A   1      33.302  29.513  26.551  1.00  0.00     0.003 A 
ENDBRANCH  27  28
ENDBRANCH  10  27
ENDBRANCH   4   7
ENDBRANCH   2   3
ENDBRANCH   1   2
BRANCH   1  35
ATOM     35  C   UNL A   1      37.891  22.476  25.166  1.00  0.00     0.118 C 
BRANCH  35  36
ATOM     36  N   UNL A   1      39.075  21.917  25.805  1.00  0.00    -0.352 N 
ATOM     37  C   UNL A   1      39.797  22.294  26.910  1.00  0.00     0.251 C 
ATOM     38  H   UNL A   1      39.425  21.112  25.357  1.00  0.00     0.163 HD
ATOM     39  O   UNL A   1      40.270  21.390  27.603  1.00  0.00    -0.269 OA
BRANCH  37  40
ATOM     40  C   UNL A   1      40.161  23.701  27.223  1.00  0.00     0.039 A 
ATOM     41  C   UNL A   1      41.362  24.069  27.823  1.00  0.00     0.014 A 
ATOM     42  C   UNL A   1      39.151  24.673  27.071  1.00  0.00     0.014 A 
ATOM     43  C   UNL A   1      41.514  25.341  28.361  1.00  0.00     0.010 A 
ATOM     44  C   UNL A   1      39.303  25.953  27.597  1.00  0.00     0.010 A 
ATOM     45  C   UNL A   1      40.465  26.265  28.295  1.00  0.00    -0.014 A 
BRANCH  45  46
ATOM     46  C   UNL A   1      40.674  27.559  28.939  1.00  0.00     0.031 A 
ATOM     47  C   UNL A   1      41.828  28.347  28.417  1.00  0.00     0.074 A 
ATOM     48  C   UNL A   1      39.868  28.062  29.894  1.00  0.00     0.049 A 
ATOM     49  N   UNL A   1      42.915  28.685  29.033  1.00  0.00    -0.248 NA
ATOM     50  C   UNL A   1      41.814  28.699  26.990  1.00  0.00     0.031 C 
ATOM     51  C   UNL A   1      38.563  27.573  30.344  1.00  0.00     0.029 A 
ATOM     52  N   UNL A   1      40.032  29.204  30.618  1.00  0.00    -0.354 N 
ATOM     53  C   UNL A   1      43.655  29.443  28.125  1.00  0.00     0.074 A 
ATOM     54  C   UNL A   1      42.995  29.303  26.852  1.00  0.00     0.031 C 
ATOM     55  C   UNL A   1      37.965  28.529  31.090  1.00  0.00     0.029 A 
ATOM     56  C   UNL A   1      38.891  29.635  31.279  1.00  0.00     0.049 A 
ATOM     57  H   UNL A   1      40.891  29.685  30.669  1.00  0.00     0.167 HD
ATOM     58  C   UNL A   1      44.668  30.267  28.514  1.00  0.00     0.037 A 
ATOM     59  C   UNL A   1      38.704  30.843  31.867  1.00  0.00     0.037 A 
ATOM     60  C   UNL A   1      45.120  29.965  29.846  1.00  0.00     0.049 A 
ATOM     61  C   UNL A   1      40.050  31.414  32.146  1.00  0.00     0.074 A 
ATOM     62  C   UNL A   1      45.692  28.859  30.445  1.00  0.00     0.029 A 
ATOM     63  N   UNL A   1      44.689  30.762  30.880  1.00  0.00    -0.354 N 
ATOM     64  N   UNL A   1      40.882  30.918  33.023  1.00  0.00    -0.248 NA
ATOM     65  C   UNL A   1      40.658  32.254  31.124  1.00  0.00     0.031 C 
ATOM     66  C   UNL A   1      45.126  28.813  31.752  1.00  0.00     0.029 A 
ATOM     67  C   UNL A   1      44.284  29.919  31.884  1.00  0.00     0.049 A 
ATOM     68  H   UNL A   1      44.676  31.747  30.897  1.00  0.00     0.167 HD
ATOM     69  C   UNL A   1      42.135  31.031  32.438  1.00  0.00     0.074 A 
ATOM     70  C   UNL A   1      41.943  31.936  31.306  1.00  0.00     0.031 C 
ATOM     71  C   UNL A   1      43.153  30.174  32.748  1.00  0.00     0.037 A 
BRANCH  58  72
ATOM     72  C   UNL A   1      45.057  31.538  27.800  1.00  0.00     0.058 A 
ATOM     73  C   UNL A   1      46.288  31.614  27.116  1.00  0.00     0.135 A 
ATOM     74  C   UNL A   1      44.393  32.768  27.996  1.00  0.00     0.135 A 
ATOM     75  F   UNL A   1      47.009  30.507  26.878  1.00  0.00    -0.206 F 
ATOM     76  C   UNL A   1      46.852  32.831  26.724  1.00  0.00     0.059 A 
ATOM     77  C   UNL A   1      44.909  33.985  27.565  1.00  0.00     0.059 A 
ATOM     78  F   UNL A   1      43.261  32.860  28.705  1.00  0.00    -0.206 F 
ATOM     79  C   UNL A   1      46.161  34.013  26.973  1.00  0.00     0.060 A 
BRANCH  79  80
ATOM     80  S   UNL A   1      46.946  35.591  26.603  1.00  0.00     0.124 S 
ATOM     81  O   UNL A   1      47.765  35.245  25.447  1.00  0.00    -0.237 OA
ATOM     82  O   UNL A   1      45.796  36.450  26.340  1.00  0.00    -0.237 OA
ATOM     83  O   UNL A   1      47.681  35.896  27.828  1.00  0.00    -0.744 OA
ENDBRANCH  79  80
ENDBRANCH  58  72
BRANCH  59  84
ATOM     84  C   UNL A   1      37.454  31.649  31.878  1.00  0.00     0.058 A 
ATOM     85  C   UNL A   1      36.810  32.013  33.074  1.00  0.00     0.135 A 
ATOM     86  C   UNL A   1      36.994  32.294  30.710  1.00  0.00     0.135 A 
ATOM     87  F   UNL A   1      37.206  31.482  34.241  1.00  0.00    -0.206 F 
ATOM     88  C   UNL A   1      35.788  32.972  33.111  1.00  0.00     0.059 A 
ATOM     89  C   UNL A   1      35.972  33.240  30.719  1.00  0.00     0.059 A 
ATOM     90  F   UNL A   1      37.589  32.089  29.526  1.00  0.00    -0.206 F 
ATOM     91  C   UNL A   1      35.384  33.590  31.928  1.00  0.00     0.060 A 
BRANCH  91  92
ATOM     92  S   UNL A   1      34.162  34.922  31.982  1.00  0.00     0.124 S 
ATOM     93  O   UNL A   1      33.042  34.279  32.658  1.00  0.00    -0.237 OA
ATOM     94  O   UNL A   1      34.864  35.950  32.744  1.00  0.00    -0.237 OA
ATOM     95  O   UNL A   1      33.940  35.239  30.574  1.00  0.00    -0.744 OA
ENDBRANCH  91  92
ENDBRANCH  59  84
BRANCH  71  96
ATOM     96  C   UNL A   1      42.972  29.238  33.917  1.00  0.00     0.058 A 
ATOM     97  C   UNL A   1      42.290  28.010  33.836  1.00  0.00     0.135 A 
ATOM     98  C   UNL A   1      43.664  29.504  35.109  1.00  0.00     0.135 A 
ATOM     99  F   UNL A   1      41.700  27.624  32.697  1.00  0.00    -0.206 F 
ATOM    100  C   UNL A   1      42.260  27.111  34.902  1.00  0.00     0.059 A 
ATOM    101  C   UNL A   1      43.676  28.606  36.174  1.00  0.00     0.059 A 
ATOM    102  F   UNL A   1      44.394  30.626  35.227  1.00  0.00    -0.206 F 
ATOM    103  C   UNL A   1      42.961  27.415  36.067  1.00  0.00     0.060 A 
BRANCH 103 104
ATOM    104  S   UNL A   1      42.997  26.206  37.409  1.00  0.00     0.124 S 
ATOM    105  O   UNL A   1      43.907  26.836  38.365  1.00  0.00    -0.237 OA
ATOM    106  O   UNL A   1      41.594  26.148  37.821  1.00  0.00    -0.237 OA
ATOM    107  O   UNL A   1      43.499  24.997  36.772  1.00  0.00    -0.744 OA
ENDBRANCH 103 104
ENDBRANCH  71  96
ENDBRANCH  45  46
ENDBRANCH  37  40
ENDBRANCH  35  36
ENDBRANCH   1  35
TORSDOF 18
ENDMDL
MODEL 3
REMARK VINA RESULT:     -13.5      1.512      4.513
REMARK SMILES C[C@H]1CC[C@H]([NH2+]Cc2c(C(=O)NCCCNC(=O)c3ccc(-c4c5nc(c(-c6c(F)cc(S(=O)(=O)[O-])cc6F)c6ccc([nH]6)c(-c6c(F)cc(S(=O)(=O)[O-])cc6F)c6nc(c(-c7c(F)cc(S(=O)(=O)[O-])cc7F)c7ccc4[nH]7)C=C6)C=C5)cc3)n(Cc3ccccc3F)c3ccccc23)CC1
REMARK SMILES IDX 14 1 13 2 12 3 10 4 11 5 9 7 8 8 99 9 85 10 94 11 98 12
REMARK SMILES IDX 95 13 97 14 96 15 7 16 6 17 5 20 1 21 2 22 3 23 101 24 4 25
REMARK SMILES IDX 100 26 86 27 87 28 88 29 92 30 89 31 91 32 93 33 90 34 15 35
REMARK SMILES IDX 16 36 17 37 18 39 19 40 20 41 84 42 21 43 83 44 22 45 23 46
REMARK SMILES IDX 24 47 77 48 25 49 82 50 76 51 78 52 26 53 81 54 75 55 74 56
REMARK SMILES IDX 27 58 61 59 40 60 60 61 41 62 44 63 59 64 79 65 42 66 43 67
REMARK SMILES IDX 58 69 80 70 45 71 28 72 29 73 38 74 30 75 31 76 37 77 39 78
REMARK SMILES IDX 32 79 33 80 34 81 35 82 36 83 62 84 63 85 72 86 64 87 65 88
REMARK SMILES IDX 71 89 73 90 66 91 67 92 68 93 69 94 70 95 46 96 47 97 56 98
REMARK SMILES IDX 48 99 49 100 55 101 57 102 50 103 51 104 52 105 53 106
REMARK SMILES IDX 54 107
REMARK H PARENT 12 6 6 18 6 19 16 38 78 57 44 68
REMARK Flexibility Score: inf
ROOT
ATOM      1  C   UNL A   1      36.400  22.439  24.172  1.00  0.00     0.042 C 
ENDROOT
BRANCH   1   2
ATOM      2  C   UNL A   1      35.557  23.709  24.118  1.00  0.00     0.118 C 
BRANCH   2   3
ATOM      3  N   UNL A   1      34.607  23.829  23.044  1.00  0.00    -0.351 N 
ATOM      4  C   UNL A   1      33.645  24.792  22.806  1.00  0.00     0.268 C 
ATOM      5  O   UNL A   1      33.110  24.673  21.703  1.00  0.00    -0.268 OA
ATOM      6  H   UNL A   1      34.649  23.111  22.370  1.00  0.00     0.163 HD
BRANCH   4   7
ATOM      7  C   UNL A   1      33.228  25.828  23.770  1.00  0.00     0.117 A 
ATOM      8  C   UNL A   1      33.312  27.236  23.797  1.00  0.00     0.045 A 
ATOM      9  C   UNL A   1      33.126  27.619  25.165  1.00  0.00     0.009 A 
ATOM     10  N   UNL A   1      32.405  25.541  24.894  1.00  0.00    -0.331 N 
ATOM     11  C   UNL A   1      32.331  26.643  25.736  1.00  0.00     0.049 A 
ATOM     12  C   UNL A   1      33.413  28.791  25.900  1.00  0.00     0.011 A 
ATOM     13  C   UNL A   1      31.633  26.894  26.932  1.00  0.00     0.027 A 
ATOM     14  C   UNL A   1      32.869  28.961  27.173  1.00  0.00     0.001 A 
ATOM     15  C   UNL A   1      31.951  28.045  27.662  1.00  0.00     0.002 A 
BRANCH   8  16
ATOM     16  C   UNL A   1      33.528  28.327  22.782  1.00  0.00     0.300 C 
BRANCH  16  17
ATOM     17  N   UNL A   1      32.357  28.814  22.081  1.00  0.00    -0.340 N 
ATOM     18  H   UNL A   1      32.590  29.759  21.775  1.00  0.00     0.346 HD
ATOM     19  H   UNL A   1      32.211  28.064  21.405  1.00  0.00     0.346 HD
BRANCH  17  20
ATOM     20  C   UNL A   1      31.026  28.909  22.676  1.00  0.00     0.182 C 
ATOM     21  C   UNL A   1      27.464  31.316  23.761  1.00  0.00     0.007 C 
ATOM     22  C   UNL A   1      28.767  30.800  23.170  1.00  0.00    -0.014 C 
ATOM     23  C   UNL A   1      28.555  29.497  22.395  1.00  0.00     0.009 C 
ATOM     24  C   UNL A   1      29.825  30.571  24.251  1.00  0.00     0.009 C 
ATOM     25  C   UNL A   1      29.852  29.086  21.710  1.00  0.00     0.065 C 
ATOM     26  C   UNL A   1      31.141  30.125  23.626  1.00  0.00     0.065 C 
ENDBRANCH  17  20
ENDBRANCH  16  17
ENDBRANCH   8  16
BRANCH  10  27
ATOM     27  C   UNL A   1      31.609  24.323  25.130  1.00  0.00     0.161 C 
BRANCH  27  28
ATOM     28  C   UNL A   1      32.381  23.158  25.712  1.00  0.00     0.008 A 
ATOM     29  C   UNL A   1      32.979  23.207  26.983  1.00  0.00     0.008 A 
ATOM     30  C   UNL A   1      32.458  21.943  25.027  1.00  0.00     0.128 A 
ATOM     31  C   UNL A   1      33.662  22.114  27.521  1.00  0.00     0.001 A 
ATOM     32  C   UNL A   1      33.149  20.847  25.549  1.00  0.00     0.039 A 
ATOM     33  F   UNL A   1      31.822  21.783  23.859  1.00  0.00    -0.207 F 
ATOM     34  C   UNL A   1      33.760  20.935  26.798  1.00  0.00     0.003 A 
ENDBRANCH  27  28
ENDBRANCH  10  27
ENDBRANCH   4   7
ENDBRANCH   2   3
ENDBRANCH   1   2
BRANCH   1  35
ATOM     35  C   UNL A   1      37.224  22.225  25.457  1.00  0.00     0.118 C 
BRANCH  35  36
ATOM     36  N   UNL A   1      38.666  22.089  25.300  1.00  0.00    -0.352 N 
ATOM     37  C   UNL A   1      39.715  22.295  26.162  1.00  0.00     0.251 C 
ATOM     38  H   UNL A   1      38.941  21.792  24.403  1.00  0.00     0.163 HD
ATOM     39  O   UNL A   1      40.678  21.531  26.061  1.00  0.00    -0.269 OA
BRANCH  37  40
ATOM     40  C   UNL A   1      39.816  23.457  27.083  1.00  0.00     0.039 A 
ATOM     41  C   UNL A   1      38.888  24.495  27.114  1.00  0.00     0.014 A 
ATOM     42  C   UNL A   1      41.012  23.592  27.817  1.00  0.00     0.014 A 
ATOM     43  C   UNL A   1      39.192  25.684  27.767  1.00  0.00     0.010 A 
ATOM     44  C   UNL A   1      41.315  24.777  28.482  1.00  0.00     0.010 A 
ATOM     45  C   UNL A   1      40.426  25.843  28.406  1.00  0.00    -0.014 A 
BRANCH  45  46
ATOM     46  C   UNL A   1      40.700  27.143  29.014  1.00  0.00     0.031 A 
ATOM     47  C   UNL A   1      41.847  27.890  28.420  1.00  0.00     0.074 A 
ATOM     48  C   UNL A   1      39.956  27.685  29.997  1.00  0.00     0.049 A 
ATOM     49  N   UNL A   1      42.972  28.210  28.974  1.00  0.00    -0.248 NA
ATOM     50  C   UNL A   1      41.770  28.216  26.988  1.00  0.00     0.031 C 
ATOM     51  C   UNL A   1      38.663  27.239  30.521  1.00  0.00     0.029 A 
ATOM     52  N   UNL A   1      40.186  28.835  30.690  1.00  0.00    -0.354 N 
ATOM     53  C   UNL A   1      43.684  28.931  28.017  1.00  0.00     0.074 A 
ATOM     54  C   UNL A   1      42.958  28.786  26.781  1.00  0.00     0.031 C 
ATOM     55  C   UNL A   1      38.128  28.224  31.277  1.00  0.00     0.029 A 
ATOM     56  C   UNL A   1      39.091  29.308  31.398  1.00  0.00     0.049 A 
ATOM     57  H   UNL A   1      41.058  29.293  30.689  1.00  0.00     0.167 HD
ATOM     58  C   UNL A   1      44.737  29.735  28.339  1.00  0.00     0.037 A 
ATOM     59  C   UNL A   1      38.965  30.531  31.971  1.00  0.00     0.037 A 
ATOM     60  C   UNL A   1      45.246  29.445  29.653  1.00  0.00     0.049 A 
ATOM     61  C   UNL A   1      40.337  31.071  32.172  1.00  0.00     0.074 A 
ATOM     62  C   UNL A   1      45.819  28.335  30.243  1.00  0.00     0.029 A 
ATOM     63  N   UNL A   1      44.889  30.272  30.690  1.00  0.00    -0.354 N 
ATOM     64  N   UNL A   1      41.199  30.569  33.017  1.00  0.00    -0.248 NA
ATOM     65  C   UNL A   1      40.915  31.876  31.105  1.00  0.00     0.031 C 
ATOM     66  C   UNL A   1      45.318  28.328  31.577  1.00  0.00     0.029 A 
ATOM     67  C   UNL A   1      44.513  29.458  31.730  1.00  0.00     0.049 A 
ATOM     68  H   UNL A   1      44.902  31.257  30.689  1.00  0.00     0.167 HD
ATOM     69  C   UNL A   1      42.423  30.638  32.367  1.00  0.00     0.074 A 
ATOM     70  C   UNL A   1      42.199  31.527  31.229  1.00  0.00     0.031 C 
ATOM     71  C   UNL A   1      43.433  29.759  32.643  1.00  0.00     0.037 A 
BRANCH  58  72
ATOM     72  C   UNL A   1      45.122  30.982  27.582  1.00  0.00     0.058 A 
ATOM     73  C   UNL A   1      46.405  31.088  27.006  1.00  0.00     0.135 A 
ATOM     74  C   UNL A   1      44.379  32.181  27.639  1.00  0.00     0.135 A 
ATOM     75  F   UNL A   1      47.201  30.013  26.904  1.00  0.00    -0.206 F 
ATOM     76  C   UNL A   1      46.938  32.310  26.588  1.00  0.00     0.059 A 
ATOM     77  C   UNL A   1      44.868  33.398  27.179  1.00  0.00     0.059 A 
ATOM     78  F   UNL A   1      43.184  32.249  28.238  1.00  0.00    -0.206 F 
ATOM     79  C   UNL A   1      46.166  33.463  26.699  1.00  0.00     0.060 A 
BRANCH  79  80
ATOM     80  S   UNL A   1      46.897  35.060  26.299  1.00  0.00     0.124 S 
ATOM     81  O   UNL A   1      45.729  35.933  26.334  1.00  0.00    -0.237 OA
ATOM     82  O   UNL A   1      47.860  35.234  27.382  1.00  0.00    -0.237 OA
ATOM     83  O   UNL A   1      47.481  34.841  24.978  1.00  0.00    -0.744 OA
ENDBRANCH  79  80
ENDBRANCH  58  72
BRANCH  59  84
ATOM     84  C   UNL A   1      37.738  31.370  32.028  1.00  0.00     0.058 A 
ATOM     85  C   UNL A   1      37.181  31.797  33.247  1.00  0.00     0.135 A 
ATOM     86  C   UNL A   1      37.221  31.983  30.867  1.00  0.00     0.135 A 
ATOM     87  F   UNL A   1      37.636  31.299  34.407  1.00  0.00    -0.206 F 
ATOM     88  C   UNL A   1      36.187  32.783  33.310  1.00  0.00     0.059 A 
ATOM     89  C   UNL A   1      36.225  32.956  30.902  1.00  0.00     0.059 A 
ATOM     90  F   UNL A   1      37.734  31.717  29.657  1.00  0.00    -0.206 F 
ATOM     91  C   UNL A   1      35.724  33.367  32.131  1.00  0.00     0.060 A 
BRANCH  91  92
ATOM     92  S   UNL A   1      34.541  34.733  32.209  1.00  0.00     0.124 S 
ATOM     93  O   UNL A   1      35.277  35.728  32.980  1.00  0.00    -0.237 OA
ATOM     94  O   UNL A   1      34.336  35.042  30.797  1.00  0.00    -0.237 OA
ATOM     95  O   UNL A   1      33.388  34.148  32.888  1.00  0.00    -0.744 OA
ENDBRANCH  91  92
ENDBRANCH  59  84
BRANCH  71  96
ATOM     96  C   UNL A   1      43.287  28.849  33.838  1.00  0.00     0.058 A 
ATOM     97  C   UNL A   1      42.505  27.680  33.838  1.00  0.00     0.135 A 
ATOM     98  C   UNL A   1      44.105  29.068  34.957  1.00  0.00     0.135 A 
ATOM     99  F   UNL A   1      41.783  27.334  32.764  1.00  0.00    -0.206 F 
ATOM    100  C   UNL A   1      42.502  26.794  34.915  1.00  0.00     0.059 A 
ATOM    101  C   UNL A   1      44.144  28.180  36.031  1.00  0.00     0.059 A 
ATOM    102  F   UNL A   1      44.930  30.128  34.992  1.00  0.00    -0.206 F 
ATOM    103  C   UNL A   1      43.329  27.050  36.007  1.00  0.00     0.060 A 
BRANCH 103 104
ATOM    104  S   UNL A   1      43.392  25.852  37.358  1.00  0.00     0.124 S 
ATOM    105  O   UNL A   1      44.615  25.110  37.053  1.00  0.00    -0.237 OA
ATOM    106  O   UNL A   1      43.457  26.711  38.540  1.00  0.00    -0.237 OA
ATOM    107  O   UNL A   1      42.154  25.101  37.212  1.00  0.00    -0.744 OA
ENDBRANCH 103 104
ENDBRANCH  71  96
ENDBRANCH  45  46
ENDBRANCH  37  40
ENDBRANCH  35  36
ENDBRANCH   1  35
TORSDOF 18
ENDMDL
