MODEL 1
REMARK VINA RESULT:     -12.1      0.000      0.000
REMARK SMILES O=C(NCCCNC(=O)c1cc(O)ccc1NC(=O)c1ccc(Br)nc1)c1ccc(-c2c3nc(c(-c4c(F)cc(S(=O)(=O)[O-])cc4F)c4ccc([nH]4)c(-c4c(F)cc(S(=O)(=O)[O-])cc4F)c4nc(c(-c5c(F)cc(S(=O)(=O)[O-])cc5F)c5ccc2[nH]5)C=C4)C=C3)cc1
REMARK SMILES IDX 4 1 3 2 1 3 2 4 27 6 28 7 92 8 29 9 91 10 30 11 31 12 32 13
REMARK SMILES IDX 85 14 33 15 90 16 84 17 86 18 34 19 89 20 83 21 82 22 35 24
REMARK SMILES IDX 69 25 48 26 68 27 49 28 52 29 67 30 87 31 50 32 51 33 66 35
REMARK SMILES IDX 88 36 53 37 36 38 37 39 46 40 38 41 39 42 45 43 47 44 40 45
REMARK SMILES IDX 41 46 42 47 43 48 44 49 70 50 71 51 80 52 72 53 73 54 79 55
REMARK SMILES IDX 81 56 74 57 75 58 76 59 77 60 78 61 54 62 55 63 64 64 56 65
REMARK SMILES IDX 57 66 63 67 65 68 58 69 59 70 60 71 61 72 62 73 5 74 6 75
REMARK SMILES IDX 7 76 8 77 9 79 10 80 11 81 16 82 12 83 15 84 14 85 17 86
REMARK SMILES IDX 18 87 19 89 20 90 21 91 26 92 22 93 25 94 23 95 24 96 13 97
REMARK H PARENT 3 5 86 23 52 34 7 78 17 88 13 98
REMARK Flexibility Score: inf
ROOT
ATOM      1  C   UNL A   1      33.748  28.342  27.055  1.00  0.00     0.118 C 
ENDROOT
BRANCH   1   2
ATOM      2  N   UNL A   1      33.620  29.740  27.449  1.00  0.00    -0.352 N 
ATOM      3  O   UNL A   1      34.122  31.644  28.532  1.00  0.00    -0.269 OA
ATOM      4  C   UNL A   1      34.504  30.553  28.117  1.00  0.00     0.251 C 
ATOM      5  H   UNL A   1      32.769  30.167  27.198  1.00  0.00     0.163 HD
BRANCH   4   6
ATOM      6  C   UNL A   1      35.898  30.112  28.342  1.00  0.00     0.039 A 
ATOM      7  C   UNL A   1      36.848  30.222  27.326  1.00  0.00     0.014 A 
ATOM      8  C   UNL A   1      36.270  29.616  29.595  1.00  0.00     0.014 A 
ATOM      9  C   UNL A   1      38.121  29.702  27.508  1.00  0.00     0.010 A 
ATOM     10  C   UNL A   1      37.586  29.193  29.813  1.00  0.00     0.010 A 
ATOM     11  C   UNL A   1      38.517  29.219  28.764  1.00  0.00    -0.014 A 
BRANCH  11  12
ATOM     12  C   UNL A   1      39.946  28.878  28.979  1.00  0.00     0.031 A 
ATOM     13  C   UNL A   1      40.507  27.544  28.575  1.00  0.00     0.074 A 
ATOM     14  C   UNL A   1      40.739  29.816  29.536  1.00  0.00     0.049 A 
ATOM     15  N   UNL A   1      41.732  27.104  28.697  1.00  0.00    -0.248 NA
ATOM     16  C   UNL A   1      39.581  26.576  27.966  1.00  0.00     0.031 C 
ATOM     17  C   UNL A   1      40.289  31.139  29.988  1.00  0.00     0.029 A 
ATOM     18  N   UNL A   1      42.081  29.816  29.814  1.00  0.00    -0.354 N 
ATOM     19  C   UNL A   1      41.726  25.806  28.201  1.00  0.00     0.074 A 
ATOM     20  C   UNL A   1      40.368  25.521  27.787  1.00  0.00     0.031 C 
ATOM     21  C   UNL A   1      41.339  31.831  30.447  1.00  0.00     0.029 A 
ATOM     22  C   UNL A   1      42.521  30.982  30.396  1.00  0.00     0.049 A 
ATOM     23  H   UNL A   1      42.673  29.055  29.615  1.00  0.00     0.167 HD
ATOM     24  C   UNL A   1      42.762  24.939  28.103  1.00  0.00     0.037 A 
ATOM     25  C   UNL A   1      43.732  31.320  30.872  1.00  0.00     0.037 A 
ATOM     26  C   UNL A   1      44.114  25.248  28.500  1.00  0.00     0.049 A 
ATOM     27  C   UNL A   1      44.852  30.326  30.768  1.00  0.00     0.074 A 
ATOM     28  C   UNL A   1      45.246  24.461  28.374  1.00  0.00     0.029 A 
ATOM     29  N   UNL A   1      44.516  26.429  29.107  1.00  0.00    -0.354 N 
ATOM     30  N   UNL A   1      44.839  29.128  30.236  1.00  0.00    -0.248 NA
ATOM     31  C   UNL A   1      46.148  30.724  31.334  1.00  0.00     0.031 C 
ATOM     32  C   UNL A   1      46.319  25.140  28.957  1.00  0.00     0.029 A 
ATOM     33  C   UNL A   1      45.870  26.374  29.398  1.00  0.00     0.049 A 
ATOM     34  H   UNL A   1      43.927  27.193  29.302  1.00  0.00     0.167 HD
ATOM     35  C   UNL A   1      46.125  28.630  30.396  1.00  0.00     0.074 A 
ATOM     36  C   UNL A   1      46.897  29.670  31.046  1.00  0.00     0.031 C 
ATOM     37  C   UNL A   1      46.621  27.418  30.049  1.00  0.00     0.037 A 
BRANCH  24  38
ATOM     38  C   UNL A   1      42.499  23.561  27.561  1.00  0.00     0.058 A 
ATOM     39  C   UNL A   1      42.499  23.294  26.184  1.00  0.00     0.135 A 
ATOM     40  C   UNL A   1      42.360  22.472  28.439  1.00  0.00     0.135 A 
ATOM     41  F   UNL A   1      42.612  24.298  25.301  1.00  0.00    -0.206 F 
ATOM     42  C   UNL A   1      42.378  21.996  25.696  1.00  0.00     0.059 A 
ATOM     43  C   UNL A   1      42.259  21.164  27.974  1.00  0.00     0.059 A 
ATOM     44  F   UNL A   1      42.349  22.672  29.767  1.00  0.00    -0.206 F 
ATOM     45  C   UNL A   1      42.268  20.936  26.598  1.00  0.00     0.060 A 
BRANCH  45  46
ATOM     46  S   UNL A   1      42.170  19.254  25.948  1.00  0.00     0.124 S 
ATOM     47  O   UNL A   1      40.740  19.125  25.689  1.00  0.00    -0.237 OA
ATOM     48  O   UNL A   1      43.024  19.328  24.766  1.00  0.00    -0.237 OA
ATOM     49  O   UNL A   1      42.685  18.435  27.041  1.00  0.00    -0.744 OA
ENDBRANCH  45  46
ENDBRANCH  24  38
BRANCH  25  50
ATOM     50  C   UNL A   1      43.932  32.637  31.534  1.00  0.00     0.058 A 
ATOM     51  C   UNL A   1      44.302  33.773  30.802  1.00  0.00     0.135 A 
ATOM     52  C   UNL A   1      43.767  32.777  32.922  1.00  0.00     0.135 A 
ATOM     53  F   UNL A   1      44.473  33.689  29.474  1.00  0.00    -0.206 F 
ATOM     54  C   UNL A   1      44.534  34.995  31.424  1.00  0.00     0.059 A 
ATOM     55  C   UNL A   1      43.960  33.996  33.562  1.00  0.00     0.059 A 
ATOM     56  F   UNL A   1      43.392  31.725  33.667  1.00  0.00    -0.206 F 
ATOM     57  C   UNL A   1      44.365  35.095  32.807  1.00  0.00     0.060 A 
BRANCH  57  58
ATOM     58  S   UNL A   1      44.663  36.683  33.608  1.00  0.00     0.124 S 
ATOM     59  O   UNL A   1      43.432  37.401  33.299  1.00  0.00    -0.237 OA
ATOM     60  O   UNL A   1      44.844  36.296  35.004  1.00  0.00    -0.237 OA
ATOM     61  O   UNL A   1      45.865  37.175  32.941  1.00  0.00    -0.744 OA
ENDBRANCH  57  58
ENDBRANCH  25  50
BRANCH  37  62
ATOM     62  C   UNL A   1      48.070  27.159  30.353  1.00  0.00     0.058 A 
ATOM     63  C   UNL A   1      48.465  26.532  31.545  1.00  0.00     0.135 A 
ATOM     64  C   UNL A   1      49.068  27.509  29.431  1.00  0.00     0.135 A 
ATOM     65  F   UNL A   1      47.550  26.187  32.464  1.00  0.00    -0.206 F 
ATOM     66  C   UNL A   1      49.804  26.283  31.824  1.00  0.00     0.059 A 
ATOM     67  C   UNL A   1      50.410  27.243  29.675  1.00  0.00     0.059 A 
ATOM     68  F   UNL A   1      48.741  28.106  28.273  1.00  0.00    -0.206 F 
ATOM     69  C   UNL A   1      50.770  26.640  30.881  1.00  0.00     0.060 A 
BRANCH  69  70
ATOM     70  S   UNL A   1      52.502  26.282  31.240  1.00  0.00     0.124 S 
ATOM     71  O   UNL A   1      52.879  27.437  32.048  1.00  0.00    -0.237 OA
ATOM     72  O   UNL A   1      52.416  25.010  31.953  1.00  0.00    -0.237 OA
ATOM     73  O   UNL A   1      53.117  26.213  29.918  1.00  0.00    -0.744 OA
ENDBRANCH  69  70
ENDBRANCH  37  62
ENDBRANCH  11  12
ENDBRANCH   4   6
ENDBRANCH   1   2
BRANCH   1  74
ATOM     74  C   UNL A   1      32.457  27.776  26.490  1.00  0.00     0.042 C 
BRANCH  74  75
ATOM     75  C   UNL A   1      32.040  28.406  25.171  1.00  0.00     0.118 C 
BRANCH  75  76
ATOM     76  N   UNL A   1      30.680  28.050  24.778  1.00  0.00    -0.352 N 
ATOM     77  C   UNL A   1      30.246  27.128  23.856  1.00  0.00     0.253 C 
ATOM     78  H   UNL A   1      29.967  28.544  25.244  1.00  0.00     0.163 HD
ATOM     79  O   UNL A   1      29.069  27.102  23.509  1.00  0.00    -0.269 OA
BRANCH  77  80
ATOM     80  C   UNL A   1      31.217  26.196  23.245  1.00  0.00     0.067 A 
ATOM     81  C   UNL A   1      31.813  26.567  22.028  1.00  0.00     0.062 A 
ATOM     82  C   UNL A   1      31.522  24.964  23.853  1.00  0.00     0.054 A 
ATOM     83  C   UNL A   1      32.565  25.641  21.326  1.00  0.00     0.116 A 
ATOM     84  C   UNL A   1      32.204  24.024  23.073  1.00  0.00     0.031 A 
ATOM     85  C   UNL A   1      32.733  24.360  21.823  1.00  0.00     0.048 A 
BRANCH  82  86
ATOM     86  N   UNL A   1      31.142  24.729  25.200  1.00  0.00    -0.321 N 
ATOM     87  C   UNL A   1      31.784  24.089  26.240  1.00  0.00     0.257 C 
ATOM     88  H   UNL A   1      30.256  25.089  25.435  1.00  0.00     0.170 HD
ATOM     89  O   UNL A   1      31.218  23.878  27.310  1.00  0.00    -0.269 OA
BRANCH  87  90
ATOM     90  C   UNL A   1      33.194  23.694  26.122  1.00  0.00     0.058 A 
ATOM     91  C   UNL A   1      34.212  24.633  25.950  1.00  0.00     0.018 A 
ATOM     92  C   UNL A   1      33.512  22.345  26.090  1.00  0.00     0.126 A 
ATOM     93  C   UNL A   1      35.492  24.182  25.633  1.00  0.00     0.037 A 
ATOM     94  N   UNL A   1      34.751  21.886  25.791  1.00  0.00    -0.249 NA
ATOM     95  C   UNL A   1      35.706  22.811  25.545  1.00  0.00     0.106 A 
ATOM     96  Br  UNL A   1      37.407  22.190  24.980  1.00  0.00    -0.029 Br
ENDBRANCH  87  90
ENDBRANCH  82  86
BRANCH  83  97
ATOM     97  O   UNL A   1      33.115  25.935  20.117  1.00  0.00    -0.508 OA
ATOM     98  H   UNL A   1      32.639  25.758  19.330  1.00  0.00     0.293 HD
ENDBRANCH  83  97
ENDBRANCH  77  80
ENDBRANCH  75  76
ENDBRANCH  74  75
ENDBRANCH   1  74
TORSDOF 16
ENDMDL
MODEL 2
REMARK VINA RESULT:     -11.9      2.858      8.788
REMARK SMILES O=C(NCCCNC(=O)c1cc(O)ccc1NC(=O)c1ccc(Br)nc1)c1ccc(-c2c3nc(c(-c4c(F)cc(S(=O)(=O)[O-])cc4F)c4ccc([nH]4)c(-c4c(F)cc(S(=O)(=O)[O-])cc4F)c4nc(c(-c5c(F)cc(S(=O)(=O)[O-])cc5F)c5ccc2[nH]5)C=C4)C=C3)cc1
REMARK SMILES IDX 4 1 3 2 1 3 2 4 27 6 28 7 92 8 29 9 91 10 30 11 31 12 32 13
REMARK SMILES IDX 85 14 33 15 90 16 84 17 86 18 34 19 89 20 83 21 82 22 35 24
REMARK SMILES IDX 69 25 48 26 68 27 49 28 52 29 67 30 87 31 50 32 51 33 66 35
REMARK SMILES IDX 88 36 53 37 36 38 37 39 46 40 38 41 39 42 45 43 47 44 40 45
REMARK SMILES IDX 41 46 42 47 43 48 44 49 70 50 71 51 80 52 72 53 73 54 79 55
REMARK SMILES IDX 81 56 74 57 75 58 76 59 77 60 78 61 54 62 55 63 64 64 56 65
REMARK SMILES IDX 57 66 63 67 65 68 58 69 59 70 60 71 61 72 62 73 5 74 6 75
REMARK SMILES IDX 7 76 8 77 9 79 10 80 11 81 16 82 12 83 15 84 14 85 17 86
REMARK SMILES IDX 18 87 19 89 20 90 21 91 26 92 22 93 25 94 23 95 24 96 13 97
REMARK H PARENT 3 5 86 23 52 34 7 78 17 88 13 98
REMARK Flexibility Score: inf
ROOT
ATOM      1  C   UNL A   1      35.609  31.054  28.004  1.00  0.00     0.118 C 
ENDROOT
BRANCH   1   2
ATOM      2  N   UNL A   1      35.491  30.757  29.427  1.00  0.00    -0.352 N 
ATOM      3  O   UNL A   1      36.009  29.808  31.397  1.00  0.00    -0.269 OA
ATOM      4  C   UNL A   1      36.382  30.148  30.277  1.00  0.00     0.251 C 
ATOM      5  H   UNL A   1      34.642  31.036  29.841  1.00  0.00     0.163 HD
BRANCH   4   6
ATOM      6  C   UNL A   1      37.773  29.896  29.842  1.00  0.00     0.039 A 
ATOM      7  C   UNL A   1      38.783  29.692  30.785  1.00  0.00     0.014 A 
ATOM      8  C   UNL A   1      38.068  29.825  28.478  1.00  0.00     0.014 A 
ATOM      9  C   UNL A   1      40.102  29.569  30.372  1.00  0.00     0.010 A 
ATOM     10  C   UNL A   1      39.383  29.590  28.061  1.00  0.00     0.010 A 
ATOM     11  C   UNL A   1      40.412  29.477  29.007  1.00  0.00    -0.014 A 
BRANCH  11  12
ATOM     12  C   UNL A   1      41.800  29.126  28.614  1.00  0.00     0.031 A 
ATOM     13  C   UNL A   1      42.896  30.153  28.590  1.00  0.00     0.074 A 
ATOM     14  C   UNL A   1      42.056  27.842  28.292  1.00  0.00     0.049 A 
ATOM     15  N   UNL A   1      44.154  29.997  28.272  1.00  0.00    -0.248 NA
ATOM     16  C   UNL A   1      42.540  31.532  28.962  1.00  0.00     0.031 C 
ATOM     17  C   UNL A   1      41.057  26.766  28.260  1.00  0.00     0.029 A 
ATOM     18  N   UNL A   1      43.222  27.213  27.939  1.00  0.00    -0.354 N 
ATOM     19  C   UNL A   1      44.739  31.252  28.383  1.00  0.00     0.074 A 
ATOM     20  C   UNL A   1      43.693  32.168  28.787  1.00  0.00     0.031 C 
ATOM     21  C   UNL A   1      41.658  25.612  27.946  1.00  0.00     0.029 A 
ATOM     22  C   UNL A   1      43.066  25.871  27.681  1.00  0.00     0.049 A 
ATOM     23  H   UNL A   1      44.088  27.678  27.879  1.00  0.00     0.167 HD
ATOM     24  C   UNL A   1      46.030  31.600  28.167  1.00  0.00     0.037 A 
ATOM     25  C   UNL A   1      43.948  24.956  27.242  1.00  0.00     0.037 A 
ATOM     26  C   UNL A   1      47.064  30.668  27.787  1.00  0.00     0.049 A 
ATOM     27  C   UNL A   1      45.365  25.381  26.991  1.00  0.00     0.074 A 
ATOM     28  C   UNL A   1      48.416  30.912  27.614  1.00  0.00     0.029 A 
ATOM     29  N   UNL A   1      46.864  29.324  27.510  1.00  0.00    -0.354 N 
ATOM     30  N   UNL A   1      45.911  26.561  27.165  1.00  0.00    -0.248 NA
ATOM     31  C   UNL A   1      46.285  24.358  26.477  1.00  0.00     0.031 C 
ATOM     32  C   UNL A   1      49.022  29.731  27.177  1.00  0.00     0.029 A 
ATOM     33  C   UNL A   1      48.060  28.736  27.129  1.00  0.00     0.049 A 
ATOM     34  H   UNL A   1      46.000  28.857  27.575  1.00  0.00     0.167 HD
ATOM     35  C   UNL A   1      47.241  26.419  26.789  1.00  0.00     0.074 A 
ATOM     36  C   UNL A   1      47.422  25.034  26.409  1.00  0.00     0.031 C 
ATOM     37  C   UNL A   1      48.221  27.355  26.750  1.00  0.00     0.037 A 
BRANCH  24  38
ATOM     38  C   UNL A   1      46.421  33.044  28.317  1.00  0.00     0.058 A 
ATOM     39  C   UNL A   1      46.945  33.549  29.516  1.00  0.00     0.135 A 
ATOM     40  C   UNL A   1      46.379  33.905  27.206  1.00  0.00     0.135 A 
ATOM     41  F   UNL A   1      46.993  32.775  30.611  1.00  0.00    -0.206 F 
ATOM     42  C   UNL A   1      47.419  34.855  29.608  1.00  0.00     0.059 A 
ATOM     43  C   UNL A   1      46.868  35.207  27.270  1.00  0.00     0.059 A 
ATOM     44  F   UNL A   1      45.885  33.473  26.035  1.00  0.00    -0.206 F 
ATOM     45  C   UNL A   1      47.386  35.674  28.477  1.00  0.00     0.060 A 
BRANCH  45  46
ATOM     46  S   UNL A   1      48.058  37.345  28.601  1.00  0.00     0.124 S 
ATOM     47  O   UNL A   1      47.366  38.019  27.507  1.00  0.00    -0.237 OA
ATOM     48  O   UNL A   1      47.655  37.743  29.946  1.00  0.00    -0.237 OA
ATOM     49  O   UNL A   1      49.492  37.152  28.409  1.00  0.00    -0.744 OA
ENDBRANCH  45  46
ENDBRANCH  24  38
BRANCH  25  50
ATOM     50  C   UNL A   1      43.502  23.565  26.964  1.00  0.00     0.058 A 
ATOM     51  C   UNL A   1      43.272  23.120  25.655  1.00  0.00     0.135 A 
ATOM     52  C   UNL A   1      43.287  22.655  28.013  1.00  0.00     0.135 A 
ATOM     53  F   UNL A   1      43.462  23.952  24.621  1.00  0.00    -0.206 F 
ATOM     54  C   UNL A   1      42.812  21.833  25.396  1.00  0.00     0.059 A 
ATOM     55  C   UNL A   1      42.860  21.354  27.776  1.00  0.00     0.059 A 
ATOM     56  F   UNL A   1      43.514  23.024  29.283  1.00  0.00    -0.206 F 
ATOM     57  C   UNL A   1      42.604  20.958  26.464  1.00  0.00     0.060 A 
BRANCH  57  58
ATOM     58  S   UNL A   1      42.012  19.289  26.121  1.00  0.00     0.124 S 
ATOM     59  O   UNL A   1      42.778  18.948  24.928  1.00  0.00    -0.237 OA
ATOM     60  O   UNL A   1      42.375  18.576  27.341  1.00  0.00    -0.237 OA
ATOM     61  O   UNL A   1      40.578  19.478  25.918  1.00  0.00    -0.744 OA
ENDBRANCH  57  58
ENDBRANCH  25  50
BRANCH  37  62
ATOM     62  C   UNL A   1      49.579  26.903  26.293  1.00  0.00     0.058 A 
ATOM     63  C   UNL A   1      50.467  26.256  27.166  1.00  0.00     0.135 A 
ATOM     64  C   UNL A   1      49.982  27.087  24.961  1.00  0.00     0.135 A 
ATOM     65  F   UNL A   1      50.132  26.065  28.452  1.00  0.00    -0.206 F 
ATOM     66  C   UNL A   1      51.720  25.829  26.741  1.00  0.00     0.059 A 
ATOM     67  C   UNL A   1      51.218  26.641  24.507  1.00  0.00     0.059 A 
ATOM     68  F   UNL A   1      49.166  27.695  24.084  1.00  0.00    -0.206 F 
ATOM     69  C   UNL A   1      52.085  26.024  25.408  1.00  0.00     0.060 A 
BRANCH  69  70
ATOM     70  S   UNL A   1      53.702  25.436  24.861  1.00  0.00     0.124 S 
ATOM     71  O   UNL A   1      53.627  24.019  25.196  1.00  0.00    -0.237 OA
ATOM     72  O   UNL A   1      53.682  25.752  23.435  1.00  0.00    -0.237 OA
ATOM     73  O   UNL A   1      54.638  26.222  25.659  1.00  0.00    -0.744 OA
ENDBRANCH  69  70
ENDBRANCH  37  62
ENDBRANCH  11  12
ENDBRANCH   4   6
ENDBRANCH   1   2
BRANCH   1  74
ATOM     74  C   UNL A   1      34.278  30.955  27.277  1.00  0.00     0.042 C 
BRANCH  74  75
ATOM     75  C   UNL A   1      33.928  29.544  26.835  1.00  0.00     0.118 C 
BRANCH  75  76
ATOM     76  N   UNL A   1      32.959  28.899  27.717  1.00  0.00    -0.352 N 
ATOM     77  C   UNL A   1      31.801  28.229  27.405  1.00  0.00     0.253 C 
ATOM     78  H   UNL A   1      33.167  28.952  28.677  1.00  0.00     0.163 HD
ATOM     79  O   UNL A   1      31.003  27.924  28.287  1.00  0.00    -0.269 OA
BRANCH  77  80
ATOM     80  C   UNL A   1      31.495  27.918  25.993  1.00  0.00     0.067 A 
ATOM     81  C   UNL A   1      31.766  28.902  25.027  1.00  0.00     0.062 A 
ATOM     82  C   UNL A   1      30.931  26.682  25.626  1.00  0.00     0.054 A 
ATOM     83  C   UNL A   1      31.309  28.730  23.731  1.00  0.00     0.116 A 
ATOM     84  C   UNL A   1      30.399  26.585  24.337  1.00  0.00     0.031 A 
ATOM     85  C   UNL A   1      30.594  27.595  23.390  1.00  0.00     0.048 A 
BRANCH  82  86
ATOM     86  N   UNL A   1      30.928  25.606  26.553  1.00  0.00    -0.321 N 
ATOM     87  C   UNL A   1      31.630  24.419  26.588  1.00  0.00     0.257 C 
ATOM     88  H   UNL A   1      30.311  25.731  27.310  1.00  0.00     0.170 HD
ATOM     89  O   UNL A   1      31.381  23.552  27.423  1.00  0.00    -0.269 OA
BRANCH  87  90
ATOM     90  C   UNL A   1      32.744  24.178  25.662  1.00  0.00     0.058 A 
ATOM     91  C   UNL A   1      32.596  23.394  24.516  1.00  0.00     0.018 A 
ATOM     92  C   UNL A   1      34.000  24.666  25.984  1.00  0.00     0.126 A 
ATOM     93  C   UNL A   1      33.736  23.032  23.800  1.00  0.00     0.037 A 
ATOM     94  N   UNL A   1      35.120  24.332  25.298  1.00  0.00    -0.249 NA
ATOM     95  C   UNL A   1      34.968  23.504  24.239  1.00  0.00     0.106 A 
ATOM     96  Br  UNL A   1      36.537  22.907  23.357  1.00  0.00    -0.029 Br
ENDBRANCH  87  90
ENDBRANCH  82  86
BRANCH  83  97
ATOM     97  O   UNL A   1      31.498  29.679  22.775  1.00  0.00    -0.508 OA
ATOM     98  H   UNL A   1      32.176  29.573  22.138  1.00  0.00     0.293 HD
ENDBRANCH  83  97
ENDBRANCH  77  80
ENDBRANCH  75  76
ENDBRANCH  74  75
ENDBRANCH   1  74
TORSDOF 16
ENDMDL
MODEL 3
REMARK VINA RESULT:     -11.8      3.257      9.278
REMARK SMILES O=C(NCCCNC(=O)c1cc(O)ccc1NC(=O)c1ccc(Br)nc1)c1ccc(-c2c3nc(c(-c4c(F)cc(S(=O)(=O)[O-])cc4F)c4ccc([nH]4)c(-c4c(F)cc(S(=O)(=O)[O-])cc4F)c4nc(c(-c5c(F)cc(S(=O)(=O)[O-])cc5F)c5ccc2[nH]5)C=C4)C=C3)cc1
REMARK SMILES IDX 4 1 3 2 1 3 2 4 27 6 28 7 92 8 29 9 91 10 30 11 31 12 32 13
REMARK SMILES IDX 85 14 33 15 90 16 84 17 86 18 34 19 89 20 83 21 82 22 35 24
REMARK SMILES IDX 69 25 48 26 68 27 49 28 52 29 67 30 87 31 50 32 51 33 66 35
REMARK SMILES IDX 88 36 53 37 36 38 37 39 46 40 38 41 39 42 45 43 47 44 40 45
REMARK SMILES IDX 41 46 42 47 43 48 44 49 70 50 71 51 80 52 72 53 73 54 79 55
REMARK SMILES IDX 81 56 74 57 75 58 76 59 77 60 78 61 54 62 55 63 64 64 56 65
REMARK SMILES IDX 57 66 63 67 65 68 58 69 59 70 60 71 61 72 62 73 5 74 6 75
REMARK SMILES IDX 7 76 8 77 9 79 10 80 11 81 16 82 12 83 15 84 14 85 17 86
REMARK SMILES IDX 18 87 19 89 20 90 21 91 26 92 22 93 25 94 23 95 24 96 13 97
REMARK H PARENT 3 5 86 23 52 34 7 78 17 88 13 98
REMARK Flexibility Score: inf
ROOT
ATOM      1  C   UNL A   1      36.849  23.769  25.206  1.00  0.00     0.118 C 
ENDROOT
BRANCH   1   2
ATOM      2  N   UNL A   1      37.922  22.797  25.376  1.00  0.00    -0.352 N 
ATOM      3  O   UNL A   1      39.996  22.055  25.824  1.00  0.00    -0.269 OA
ATOM      4  C   UNL A   1      39.156  22.941  25.964  1.00  0.00     0.251 C 
ATOM      5  H   UNL A   1      37.734  21.901  25.014  1.00  0.00     0.163 HD
BRANCH   4   6
ATOM      6  C   UNL A   1      39.471  24.155  26.749  1.00  0.00     0.039 A 
ATOM      7  C   UNL A   1      39.065  24.262  28.080  1.00  0.00     0.014 A 
ATOM      8  C   UNL A   1      40.213  25.182  26.160  1.00  0.00     0.014 A 
ATOM      9  C   UNL A   1      39.266  25.448  28.772  1.00  0.00     0.010 A 
ATOM     10  C   UNL A   1      40.511  26.335  26.896  1.00  0.00     0.010 A 
ATOM     11  C   UNL A   1      40.025  26.482  28.203  1.00  0.00    -0.014 A 
BRANCH  11  12
ATOM     12  C   UNL A   1      40.403  27.639  29.053  1.00  0.00     0.031 A 
ATOM     13  C   UNL A   1      39.484  28.812  29.241  1.00  0.00     0.074 A 
ATOM     14  C   UNL A   1      41.601  27.599  29.672  1.00  0.00     0.049 A 
ATOM     15  N   UNL A   1      39.674  29.892  29.953  1.00  0.00    -0.248 NA
ATOM     16  C   UNL A   1      38.190  28.779  28.539  1.00  0.00     0.031 C 
ATOM     17  C   UNL A   1      42.582  26.515  29.538  1.00  0.00     0.029 A 
ATOM     18  N   UNL A   1      42.199  28.476  30.538  1.00  0.00    -0.354 N 
ATOM     19  C   UNL A   1      38.542  30.677  29.773  1.00  0.00     0.074 A 
ATOM     20  C   UNL A   1      37.669  29.954  28.872  1.00  0.00     0.031 C 
ATOM     21  C   UNL A   1      43.637  26.773  30.321  1.00  0.00     0.029 A 
ATOM     22  C   UNL A   1      43.446  28.070  30.955  1.00  0.00     0.049 A 
ATOM     23  H   UNL A   1      41.777  29.314  30.836  1.00  0.00     0.167 HD
ATOM     24  C   UNL A   1      38.263  31.886  30.315  1.00  0.00     0.037 A 
ATOM     25  C   UNL A   1      44.355  28.689  31.729  1.00  0.00     0.037 A 
ATOM     26  C   UNL A   1      39.135  32.581  31.230  1.00  0.00     0.049 A 
ATOM     27  C   UNL A   1      44.022  30.039  32.294  1.00  0.00     0.074 A 
ATOM     28  C   UNL A   1      38.909  33.778  31.888  1.00  0.00     0.029 A 
ATOM     29  N   UNL A   1      40.399  32.151  31.609  1.00  0.00    -0.354 N 
ATOM     30  N   UNL A   1      42.917  30.734  32.164  1.00  0.00    -0.248 NA
ATOM     31  C   UNL A   1      45.057  30.693  33.104  1.00  0.00     0.031 C 
ATOM     32  C   UNL A   1      40.057  34.102  32.616  1.00  0.00     0.029 A 
ATOM     33  C   UNL A   1      40.979  33.081  32.458  1.00  0.00     0.049 A 
ATOM     34  H   UNL A   1      40.821  31.312  31.317  1.00  0.00     0.167 HD
ATOM     35  C   UNL A   1      43.123  31.905  32.881  1.00  0.00     0.074 A 
ATOM     36  C   UNL A   1      44.443  31.810  33.468  1.00  0.00     0.031 C 
ATOM     37  C   UNL A   1      42.297  32.970  33.031  1.00  0.00     0.037 A 
BRANCH  24  38
ATOM     38  C   UNL A   1      36.975  32.565  29.938  1.00  0.00     0.058 A 
ATOM     39  C   UNL A   1      35.774  32.303  30.614  1.00  0.00     0.135 A 
ATOM     40  C   UNL A   1      36.970  33.577  28.962  1.00  0.00     0.135 A 
ATOM     41  F   UNL A   1      35.719  31.336  31.544  1.00  0.00    -0.206 F 
ATOM     42  C   UNL A   1      34.615  33.024  30.341  1.00  0.00     0.059 A 
ATOM     43  C   UNL A   1      35.828  34.324  28.688  1.00  0.00     0.059 A 
ATOM     44  F   UNL A   1      38.091  33.865  28.282  1.00  0.00    -0.206 F 
ATOM     45  C   UNL A   1      34.654  34.040  29.384  1.00  0.00     0.060 A 
BRANCH  45  46
ATOM     46  S   UNL A   1      33.156  35.003  29.086  1.00  0.00     0.124 S 
ATOM     47  O   UNL A   1      32.555  35.027  30.416  1.00  0.00    -0.237 OA
ATOM     48  O   UNL A   1      33.694  36.274  28.610  1.00  0.00    -0.237 OA
ATOM     49  O   UNL A   1      32.437  34.216  28.089  1.00  0.00    -0.744 OA
ENDBRANCH  45  46
ENDBRANCH  24  38
BRANCH  25  50
ATOM     50  C   UNL A   1      45.680  28.060  31.971  1.00  0.00     0.058 A 
ATOM     51  C   UNL A   1      46.755  28.261  31.094  1.00  0.00     0.135 A 
ATOM     52  C   UNL A   1      45.892  27.231  33.086  1.00  0.00     0.135 A 
ATOM     53  F   UNL A   1      46.602  29.043  30.015  1.00  0.00    -0.206 F 
ATOM     54  C   UNL A   1      47.982  27.638  31.293  1.00  0.00     0.059 A 
ATOM     55  C   UNL A   1      47.119  26.625  33.325  1.00  0.00     0.059 A 
ATOM     56  F   UNL A   1      44.902  27.024  33.969  1.00  0.00    -0.206 F 
ATOM     57  C   UNL A   1      48.153  26.818  32.410  1.00  0.00     0.060 A 
BRANCH  57  58
ATOM     58  S   UNL A   1      49.749  26.016  32.665  1.00  0.00     0.124 S 
ATOM     59  O   UNL A   1      49.387  24.928  33.566  1.00  0.00    -0.237 OA
ATOM     60  O   UNL A   1      50.119  25.626  31.308  1.00  0.00    -0.237 OA
ATOM     61  O   UNL A   1      50.566  27.076  33.249  1.00  0.00    -0.744 OA
ENDBRANCH  57  58
ENDBRANCH  25  50
BRANCH  37  62
ATOM     62  C   UNL A   1      42.797  34.109  33.874  1.00  0.00     0.058 A 
ATOM     63  C   UNL A   1      42.647  34.106  35.269  1.00  0.00     0.135 A 
ATOM     64  C   UNL A   1      43.463  35.195  33.286  1.00  0.00     0.135 A 
ATOM     65  F   UNL A   1      42.008  33.095  35.879  1.00  0.00    -0.206 F 
ATOM     66  C   UNL A   1      43.118  35.154  36.052  1.00  0.00     0.059 A 
ATOM     67  C   UNL A   1      43.969  36.240  34.051  1.00  0.00     0.059 A 
ATOM     68  F   UNL A   1      43.639  35.242  31.955  1.00  0.00    -0.206 F 
ATOM     69  C   UNL A   1      43.780  36.217  35.433  1.00  0.00     0.060 A 
BRANCH  69  70
ATOM     70  S   UNL A   1      44.416  37.556  36.463  1.00  0.00     0.124 S 
ATOM     71  O   UNL A   1      43.313  37.756  37.396  1.00  0.00    -0.237 OA
ATOM     72  O   UNL A   1      45.626  36.967  37.028  1.00  0.00    -0.237 OA
ATOM     73  O   UNL A   1      44.638  38.640  35.511  1.00  0.00    -0.744 OA
ENDBRANCH  69  70
ENDBRANCH  37  62
ENDBRANCH  11  12
ENDBRANCH   4   6
ENDBRANCH   1   2
BRANCH   1  74
ATOM     74  C   UNL A   1      35.632  23.447  26.057  1.00  0.00     0.042 C 
BRANCH  74  75
ATOM     75  C   UNL A   1      34.514  24.470  25.937  1.00  0.00     0.118 C 
BRANCH  75  76
ATOM     76  N   UNL A   1      34.598  25.258  24.710  1.00  0.00    -0.352 N 
ATOM     77  C   UNL A   1      33.896  26.379  24.340  1.00  0.00     0.253 C 
ATOM     78  H   UNL A   1      35.255  24.938  24.051  1.00  0.00     0.163 HD
ATOM     79  O   UNL A   1      33.953  26.795  23.186  1.00  0.00    -0.269 OA
BRANCH  77  80
ATOM     80  C   UNL A   1      33.031  27.058  25.328  1.00  0.00     0.067 A 
ATOM     81  C   UNL A   1      33.554  28.170  26.010  1.00  0.00     0.062 A 
ATOM     82  C   UNL A   1      31.730  26.594  25.593  1.00  0.00     0.054 A 
ATOM     83  C   UNL A   1      32.857  28.703  27.080  1.00  0.00     0.116 A 
ATOM     84  C   UNL A   1      31.099  27.093  26.738  1.00  0.00     0.031 A 
ATOM     85  C   UNL A   1      31.651  28.148  27.472  1.00  0.00     0.048 A 
BRANCH  82  86
ATOM     86  N   UNL A   1      31.118  25.665  24.711  1.00  0.00    -0.321 N 
ATOM     87  C   UNL A   1      30.139  25.815  23.750  1.00  0.00     0.257 C 
ATOM     88  H   UNL A   1      31.456  24.745  24.800  1.00  0.00     0.170 HD
ATOM     89  O   UNL A   1      29.651  24.845  23.176  1.00  0.00    -0.269 OA
BRANCH  87  90
ATOM     90  C   UNL A   1      29.690  27.151  23.337  1.00  0.00     0.058 A 
ATOM     91  C   UNL A   1      28.392  27.602  23.581  1.00  0.00     0.018 A 
ATOM     92  C   UNL A   1      30.553  27.951  22.604  1.00  0.00     0.126 A 
ATOM     93  C   UNL A   1      27.970  28.787  22.979  1.00  0.00     0.037 A 
ATOM     94  N   UNL A   1      30.166  29.109  22.017  1.00  0.00    -0.249 NA
ATOM     95  C   UNL A   1      28.879  29.488  22.195  1.00  0.00     0.106 A 
ATOM     96  Br  UNL A   1      28.279  31.025  21.260  1.00  0.00    -0.029 Br
ENDBRANCH  87  90
ENDBRANCH  82  86
BRANCH  83  97
ATOM     97  O   UNL A   1      33.348  29.743  27.806  1.00  0.00    -0.508 OA
ATOM     98  H   UNL A   1      33.444  30.586  27.410  1.00  0.00     0.293 HD
ENDBRANCH  83  97
ENDBRANCH  77  80
ENDBRANCH  75  76
ENDBRANCH  74  75
ENDBRANCH   1  74
TORSDOF 16
ENDMDL
