MODEL 1
REMARK VINA RESULT:     -12.2      0.000      0.000
REMARK SMILES Cc1nn(C)c(C)c1[C@H](C)N1C(=O)CC[C@@H](C(=O)NCCCNC(=O)c2ccc(-c3c4nc(c(-c5c(F)cc(S(=O)(=O)[O-])cc5F)c5ccc([nH]5)c(-c5c(F)cc(S(=O)(=O)[O-])cc5F)c5nc(c(-c6c(F)cc(S(=O)(=O)[O-])cc6F)c6ccc3[nH]6)C=C5)C=C4)cc2)[C@@H]1c1ccco1
REMARK SMILES IDX 21 1 20 2 19 3 17 4 18 5 16 7 11 8 12 9 92 10 13 11 14 12
REMARK SMILES IDX 15 13 9 14 10 15 8 16 1 17 2 18 3 19 4 20 6 21 5 22 7 23
REMARK SMILES IDX 93 24 94 25 97 26 95 27 96 28 22 29 23 30 24 31 25 33 26 34
REMARK SMILES IDX 27 35 91 36 28 37 90 38 29 39 30 40 31 41 84 42 32 43 89 44
REMARK SMILES IDX 83 45 85 46 33 47 88 48 82 49 81 50 34 52 68 53 47 54 67 55
REMARK SMILES IDX 48 56 51 57 66 58 86 59 49 60 50 61 65 63 87 64 52 65 35 66
REMARK SMILES IDX 36 67 45 68 37 69 38 70 44 71 46 72 39 73 40 74 41 75 42 76
REMARK SMILES IDX 43 77 69 78 70 79 79 80 71 81 72 82 78 83 80 84 73 85 74 86
REMARK SMILES IDX 75 87 76 88 77 89 53 90 54 91 63 92 55 93 56 94 62 95 64 96
REMARK SMILES IDX 57 97 58 98 59 99 60 100 61 101
REMARK H PARENT 19 6 23 32 85 51 51 62
REMARK Flexibility Score: inf
ROOT
ATOM      1  C   UNL A   1      39.984  22.031  26.401  1.00  0.00     0.042 C 
ENDROOT
BRANCH   1   2
ATOM      2  C   UNL A   1      38.600  22.565  26.043  1.00  0.00     0.117 C 
BRANCH   2   3
ATOM      3  N   UNL A   1      37.779  21.530  25.448  1.00  0.00    -0.356 N 
ATOM      4  C   UNL A   1      36.500  21.565  24.992  1.00  0.00     0.225 C 
ATOM      5  O   UNL A   1      35.971  20.477  24.769  1.00  0.00    -0.275 OA
ATOM      6  H   UNL A   1      38.221  20.655  25.359  1.00  0.00     0.163 HD
BRANCH   4   7
ATOM      7  C   UNL A   1      35.808  22.894  24.693  1.00  0.00     0.109 C 
ATOM      8  N   UNL A   1      33.503  22.193  25.475  1.00  0.00    -0.325 N 
ATOM      9  C   UNL A   1      33.886  22.469  26.787  1.00  0.00     0.223 C 
ATOM     10  C   UNL A   1      34.341  22.604  24.331  1.00  0.00     0.164 C 
ATOM     11  O   UNL A   1      33.294  22.002  27.765  1.00  0.00    -0.275 OA
ATOM     12  C   UNL A   1      35.071  23.379  27.055  1.00  0.00     0.101 C 
ATOM     13  C   UNL A   1      35.872  23.856  25.865  1.00  0.00     0.026 C 
BRANCH   8  14
ATOM     14  C   UNL A   1      32.269  21.360  25.300  1.00  0.00     0.117 C 
ATOM     15  C   UNL A   1      31.055  22.243  24.964  1.00  0.00     0.036 C 
BRANCH  14  16
ATOM     16  C   UNL A   1      32.422  20.155  24.365  1.00  0.00     0.018 A 
ATOM     17  C   UNL A   1      31.772  20.987  21.892  1.00  0.00     0.069 C 
ATOM     18  C   UNL A   1      32.227  20.036  22.941  1.00  0.00     0.065 A 
ATOM     19  N   UNL A   1      32.483  18.795  22.508  1.00  0.00    -0.178 NA
ATOM     20  N   UNL A   1      32.814  18.110  23.602  1.00  0.00    -0.272 N 
ATOM     21  C   UNL A   1      32.699  18.837  24.753  1.00  0.00     0.040 A 
ATOM     22  C   UNL A   1      33.241  16.742  23.431  1.00  0.00     0.174 C 
ATOM     23  C   UNL A   1      32.906  18.229  26.097  1.00  0.00     0.067 C 
ENDBRANCH  14  16
ENDBRANCH   8  14
BRANCH  10  24
ATOM     24  C   UNL A   1      33.725  23.728  23.547  1.00  0.00     0.127 A 
ATOM     25  C   UNL A   1      33.181  24.933  23.953  1.00  0.00     0.048 A 
ATOM     26  O   UNL A   1      33.685  23.640  22.186  1.00  0.00    -0.467 OA
ATOM     27  C   UNL A   1      32.808  25.624  22.779  1.00  0.00     0.042 A 
ATOM     28  C   UNL A   1      33.146  24.801  21.731  1.00  0.00     0.195 A 
ENDBRANCH  10  24
ENDBRANCH   4   7
ENDBRANCH   2   3
ENDBRANCH   1   2
BRANCH   1  29
ATOM     29  C   UNL A   1      40.924  23.083  26.991  1.00  0.00     0.118 C 
BRANCH  29  30
ATOM     30  N   UNL A   1      41.652  23.824  25.969  1.00  0.00    -0.352 N 
ATOM     31  C   UNL A   1      42.030  25.143  25.933  1.00  0.00     0.251 C 
ATOM     32  H   UNL A   1      41.911  23.297  25.179  1.00  0.00     0.163 HD
ATOM     33  O   UNL A   1      42.462  25.614  24.880  1.00  0.00    -0.269 OA
BRANCH  31  34
ATOM     34  C   UNL A   1      41.908  25.999  27.132  1.00  0.00     0.039 A 
ATOM     35  C   UNL A   1      42.529  27.251  27.134  1.00  0.00     0.014 A 
ATOM     36  C   UNL A   1      41.207  25.566  28.260  1.00  0.00     0.014 A 
ATOM     37  C   UNL A   1      42.386  28.095  28.239  1.00  0.00     0.010 A 
ATOM     38  C   UNL A   1      40.998  26.438  29.326  1.00  0.00     0.010 A 
ATOM     39  C   UNL A   1      41.585  27.713  29.329  1.00  0.00    -0.014 A 
BRANCH  39  40
ATOM     40  C   UNL A   1      41.340  28.637  30.467  1.00  0.00     0.031 A 
ATOM     41  C   UNL A   1      42.152  28.523  31.729  1.00  0.00     0.074 A 
ATOM     42  C   UNL A   1      40.336  29.535  30.390  1.00  0.00     0.049 A 
ATOM     43  N   UNL A   1      42.038  29.192  32.849  1.00  0.00    -0.248 NA
ATOM     44  C   UNL A   1      43.217  27.507  31.746  1.00  0.00     0.031 C 
ATOM     45  C   UNL A   1      39.445  29.708  29.241  1.00  0.00     0.029 A 
ATOM     46  N   UNL A   1      39.888  30.461  31.298  1.00  0.00    -0.354 N 
ATOM     47  C   UNL A   1      43.000  28.669  33.705  1.00  0.00     0.074 A 
ATOM     48  C   UNL A   1      43.655  27.594  32.994  1.00  0.00     0.031 C 
ATOM     49  C   UNL A   1      38.571  30.691  29.506  1.00  0.00     0.029 A 
ATOM     50  C   UNL A   1      38.808  31.189  30.857  1.00  0.00     0.049 A 
ATOM     51  H   UNL A   1      40.300  30.592  32.183  1.00  0.00     0.167 HD
ATOM     52  C   UNL A   1      43.321  29.064  34.961  1.00  0.00     0.037 A 
ATOM     53  C   UNL A   1      38.079  32.141  31.473  1.00  0.00     0.037 A 
ATOM     54  C   UNL A   1      42.676  30.150  35.654  1.00  0.00     0.049 A 
ATOM     55  C   UNL A   1      38.452  32.560  32.869  1.00  0.00     0.074 A 
ATOM     56  C   UNL A   1      42.974  30.670  36.901  1.00  0.00     0.029 A 
ATOM     57  N   UNL A   1      41.601  30.878  35.165  1.00  0.00    -0.354 N 
ATOM     58  N   UNL A   1      39.415  32.105  33.636  1.00  0.00    -0.248 NA
ATOM     59  C   UNL A   1      37.647  33.626  33.483  1.00  0.00     0.031 C 
ATOM     60  C   UNL A   1      42.042  31.672  37.191  1.00  0.00     0.029 A 
ATOM     61  C   UNL A   1      41.203  31.821  36.099  1.00  0.00     0.049 A 
ATOM     62  H   UNL A   1      41.181  30.743  34.285  1.00  0.00     0.167 HD
ATOM     63  C   UNL A   1      39.348  32.848  34.810  1.00  0.00     0.074 A 
ATOM     64  C   UNL A   1      38.260  33.790  34.647  1.00  0.00     0.031 C 
ATOM     65  C   UNL A   1      40.120  32.757  35.922  1.00  0.00     0.037 A 
BRANCH  52  66
ATOM     66  C   UNL A   1      44.418  28.316  35.672  1.00  0.00     0.058 A 
ATOM     67  C   UNL A   1      44.148  27.206  36.490  1.00  0.00     0.135 A 
ATOM     68  C   UNL A   1      45.761  28.688  35.501  1.00  0.00     0.135 A 
ATOM     69  F   UNL A   1      42.882  26.812  36.700  1.00  0.00    -0.206 F 
ATOM     70  C   UNL A   1      45.165  26.514  37.138  1.00  0.00     0.059 A 
ATOM     71  C   UNL A   1      46.799  27.991  36.115  1.00  0.00     0.059 A 
ATOM     72  F   UNL A   1      46.078  29.741  34.731  1.00  0.00    -0.206 F 
ATOM     73  C   UNL A   1      46.489  26.914  36.945  1.00  0.00     0.060 A 
BRANCH  73  74
ATOM     74  S   UNL A   1      47.797  26.002  37.790  1.00  0.00     0.124 S 
ATOM     75  O   UNL A   1      47.517  26.322  39.187  1.00  0.00    -0.237 OA
ATOM     76  O   UNL A   1      47.525  24.626  37.390  1.00  0.00    -0.237 OA
ATOM     77  O   UNL A   1      49.022  26.580  37.247  1.00  0.00    -0.744 OA
ENDBRANCH  73  74
ENDBRANCH  52  66
BRANCH  53  78
ATOM     78  C   UNL A   1      36.931  32.770  30.766  1.00  0.00     0.058 A 
ATOM     79  C   UNL A   1      35.611  32.384  31.041  1.00  0.00     0.135 A 
ATOM     80  C   UNL A   1      37.129  33.783  29.815  1.00  0.00     0.135 A 
ATOM     81  F   UNL A   1      35.368  31.416  31.937  1.00  0.00    -0.206 F 
ATOM     82  C   UNL A   1      34.529  32.967  30.388  1.00  0.00     0.059 A 
ATOM     83  C   UNL A   1      36.062  34.401  29.169  1.00  0.00     0.059 A 
ATOM     84  F   UNL A   1      38.372  34.202  29.526  1.00  0.00    -0.206 F 
ATOM     85  C   UNL A   1      34.765  33.980  29.457  1.00  0.00     0.060 A 
BRANCH  85  86
ATOM     86  S   UNL A   1      33.352  34.769  28.658  1.00  0.00     0.124 S 
ATOM     87  O   UNL A   1      32.467  35.008  29.793  1.00  0.00    -0.237 OA
ATOM     88  O   UNL A   1      33.962  35.954  28.063  1.00  0.00    -0.237 OA
ATOM     89  O   UNL A   1      32.899  33.761  27.704  1.00  0.00    -0.744 OA
ENDBRANCH  85  86
ENDBRANCH  53  78
BRANCH  65  90
ATOM     90  C   UNL A   1      39.844  33.726  37.042  1.00  0.00     0.058 A 
ATOM     91  C   UNL A   1      38.970  33.414  38.094  1.00  0.00     0.135 A 
ATOM     92  C   UNL A   1      40.507  34.964  37.088  1.00  0.00     0.135 A 
ATOM     93  F   UNL A   1      38.305  32.248  38.097  1.00  0.00    -0.206 F 
ATOM     94  C   UNL A   1      38.744  34.303  39.140  1.00  0.00     0.059 A 
ATOM     95  C   UNL A   1      40.321  35.855  38.139  1.00  0.00     0.059 A 
ATOM     96  F   UNL A   1      41.362  35.310  36.111  1.00  0.00    -0.206 F 
ATOM     97  C   UNL A   1      39.428  35.521  39.156  1.00  0.00     0.060 A 
BRANCH  97  98
ATOM     98  S   UNL A   1      39.152  36.650  40.537  1.00  0.00     0.124 S 
ATOM     99  O   UNL A   1      38.204  35.894  41.349  1.00  0.00    -0.237 OA
ATOM    100  O   UNL A   1      40.493  36.794  41.094  1.00  0.00    -0.237 OA
ATOM    101  O   UNL A   1      38.614  37.846  39.896  1.00  0.00    -0.744 OA
ENDBRANCH  97  98
ENDBRANCH  65  90
ENDBRANCH  39  40
ENDBRANCH  31  34
ENDBRANCH  29  30
ENDBRANCH   1  29
TORSDOF 16
ENDMDL
MODEL 2
REMARK VINA RESULT:     -12.2      6.514     11.770
REMARK SMILES Cc1nn(C)c(C)c1[C@H](C)N1C(=O)CC[C@@H](C(=O)NCCCNC(=O)c2ccc(-c3c4nc(c(-c5c(F)cc(S(=O)(=O)[O-])cc5F)c5ccc([nH]5)c(-c5c(F)cc(S(=O)(=O)[O-])cc5F)c5nc(c(-c6c(F)cc(S(=O)(=O)[O-])cc6F)c6ccc3[nH]6)C=C5)C=C4)cc2)[C@@H]1c1ccco1
REMARK SMILES IDX 21 1 20 2 19 3 17 4 18 5 16 7 11 8 12 9 92 10 13 11 14 12
REMARK SMILES IDX 15 13 9 14 10 15 8 16 1 17 2 18 3 19 4 20 6 21 5 22 7 23
REMARK SMILES IDX 93 24 94 25 97 26 95 27 96 28 22 29 23 30 24 31 25 33 26 34
REMARK SMILES IDX 27 35 91 36 28 37 90 38 29 39 30 40 31 41 84 42 32 43 89 44
REMARK SMILES IDX 83 45 85 46 33 47 88 48 82 49 81 50 34 52 68 53 47 54 67 55
REMARK SMILES IDX 48 56 51 57 66 58 86 59 49 60 50 61 65 63 87 64 52 65 35 66
REMARK SMILES IDX 36 67 45 68 37 69 38 70 44 71 46 72 39 73 40 74 41 75 42 76
REMARK SMILES IDX 43 77 69 78 70 79 79 80 71 81 72 82 78 83 80 84 73 85 74 86
REMARK SMILES IDX 75 87 76 88 77 89 53 90 54 91 63 92 55 93 56 94 62 95 64 96
REMARK SMILES IDX 57 97 58 98 59 99 60 100 61 101
REMARK H PARENT 19 6 23 32 85 51 51 62
REMARK Flexibility Score: inf
ROOT
ATOM      1  C   UNL A   1      35.542  31.817  27.579  1.00  0.00     0.042 C 
ENDROOT
BRANCH   1   2
ATOM      2  C   UNL A   1      34.625  30.614  27.783  1.00  0.00     0.117 C 
BRANCH   2   3
ATOM      3  N   UNL A   1      34.924  29.563  26.831  1.00  0.00    -0.356 N 
ATOM      4  C   UNL A   1      34.130  28.934  25.926  1.00  0.00     0.225 C 
ATOM      5  O   UNL A   1      34.585  27.907  25.424  1.00  0.00    -0.275 OA
ATOM      6  H   UNL A   1      35.858  29.253  26.843  1.00  0.00     0.163 HD
BRANCH   4   7
ATOM      7  C   UNL A   1      32.791  29.535  25.503  1.00  0.00     0.109 C 
ATOM      8  N   UNL A   1      31.552  27.336  25.285  1.00  0.00    -0.325 N 
ATOM      9  C   UNL A   1      31.337  27.344  26.662  1.00  0.00     0.223 C 
ATOM     10  C   UNL A   1      32.078  28.526  24.585  1.00  0.00     0.164 C 
ATOM     11  O   UNL A   1      31.054  26.323  27.296  1.00  0.00    -0.275 OA
ATOM     12  C   UNL A   1      31.445  28.644  27.439  1.00  0.00     0.101 C 
ATOM     13  C   UNL A   1      31.908  29.872  26.689  1.00  0.00     0.026 C 
BRANCH   8  14
ATOM     14  C   UNL A   1      31.338  26.030  24.581  1.00  0.00     0.117 C 
ATOM     15  C   UNL A   1      30.159  26.124  23.598  1.00  0.00     0.036 C 
BRANCH  14  16
ATOM     16  C   UNL A   1      32.596  25.406  23.966  1.00  0.00     0.018 A 
ATOM     17  C   UNL A   1      32.480  25.848  21.316  1.00  0.00     0.069 C 
ATOM     18  C   UNL A   1      33.056  25.365  22.600  1.00  0.00     0.065 A 
ATOM     19  N   UNL A   1      34.226  24.724  22.490  1.00  0.00    -0.178 NA
ATOM     20  N   UNL A   1      34.523  24.336  23.729  1.00  0.00    -0.272 N 
ATOM     21  C   UNL A   1      33.544  24.623  24.638  1.00  0.00     0.040 A 
ATOM     22  C   UNL A   1      35.799  23.692  23.942  1.00  0.00     0.174 C 
ATOM     23  C   UNL A   1      33.622  24.170  26.055  1.00  0.00     0.067 C 
ENDBRANCH  14  16
ENDBRANCH   8  14
BRANCH  10  24
ATOM     24  C   UNL A   1      31.038  29.189  23.727  1.00  0.00     0.127 A 
ATOM     25  C   UNL A   1      29.909  29.915  24.058  1.00  0.00     0.048 A 
ATOM     26  O   UNL A   1      31.174  29.142  22.370  1.00  0.00    -0.467 OA
ATOM     27  C   UNL A   1      29.338  30.350  22.841  1.00  0.00     0.042 A 
ATOM     28  C   UNL A   1      30.150  29.864  21.845  1.00  0.00     0.195 A 
ENDBRANCH  10  24
ENDBRANCH   4   7
ENDBRANCH   2   3
ENDBRANCH   1   2
BRANCH   1  29
ATOM     29  C   UNL A   1      36.314  32.232  28.832  1.00  0.00     0.118 C 
BRANCH  29  30
ATOM     30  N   UNL A   1      35.904  31.489  30.017  1.00  0.00    -0.352 N 
ATOM     31  C   UNL A   1      36.464  30.384  30.608  1.00  0.00     0.251 C 
ATOM     32  H   UNL A   1      35.097  31.833  30.463  1.00  0.00     0.163 HD
ATOM     33  O   UNL A   1      35.839  29.794  31.489  1.00  0.00    -0.269 OA
BRANCH  31  34
ATOM     34  C   UNL A   1      37.793  29.893  30.186  1.00  0.00     0.039 A 
ATOM     35  C   UNL A   1      38.046  29.715  28.823  1.00  0.00     0.014 A 
ATOM     36  C   UNL A   1      38.781  29.584  31.124  1.00  0.00     0.014 A 
ATOM     37  C   UNL A   1      39.310  29.296  28.400  1.00  0.00     0.010 A 
ATOM     38  C   UNL A   1      40.063  29.245  30.698  1.00  0.00     0.010 A 
ATOM     39  C   UNL A   1      40.343  29.097  29.331  1.00  0.00    -0.014 A 
BRANCH  39  40
ATOM     40  C   UNL A   1      41.721  28.749  28.892  1.00  0.00     0.031 A 
ATOM     41  C   UNL A   1      42.782  29.813  28.799  1.00  0.00     0.074 A 
ATOM     42  C   UNL A   1      41.997  27.486  28.509  1.00  0.00     0.049 A 
ATOM     43  N   UNL A   1      44.015  29.714  28.372  1.00  0.00    -0.248 NA
ATOM     44  C   UNL A   1      42.400  31.173  29.216  1.00  0.00     0.031 C 
ATOM     45  C   UNL A   1      41.040  26.377  28.505  1.00  0.00     0.029 A 
ATOM     46  N   UNL A   1      43.157  26.924  28.038  1.00  0.00    -0.354 N 
ATOM     47  C   UNL A   1      44.550  30.995  28.454  1.00  0.00     0.074 A 
ATOM     48  C   UNL A   1      43.493  31.863  28.921  1.00  0.00     0.031 C 
ATOM     49  C   UNL A   1      41.656  25.266  28.071  1.00  0.00     0.029 A 
ATOM     50  C   UNL A   1      43.036  25.589  27.725  1.00  0.00     0.049 A 
ATOM     51  H   UNL A   1      43.996  27.427  27.933  1.00  0.00     0.167 HD
ATOM     52  C   UNL A   1      45.814  31.404  28.183  1.00  0.00     0.037 A 
ATOM     53  C   UNL A   1      43.930  24.725  27.205  1.00  0.00     0.037 A 
ATOM     54  C   UNL A   1      46.866  30.527  27.736  1.00  0.00     0.049 A 
ATOM     55  C   UNL A   1      45.325  25.204  26.908  1.00  0.00     0.074 A 
ATOM     56  C   UNL A   1      48.195  30.834  27.499  1.00  0.00     0.029 A 
ATOM     57  N   UNL A   1      46.711  29.178  27.452  1.00  0.00    -0.354 N 
ATOM     58  N   UNL A   1      45.835  26.403  27.063  1.00  0.00    -0.248 NA
ATOM     59  C   UNL A   1      46.271  24.213  26.375  1.00  0.00     0.031 C 
ATOM     60  C   UNL A   1      48.829  29.684  27.016  1.00  0.00     0.029 A 
ATOM     61  C   UNL A   1      47.912  28.645  27.013  1.00  0.00     0.049 A 
ATOM     62  H   UNL A   1      45.871  28.675  27.548  1.00  0.00     0.167 HD
ATOM     63  C   UNL A   1      47.165  26.304  26.672  1.00  0.00     0.074 A 
ATOM     64  C   UNL A   1      47.385  24.925  26.287  1.00  0.00     0.031 C 
ATOM     65  C   UNL A   1      48.119  27.268  26.636  1.00  0.00     0.037 A 
BRANCH  52  66
ATOM     66  C   UNL A   1      46.129  32.866  28.358  1.00  0.00     0.058 A 
ATOM     67  C   UNL A   1      46.598  33.382  29.577  1.00  0.00     0.135 A 
ATOM     68  C   UNL A   1      45.999  33.757  27.280  1.00  0.00     0.135 A 
ATOM     69  F   UNL A   1      46.730  32.580  30.646  1.00  0.00    -0.206 F 
ATOM     70  C   UNL A   1      46.895  34.732  29.731  1.00  0.00     0.059 A 
ATOM     71  C   UNL A   1      46.320  35.107  27.402  1.00  0.00     0.059 A 
ATOM     72  F   UNL A   1      45.555  33.320  26.091  1.00  0.00    -0.206 F 
ATOM     73  C   UNL A   1      46.753  35.588  28.637  1.00  0.00     0.060 A 
BRANCH  73  74
ATOM     74  S   UNL A   1      47.147  37.336  28.853  1.00  0.00     0.124 S 
ATOM     75  O   UNL A   1      48.553  37.366  28.462  1.00  0.00    -0.237 OA
ATOM     76  O   UNL A   1      46.220  37.979  27.928  1.00  0.00    -0.237 OA
ATOM     77  O   UNL A   1      46.883  37.573  30.268  1.00  0.00    -0.744 OA
ENDBRANCH  73  74
ENDBRANCH  52  66
BRANCH  53  78
ATOM     78  C   UNL A   1      43.532  23.315  26.944  1.00  0.00     0.058 A 
ATOM     79  C   UNL A   1      43.326  22.413  27.999  1.00  0.00     0.135 A 
ATOM     80  C   UNL A   1      43.333  22.846  25.637  1.00  0.00     0.135 A 
ATOM     81  F   UNL A   1      43.510  22.811  29.267  1.00  0.00    -0.206 F 
ATOM     82  C   UNL A   1      42.950  21.094  27.767  1.00  0.00     0.059 A 
ATOM     83  C   UNL A   1      42.930  21.538  25.381  1.00  0.00     0.059 A 
ATOM     84  F   UNL A   1      43.501  23.672  24.592  1.00  0.00    -0.206 F 
ATOM     85  C   UNL A   1      42.749  20.667  26.454  1.00  0.00     0.060 A 
BRANCH  85  86
ATOM     86  S   UNL A   1      42.207  18.968  26.167  1.00  0.00     0.124 S 
ATOM     87  O   UNL A   1      42.424  18.365  27.478  1.00  0.00    -0.237 OA
ATOM     88  O   UNL A   1      40.815  19.156  25.772  1.00  0.00    -0.237 OA
ATOM     89  O   UNL A   1      43.095  18.507  25.105  1.00  0.00    -0.744 OA
ENDBRANCH  85  86
ENDBRANCH  53  78
BRANCH  65  90
ATOM     90  C   UNL A   1      49.502  26.863  26.200  1.00  0.00     0.058 A 
ATOM     91  C   UNL A   1      50.403  26.239  27.076  1.00  0.00     0.135 A 
ATOM     92  C   UNL A   1      49.910  27.054  24.869  1.00  0.00     0.135 A 
ATOM     93  F   UNL A   1      50.068  26.038  28.361  1.00  0.00    -0.206 F 
ATOM     94  C   UNL A   1      51.668  25.841  26.656  1.00  0.00     0.059 A 
ATOM     95  C   UNL A   1      51.158  26.635  24.419  1.00  0.00     0.059 A 
ATOM     96  F   UNL A   1      49.084  27.637  23.986  1.00  0.00    -0.206 F 
ATOM     97  C   UNL A   1      52.035  26.039  25.323  1.00  0.00     0.060 A 
BRANCH  97  98
ATOM     98  S   UNL A   1      53.666  25.486  24.783  1.00  0.00     0.124 S 
ATOM     99  O   UNL A   1      53.598  24.055  25.061  1.00  0.00    -0.237 OA
ATOM    100  O   UNL A   1      53.670  25.859  23.372  1.00  0.00    -0.237 OA
ATOM    101  O   UNL A   1      54.581  26.245  25.629  1.00  0.00    -0.744 OA
ENDBRANCH  97  98
ENDBRANCH  65  90
ENDBRANCH  39  40
ENDBRANCH  31  34
ENDBRANCH  29  30
ENDBRANCH   1  29
TORSDOF 16
ENDMDL
MODEL 3
REMARK VINA RESULT:     -12.1      1.172      3.002
REMARK SMILES Cc1nn(C)c(C)c1[C@H](C)N1C(=O)CC[C@@H](C(=O)NCCCNC(=O)c2ccc(-c3c4nc(c(-c5c(F)cc(S(=O)(=O)[O-])cc5F)c5ccc([nH]5)c(-c5c(F)cc(S(=O)(=O)[O-])cc5F)c5nc(c(-c6c(F)cc(S(=O)(=O)[O-])cc6F)c6ccc3[nH]6)C=C5)C=C4)cc2)[C@@H]1c1ccco1
REMARK SMILES IDX 21 1 20 2 19 3 17 4 18 5 16 7 11 8 12 9 92 10 13 11 14 12
REMARK SMILES IDX 15 13 9 14 10 15 8 16 1 17 2 18 3 19 4 20 6 21 5 22 7 23
REMARK SMILES IDX 93 24 94 25 97 26 95 27 96 28 22 29 23 30 24 31 25 33 26 34
REMARK SMILES IDX 27 35 91 36 28 37 90 38 29 39 30 40 31 41 84 42 32 43 89 44
REMARK SMILES IDX 83 45 85 46 33 47 88 48 82 49 81 50 34 52 68 53 47 54 67 55
REMARK SMILES IDX 48 56 51 57 66 58 86 59 49 60 50 61 65 63 87 64 52 65 35 66
REMARK SMILES IDX 36 67 45 68 37 69 38 70 44 71 46 72 39 73 40 74 41 75 42 76
REMARK SMILES IDX 43 77 69 78 70 79 79 80 71 81 72 82 78 83 80 84 73 85 74 86
REMARK SMILES IDX 75 87 76 88 77 89 53 90 54 91 63 92 55 93 56 94 62 95 64 96
REMARK SMILES IDX 57 97 58 98 59 99 60 100 61 101
REMARK H PARENT 19 6 23 32 85 51 51 62
REMARK Flexibility Score: inf
ROOT
ATOM      1  C   UNL A   1      39.610  22.297  26.938  1.00  0.00     0.042 C 
ENDROOT
BRANCH   1   2
ATOM      2  C   UNL A   1      38.751  23.075  25.946  1.00  0.00     0.117 C 
BRANCH   2   3
ATOM      3  N   UNL A   1      37.511  23.511  26.559  1.00  0.00    -0.356 N 
ATOM      4  C   UNL A   1      36.232  23.101  26.360  1.00  0.00     0.225 C 
ATOM      5  O   UNL A   1      35.351  23.818  26.833  1.00  0.00    -0.275 OA
ATOM      6  H   UNL A   1      37.614  24.224  27.230  1.00  0.00     0.163 HD
BRANCH   4   7
ATOM      7  C   UNL A   1      35.931  21.774  25.666  1.00  0.00     0.109 C 
ATOM      8  N   UNL A   1      34.123  22.663  24.131  1.00  0.00    -0.325 N 
ATOM      9  C   UNL A   1      35.113  23.113  23.258  1.00  0.00     0.223 C 
ATOM     10  C   UNL A   1      34.446  21.768  25.260  1.00  0.00     0.164 C 
ATOM     11  O   UNL A   1      34.905  23.984  22.408  1.00  0.00    -0.275 OA
ATOM     12  C   UNL A   1      36.511  22.525  23.331  1.00  0.00     0.101 C 
ATOM     13  C   UNL A   1      36.803  21.547  24.446  1.00  0.00     0.026 C 
BRANCH   8  14
ATOM     14  C   UNL A   1      32.749  23.230  23.933  1.00  0.00     0.117 C 
ATOM     15  C   UNL A   1      31.747  22.123  23.566  1.00  0.00     0.036 C 
BRANCH  14  16
ATOM     16  C   UNL A   1      32.255  24.151  25.054  1.00  0.00     0.018 A 
ATOM     17  C   UNL A   1      30.574  22.708  26.577  1.00  0.00     0.069 C 
ATOM     18  C   UNL A   1      31.362  23.898  26.158  1.00  0.00     0.065 A 
ATOM     19  N   UNL A   1      31.201  24.983  26.925  1.00  0.00    -0.178 NA
ATOM     20  N   UNL A   1      31.940  25.927  26.344  1.00  0.00    -0.272 N 
ATOM     21  C   UNL A   1      32.512  25.524  25.170  1.00  0.00     0.040 A 
ATOM     22  C   UNL A   1      32.041  27.204  27.012  1.00  0.00     0.174 C 
ATOM     23  C   UNL A   1      33.280  26.460  24.302  1.00  0.00     0.067 C 
ENDBRANCH  14  16
ENDBRANCH   8  14
BRANCH  10  24
ATOM     24  C   UNL A   1      33.930  20.373  25.047  1.00  0.00     0.127 A 
ATOM     25  C   UNL A   1      34.533  19.247  24.518  1.00  0.00     0.048 A 
ATOM     26  O   UNL A   1      32.662  20.070  25.449  1.00  0.00    -0.467 OA
ATOM     27  C   UNL A   1      33.592  18.198  24.622  1.00  0.00     0.042 A 
ATOM     28  C   UNL A   1      32.475  18.747  25.205  1.00  0.00     0.195 A 
ENDBRANCH  10  24
ENDBRANCH   4   7
ENDBRANCH   2   3
ENDBRANCH   1   2
BRANCH   1  29
ATOM     29  C   UNL A   1      40.920  22.994  27.309  1.00  0.00     0.118 C 
BRANCH  29  30
ATOM     30  N   UNL A   1      41.448  23.813  26.225  1.00  0.00    -0.352 N 
ATOM     31  C   UNL A   1      41.636  25.170  26.152  1.00  0.00     0.251 C 
ATOM     32  H   UNL A   1      41.710  23.314  25.418  1.00  0.00     0.163 HD
ATOM     33  O   UNL A   1      41.908  25.679  25.064  1.00  0.00    -0.269 OA
BRANCH  31  34
ATOM     34  C   UNL A   1      41.500  26.019  27.354  1.00  0.00     0.039 A 
ATOM     35  C   UNL A   1      42.545  26.883  27.694  1.00  0.00     0.014 A 
ATOM     36  C   UNL A   1      40.361  25.952  28.161  1.00  0.00     0.014 A 
ATOM     37  C   UNL A   1      42.416  27.728  28.800  1.00  0.00     0.010 A 
ATOM     38  C   UNL A   1      40.201  26.850  29.214  1.00  0.00     0.010 A 
ATOM     39  C   UNL A   1      41.226  27.749  29.546  1.00  0.00    -0.014 A 
BRANCH  39  40
ATOM     40  C   UNL A   1      41.032  28.711  30.662  1.00  0.00     0.031 A 
ATOM     41  C   UNL A   1      41.856  28.598  31.917  1.00  0.00     0.074 A 
ATOM     42  C   UNL A   1      40.064  29.646  30.574  1.00  0.00     0.049 A 
ATOM     43  N   UNL A   1      41.782  29.299  33.020  1.00  0.00    -0.248 NA
ATOM     44  C   UNL A   1      42.880  27.541  31.948  1.00  0.00     0.031 C 
ATOM     45  C   UNL A   1      39.165  29.825  29.431  1.00  0.00     0.029 A 
ATOM     46  N   UNL A   1      39.664  30.612  31.463  1.00  0.00    -0.354 N 
ATOM     47  C   UNL A   1      42.735  28.761  33.878  1.00  0.00     0.074 A 
ATOM     48  C   UNL A   1      43.337  27.642  33.188  1.00  0.00     0.031 C 
ATOM     49  C   UNL A   1      38.333  30.848  29.681  1.00  0.00     0.029 A 
ATOM     50  C   UNL A   1      38.607  31.371  31.015  1.00  0.00     0.049 A 
ATOM     51  H   UNL A   1      40.093  30.749  32.338  1.00  0.00     0.167 HD
ATOM     52  C   UNL A   1      43.088  29.175  35.119  1.00  0.00     0.037 A 
ATOM     53  C   UNL A   1      37.925  32.367  31.616  1.00  0.00     0.037 A 
ATOM     54  C   UNL A   1      42.495  30.303  35.791  1.00  0.00     0.049 A 
ATOM     55  C   UNL A   1      38.333  32.806  32.995  1.00  0.00     0.074 A 
ATOM     56  C   UNL A   1      42.830  30.843  37.021  1.00  0.00     0.029 A 
ATOM     57  N   UNL A   1      41.442  31.060  35.296  1.00  0.00    -0.354 N 
ATOM     58  N   UNL A   1      39.287  32.334  33.762  1.00  0.00    -0.248 NA
ATOM     59  C   UNL A   1      37.578  33.919  33.591  1.00  0.00     0.031 C 
ATOM     60  C   UNL A   1      41.942  31.888  37.295  1.00  0.00     0.029 A 
ATOM     61  C   UNL A   1      41.095  32.042  36.210  1.00  0.00     0.049 A 
ATOM     62  H   UNL A   1      41.006  30.919  34.425  1.00  0.00     0.167 HD
ATOM     63  C   UNL A   1      39.265  33.108  34.917  1.00  0.00     0.074 A 
ATOM     64  C   UNL A   1      38.212  34.088  34.742  1.00  0.00     0.031 C 
ATOM     65  C   UNL A   1      40.047  33.016  36.022  1.00  0.00     0.037 A 
BRANCH  52  66
ATOM     66  C   UNL A   1      44.163  28.402  35.836  1.00  0.00     0.058 A 
ATOM     67  C   UNL A   1      45.524  28.718  35.690  1.00  0.00     0.135 A 
ATOM     68  C   UNL A   1      43.827  27.359  36.713  1.00  0.00     0.135 A 
ATOM     69  F   UNL A   1      45.907  29.697  34.855  1.00  0.00    -0.206 F 
ATOM     70  C   UNL A   1      46.513  28.005  36.360  1.00  0.00     0.059 A 
ATOM     71  C   UNL A   1      44.797  26.653  37.419  1.00  0.00     0.059 A 
ATOM     72  F   UNL A   1      42.542  27.014  36.892  1.00  0.00    -0.206 F 
ATOM     73  C   UNL A   1      46.140  26.974  37.223  1.00  0.00     0.060 A 
BRANCH  73  74
ATOM     74  S   UNL A   1      47.436  26.063  38.089  1.00  0.00     0.124 S 
ATOM     75  O   UNL A   1      48.602  26.365  37.264  1.00  0.00    -0.237 OA
ATOM     76  O   UNL A   1      47.420  26.680  39.410  1.00  0.00    -0.237 OA
ATOM     77  O   UNL A   1      46.973  24.680  38.039  1.00  0.00    -0.744 OA
ENDBRANCH  73  74
ENDBRANCH  52  66
BRANCH  53  78
ATOM     78  C   UNL A   1      36.794  33.022  30.906  1.00  0.00     0.058 A 
ATOM     79  C   UNL A   1      35.462  32.743  31.250  1.00  0.00     0.135 A 
ATOM     80  C   UNL A   1      37.020  33.955  29.882  1.00  0.00     0.135 A 
ATOM     81  F   UNL A   1      35.193  31.853  32.218  1.00  0.00    -0.206 F 
ATOM     82  C   UNL A   1      34.397  33.352  30.596  1.00  0.00     0.059 A 
ATOM     83  C   UNL A   1      35.970  34.599  29.232  1.00  0.00     0.059 A 
ATOM     84  F   UNL A   1      38.274  34.271  29.525  1.00  0.00    -0.206 F 
ATOM     85  C   UNL A   1      34.661  34.283  29.591  1.00  0.00     0.060 A 
BRANCH  85  86
ATOM     86  S   UNL A   1      33.271  35.110  28.788  1.00  0.00     0.124 S 
ATOM     87  O   UNL A   1      33.949  36.160  28.035  1.00  0.00    -0.237 OA
ATOM     88  O   UNL A   1      32.691  34.030  27.997  1.00  0.00    -0.237 OA
ATOM     89  O   UNL A   1      32.455  35.563  29.910  1.00  0.00    -0.744 OA
ENDBRANCH  85  86
ENDBRANCH  53  78
BRANCH  65  90
ATOM     90  C   UNL A   1      39.824  34.023  37.118  1.00  0.00     0.058 A 
ATOM     91  C   UNL A   1      39.029  33.737  38.239  1.00  0.00     0.135 A 
ATOM     92  C   UNL A   1      40.460  35.275  37.072  1.00  0.00     0.135 A 
ATOM     93  F   UNL A   1      38.391  32.559  38.331  1.00  0.00    -0.206 F 
ATOM     94  C   UNL A   1      38.852  34.663  39.262  1.00  0.00     0.059 A 
ATOM     95  C   UNL A   1      40.325  36.204  38.098  1.00  0.00     0.059 A 
ATOM     96  F   UNL A   1      41.241  35.598  36.028  1.00  0.00    -0.206 F 
ATOM     97  C   UNL A   1      39.509  35.893  39.184  1.00  0.00     0.060 A 
BRANCH  97  98
ATOM     98  S   UNL A   1      39.300  37.071  40.535  1.00  0.00     0.124 S 
ATOM     99  O   UNL A   1      40.685  37.379  40.875  1.00  0.00    -0.237 OA
ATOM    100  O   UNL A   1      38.548  38.147  39.897  1.00  0.00    -0.237 OA
ATOM    101  O   UNL A   1      38.563  36.310  41.540  1.00  0.00    -0.744 OA
ENDBRANCH  97  98
ENDBRANCH  65  90
ENDBRANCH  39  40
ENDBRANCH  31  34
ENDBRANCH  29  30
ENDBRANCH   1  29
TORSDOF 16
ENDMDL
