MODEL 1
REMARK VINA RESULT:     -10.3      0.000      0.000
REMARK SMILES Cc1cc(C)n([C@@H](C(=O)NCCCNC(=O)c2ccc(-c3c4nc(c(-c5c(F)cc(S(=O)(=O)[O-])cc5F)c5ccc([nH]5)c(-c5c(F)cc(S(=O)(=O)[O-])cc5F)c5nc(c(-c6c(F)cc(S(=O)(=O)[O-])cc6F)c6ccc3[nH]6)C=C5)C=C4)cc2)C(C)C)n1
REMARK SMILES IDX 13 1 12 2 11 3 10 4 8 5 9 6 7 8 6 9 1 10 2 11 3 12 86 13
REMARK SMILES IDX 4 14 5 15 83 16 84 17 85 18 14 19 15 20 16 22 17 23 18 24
REMARK SMILES IDX 82 25 19 26 81 27 20 28 21 29 22 30 75 31 23 32 80 33 74 34
REMARK SMILES IDX 76 35 24 36 79 37 73 38 72 39 25 41 59 42 38 43 58 44 39 45
REMARK SMILES IDX 42 46 57 47 77 48 40 49 41 50 56 52 78 53 43 54 26 55 27 56
REMARK SMILES IDX 36 57 28 58 29 59 35 60 37 61 30 62 31 63 32 64 33 65 34 66
REMARK SMILES IDX 60 67 61 68 70 69 62 70 63 71 69 72 71 73 64 74 65 75 66 76
REMARK SMILES IDX 67 77 68 78 44 79 45 80 54 81 46 82 47 83 53 84 55 85 48 86
REMARK SMILES IDX 49 87 50 88 51 89 52 90
REMARK H PARENT 10 7 14 21 76 40 42 51
REMARK Flexibility Score: inf
ROOT
ATOM      1  C   UNL A   1      43.227  22.913  25.052  1.00  0.00     0.118 C 
ENDROOT
BRANCH   1   2
ATOM      2  C   UNL A   1      44.439  22.032  25.274  1.00  0.00     0.042 C 
BRANCH   2   3
ATOM      3  C   UNL A   1      45.501  22.689  26.161  1.00  0.00     0.117 C 
BRANCH   3   4
ATOM      4  N   UNL A   1      45.066  22.884  27.541  1.00  0.00    -0.354 N 
ATOM      5  C   UNL A   1      45.335  23.914  28.406  1.00  0.00     0.245 C 
ATOM      6  O   UNL A   1      44.874  23.832  29.545  1.00  0.00    -0.273 OA
ATOM      7  H   UNL A   1      44.495  22.170  27.905  1.00  0.00     0.163 HD
BRANCH   5   8
ATOM      8  C   UNL A   1      46.161  25.115  27.937  1.00  0.00     0.199 C 
BRANCH   8   9
ATOM      9  N   UNL A   1      47.241  25.366  28.895  1.00  0.00    -0.257 N 
ATOM     10  C   UNL A   1      48.051  26.589  32.124  1.00  0.00     0.069 C 
ATOM     11  C   UNL A   1      48.044  26.023  30.756  1.00  0.00     0.060 A 
ATOM     12  C   UNL A   1      49.143  25.783  29.909  1.00  0.00     0.048 A 
ATOM     13  N   UNL A   1      46.888  25.722  30.156  1.00  0.00    -0.177 NA
ATOM     14  C   UNL A   1      48.605  25.361  28.711  1.00  0.00     0.037 A 
ATOM     15  C   UNL A   1      49.305  25.008  27.448  1.00  0.00     0.066 C 
ENDBRANCH   8   9
BRANCH   8  16
ATOM     16  C   UNL A   1      45.328  26.387  27.613  1.00  0.00     0.017 C 
ATOM     17  C   UNL A   1      46.241  27.606  27.414  1.00  0.00     0.010 C 
ATOM     18  C   UNL A   1      44.480  26.220  26.343  1.00  0.00     0.010 C 
ENDBRANCH   8  16
ENDBRANCH   5   8
ENDBRANCH   3   4
ENDBRANCH   2   3
ENDBRANCH   1   2
BRANCH   1  19
ATOM     19  N   UNL A   1      41.964  22.310  25.497  1.00  0.00    -0.352 N 
ATOM     20  C   UNL A   1      41.083  22.791  26.462  1.00  0.00     0.251 C 
ATOM     21  H   UNL A   1      41.709  21.466  25.061  1.00  0.00     0.163 HD
ATOM     22  O   UNL A   1      40.257  22.062  26.981  1.00  0.00    -0.269 OA
BRANCH  20  23
ATOM     23  C   UNL A   1      41.184  24.218  26.832  1.00  0.00     0.039 A 
ATOM     24  C   UNL A   1      40.615  25.248  26.080  1.00  0.00     0.014 A 
ATOM     25  C   UNL A   1      41.816  24.490  28.035  1.00  0.00     0.014 A 
ATOM     26  C   UNL A   1      40.630  26.539  26.610  1.00  0.00     0.010 A 
ATOM     27  C   UNL A   1      41.560  25.667  28.668  1.00  0.00     0.010 A 
ATOM     28  C   UNL A   1      41.092  26.734  27.922  1.00  0.00    -0.014 A 
BRANCH  28  29
ATOM     29  C   UNL A   1      41.082  28.031  28.584  1.00  0.00     0.031 A 
ATOM     30  C   UNL A   1      42.211  28.926  28.217  1.00  0.00     0.074 A 
ATOM     31  C   UNL A   1      40.014  28.465  29.295  1.00  0.00     0.049 A 
ATOM     32  N   UNL A   1      43.185  29.317  28.968  1.00  0.00    -0.248 NA
ATOM     33  C   UNL A   1      42.360  29.314  26.804  1.00  0.00     0.031 C 
ATOM     34  C   UNL A   1      38.696  27.836  29.483  1.00  0.00     0.029 A 
ATOM     35  N   UNL A   1      39.856  29.646  29.945  1.00  0.00    -0.354 N 
ATOM     36  C   UNL A   1      43.958  30.174  28.187  1.00  0.00     0.074 A 
ATOM     37  C   UNL A   1      43.509  29.990  26.831  1.00  0.00     0.031 C 
ATOM     38  C   UNL A   1      37.820  28.736  29.982  1.00  0.00     0.029 A 
ATOM     39  C   UNL A   1      38.553  29.932  30.339  1.00  0.00     0.049 A 
ATOM     40  H   UNL A   1      40.609  30.255  30.125  1.00  0.00     0.167 HD
ATOM     41  C   UNL A   1      44.767  31.114  28.753  1.00  0.00     0.037 A 
ATOM     42  C   UNL A   1      38.116  31.079  30.917  1.00  0.00     0.037 A 
ATOM     43  C   UNL A   1      44.962  30.847  30.157  1.00  0.00     0.049 A 
ATOM     44  C   UNL A   1      39.319  31.740  31.493  1.00  0.00     0.074 A 
ATOM     45  C   UNL A   1      45.530  29.804  30.865  1.00  0.00     0.029 A 
ATOM     46  N   UNL A   1      44.164  31.515  31.055  1.00  0.00    -0.354 N 
ATOM     47  N   UNL A   1      40.023  31.231  32.469  1.00  0.00    -0.248 NA
ATOM     48  C   UNL A   1      40.021  32.695  30.650  1.00  0.00     0.031 C 
ATOM     49  C   UNL A   1      44.663  29.605  31.981  1.00  0.00     0.029 A 
ATOM     50  C   UNL A   1      43.671  30.586  31.940  1.00  0.00     0.049 A 
ATOM     51  H   UNL A   1      43.979  32.483  31.063  1.00  0.00     0.167 HD
ATOM     52  C   UNL A   1      41.348  31.472  32.123  1.00  0.00     0.074 A 
ATOM     53  C   UNL A   1      41.277  32.432  31.020  1.00  0.00     0.031 C 
ATOM     54  C   UNL A   1      42.361  30.665  32.558  1.00  0.00     0.037 A 
BRANCH  41  55
ATOM     55  C   UNL A   1      45.131  32.436  28.121  1.00  0.00     0.058 A 
ATOM     56  C   UNL A   1      46.467  32.687  27.748  1.00  0.00     0.135 A 
ATOM     57  C   UNL A   1      44.274  33.559  28.099  1.00  0.00     0.135 A 
ATOM     58  F   UNL A   1      47.373  31.697  27.738  1.00  0.00    -0.206 F 
ATOM     59  C   UNL A   1      46.929  33.967  27.436  1.00  0.00     0.059 A 
ATOM     60  C   UNL A   1      44.701  34.833  27.740  1.00  0.00     0.059 A 
ATOM     61  F   UNL A   1      43.003  33.496  28.515  1.00  0.00    -0.206 F 
ATOM     62  C   UNL A   1      46.040  35.037  27.448  1.00  0.00     0.060 A 
BRANCH  62  63
ATOM     63  S   UNL A   1      46.653  36.702  27.142  1.00  0.00     0.124 S 
ATOM     64  O   UNL A   1      45.452  37.501  27.360  1.00  0.00    -0.237 OA
ATOM     65  O   UNL A   1      47.698  36.830  28.152  1.00  0.00    -0.237 OA
ATOM     66  O   UNL A   1      47.127  36.638  25.763  1.00  0.00    -0.744 OA
ENDBRANCH  62  63
ENDBRANCH  41  55
BRANCH  42  67
ATOM     67  C   UNL A   1      36.843  31.803  30.650  1.00  0.00     0.058 A 
ATOM     68  C   UNL A   1      36.176  32.513  31.663  1.00  0.00     0.135 A 
ATOM     69  C   UNL A   1      36.410  32.053  29.331  1.00  0.00     0.135 A 
ATOM     70  F   UNL A   1      36.537  32.352  32.945  1.00  0.00    -0.206 F 
ATOM     71  C   UNL A   1      35.175  33.453  31.384  1.00  0.00     0.059 A 
ATOM     72  C   UNL A   1      35.413  32.981  29.028  1.00  0.00     0.059 A 
ATOM     73  F   UNL A   1      37.015  31.468  28.285  1.00  0.00    -0.206 F 
ATOM     74  C   UNL A   1      34.815  33.697  30.058  1.00  0.00     0.060 A 
BRANCH  74  75
ATOM     75  S   UNL A   1      33.655  35.035  29.680  1.00  0.00     0.124 S 
ATOM     76  O   UNL A   1      33.373  35.574  31.005  1.00  0.00    -0.237 OA
ATOM     77  O   UNL A   1      34.445  35.888  28.799  1.00  0.00    -0.237 OA
ATOM     78  O   UNL A   1      32.540  34.345  29.036  1.00  0.00    -0.744 OA
ENDBRANCH  74  75
ENDBRANCH  42  67
BRANCH  54  79
ATOM     79  C   UNL A   1      42.053  29.630  33.621  1.00  0.00     0.058 A 
ATOM     80  C   UNL A   1      41.589  28.327  33.362  1.00  0.00     0.135 A 
ATOM     81  C   UNL A   1      42.409  29.920  34.946  1.00  0.00     0.135 A 
ATOM     82  F   UNL A   1      41.319  27.928  32.113  1.00  0.00    -0.206 F 
ATOM     83  C   UNL A   1      41.455  27.371  34.373  1.00  0.00     0.059 A 
ATOM     84  C   UNL A   1      42.312  28.975  35.966  1.00  0.00     0.059 A 
ATOM     85  F   UNL A   1      42.916  31.125  35.257  1.00  0.00    -0.206 F 
ATOM     86  C   UNL A   1      41.822  27.704  35.675  1.00  0.00     0.060 A 
BRANCH  86  87
ATOM     87  S   UNL A   1      41.720  26.450  36.973  1.00  0.00     0.124 S 
ATOM     88  O   UNL A   1      40.437  26.759  37.597  1.00  0.00    -0.237 OA
ATOM     89  O   UNL A   1      41.773  25.203  36.216  1.00  0.00    -0.237 OA
ATOM     90  O   UNL A   1      42.895  26.718  37.800  1.00  0.00    -0.744 OA
ENDBRANCH  86  87
ENDBRANCH  54  79
ENDBRANCH  28  29
ENDBRANCH  20  23
ENDBRANCH   1  19
TORSDOF 15
ENDMDL
MODEL 2
REMARK VINA RESULT:     -10.3      3.252      5.996
REMARK SMILES Cc1cc(C)n([C@@H](C(=O)NCCCNC(=O)c2ccc(-c3c4nc(c(-c5c(F)cc(S(=O)(=O)[O-])cc5F)c5ccc([nH]5)c(-c5c(F)cc(S(=O)(=O)[O-])cc5F)c5nc(c(-c6c(F)cc(S(=O)(=O)[O-])cc6F)c6ccc3[nH]6)C=C5)C=C4)cc2)C(C)C)n1
REMARK SMILES IDX 13 1 12 2 11 3 10 4 8 5 9 6 7 8 6 9 1 10 2 11 3 12 86 13
REMARK SMILES IDX 4 14 5 15 83 16 84 17 85 18 14 19 15 20 16 22 17 23 18 24
REMARK SMILES IDX 82 25 19 26 81 27 20 28 21 29 22 30 75 31 23 32 80 33 74 34
REMARK SMILES IDX 76 35 24 36 79 37 73 38 72 39 25 41 59 42 38 43 58 44 39 45
REMARK SMILES IDX 42 46 57 47 77 48 40 49 41 50 56 52 78 53 43 54 26 55 27 56
REMARK SMILES IDX 36 57 28 58 29 59 35 60 37 61 30 62 31 63 32 64 33 65 34 66
REMARK SMILES IDX 60 67 61 68 70 69 62 70 63 71 69 72 71 73 64 74 65 75 66 76
REMARK SMILES IDX 67 77 68 78 44 79 45 80 54 81 46 82 47 83 53 84 55 85 48 86
REMARK SMILES IDX 49 87 50 88 51 89 52 90
REMARK H PARENT 10 7 14 21 76 40 42 51
REMARK Flexibility Score: inf
ROOT
ATOM      1  C   UNL A   1      39.273  22.742  26.508  1.00  0.00     0.118 C 
ENDROOT
BRANCH   1   2
ATOM      2  C   UNL A   1      38.244  22.031  25.653  1.00  0.00     0.042 C 
BRANCH   2   3
ATOM      3  C   UNL A   1      36.871  22.710  25.680  1.00  0.00     0.117 C 
BRANCH   3   4
ATOM      4  N   UNL A   1      35.929  22.078  26.600  1.00  0.00    -0.354 N 
ATOM      5  C   UNL A   1      34.564  21.974  26.518  1.00  0.00     0.245 C 
ATOM      6  O   UNL A   1      33.983  21.416  27.450  1.00  0.00    -0.273 OA
ATOM      7  H   UNL A   1      36.334  21.667  27.397  1.00  0.00     0.163 HD
BRANCH   5   8
ATOM      8  C   UNL A   1      33.824  22.518  25.294  1.00  0.00     0.199 C 
BRANCH   8   9
ATOM      9  N   UNL A   1      33.178  23.787  25.641  1.00  0.00    -0.257 N 
ATOM     10  C   UNL A   1      33.628  27.285  26.012  1.00  0.00     0.069 C 
ATOM     11  C   UNL A   1      33.124  25.895  25.948  1.00  0.00     0.060 A 
ATOM     12  C   UNL A   1      31.907  25.388  26.443  1.00  0.00     0.048 A 
ATOM     13  N   UNL A   1      33.876  24.928  25.415  1.00  0.00    -0.177 NA
ATOM     14  C   UNL A   1      31.960  24.025  26.238  1.00  0.00     0.037 A 
ATOM     15  C   UNL A   1      30.961  22.988  26.607  1.00  0.00     0.066 C 
ENDBRANCH   8   9
BRANCH   8  16
ATOM     16  C   UNL A   1      32.854  21.507  24.620  1.00  0.00     0.017 C 
ATOM     17  C   UNL A   1      32.479  21.966  23.202  1.00  0.00     0.010 C 
ATOM     18  C   UNL A   1      33.461  20.099  24.517  1.00  0.00     0.010 C 
ENDBRANCH   8  16
ENDBRANCH   5   8
ENDBRANCH   3   4
ENDBRANCH   2   3
ENDBRANCH   1   2
BRANCH   1  19
ATOM     19  N   UNL A   1      40.642  22.242  26.332  1.00  0.00    -0.352 N 
ATOM     20  C   UNL A   1      41.806  22.985  26.160  1.00  0.00     0.251 C 
ATOM     21  H   UNL A   1      40.749  21.264  26.335  1.00  0.00     0.163 HD
ATOM     22  O   UNL A   1      42.814  22.482  25.698  1.00  0.00    -0.269 OA
BRANCH  20  23
ATOM     23  C   UNL A   1      41.776  24.407  26.561  1.00  0.00     0.039 A 
ATOM     24  C   UNL A   1      41.092  25.392  25.847  1.00  0.00     0.014 A 
ATOM     25  C   UNL A   1      42.406  24.713  27.758  1.00  0.00     0.014 A 
ATOM     26  C   UNL A   1      40.993  26.667  26.408  1.00  0.00     0.010 A 
ATOM     27  C   UNL A   1      42.051  25.845  28.424  1.00  0.00     0.010 A 
ATOM     28  C   UNL A   1      41.465  26.876  27.714  1.00  0.00    -0.014 A 
BRANCH  28  29
ATOM     29  C   UNL A   1      41.343  28.151  28.407  1.00  0.00     0.031 A 
ATOM     30  C   UNL A   1      42.430  29.125  28.117  1.00  0.00     0.074 A 
ATOM     31  C   UNL A   1      40.219  28.499  29.078  1.00  0.00     0.049 A 
ATOM     32  N   UNL A   1      43.343  29.553  28.922  1.00  0.00    -0.248 NA
ATOM     33  C   UNL A   1      42.618  29.560  26.722  1.00  0.00     0.031 C 
ATOM     34  C   UNL A   1      38.936  27.785  29.189  1.00  0.00     0.029 A 
ATOM     35  N   UNL A   1      39.959  29.649  29.749  1.00  0.00    -0.354 N 
ATOM     36  C   UNL A   1      44.095  30.478  28.201  1.00  0.00     0.074 A 
ATOM     37  C   UNL A   1      43.720  30.305  26.821  1.00  0.00     0.031 C 
ATOM     38  C   UNL A   1      37.983  28.615  29.668  1.00  0.00     0.029 A 
ATOM     39  C   UNL A   1      38.623  29.844  30.089  1.00  0.00     0.049 A 
ATOM     40  H   UNL A   1      40.663  30.298  29.980  1.00  0.00     0.167 HD
ATOM     41  C   UNL A   1      44.817  31.448  28.827  1.00  0.00     0.037 A 
ATOM     42  C   UNL A   1      38.090  30.946  30.674  1.00  0.00     0.037 A 
ATOM     43  C   UNL A   1      44.965  31.155  30.232  1.00  0.00     0.049 A 
ATOM     44  C   UNL A   1      39.221  31.662  31.323  1.00  0.00     0.074 A 
ATOM     45  C   UNL A   1      45.564  30.129  30.939  1.00  0.00     0.029 A 
ATOM     46  N   UNL A   1      44.086  31.748  31.108  1.00  0.00    -0.354 N 
ATOM     47  N   UNL A   1      39.911  31.170  32.318  1.00  0.00    -0.248 NA
ATOM     48  C   UNL A   1      39.900  32.682  30.538  1.00  0.00     0.031 C 
ATOM     49  C   UNL A   1      44.661  29.846  32.007  1.00  0.00     0.029 A 
ATOM     50  C   UNL A   1      43.612  30.765  31.945  1.00  0.00     0.049 A 
ATOM     51  H   UNL A   1      43.841  32.701  31.132  1.00  0.00     0.167 HD
ATOM     52  C   UNL A   1      41.232  31.502  32.041  1.00  0.00     0.074 A 
ATOM     53  C   UNL A   1      41.152  32.486  30.960  1.00  0.00     0.031 C 
ATOM     54  C   UNL A   1      42.274  30.746  32.503  1.00  0.00     0.037 A 
BRANCH  41  55
ATOM     55  C   UNL A   1      45.125  32.808  28.247  1.00  0.00     0.058 A 
ATOM     56  C   UNL A   1      46.461  33.158  27.959  1.00  0.00     0.135 A 
ATOM     57  C   UNL A   1      44.196  33.872  28.198  1.00  0.00     0.135 A 
ATOM     58  F   UNL A   1      47.432  32.231  27.983  1.00  0.00    -0.206 F 
ATOM     59  C   UNL A   1      46.852  34.473  27.703  1.00  0.00     0.059 A 
ATOM     60  C   UNL A   1      44.556  35.180  27.893  1.00  0.00     0.059 A 
ATOM     61  F   UNL A   1      42.911  33.713  28.535  1.00  0.00    -0.206 F 
ATOM     62  C   UNL A   1      45.892  35.480  27.685  1.00  0.00     0.060 A 
BRANCH  62  63
ATOM     63  S   UNL A   1      46.406  37.190  27.453  1.00  0.00     0.124 S 
ATOM     64  O   UNL A   1      45.180  37.912  27.773  1.00  0.00    -0.237 OA
ATOM     65  O   UNL A   1      47.492  37.314  28.419  1.00  0.00    -0.237 OA
ATOM     66  O   UNL A   1      46.814  37.231  26.051  1.00  0.00    -0.744 OA
ENDBRANCH  62  63
ENDBRANCH  41  55
BRANCH  42  67
ATOM     67  C   UNL A   1      36.787  31.597  30.366  1.00  0.00     0.058 A 
ATOM     68  C   UNL A   1      35.980  32.139  31.381  1.00  0.00     0.135 A 
ATOM     69  C   UNL A   1      36.448  31.958  29.046  1.00  0.00     0.135 A 
ATOM     70  F   UNL A   1      36.243  31.864  32.668  1.00  0.00    -0.206 F 
ATOM     71  C   UNL A   1      34.930  33.027  31.108  1.00  0.00     0.059 A 
ATOM     72  C   UNL A   1      35.405  32.836  28.749  1.00  0.00     0.059 A 
ATOM     73  F   UNL A   1      37.186  31.539  28.006  1.00  0.00    -0.206 F 
ATOM     74  C   UNL A   1      34.665  33.387  29.788  1.00  0.00     0.060 A 
BRANCH  74  75
ATOM     75  S   UNL A   1      33.432  34.669  29.443  1.00  0.00     0.124 S 
ATOM     76  O   UNL A   1      34.244  35.711  28.826  1.00  0.00    -0.237 OA
ATOM     77  O   UNL A   1      32.504  33.974  28.557  1.00  0.00    -0.237 OA
ATOM     78  O   UNL A   1      32.900  34.991  30.765  1.00  0.00    -0.744 OA
ENDBRANCH  74  75
ENDBRANCH  42  67
BRANCH  54  79
ATOM     79  C   UNL A   1      41.983  29.665  33.523  1.00  0.00     0.058 A 
ATOM     80  C   UNL A   1      41.730  28.316  33.214  1.00  0.00     0.135 A 
ATOM     81  C   UNL A   1      42.139  29.981  34.881  1.00  0.00     0.135 A 
ATOM     82  F   UNL A   1      41.663  27.902  31.942  1.00  0.00    -0.206 F 
ATOM     83  C   UNL A   1      41.606  27.336  34.204  1.00  0.00     0.059 A 
ATOM     84  C   UNL A   1      42.050  29.017  35.883  1.00  0.00     0.059 A 
ATOM     85  F   UNL A   1      42.442  31.237  35.247  1.00  0.00    -0.206 F 
ATOM     86  C   UNL A   1      41.770  27.697  35.539  1.00  0.00     0.060 A 
BRANCH  86  87
ATOM     87  S   UNL A   1      41.684  26.422  36.817  1.00  0.00     0.124 S 
ATOM     88  O   UNL A   1      40.471  26.793  37.539  1.00  0.00    -0.237 OA
ATOM     89  O   UNL A   1      41.605  25.191  36.036  1.00  0.00    -0.237 OA
ATOM     90  O   UNL A   1      42.929  26.600  37.562  1.00  0.00    -0.744 OA
ENDBRANCH  86  87
ENDBRANCH  54  79
ENDBRANCH  28  29
ENDBRANCH  20  23
ENDBRANCH   1  19
TORSDOF 15
ENDMDL
MODEL 3
REMARK VINA RESULT:     -10.3      0.775      1.202
REMARK SMILES Cc1cc(C)n([C@@H](C(=O)NCCCNC(=O)c2ccc(-c3c4nc(c(-c5c(F)cc(S(=O)(=O)[O-])cc5F)c5ccc([nH]5)c(-c5c(F)cc(S(=O)(=O)[O-])cc5F)c5nc(c(-c6c(F)cc(S(=O)(=O)[O-])cc6F)c6ccc3[nH]6)C=C5)C=C4)cc2)C(C)C)n1
REMARK SMILES IDX 13 1 12 2 11 3 10 4 8 5 9 6 7 8 6 9 1 10 2 11 3 12 86 13
REMARK SMILES IDX 4 14 5 15 83 16 84 17 85 18 14 19 15 20 16 22 17 23 18 24
REMARK SMILES IDX 82 25 19 26 81 27 20 28 21 29 22 30 75 31 23 32 80 33 74 34
REMARK SMILES IDX 76 35 24 36 79 37 73 38 72 39 25 41 59 42 38 43 58 44 39 45
REMARK SMILES IDX 42 46 57 47 77 48 40 49 41 50 56 52 78 53 43 54 26 55 27 56
REMARK SMILES IDX 36 57 28 58 29 59 35 60 37 61 30 62 31 63 32 64 33 65 34 66
REMARK SMILES IDX 60 67 61 68 70 69 62 70 63 71 69 72 71 73 64 74 65 75 66 76
REMARK SMILES IDX 67 77 68 78 44 79 45 80 54 81 46 82 47 83 53 84 55 85 48 86
REMARK SMILES IDX 49 87 50 88 51 89 52 90
REMARK H PARENT 10 7 14 21 76 40 42 51
REMARK Flexibility Score: inf
ROOT
ATOM      1  C   UNL A   1      43.127  22.849  25.204  1.00  0.00     0.118 C 
ENDROOT
BRANCH   1   2
ATOM      2  C   UNL A   1      44.194  21.818  24.897  1.00  0.00     0.042 C 
BRANCH   2   3
ATOM      3  C   UNL A   1      45.489  22.045  25.684  1.00  0.00     0.117 C 
BRANCH   3   4
ATOM      4  N   UNL A   1      45.263  22.428  27.075  1.00  0.00    -0.354 N 
ATOM      5  C   UNL A   1      45.410  23.650  27.680  1.00  0.00     0.245 C 
ATOM      6  O   UNL A   1      45.188  23.712  28.890  1.00  0.00    -0.273 OA
ATOM      7  H   UNL A   1      44.963  21.701  27.666  1.00  0.00     0.163 HD
BRANCH   5   8
ATOM      8  C   UNL A   1      45.811  24.874  26.853  1.00  0.00     0.199 C 
BRANCH   8   9
ATOM      9  N   UNL A   1      47.260  25.074  26.955  1.00  0.00    -0.257 N 
ATOM     10  C   UNL A   1      50.045  25.165  29.148  1.00  0.00     0.069 C 
ATOM     11  C   UNL A   1      49.114  25.194  27.998  1.00  0.00     0.060 A 
ATOM     12  C   UNL A   1      49.358  25.663  26.693  1.00  0.00     0.048 A 
ATOM     13  N   UNL A   1      47.849  24.788  28.144  1.00  0.00    -0.177 NA
ATOM     14  C   UNL A   1      48.150  25.580  26.034  1.00  0.00     0.037 A 
ATOM     15  C   UNL A   1      47.817  25.982  24.642  1.00  0.00     0.066 C 
ENDBRANCH   8   9
BRANCH   8  16
ATOM     16  C   UNL A   1      44.996  26.161  27.162  1.00  0.00     0.017 C 
ATOM     17  C   UNL A   1      45.904  27.264  27.726  1.00  0.00     0.010 C 
ATOM     18  C   UNL A   1      44.294  26.718  25.914  1.00  0.00     0.010 C 
ENDBRANCH   8  16
ENDBRANCH   5   8
ENDBRANCH   3   4
ENDBRANCH   2   3
ENDBRANCH   1   2
BRANCH   1  19
ATOM     19  N   UNL A   1      41.830  22.269  25.578  1.00  0.00    -0.352 N 
ATOM     20  C   UNL A   1      40.912  22.760  26.501  1.00  0.00     0.251 C 
ATOM     21  H   UNL A   1      41.582  21.434  25.121  1.00  0.00     0.163 HD
ATOM     22  O   UNL A   1      40.045  22.045  26.970  1.00  0.00    -0.269 OA
BRANCH  20  23
ATOM     23  C   UNL A   1      41.023  24.181  26.890  1.00  0.00     0.039 A 
ATOM     24  C   UNL A   1      40.419  25.221  26.180  1.00  0.00     0.014 A 
ATOM     25  C   UNL A   1      41.704  24.437  28.069  1.00  0.00     0.014 A 
ATOM     26  C   UNL A   1      40.451  26.504  26.730  1.00  0.00     0.010 A 
ATOM     27  C   UNL A   1      41.471  25.602  28.732  1.00  0.00     0.010 A 
ATOM     28  C   UNL A   1      40.968  26.679  28.024  1.00  0.00    -0.014 A 
BRANCH  28  29
ATOM     29  C   UNL A   1      40.982  27.965  28.707  1.00  0.00     0.031 A 
ATOM     30  C   UNL A   1      42.091  28.871  28.308  1.00  0.00     0.074 A 
ATOM     31  C   UNL A   1      39.942  28.383  29.469  1.00  0.00     0.049 A 
ATOM     32  N   UNL A   1      43.095  29.254  29.023  1.00  0.00    -0.248 NA
ATOM     33  C   UNL A   1      42.179  29.281  26.896  1.00  0.00     0.031 C 
ATOM     34  C   UNL A   1      38.636  27.745  29.702  1.00  0.00     0.029 A 
ATOM     35  N   UNL A   1      39.809  29.553  30.144  1.00  0.00    -0.354 N 
ATOM     36  C   UNL A   1      43.832  30.126  28.225  1.00  0.00     0.074 A 
ATOM     37  C   UNL A   1      43.327  29.962  26.886  1.00  0.00     0.031 C 
ATOM     38  C   UNL A   1      37.778  28.634  30.252  1.00  0.00     0.029 A 
ATOM     39  C   UNL A   1      38.522  29.827  30.597  1.00  0.00     0.049 A 
ATOM     40  H   UNL A   1      40.566  30.162  30.302  1.00  0.00     0.167 HD
ATOM     41  C   UNL A   1      44.660  31.059  28.771  1.00  0.00     0.037 A 
ATOM     42  C   UNL A   1      38.106  30.963  31.211  1.00  0.00     0.037 A 
ATOM     43  C   UNL A   1      44.915  30.771  30.162  1.00  0.00     0.049 A 
ATOM     44  C   UNL A   1      39.329  31.619  31.747  1.00  0.00     0.074 A 
ATOM     45  C   UNL A   1      45.515  29.719  30.829  1.00  0.00     0.029 A 
ATOM     46  N   UNL A   1      44.153  31.421  31.103  1.00  0.00    -0.354 N 
ATOM     47  N   UNL A   1      40.076  31.097  32.684  1.00  0.00    -0.248 NA
ATOM     48  C   UNL A   1      39.992  32.591  30.891  1.00  0.00     0.031 C 
ATOM     49  C   UNL A   1      44.697  29.498  31.976  1.00  0.00     0.029 A 
ATOM     50  C   UNL A   1      43.700  30.476  31.993  1.00  0.00     0.049 A 
ATOM     51  H   UNL A   1      43.965  32.388  31.135  1.00  0.00     0.167 HD
ATOM     52  C   UNL A   1      41.384  31.349  32.288  1.00  0.00     0.074 A 
ATOM     53  C   UNL A   1      41.264  32.326  31.204  1.00  0.00     0.031 C 
ATOM     54  C   UNL A   1      42.417  30.539  32.667  1.00  0.00     0.037 A 
BRANCH  41  55
ATOM     55  C   UNL A   1      44.992  32.393  28.147  1.00  0.00     0.058 A 
ATOM     56  C   UNL A   1      46.305  32.646  27.698  1.00  0.00     0.135 A 
ATOM     57  C   UNL A   1      44.142  33.521  28.201  1.00  0.00     0.135 A 
ATOM     58  F   UNL A   1      47.203  31.652  27.613  1.00  0.00    -0.206 F 
ATOM     59  C   UNL A   1      46.755  33.931  27.386  1.00  0.00     0.059 A 
ATOM     60  C   UNL A   1      44.554  34.800  27.843  1.00  0.00     0.059 A 
ATOM     61  F   UNL A   1      42.899  33.455  28.691  1.00  0.00    -0.206 F 
ATOM     62  C   UNL A   1      45.874  35.004  27.475  1.00  0.00     0.060 A 
BRANCH  62  63
ATOM     63  S   UNL A   1      46.477  36.673  27.167  1.00  0.00     0.124 S 
ATOM     64  O   UNL A   1      45.306  37.474  27.505  1.00  0.00    -0.237 OA
ATOM     65  O   UNL A   1      47.603  36.762  28.091  1.00  0.00    -0.237 OA
ATOM     66  O   UNL A   1      46.836  36.645  25.752  1.00  0.00    -0.744 OA
ENDBRANCH  62  63
ENDBRANCH  41  55
BRANCH  42  67
ATOM     67  C   UNL A   1      36.820  31.686  31.009  1.00  0.00     0.058 A 
ATOM     68  C   UNL A   1      35.948  31.946  32.081  1.00  0.00     0.135 A 
ATOM     69  C   UNL A   1      36.559  32.389  29.815  1.00  0.00     0.135 A 
ATOM     70  F   UNL A   1      36.135  31.335  33.261  1.00  0.00    -0.206 F 
ATOM     71  C   UNL A   1      34.912  32.884  31.992  1.00  0.00     0.059 A 
ATOM     72  C   UNL A   1      35.531  33.325  29.700  1.00  0.00     0.059 A 
ATOM     73  F   UNL A   1      37.362  32.255  28.747  1.00  0.00    -0.206 F 
ATOM     74  C   UNL A   1      34.724  33.586  30.801  1.00  0.00     0.060 A 
BRANCH  74  75
ATOM     75  S   UNL A   1      33.506  34.925  30.737  1.00  0.00     0.124 S 
ATOM     76  O   UNL A   1      32.734  34.574  29.551  1.00  0.00    -0.237 OA
ATOM     77  O   UNL A   1      32.817  34.776  32.014  1.00  0.00    -0.237 OA
ATOM     78  O   UNL A   1      34.329  36.126  30.614  1.00  0.00    -0.744 OA
ENDBRANCH  74  75
ENDBRANCH  42  67
BRANCH  54  79
ATOM     79  C   UNL A   1      42.158  29.487  33.724  1.00  0.00     0.058 A 
ATOM     80  C   UNL A   1      41.643  28.201  33.469  1.00  0.00     0.135 A 
ATOM     81  C   UNL A   1      42.612  29.735  35.028  1.00  0.00     0.135 A 
ATOM     82  F   UNL A   1      41.277  27.840  32.232  1.00  0.00    -0.206 F 
ATOM     83  C   UNL A   1      41.555  27.224  34.465  1.00  0.00     0.059 A 
ATOM     84  C   UNL A   1      42.562  28.767  36.029  1.00  0.00     0.059 A 
ATOM     85  F   UNL A   1      43.170  30.919  35.329  1.00  0.00    -0.206 F 
ATOM     86  C   UNL A   1      42.021  27.516  35.744  1.00  0.00     0.060 A 
BRANCH  86  87
ATOM     87  S   UNL A   1      41.977  26.234  37.017  1.00  0.00     0.124 S 
ATOM     88  O   UNL A   1      42.373  25.045  36.269  1.00  0.00    -0.237 OA
ATOM     89  O   UNL A   1      42.947  26.720  37.994  1.00  0.00    -0.237 OA
ATOM     90  O   UNL A   1      40.587  26.249  37.470  1.00  0.00    -0.744 OA
ENDBRANCH  86  87
ENDBRANCH  54  79
ENDBRANCH  28  29
ENDBRANCH  20  23
ENDBRANCH   1  19
TORSDOF 15
ENDMDL
