MODEL 1
REMARK VINA RESULT:     -11.6      0.000      0.000
REMARK SMILES C[C@H]1OCC[C@H]1c1nnnn1CCC(=O)NCCCNC(=O)c1ccc(-c2c3nc(c(-c4c(F)cc(S(=O)(=O)[O-])cc4F)c4ccc([nH]4)c(-c4c(F)cc(S(=O)(=O)[O-])cc4F)c4nc(c(-c5c(F)cc(S(=O)(=O)[O-])cc5F)c5ccc2[nH]5)C=C4)C=C3)cc1
REMARK SMILES IDX 18 1 17 2 16 3 14 4 15 5 13 7 12 8 11 9 7 10 8 11 9 12 10 13
REMARK SMILES IDX 6 14 1 15 2 16 3 17 4 18 5 19 19 20 20 21 21 22 22 24 23 25
REMARK SMILES IDX 24 26 88 27 25 28 87 29 26 30 27 31 28 32 81 33 29 34 86 35
REMARK SMILES IDX 80 36 82 37 30 38 85 39 79 40 78 41 31 43 65 44 44 45 64 46
REMARK SMILES IDX 45 47 48 48 63 49 83 50 46 51 47 52 62 54 84 55 49 56 32 57
REMARK SMILES IDX 33 58 42 59 34 60 35 61 41 62 43 63 36 64 37 65 38 66 39 67
REMARK SMILES IDX 40 68 66 69 67 70 76 71 68 72 69 73 75 74 77 75 70 76 71 77
REMARK SMILES IDX 72 78 73 79 74 80 50 81 51 82 60 83 52 84 53 85 59 86 61 87
REMARK SMILES IDX 54 88 55 89 56 90 57 91 58 92
REMARK H PARENT 16 6 20 23 82 42 48 53
REMARK Flexibility Score: inf
ROOT
ATOM      1  C   UNL A   1      39.091  21.653  26.055  1.00  0.00     0.042 C 
ENDROOT
BRANCH   1   2
ATOM      2  C   UNL A   1      37.798  22.430  25.846  1.00  0.00     0.117 C 
BRANCH   2   3
ATOM      3  N   UNL A   1      37.484  22.570  24.426  1.00  0.00    -0.356 N 
ATOM      4  C   UNL A   1      36.455  23.228  23.821  1.00  0.00     0.221 C 
ATOM      5  O   UNL A   1      36.293  23.109  22.608  1.00  0.00    -0.275 OA
ATOM      6  H   UNL A   1      38.110  22.120  23.814  1.00  0.00     0.163 HD
BRANCH   4   7
ATOM      7  C   UNL A   1      35.561  24.141  24.625  1.00  0.00     0.124 C 
BRANCH   7   8
ATOM      8  C   UNL A   1      34.205  24.385  23.976  1.00  0.00     0.158 C 
BRANCH   8   9
ATOM      9  N   UNL A   1      33.080  23.739  24.611  1.00  0.00    -0.229 N 
ATOM     10  C   UNL A   1      32.639  22.436  24.555  1.00  0.00     0.157 A 
ATOM     11  N   UNL A   1      31.530  22.363  25.265  1.00  0.00    -0.113 NA
ATOM     12  N   UNL A   1      31.418  23.558  25.923  1.00  0.00    -0.024 NA
ATOM     13  N   UNL A   1      32.396  24.382  25.574  1.00  0.00    -0.045 NA
BRANCH  10  14
ATOM     14  C   UNL A   1      33.400  21.282  23.991  1.00  0.00     0.090 C 
ATOM     15  C   UNL A   1      34.461  21.220  26.403  1.00  0.00     0.039 C 
ATOM     16  C   UNL A   1      34.199  20.516  25.075  1.00  0.00     0.126 C 
ATOM     17  O   UNL A   1      33.487  19.295  25.368  1.00  0.00    -0.378 OA
ATOM     18  C   UNL A   1      32.225  19.345  24.695  1.00  0.00     0.161 C 
ATOM     19  C   UNL A   1      32.480  20.183  23.461  1.00  0.00     0.043 C 
ENDBRANCH  10  14
ENDBRANCH   8   9
ENDBRANCH   7   8
ENDBRANCH   4   7
ENDBRANCH   2   3
ENDBRANCH   1   2
BRANCH   1  20
ATOM     20  C   UNL A   1      40.131  22.406  26.841  1.00  0.00     0.118 C 
BRANCH  20  21
ATOM     21  N   UNL A   1      41.503  22.257  26.362  1.00  0.00    -0.352 N 
ATOM     22  C   UNL A   1      42.403  23.272  26.024  1.00  0.00     0.251 C 
ATOM     23  H   UNL A   1      41.833  21.334  26.265  1.00  0.00     0.163 HD
ATOM     24  O   UNL A   1      43.399  23.022  25.372  1.00  0.00    -0.269 OA
BRANCH  22  25
ATOM     25  C   UNL A   1      42.107  24.658  26.467  1.00  0.00     0.039 A 
ATOM     26  C   UNL A   1      41.241  25.536  25.812  1.00  0.00     0.014 A 
ATOM     27  C   UNL A   1      42.679  25.058  27.654  1.00  0.00     0.014 A 
ATOM     28  C   UNL A   1      41.017  26.788  26.396  1.00  0.00     0.010 A 
ATOM     29  C   UNL A   1      42.004  25.954  28.409  1.00  0.00     0.010 A 
ATOM     30  C   UNL A   1      41.456  26.993  27.710  1.00  0.00    -0.014 A 
BRANCH  30  31
ATOM     31  C   UNL A   1      41.327  28.225  28.469  1.00  0.00     0.031 A 
ATOM     32  C   UNL A   1      42.416  29.179  28.194  1.00  0.00     0.074 A 
ATOM     33  C   UNL A   1      40.195  28.572  29.134  1.00  0.00     0.049 A 
ATOM     34  N   UNL A   1      43.441  29.421  28.936  1.00  0.00    -0.248 NA
ATOM     35  C   UNL A   1      42.503  29.757  26.844  1.00  0.00     0.031 C 
ATOM     36  C   UNL A   1      38.893  27.885  29.192  1.00  0.00     0.029 A 
ATOM     37  N   UNL A   1      39.948  29.698  29.858  1.00  0.00    -0.354 N 
ATOM     38  C   UNL A   1      44.156  30.400  28.262  1.00  0.00     0.074 A 
ATOM     39  C   UNL A   1      43.688  30.368  26.902  1.00  0.00     0.031 C 
ATOM     40  C   UNL A   1      37.955  28.709  29.714  1.00  0.00     0.029 A 
ATOM     41  C   UNL A   1      38.608  29.914  30.185  1.00  0.00     0.049 A 
ATOM     42  H   UNL A   1      40.663  30.317  30.131  1.00  0.00     0.167 HD
ATOM     43  C   UNL A   1      44.857  31.345  28.948  1.00  0.00     0.037 A 
ATOM     44  C   UNL A   1      38.093  31.023  30.781  1.00  0.00     0.037 A 
ATOM     45  C   UNL A   1      44.973  30.985  30.342  1.00  0.00     0.049 A 
ATOM     46  C   UNL A   1      39.236  31.708  31.450  1.00  0.00     0.074 A 
ATOM     47  C   UNL A   1      45.502  29.902  31.019  1.00  0.00     0.029 A 
ATOM     48  N   UNL A   1      44.106  31.591  31.223  1.00  0.00    -0.354 N 
ATOM     49  N   UNL A   1      39.908  31.185  32.443  1.00  0.00    -0.248 NA
ATOM     50  C   UNL A   1      39.950  32.715  30.679  1.00  0.00     0.031 C 
ATOM     51  C   UNL A   1      44.569  29.631  32.063  1.00  0.00     0.029 A 
ATOM     52  C   UNL A   1      43.579  30.615  32.031  1.00  0.00     0.049 A 
ATOM     53  H   UNL A   1      43.900  32.553  31.265  1.00  0.00     0.167 HD
ATOM     54  C   UNL A   1      41.240  31.472  32.167  1.00  0.00     0.074 A 
ATOM     55  C   UNL A   1      41.196  32.467  31.095  1.00  0.00     0.031 C 
ATOM     56  C   UNL A   1      42.251  30.667  32.612  1.00  0.00     0.037 A 
BRANCH  43  57
ATOM     57  C   UNL A   1      45.092  32.752  28.464  1.00  0.00     0.058 A 
ATOM     58  C   UNL A   1      46.418  33.214  28.336  1.00  0.00     0.135 A 
ATOM     59  C   UNL A   1      44.090  33.745  28.381  1.00  0.00     0.135 A 
ATOM     60  F   UNL A   1      47.449  32.358  28.406  1.00  0.00    -0.206 F 
ATOM     61  C   UNL A   1      46.726  34.568  28.209  1.00  0.00     0.059 A 
ATOM     62  C   UNL A   1      44.373  35.092  28.197  1.00  0.00     0.059 A 
ATOM     63  F   UNL A   1      42.794  33.478  28.574  1.00  0.00    -0.206 F 
ATOM     64  C   UNL A   1      45.695  35.500  28.155  1.00  0.00     0.060 A 
BRANCH  64  65
ATOM     65  S   UNL A   1      46.092  37.253  28.090  1.00  0.00     0.124 S 
ATOM     66  O   UNL A   1      45.837  37.660  29.467  1.00  0.00    -0.237 OA
ATOM     67  O   UNL A   1      47.492  37.229  27.679  1.00  0.00    -0.237 OA
ATOM     68  O   UNL A   1      45.161  37.774  27.094  1.00  0.00    -0.744 OA
ENDBRANCH  64  65
ENDBRANCH  43  57
BRANCH  44  69
ATOM     69  C   UNL A   1      36.808  31.715  30.461  1.00  0.00     0.058 A 
ATOM     70  C   UNL A   1      35.919  32.142  31.465  1.00  0.00     0.135 A 
ATOM     71  C   UNL A   1      36.560  32.220  29.168  1.00  0.00     0.135 A 
ATOM     72  F   UNL A   1      36.090  31.734  32.732  1.00  0.00    -0.206 F 
ATOM     73  C   UNL A   1      34.872  33.042  31.210  1.00  0.00     0.059 A 
ATOM     74  C   UNL A   1      35.523  33.114  28.889  1.00  0.00     0.059 A 
ATOM     75  F   UNL A   1      37.379  31.927  28.145  1.00  0.00    -0.206 F 
ATOM     76  C   UNL A   1      34.694  33.537  29.919  1.00  0.00     0.060 A 
BRANCH  76  77
ATOM     77  S   UNL A   1      33.443  34.812  29.610  1.00  0.00     0.124 S 
ATOM     78  O   UNL A   1      32.919  35.054  30.950  1.00  0.00    -0.237 OA
ATOM     79  O   UNL A   1      34.237  35.892  29.034  1.00  0.00    -0.237 OA
ATOM     80  O   UNL A   1      32.516  34.164  28.687  1.00  0.00    -0.744 OA
ENDBRANCH  76  77
ENDBRANCH  44  69
BRANCH  56  81
ATOM     81  C   UNL A   1      41.940  29.608  33.643  1.00  0.00     0.058 A 
ATOM     82  C   UNL A   1      41.595  28.275  33.351  1.00  0.00     0.135 A 
ATOM     83  C   UNL A   1      42.207  29.917  34.985  1.00  0.00     0.135 A 
ATOM     84  F   UNL A   1      41.409  27.873  32.087  1.00  0.00    -0.206 F 
ATOM     85  C   UNL A   1      41.507  27.301  34.351  1.00  0.00     0.059 A 
ATOM     86  C   UNL A   1      42.154  28.957  35.992  1.00  0.00     0.059 A 
ATOM     87  F   UNL A   1      42.598  31.156  35.323  1.00  0.00    -0.206 F 
ATOM     88  C   UNL A   1      41.796  27.650  35.670  1.00  0.00     0.060 A 
BRANCH  88  89
ATOM     89  S   UNL A   1      41.777  26.377  36.953  1.00  0.00     0.124 S 
ATOM     90  O   UNL A   1      40.510  26.637  37.625  1.00  0.00    -0.237 OA
ATOM     91  O   UNL A   1      41.841  25.142  36.176  1.00  0.00    -0.237 OA
ATOM     92  O   UNL A   1      42.973  26.669  37.740  1.00  0.00    -0.744 OA
ENDBRANCH  88  89
ENDBRANCH  56  81
ENDBRANCH  30  31
ENDBRANCH  22  25
ENDBRANCH  20  21
ENDBRANCH   1  20
TORSDOF 16
ENDMDL
MODEL 2
REMARK VINA RESULT:     -11.5      2.042      3.038
REMARK SMILES C[C@H]1OCC[C@H]1c1nnnn1CCC(=O)NCCCNC(=O)c1ccc(-c2c3nc(c(-c4c(F)cc(S(=O)(=O)[O-])cc4F)c4ccc([nH]4)c(-c4c(F)cc(S(=O)(=O)[O-])cc4F)c4nc(c(-c5c(F)cc(S(=O)(=O)[O-])cc5F)c5ccc2[nH]5)C=C4)C=C3)cc1
REMARK SMILES IDX 18 1 17 2 16 3 14 4 15 5 13 7 12 8 11 9 7 10 8 11 9 12 10 13
REMARK SMILES IDX 6 14 1 15 2 16 3 17 4 18 5 19 19 20 20 21 21 22 22 24 23 25
REMARK SMILES IDX 24 26 88 27 25 28 87 29 26 30 27 31 28 32 81 33 29 34 86 35
REMARK SMILES IDX 80 36 82 37 30 38 85 39 79 40 78 41 31 43 65 44 44 45 64 46
REMARK SMILES IDX 45 47 48 48 63 49 83 50 46 51 47 52 62 54 84 55 49 56 32 57
REMARK SMILES IDX 33 58 42 59 34 60 35 61 41 62 43 63 36 64 37 65 38 66 39 67
REMARK SMILES IDX 40 68 66 69 67 70 76 71 68 72 69 73 75 74 77 75 70 76 71 77
REMARK SMILES IDX 72 78 73 79 74 80 50 81 51 82 60 83 52 84 53 85 59 86 61 87
REMARK SMILES IDX 54 88 55 89 56 90 57 91 58 92
REMARK H PARENT 16 6 20 23 82 42 48 53
REMARK Flexibility Score: inf
ROOT
ATOM      1  C   UNL A   1      36.994  22.422  24.414  1.00  0.00     0.042 C 
ENDROOT
BRANCH   1   2
ATOM      2  C   UNL A   1      35.791  23.269  24.022  1.00  0.00     0.117 C 
BRANCH   2   3
ATOM      3  N   UNL A   1      34.598  22.448  23.835  1.00  0.00    -0.356 N 
ATOM      4  C   UNL A   1      33.810  21.831  24.760  1.00  0.00     0.221 C 
ATOM      5  O   UNL A   1      32.922  21.067  24.384  1.00  0.00    -0.275 OA
ATOM      6  H   UNL A   1      34.322  22.319  22.898  1.00  0.00     0.163 HD
BRANCH   4   7
ATOM      7  C   UNL A   1      33.987  22.131  26.229  1.00  0.00     0.124 C 
BRANCH   7   8
ATOM      8  C   UNL A   1      33.600  23.555  26.607  1.00  0.00     0.158 C 
BRANCH   8   9
ATOM      9  N   UNL A   1      32.183  23.813  26.711  1.00  0.00    -0.229 N 
ATOM     10  C   UNL A   1      31.397  24.779  26.123  1.00  0.00     0.157 A 
ATOM     11  N   UNL A   1      30.171  24.627  26.588  1.00  0.00    -0.113 NA
ATOM     12  N   UNL A   1      30.169  23.447  27.281  1.00  0.00    -0.024 NA
ATOM     13  N   UNL A   1      31.382  22.913  27.309  1.00  0.00    -0.045 NA
BRANCH  10  14
ATOM     14  C   UNL A   1      31.808  25.673  25.001  1.00  0.00     0.090 C 
ATOM     15  C   UNL A   1      30.814  23.733  23.520  1.00  0.00     0.039 C 
ATOM     16  C   UNL A   1      31.276  25.183  23.631  1.00  0.00     0.126 C 
ATOM     17  O   UNL A   1      30.160  26.021  23.265  1.00  0.00    -0.378 OA
ATOM     18  C   UNL A   1      29.845  26.855  24.383  1.00  0.00     0.161 C 
ATOM     19  C   UNL A   1      31.166  27.056  25.095  1.00  0.00     0.043 C 
ENDBRANCH  10  14
ENDBRANCH   8   9
ENDBRANCH   7   8
ENDBRANCH   4   7
ENDBRANCH   2   3
ENDBRANCH   1   2
BRANCH   1  20
ATOM     20  C   UNL A   1      37.581  22.787  25.752  1.00  0.00     0.118 C 
BRANCH  20  21
ATOM     21  N   UNL A   1      38.708  21.962  26.182  1.00  0.00    -0.352 N 
ATOM     22  C   UNL A   1      39.931  22.396  26.705  1.00  0.00     0.251 C 
ATOM     23  H   UNL A   1      38.595  20.988  26.094  1.00  0.00     0.163 HD
ATOM     24  O   UNL A   1      40.884  21.641  26.753  1.00  0.00    -0.269 OA
BRANCH  22  25
ATOM     25  C   UNL A   1      40.039  23.797  27.184  1.00  0.00     0.039 A 
ATOM     26  C   UNL A   1      38.979  24.704  27.240  1.00  0.00     0.014 A 
ATOM     27  C   UNL A   1      41.267  24.184  27.677  1.00  0.00     0.014 A 
ATOM     28  C   UNL A   1      39.232  25.969  27.782  1.00  0.00     0.010 A 
ATOM     29  C   UNL A   1      41.287  25.114  28.657  1.00  0.00     0.010 A 
ATOM     30  C   UNL A   1      40.439  26.168  28.464  1.00  0.00    -0.014 A 
BRANCH  30  31
ATOM     31  C   UNL A   1      40.878  27.412  29.074  1.00  0.00     0.031 A 
ATOM     32  C   UNL A   1      42.014  28.024  28.362  1.00  0.00     0.074 A 
ATOM     33  C   UNL A   1      40.155  28.074  30.013  1.00  0.00     0.049 A 
ATOM     34  N   UNL A   1      43.252  28.001  28.713  1.00  0.00    -0.248 NA
ATOM     35  C   UNL A   1      41.786  28.515  26.993  1.00  0.00     0.031 C 
ATOM     36  C   UNL A   1      38.819  27.770  30.555  1.00  0.00     0.029 A 
ATOM     37  N   UNL A   1      40.448  29.247  30.639  1.00  0.00    -0.354 N 
ATOM     38  C   UNL A   1      43.921  28.727  27.738  1.00  0.00     0.074 A 
ATOM     39  C   UNL A   1      43.036  28.782  26.606  1.00  0.00     0.031 C 
ATOM     40  C   UNL A   1      38.342  28.834  31.242  1.00  0.00     0.029 A 
ATOM     41  C   UNL A   1      39.390  29.829  31.339  1.00  0.00     0.049 A 
ATOM     42  H   UNL A   1      41.342  29.656  30.599  1.00  0.00     0.167 HD
ATOM     43  C   UNL A   1      45.021  29.466  28.054  1.00  0.00     0.037 A 
ATOM     44  C   UNL A   1      39.393  31.055  31.931  1.00  0.00     0.037 A 
ATOM     45  C   UNL A   1      45.501  29.131  29.375  1.00  0.00     0.049 A 
ATOM     46  C   UNL A   1      40.825  31.422  32.124  1.00  0.00     0.074 A 
ATOM     47  C   UNL A   1      45.939  27.966  29.976  1.00  0.00     0.029 A 
ATOM     48  N   UNL A   1      45.154  29.977  30.404  1.00  0.00    -0.354 N 
ATOM     49  N   UNL A   1      41.638  30.767  32.912  1.00  0.00    -0.248 NA
ATOM     50  C   UNL A   1      41.468  32.172  31.054  1.00  0.00     0.031 C 
ATOM     51  C   UNL A   1      45.371  27.992  31.283  1.00  0.00     0.029 A 
ATOM     52  C   UNL A   1      44.702  29.207  31.446  1.00  0.00     0.049 A 
ATOM     53  H   UNL A   1      45.218  30.960  30.393  1.00  0.00     0.167 HD
ATOM     54  C   UNL A   1      42.830  30.672  32.202  1.00  0.00     0.074 A 
ATOM     55  C   UNL A   1      42.680  31.608  31.087  1.00  0.00     0.031 C 
ATOM     56  C   UNL A   1      43.699  29.636  32.401  1.00  0.00     0.037 A 
BRANCH  43  57
ATOM     57  C   UNL A   1      45.422  30.741  27.358  1.00  0.00     0.058 A 
ATOM     58  C   UNL A   1      46.750  30.880  26.908  1.00  0.00     0.135 A 
ATOM     59  C   UNL A   1      44.648  31.924  27.353  1.00  0.00     0.135 A 
ATOM     60  F   UNL A   1      47.576  29.822  26.877  1.00  0.00    -0.206 F 
ATOM     61  C   UNL A   1      47.290  32.115  26.551  1.00  0.00     0.059 A 
ATOM     62  C   UNL A   1      45.150  33.153  26.945  1.00  0.00     0.059 A 
ATOM     63  F   UNL A   1      43.402  31.972  27.834  1.00  0.00    -0.206 F 
ATOM     64  C   UNL A   1      46.483  33.248  26.586  1.00  0.00     0.060 A 
BRANCH  64  65
ATOM     65  S   UNL A   1      47.203  34.856  26.221  1.00  0.00     0.124 S 
ATOM     66  O   UNL A   1      46.010  35.667  26.009  1.00  0.00    -0.237 OA
ATOM     67  O   UNL A   1      47.956  35.131  27.440  1.00  0.00    -0.237 OA
ATOM     68  O   UNL A   1      48.014  34.600  25.034  1.00  0.00    -0.744 OA
ENDBRANCH  64  65
ENDBRANCH  43  57
BRANCH  44  69
ATOM     69  C   UNL A   1      38.289  32.060  31.948  1.00  0.00     0.058 A 
ATOM     70  C   UNL A   1      37.808  32.662  30.770  1.00  0.00     0.135 A 
ATOM     71  C   UNL A   1      37.493  32.242  33.098  1.00  0.00     0.135 A 
ATOM     72  F   UNL A   1      38.484  32.522  29.619  1.00  0.00    -0.206 F 
ATOM     73  C   UNL A   1      36.596  33.369  30.727  1.00  0.00     0.059 A 
ATOM     74  C   UNL A   1      36.285  32.943  33.082  1.00  0.00     0.059 A 
ATOM     75  F   UNL A   1      37.825  31.664  34.263  1.00  0.00    -0.206 F 
ATOM     76  C   UNL A   1      35.831  33.488  31.888  1.00  0.00     0.060 A 
BRANCH  76  77
ATOM     77  S   UNL A   1      34.196  34.266  31.811  1.00  0.00     0.124 S 
ATOM     78  O   UNL A   1      33.455  33.515  32.818  1.00  0.00    -0.237 OA
ATOM     79  O   UNL A   1      34.497  35.654  32.147  1.00  0.00    -0.237 OA
ATOM     80  O   UNL A   1      33.774  34.040  30.431  1.00  0.00    -0.744 OA
ENDBRANCH  76  77
ENDBRANCH  44  69
BRANCH  56  81
ATOM     81  C   UNL A   1      43.497  28.734  33.596  1.00  0.00     0.058 A 
ATOM     82  C   UNL A   1      43.915  29.028  34.907  1.00  0.00     0.135 A 
ATOM     83  C   UNL A   1      42.663  27.619  33.428  1.00  0.00     0.135 A 
ATOM     84  F   UNL A   1      44.640  30.123  35.170  1.00  0.00    -0.206 F 
ATOM     85  C   UNL A   1      43.530  28.241  35.997  1.00  0.00     0.059 A 
ATOM     86  C   UNL A   1      42.245  26.838  34.502  1.00  0.00     0.059 A 
ATOM     87  F   UNL A   1      42.183  27.318  32.211  1.00  0.00    -0.206 F 
ATOM     88  C   UNL A   1      42.687  27.150  35.785  1.00  0.00     0.060 A 
BRANCH  88  89
ATOM     89  S   UNL A   1      42.109  26.184  37.199  1.00  0.00     0.124 S 
ATOM     90  O   UNL A   1      40.759  26.702  37.394  1.00  0.00    -0.237 OA
ATOM     91  O   UNL A   1      42.195  24.812  36.704  1.00  0.00    -0.237 OA
ATOM     92  O   UNL A   1      43.064  26.516  38.254  1.00  0.00    -0.744 OA
ENDBRANCH  88  89
ENDBRANCH  56  81
ENDBRANCH  30  31
ENDBRANCH  22  25
ENDBRANCH  20  21
ENDBRANCH   1  20
TORSDOF 16
ENDMDL
MODEL 3
REMARK VINA RESULT:     -11.5      1.618      2.619
REMARK SMILES C[C@H]1OCC[C@H]1c1nnnn1CCC(=O)NCCCNC(=O)c1ccc(-c2c3nc(c(-c4c(F)cc(S(=O)(=O)[O-])cc4F)c4ccc([nH]4)c(-c4c(F)cc(S(=O)(=O)[O-])cc4F)c4nc(c(-c5c(F)cc(S(=O)(=O)[O-])cc5F)c5ccc2[nH]5)C=C4)C=C3)cc1
REMARK SMILES IDX 18 1 17 2 16 3 14 4 15 5 13 7 12 8 11 9 7 10 8 11 9 12 10 13
REMARK SMILES IDX 6 14 1 15 2 16 3 17 4 18 5 19 19 20 20 21 21 22 22 24 23 25
REMARK SMILES IDX 24 26 88 27 25 28 87 29 26 30 27 31 28 32 81 33 29 34 86 35
REMARK SMILES IDX 80 36 82 37 30 38 85 39 79 40 78 41 31 43 65 44 44 45 64 46
REMARK SMILES IDX 45 47 48 48 63 49 83 50 46 51 47 52 62 54 84 55 49 56 32 57
REMARK SMILES IDX 33 58 42 59 34 60 35 61 41 62 43 63 36 64 37 65 38 66 39 67
REMARK SMILES IDX 40 68 66 69 67 70 76 71 68 72 69 73 75 74 77 75 70 76 71 77
REMARK SMILES IDX 72 78 73 79 74 80 50 81 51 82 60 83 52 84 53 85 59 86 61 87
REMARK SMILES IDX 54 88 55 89 56 90 57 91 58 92
REMARK H PARENT 16 6 20 23 82 42 48 53
REMARK Flexibility Score: inf
ROOT
ATOM      1  C   UNL A   1      38.988  21.643  26.017  1.00  0.00     0.042 C 
ENDROOT
BRANCH   1   2
ATOM      2  C   UNL A   1      37.785  22.231  25.291  1.00  0.00     0.117 C 
BRANCH   2   3
ATOM      3  N   UNL A   1      36.640  22.375  26.186  1.00  0.00    -0.356 N 
ATOM      4  C   UNL A   1      35.461  23.032  25.995  1.00  0.00     0.221 C 
ATOM      5  O   UNL A   1      34.676  23.147  26.935  1.00  0.00    -0.275 OA
ATOM      6  H   UNL A   1      36.734  21.930  27.059  1.00  0.00     0.163 HD
BRANCH   4   7
ATOM      7  C   UNL A   1      35.098  23.559  24.628  1.00  0.00     0.124 C 
BRANCH   7   8
ATOM      8  C   UNL A   1      33.615  23.864  24.471  1.00  0.00     0.158 C 
BRANCH   8   9
ATOM      9  N   UNL A   1      33.276  24.812  23.435  1.00  0.00    -0.229 N 
ATOM     10  C   UNL A   1      32.281  25.763  23.373  1.00  0.00     0.157 A 
ATOM     11  N   UNL A   1      32.354  26.333  22.186  1.00  0.00    -0.113 NA
ATOM     12  N   UNL A   1      33.515  25.887  21.617  1.00  0.00    -0.024 NA
ATOM     13  N   UNL A   1      34.116  25.002  22.402  1.00  0.00    -0.045 NA
BRANCH  10  14
ATOM     14  C   UNL A   1      31.437  26.216  24.518  1.00  0.00     0.090 C 
ATOM     15  C   UNL A   1      33.593  27.598  25.139  1.00  0.00     0.039 C 
ATOM     16  C   UNL A   1      32.095  27.371  25.315  1.00  0.00     0.126 C 
ATOM     17  O   UNL A   1      31.427  28.597  24.949  1.00  0.00    -0.378 OA
ATOM     18  C   UNL A   1      30.549  28.315  23.855  1.00  0.00     0.161 C 
ATOM     19  C   UNL A   1      30.137  26.872  24.056  1.00  0.00     0.043 C 
ENDBRANCH  10  14
ENDBRANCH   8   9
ENDBRANCH   7   8
ENDBRANCH   4   7
ENDBRANCH   2   3
ENDBRANCH   1   2
BRANCH   1  20
ATOM     20  C   UNL A   1      39.938  22.680  26.554  1.00  0.00     0.118 C 
BRANCH  20  21
ATOM     21  N   UNL A   1      41.340  22.489  26.188  1.00  0.00    -0.352 N 
ATOM     22  C   UNL A   1      42.317  23.473  26.010  1.00  0.00     0.251 C 
ATOM     23  H   UNL A   1      41.631  21.558  26.050  1.00  0.00     0.163 HD
ATOM     24  O   UNL A   1      43.356  23.215  25.432  1.00  0.00    -0.269 OA
BRANCH  22  25
ATOM     25  C   UNL A   1      42.050  24.838  26.531  1.00  0.00     0.039 A 
ATOM     26  C   UNL A   1      41.267  25.797  25.887  1.00  0.00     0.014 A 
ATOM     27  C   UNL A   1      42.559  25.129  27.778  1.00  0.00     0.014 A 
ATOM     28  C   UNL A   1      41.056  27.015  26.544  1.00  0.00     0.010 A 
ATOM     29  C   UNL A   1      41.874  26.002  28.550  1.00  0.00     0.010 A 
ATOM     30  C   UNL A   1      41.416  27.110  27.894  1.00  0.00    -0.014 A 
BRANCH  30  31
ATOM     31  C   UNL A   1      41.289  28.292  28.729  1.00  0.00     0.031 A 
ATOM     32  C   UNL A   1      42.400  29.242  28.542  1.00  0.00     0.074 A 
ATOM     33  C   UNL A   1      40.147  28.615  29.389  1.00  0.00     0.049 A 
ATOM     34  N   UNL A   1      43.409  29.417  29.322  1.00  0.00    -0.248 NA
ATOM     35  C   UNL A   1      42.528  29.906  27.235  1.00  0.00     0.031 C 
ATOM     36  C   UNL A   1      38.833  27.949  29.371  1.00  0.00     0.029 A 
ATOM     37  N   UNL A   1      39.900  29.696  30.178  1.00  0.00    -0.354 N 
ATOM     38  C   UNL A   1      44.157  30.426  28.729  1.00  0.00     0.074 A 
ATOM     39  C   UNL A   1      43.722  30.491  27.360  1.00  0.00     0.031 C 
ATOM     40  C   UNL A   1      37.896  28.754  29.924  1.00  0.00     0.029 A 
ATOM     41  C   UNL A   1      38.557  29.914  30.488  1.00  0.00     0.049 A 
ATOM     42  H   UNL A   1      40.619  30.283  30.508  1.00  0.00     0.167 HD
ATOM     43  C   UNL A   1      44.856  31.311  29.492  1.00  0.00     0.037 A 
ATOM     44  C   UNL A   1      38.045  30.991  31.143  1.00  0.00     0.037 A 
ATOM     45  C   UNL A   1      44.933  30.859  30.862  1.00  0.00     0.049 A 
ATOM     46  C   UNL A   1      39.182  31.610  31.882  1.00  0.00     0.074 A 
ATOM     47  C   UNL A   1      45.427  29.725  31.478  1.00  0.00     0.029 A 
ATOM     48  N   UNL A   1      44.055  31.422  31.761  1.00  0.00    -0.354 N 
ATOM     49  N   UNL A   1      39.822  31.012  32.854  1.00  0.00    -0.248 NA
ATOM     50  C   UNL A   1      39.932  32.652  31.195  1.00  0.00     0.031 C 
ATOM     51  C   UNL A   1      44.465  29.404  32.481  1.00  0.00     0.029 A 
ATOM     52  C   UNL A   1      43.492  30.405  32.491  1.00  0.00     0.049 A 
ATOM     53  H   UNL A   1      43.863  32.383  31.860  1.00  0.00     0.167 HD
ATOM     54  C   UNL A   1      41.165  31.292  32.628  1.00  0.00     0.074 A 
ATOM     55  C   UNL A   1      41.163  32.356  31.623  1.00  0.00     0.031 C 
ATOM     56  C   UNL A   1      42.151  30.443  33.042  1.00  0.00     0.037 A 
BRANCH  43  57
ATOM     57  C   UNL A   1      45.126  32.743  29.107  1.00  0.00     0.058 A 
ATOM     58  C   UNL A   1      44.032  33.594  28.846  1.00  0.00     0.135 A 
ATOM     59  C   UNL A   1      46.391  33.241  28.723  1.00  0.00     0.135 A 
ATOM     60  F   UNL A   1      42.783  33.218  29.164  1.00  0.00    -0.206 F 
ATOM     61  C   UNL A   1      44.178  34.813  28.187  1.00  0.00     0.059 A 
ATOM     62  C   UNL A   1      46.565  34.479  28.118  1.00  0.00     0.059 A 
ATOM     63  F   UNL A   1      47.511  32.517  28.822  1.00  0.00    -0.206 F 
ATOM     64  C   UNL A   1      45.449  35.240  27.815  1.00  0.00     0.060 A 
BRANCH  64  65
ATOM     65  S   UNL A   1      45.629  36.765  26.878  1.00  0.00     0.124 S 
ATOM     66  O   UNL A   1      44.237  37.107  26.610  1.00  0.00    -0.237 OA
ATOM     67  O   UNL A   1      46.327  37.622  27.831  1.00  0.00    -0.237 OA
ATOM     68  O   UNL A   1      46.416  36.357  25.718  1.00  0.00    -0.744 OA
ENDBRANCH  64  65
ENDBRANCH  43  57
BRANCH  44  69
ATOM     69  C   UNL A   1      36.780  31.724  30.840  1.00  0.00     0.058 A 
ATOM     70  C   UNL A   1      35.864  32.083  31.847  1.00  0.00     0.135 A 
ATOM     71  C   UNL A   1      36.580  32.334  29.584  1.00  0.00     0.135 A 
ATOM     72  F   UNL A   1      35.990  31.573  33.082  1.00  0.00    -0.206 F 
ATOM     73  C   UNL A   1      34.837  33.015  31.632  1.00  0.00     0.059 A 
ATOM     74  C   UNL A   1      35.564  33.263  29.345  1.00  0.00     0.059 A 
ATOM     75  F   UNL A   1      37.427  32.111  28.568  1.00  0.00    -0.206 F 
ATOM     76  C   UNL A   1      34.706  33.615  30.380  1.00  0.00     0.060 A 
BRANCH  76  77
ATOM     77  S   UNL A   1      33.482  34.928  30.135  1.00  0.00     0.124 S 
ATOM     78  O   UNL A   1      32.600  34.337  29.134  1.00  0.00    -0.237 OA
ATOM     79  O   UNL A   1      32.916  35.079  31.471  1.00  0.00    -0.237 OA
ATOM     80  O   UNL A   1      34.282  36.058  29.669  1.00  0.00    -0.744 OA
ENDBRANCH  76  77
ENDBRANCH  44  69
BRANCH  56  81
ATOM     81  C   UNL A   1      41.799  29.324  33.995  1.00  0.00     0.058 A 
ATOM     82  C   UNL A   1      41.420  28.025  33.608  1.00  0.00     0.135 A 
ATOM     83  C   UNL A   1      42.059  29.532  35.358  1.00  0.00     0.135 A 
ATOM     84  F   UNL A   1      41.238  27.716  32.317  1.00  0.00    -0.206 F 
ATOM     85  C   UNL A   1      41.293  26.987  34.536  1.00  0.00     0.059 A 
ATOM     86  C   UNL A   1      41.966  28.507  36.295  1.00  0.00     0.059 A 
ATOM     87  F   UNL A   1      42.480  30.733  35.784  1.00  0.00    -0.206 F 
ATOM     88  C   UNL A   1      41.576  27.237  35.879  1.00  0.00     0.060 A 
BRANCH  88  89
ATOM     89  S   UNL A   1      41.506  25.879  37.071  1.00  0.00     0.124 S 
ATOM     90  O   UNL A   1      41.660  24.709  36.213  1.00  0.00    -0.237 OA
ATOM     91  O   UNL A   1      42.634  26.171  37.952  1.00  0.00    -0.237 OA
ATOM     92  O   UNL A   1      40.190  26.032  37.687  1.00  0.00    -0.744 OA
ENDBRANCH  88  89
ENDBRANCH  56  81
ENDBRANCH  30  31
ENDBRANCH  22  25
ENDBRANCH  20  21
ENDBRANCH   1  20
TORSDOF 16
ENDMDL
