MODEL 1
REMARK VINA RESULT:     -11.6      0.000      0.000
REMARK SMILES C[C@](NC(=O)[C@](C)([NH3+])C(F)(F)F)(C(=O)NCCCNC(=O)c1ccc(-c2c3nc(c(-c4c(F)cc(S(=O)(=O)[O-])cc4F)c4ccc([nH]4)c(-c4c(F)cc(S(=O)(=O)[O-])cc4F)c4nc(c(-c5c(F)cc(S(=O)(=O)[O-])cc5F)c5ccc2[nH]5)C=C4)C=C3)cc1)c1ccccc1
REMARK SMILES IDX 17 1 16 2 15 3 13 4 14 5 2 7 1 8 88 9 89 10 93 11 90 12
REMARK SMILES IDX 92 13 91 14 3 15 4 16 5 18 6 19 7 20 8 21 9 25 10 26 11 27
REMARK SMILES IDX 12 28 18 29 19 30 20 31 21 33 22 34 23 35 87 36 24 37 86 38
REMARK SMILES IDX 25 39 26 40 27 41 80 42 28 43 85 44 79 45 81 46 29 47 84 48
REMARK SMILES IDX 78 49 77 50 30 52 64 53 43 54 63 55 44 56 47 57 62 58 82 59
REMARK SMILES IDX 45 60 46 61 61 63 83 64 48 65 31 66 32 67 41 68 33 69 34 70
REMARK SMILES IDX 40 71 42 72 35 73 36 74 37 75 38 76 39 77 65 78 66 79 75 80
REMARK SMILES IDX 67 81 68 82 74 83 76 84 69 85 70 86 71 87 72 88 73 89 49 90
REMARK SMILES IDX 50 91 59 92 51 93 52 94 58 95 60 96 53 97 54 98 55 99 56 100
REMARK SMILES IDX 57 101
REMARK H PARENT 15 6 3 17 8 22 8 23 8 24 19 32 81 51 47 62
REMARK Flexibility Score: inf
ROOT
ATOM      1  C   UNL A   1      33.823  28.142  25.799  1.00  0.00     0.042 C 
ENDROOT
BRANCH   1   2
ATOM      2  C   UNL A   1      32.724  27.556  24.925  1.00  0.00     0.117 C 
BRANCH   2   3
ATOM      3  N   UNL A   1      33.167  27.227  23.579  1.00  0.00    -0.354 N 
ATOM      4  C   UNL A   1      33.478  26.043  22.964  1.00  0.00     0.250 C 
ATOM      5  O   UNL A   1      33.809  26.148  21.779  1.00  0.00    -0.272 OA
ATOM      6  H   UNL A   1      33.266  28.013  22.994  1.00  0.00     0.163 HD
BRANCH   4   7
ATOM      7  C   UNL A   1      33.416  24.670  23.724  1.00  0.00     0.142 C 
ATOM      8  C   UNL A   1      32.851  23.603  22.733  1.00  0.00     0.051 C 
BRANCH   7   9
ATOM      9  C   UNL A   1      34.733  24.036  24.215  1.00  0.00    -0.013 A 
ATOM     10  C   UNL A   1      35.509  24.547  25.267  1.00  0.00     0.007 A 
ATOM     11  C   UNL A   1      35.231  22.893  23.542  1.00  0.00     0.007 A 
ATOM     12  C   UNL A   1      36.658  23.880  25.707  1.00  0.00     0.000 A 
ATOM     13  C   UNL A   1      36.394  22.246  23.960  1.00  0.00     0.000 A 
ATOM     14  C   UNL A   1      37.094  22.727  25.060  1.00  0.00     0.000 A 
ENDBRANCH   7   9
BRANCH   7  15
ATOM     15  N   UNL A   1      32.476  24.878  24.859  1.00  0.00    -0.332 N 
ATOM     16  C   UNL A   1      31.900  24.135  25.831  1.00  0.00     0.291 C 
ATOM     17  H   UNL A   1      32.194  25.820  24.918  1.00  0.00     0.165 HD
ATOM     18  O   UNL A   1      31.197  24.824  26.593  1.00  0.00    -0.267 OA
BRANCH  16  19
ATOM     19  C   UNL A   1      31.971  22.602  26.109  1.00  0.00     0.267 C 
ATOM     20  C   UNL A   1      32.157  21.639  24.950  1.00  0.00     0.100 C 
BRANCH  19  21
ATOM     21  N   UNL A   1      30.605  22.227  26.672  1.00  0.00    -0.337 N 
ATOM     22  H   UNL A   1      30.690  22.031  27.670  1.00  0.00     0.345 HD
ATOM     23  H   UNL A   1      30.255  21.397  26.192  1.00  0.00     0.345 HD
ATOM     24  H   UNL A   1      29.955  23.000  26.532  1.00  0.00     0.345 HD
ENDBRANCH  19  21
BRANCH  19  25
ATOM     25  C   UNL A   1      33.125  22.403  27.121  1.00  0.00     0.453 C 
ATOM     26  F   UNL A   1      33.795  23.563  27.343  1.00  0.00    -0.164 F 
ATOM     27  F   UNL A   1      32.681  21.973  28.322  1.00  0.00    -0.164 F 
ATOM     28  F   UNL A   1      34.036  21.503  26.685  1.00  0.00    -0.164 F 
ENDBRANCH  19  25
ENDBRANCH  16  19
ENDBRANCH   7  15
ENDBRANCH   4   7
ENDBRANCH   2   3
ENDBRANCH   1   2
BRANCH   1  29
ATOM     29  C   UNL A   1      33.422  28.419  27.242  1.00  0.00     0.118 C 
BRANCH  29  30
ATOM     30  N   UNL A   1      33.430  29.836  27.580  1.00  0.00    -0.352 N 
ATOM     31  C   UNL A   1      34.417  30.619  28.138  1.00  0.00     0.251 C 
ATOM     32  H   UNL A   1      32.593  30.313  27.377  1.00  0.00     0.163 HD
ATOM     33  O   UNL A   1      34.158  31.765  28.476  1.00  0.00    -0.269 OA
BRANCH  31  34
ATOM     34  C   UNL A   1      35.775  30.067  28.363  1.00  0.00     0.039 A 
ATOM     35  C   UNL A   1      36.690  30.075  27.307  1.00  0.00     0.014 A 
ATOM     36  C   UNL A   1      36.150  29.547  29.604  1.00  0.00     0.014 A 
ATOM     37  C   UNL A   1      38.007  29.659  27.524  1.00  0.00     0.010 A 
ATOM     38  C   UNL A   1      37.481  29.214  29.842  1.00  0.00     0.010 A 
ATOM     39  C   UNL A   1      38.428  29.278  28.809  1.00  0.00    -0.014 A 
BRANCH  39  40
ATOM     40  C   UNL A   1      39.853  28.975  29.106  1.00  0.00     0.031 A 
ATOM     41  C   UNL A   1      40.754  30.039  29.671  1.00  0.00     0.074 A 
ATOM     42  C   UNL A   1      40.357  27.767  28.779  1.00  0.00     0.049 A 
ATOM     43  N   UNL A   1      42.044  29.999  29.886  1.00  0.00    -0.248 NA
ATOM     44  C   UNL A   1      40.128  31.326  30.013  1.00  0.00     0.031 C 
ATOM     45  C   UNL A   1      39.598  26.666  28.181  1.00  0.00     0.029 A 
ATOM     46  N   UNL A   1      41.631  27.267  28.886  1.00  0.00    -0.354 N 
ATOM     47  C   UNL A   1      42.387  31.256  30.370  1.00  0.00     0.074 A 
ATOM     48  C   UNL A   1      41.178  32.050  30.373  1.00  0.00     0.031 C 
ATOM     49  C   UNL A   1      40.415  25.619  27.987  1.00  0.00     0.029 A 
ATOM     50  C   UNL A   1      41.764  25.985  28.406  1.00  0.00     0.049 A 
ATOM     51  H   UNL A   1      42.380  27.779  29.270  1.00  0.00     0.167 HD
ATOM     52  C   UNL A   1      43.595  31.700  30.793  1.00  0.00     0.037 A 
ATOM     53  C   UNL A   1      42.853  25.198  28.295  1.00  0.00     0.037 A 
ATOM     54  C   UNL A   1      44.790  30.897  30.810  1.00  0.00     0.049 A 
ATOM     55  C   UNL A   1      44.185  25.718  28.761  1.00  0.00     0.074 A 
ATOM     56  C   UNL A   1      46.047  31.235  31.281  1.00  0.00     0.029 A 
ATOM     57  N   UNL A   1      44.880  29.597  30.333  1.00  0.00    -0.354 N 
ATOM     58  N   UNL A   1      44.477  26.887  29.277  1.00  0.00    -0.248 NA
ATOM     59  C   UNL A   1      45.336  24.812  28.628  1.00  0.00     0.031 C 
ATOM     60  C   UNL A   1      46.907  30.157  31.048  1.00  0.00     0.029 A 
ATOM     61  C   UNL A   1      46.176  29.129  30.475  1.00  0.00     0.049 A 
ATOM     62  H   UNL A   1      44.133  29.084  29.948  1.00  0.00     0.167 HD
ATOM     63  C   UNL A   1      45.841  26.851  29.551  1.00  0.00     0.074 A 
ATOM     64  C   UNL A   1      46.311  25.540  29.156  1.00  0.00     0.031 C 
ATOM     65  C   UNL A   1      46.631  27.818  30.080  1.00  0.00     0.037 A 
BRANCH  52  66
ATOM     66  C   UNL A   1      43.685  33.122  31.276  1.00  0.00     0.058 A 
ATOM     67  C   UNL A   1      43.412  33.464  32.610  1.00  0.00     0.135 A 
ATOM     68  C   UNL A   1      44.084  34.150  30.406  1.00  0.00     0.135 A 
ATOM     69  F   UNL A   1      43.014  32.524  33.482  1.00  0.00    -0.206 F 
ATOM     70  C   UNL A   1      43.501  34.778  33.057  1.00  0.00     0.059 A 
ATOM     71  C   UNL A   1      44.207  35.467  30.838  1.00  0.00     0.059 A 
ATOM     72  F   UNL A   1      44.358  33.878  29.120  1.00  0.00    -0.206 F 
ATOM     73  C   UNL A   1      43.898  35.774  32.163  1.00  0.00     0.060 A 
BRANCH  73  74
ATOM     74  S   UNL A   1      44.012  37.473  32.761  1.00  0.00     0.124 S 
ATOM     75  O   UNL A   1      45.372  37.505  33.290  1.00  0.00    -0.237 OA
ATOM     76  O   UNL A   1      43.787  38.249  31.544  1.00  0.00    -0.237 OA
ATOM     77  O   UNL A   1      42.950  37.555  33.758  1.00  0.00    -0.744 OA
ENDBRANCH  73  74
ENDBRANCH  52  66
BRANCH  53  78
ATOM     78  C   UNL A   1      42.725  23.828  27.729  1.00  0.00     0.058 A 
ATOM     79  C   UNL A   1      42.545  22.717  28.566  1.00  0.00     0.135 A 
ATOM     80  C   UNL A   1      42.764  23.603  26.343  1.00  0.00     0.135 A 
ATOM     81  F   UNL A   1      42.508  22.881  29.898  1.00  0.00    -0.206 F 
ATOM     82  C   UNL A   1      42.422  21.430  28.054  1.00  0.00     0.059 A 
ATOM     83  C   UNL A   1      42.618  22.328  25.806  1.00  0.00     0.059 A 
ATOM     84  F   UNL A   1      42.918  24.635  25.499  1.00  0.00    -0.206 F 
ATOM     85  C   UNL A   1      42.456  21.246  26.669  1.00  0.00     0.060 A 
BRANCH  85  86
ATOM     86  S   UNL A   1      42.241  19.577  26.013  1.00  0.00     0.124 S 
ATOM     87  O   UNL A   1      40.812  19.557  25.724  1.00  0.00    -0.237 OA
ATOM     88  O   UNL A   1      43.128  19.586  24.854  1.00  0.00    -0.237 OA
ATOM     89  O   UNL A   1      42.676  18.725  27.116  1.00  0.00    -0.744 OA
ENDBRANCH  85  86
ENDBRANCH  53  78
BRANCH  65  90
ATOM     90  C   UNL A   1      48.083  27.491  30.285  1.00  0.00     0.058 A 
ATOM     91  C   UNL A   1      48.530  26.816  31.431  1.00  0.00     0.135 A 
ATOM     92  C   UNL A   1      49.031  27.804  29.296  1.00  0.00     0.135 A 
ATOM     93  F   UNL A   1      47.668  26.503  32.410  1.00  0.00    -0.206 F 
ATOM     94  C   UNL A   1      49.870  26.478  31.599  1.00  0.00     0.059 A 
ATOM     95  C   UNL A   1      50.369  27.451  29.430  1.00  0.00     0.059 A 
ATOM     96  F   UNL A   1      48.653  28.441  28.176  1.00  0.00    -0.206 F 
ATOM     97  C   UNL A   1      50.781  26.797  30.589  1.00  0.00     0.060 A 
BRANCH  97  98
ATOM     98  S   UNL A   1      52.508  26.313  30.800  1.00  0.00     0.124 S 
ATOM     99  O   UNL A   1      52.378  25.098  31.598  1.00  0.00    -0.237 OA
ATOM    100  O   UNL A   1      52.949  26.122  29.422  1.00  0.00    -0.237 OA
ATOM    101  O   UNL A   1      53.099  27.456  31.488  1.00  0.00    -0.744 OA
ENDBRANCH  97  98
ENDBRANCH  65  90
ENDBRANCH  39  40
ENDBRANCH  31  34
ENDBRANCH  29  30
ENDBRANCH   1  29
TORSDOF 18
ENDMDL
MODEL 2
REMARK VINA RESULT:     -11.3      1.231      2.635
REMARK SMILES C[C@](NC(=O)[C@](C)([NH3+])C(F)(F)F)(C(=O)NCCCNC(=O)c1ccc(-c2c3nc(c(-c4c(F)cc(S(=O)(=O)[O-])cc4F)c4ccc([nH]4)c(-c4c(F)cc(S(=O)(=O)[O-])cc4F)c4nc(c(-c5c(F)cc(S(=O)(=O)[O-])cc5F)c5ccc2[nH]5)C=C4)C=C3)cc1)c1ccccc1
REMARK SMILES IDX 17 1 16 2 15 3 13 4 14 5 2 7 1 8 88 9 89 10 93 11 90 12
REMARK SMILES IDX 92 13 91 14 3 15 4 16 5 18 6 19 7 20 8 21 9 25 10 26 11 27
REMARK SMILES IDX 12 28 18 29 19 30 20 31 21 33 22 34 23 35 87 36 24 37 86 38
REMARK SMILES IDX 25 39 26 40 27 41 80 42 28 43 85 44 79 45 81 46 29 47 84 48
REMARK SMILES IDX 78 49 77 50 30 52 64 53 43 54 63 55 44 56 47 57 62 58 82 59
REMARK SMILES IDX 45 60 46 61 61 63 83 64 48 65 31 66 32 67 41 68 33 69 34 70
REMARK SMILES IDX 40 71 42 72 35 73 36 74 37 75 38 76 39 77 65 78 66 79 75 80
REMARK SMILES IDX 67 81 68 82 74 83 76 84 69 85 70 86 71 87 72 88 73 89 49 90
REMARK SMILES IDX 50 91 59 92 51 93 52 94 58 95 60 96 53 97 54 98 55 99 56 100
REMARK SMILES IDX 57 101
REMARK H PARENT 15 6 3 17 8 22 8 23 8 24 19 32 81 51 47 62
REMARK Flexibility Score: inf
ROOT
ATOM      1  C   UNL A   1      32.048  27.832  27.070  1.00  0.00     0.042 C 
ENDROOT
BRANCH   1   2
ATOM      2  C   UNL A   1      31.937  26.638  26.134  1.00  0.00     0.117 C 
BRANCH   2   3
ATOM      3  N   UNL A   1      31.025  25.610  26.614  1.00  0.00    -0.354 N 
ATOM      4  C   UNL A   1      31.130  24.248  26.719  1.00  0.00     0.250 C 
ATOM      5  O   UNL A   1      30.139  23.690  27.199  1.00  0.00    -0.272 OA
ATOM      6  H   UNL A   1      30.160  25.964  26.923  1.00  0.00     0.163 HD
BRANCH   4   7
ATOM      7  C   UNL A   1      32.417  23.475  26.256  1.00  0.00     0.142 C 
ATOM      8  C   UNL A   1      32.865  22.551  27.433  1.00  0.00     0.051 C 
BRANCH   7   9
ATOM      9  C   UNL A   1      32.306  22.503  25.064  1.00  0.00    -0.013 A 
ATOM     10  C   UNL A   1      32.029  22.901  23.747  1.00  0.00     0.007 A 
ATOM     11  C   UNL A   1      32.445  21.114  25.303  1.00  0.00     0.007 A 
ATOM     12  C   UNL A   1      32.013  21.971  22.701  1.00  0.00     0.000 A 
ATOM     13  C   UNL A   1      32.397  20.183  24.265  1.00  0.00     0.000 A 
ATOM     14  C   UNL A   1      32.205  20.617  22.958  1.00  0.00     0.000 A 
ENDBRANCH   7   9
BRANCH   7  15
ATOM     15  N   UNL A   1      33.443  24.520  25.992  1.00  0.00    -0.332 N 
ATOM     16  C   UNL A   1      34.745  24.575  25.629  1.00  0.00     0.291 C 
ATOM     17  H   UNL A   1      33.070  25.423  26.116  1.00  0.00     0.165 HD
ATOM     18  O   UNL A   1      35.143  25.746  25.491  1.00  0.00    -0.267 OA
BRANCH  16  19
ATOM     19  C   UNL A   1      35.778  23.431  25.390  1.00  0.00     0.267 C 
ATOM     20  C   UNL A   1      35.652  22.134  26.167  1.00  0.00     0.100 C 
BRANCH  19  21
ATOM     21  N   UNL A   1      37.120  23.994  25.845  1.00  0.00    -0.337 N 
ATOM     22  H   UNL A   1      37.788  23.231  25.958  1.00  0.00     0.345 HD
ATOM     23  H   UNL A   1      37.003  24.477  26.736  1.00  0.00     0.345 HD
ATOM     24  H   UNL A   1      37.469  24.649  25.146  1.00  0.00     0.345 HD
ENDBRANCH  19  21
BRANCH  19  25
ATOM     25  C   UNL A   1      35.728  23.119  23.875  1.00  0.00     0.453 C 
ATOM     26  F   UNL A   1      36.963  23.189  23.314  1.00  0.00    -0.164 F 
ATOM     27  F   UNL A   1      35.257  21.878  23.625  1.00  0.00    -0.164 F 
ATOM     28  F   UNL A   1      34.943  23.989  23.200  1.00  0.00    -0.164 F 
ENDBRANCH  19  25
ENDBRANCH  16  19
ENDBRANCH   7  15
ENDBRANCH   4   7
ENDBRANCH   2   3
ENDBRANCH   1   2
BRANCH   1  29
ATOM     29  C   UNL A   1      33.450  28.410  27.215  1.00  0.00     0.118 C 
BRANCH  29  30
ATOM     30  N   UNL A   1      33.459  29.809  27.620  1.00  0.00    -0.352 N 
ATOM     31  C   UNL A   1      34.449  30.566  28.209  1.00  0.00     0.251 C 
ATOM     32  H   UNL A   1      32.619  30.294  27.446  1.00  0.00     0.163 HD
ATOM     33  O   UNL A   1      34.190  31.695  28.602  1.00  0.00    -0.269 OA
BRANCH  31  34
ATOM     34  C   UNL A   1      35.808  30.007  28.399  1.00  0.00     0.039 A 
ATOM     35  C   UNL A   1      36.704  30.032  27.326  1.00  0.00     0.014 A 
ATOM     36  C   UNL A   1      36.204  29.462  29.622  1.00  0.00     0.014 A 
ATOM     37  C   UNL A   1      38.023  29.607  27.511  1.00  0.00     0.010 A 
ATOM     38  C   UNL A   1      37.538  29.120  29.830  1.00  0.00     0.010 A 
ATOM     39  C   UNL A   1      38.466  29.201  28.781  1.00  0.00    -0.014 A 
BRANCH  39  40
ATOM     40  C   UNL A   1      39.896  28.888  29.046  1.00  0.00     0.031 A 
ATOM     41  C   UNL A   1      40.821  29.951  29.575  1.00  0.00     0.074 A 
ATOM     42  C   UNL A   1      40.380  27.672  28.722  1.00  0.00     0.049 A 
ATOM     43  N   UNL A   1      42.115  29.902  29.759  1.00  0.00    -0.248 NA
ATOM     44  C   UNL A   1      40.215  31.248  29.916  1.00  0.00     0.031 C 
ATOM     45  C   UNL A   1      39.597  26.571  28.157  1.00  0.00     0.029 A 
ATOM     46  N   UNL A   1      41.652  27.162  28.803  1.00  0.00    -0.354 N 
ATOM     47  C   UNL A   1      42.481  31.161  30.218  1.00  0.00     0.074 A 
ATOM     48  C   UNL A   1      41.280  31.967  30.241  1.00  0.00     0.031 C 
ATOM     49  C   UNL A   1      40.399  25.514  27.957  1.00  0.00     0.029 A 
ATOM     50  C   UNL A   1      41.762  25.873  28.336  1.00  0.00     0.049 A 
ATOM     51  H   UNL A   1      42.415  27.671  29.163  1.00  0.00     0.167 HD
ATOM     52  C   UNL A   1      43.704  31.599  30.605  1.00  0.00     0.037 A 
ATOM     53  C   UNL A   1      42.840  25.073  28.209  1.00  0.00     0.037 A 
ATOM     54  C   UNL A   1      44.891  30.785  30.602  1.00  0.00     0.049 A 
ATOM     55  C   UNL A   1      44.188  25.587  28.634  1.00  0.00     0.074 A 
ATOM     56  C   UNL A   1      46.163  31.117  31.037  1.00  0.00     0.029 A 
ATOM     57  N   UNL A   1      44.958  29.479  30.139  1.00  0.00    -0.354 N 
ATOM     58  N   UNL A   1      44.504  26.760  29.129  1.00  0.00    -0.248 NA
ATOM     59  C   UNL A   1      45.327  24.669  28.484  1.00  0.00     0.031 C 
ATOM     60  C   UNL A   1      47.006  30.028  30.797  1.00  0.00     0.029 A 
ATOM     61  C   UNL A   1      46.252  29.001  30.255  1.00  0.00     0.049 A 
ATOM     62  H   UNL A   1      44.197  28.968  29.780  1.00  0.00     0.167 HD
ATOM     63  C   UNL A   1      45.873  26.714  29.368  1.00  0.00     0.074 A 
ATOM     64  C   UNL A   1      46.322  25.394  28.979  1.00  0.00     0.031 C 
ATOM     65  C   UNL A   1      46.685  27.681  29.865  1.00  0.00     0.037 A 
BRANCH  52  66
ATOM     66  C   UNL A   1      43.818  33.026  31.068  1.00  0.00     0.058 A 
ATOM     67  C   UNL A   1      44.096  34.070  30.171  1.00  0.00     0.135 A 
ATOM     68  C   UNL A   1      43.611  33.360  32.416  1.00  0.00     0.135 A 
ATOM     69  F   UNL A   1      44.317  33.806  28.873  1.00  0.00    -0.206 F 
ATOM     70  C   UNL A   1      44.196  35.390  30.599  1.00  0.00     0.059 A 
ATOM     71  C   UNL A   1      43.679  34.677  32.862  1.00  0.00     0.059 A 
ATOM     72  F   UNL A   1      43.341  32.401  33.316  1.00  0.00    -0.206 F 
ATOM     73  C   UNL A   1      43.987  35.684  31.947  1.00  0.00     0.060 A 
BRANCH  73  74
ATOM     74  S   UNL A   1      44.117  37.402  32.485  1.00  0.00     0.124 S 
ATOM     75  O   UNL A   1      43.087  37.462  33.518  1.00  0.00    -0.237 OA
ATOM     76  O   UNL A   1      45.495  37.477  32.960  1.00  0.00    -0.237 OA
ATOM     77  O   UNL A   1      43.833  38.161  31.271  1.00  0.00    -0.744 OA
ENDBRANCH  73  74
ENDBRANCH  52  66
BRANCH  53  78
ATOM     78  C   UNL A   1      42.685  23.698  27.664  1.00  0.00     0.058 A 
ATOM     79  C   UNL A   1      42.556  22.595  28.520  1.00  0.00     0.135 A 
ATOM     80  C   UNL A   1      42.648  23.461  26.280  1.00  0.00     0.135 A 
ATOM     81  F   UNL A   1      42.593  22.771  29.849  1.00  0.00    -0.206 F 
ATOM     82  C   UNL A   1      42.409  21.302  28.026  1.00  0.00     0.059 A 
ATOM     83  C   UNL A   1      42.477  22.180  25.763  1.00  0.00     0.059 A 
ATOM     84  F   UNL A   1      42.751  24.484  25.418  1.00  0.00    -0.206 F 
ATOM     85  C   UNL A   1      42.367  21.106  26.644  1.00  0.00     0.060 A 
BRANCH  85  86
ATOM     86  S   UNL A   1      42.122  19.430  26.016  1.00  0.00     0.124 S 
ATOM     87  O   UNL A   1      42.567  18.624  27.147  1.00  0.00    -0.237 OA
ATOM     88  O   UNL A   1      40.688  19.411  25.744  1.00  0.00    -0.237 OA
ATOM     89  O   UNL A   1      42.976  19.387  24.833  1.00  0.00    -0.744 OA
ENDBRANCH  85  86
ENDBRANCH  53  78
BRANCH  65  90
ATOM     90  C   UNL A   1      48.139  27.342  30.038  1.00  0.00     0.058 A 
ATOM     91  C   UNL A   1      49.096  27.688  29.072  1.00  0.00     0.135 A 
ATOM     92  C   UNL A   1      48.589  26.715  31.213  1.00  0.00     0.135 A 
ATOM     93  F   UNL A   1      48.717  28.279  27.928  1.00  0.00    -0.206 F 
ATOM     94  C   UNL A   1      50.447  27.409  29.255  1.00  0.00     0.059 A 
ATOM     95  C   UNL A   1      49.937  26.451  31.429  1.00  0.00     0.059 A 
ATOM     96  F   UNL A   1      47.715  26.372  32.173  1.00  0.00    -0.206 F 
ATOM     97  C   UNL A   1      50.858  26.794  30.440  1.00  0.00     0.060 A 
BRANCH  97  98
ATOM     98  S   UNL A   1      52.619  26.478  30.684  1.00  0.00     0.124 S 
ATOM     99  O   UNL A   1      53.056  26.182  29.323  1.00  0.00    -0.237 OA
ATOM    100  O   UNL A   1      53.089  27.742  31.240  1.00  0.00    -0.237 OA
ATOM    101  O   UNL A   1      52.636  25.348  31.608  1.00  0.00    -0.744 OA
ENDBRANCH  97  98
ENDBRANCH  65  90
ENDBRANCH  39  40
ENDBRANCH  31  34
ENDBRANCH  29  30
ENDBRANCH   1  29
TORSDOF 18
ENDMDL
MODEL 3
REMARK VINA RESULT:     -11.2      3.454      7.708
REMARK SMILES C[C@](NC(=O)[C@](C)([NH3+])C(F)(F)F)(C(=O)NCCCNC(=O)c1ccc(-c2c3nc(c(-c4c(F)cc(S(=O)(=O)[O-])cc4F)c4ccc([nH]4)c(-c4c(F)cc(S(=O)(=O)[O-])cc4F)c4nc(c(-c5c(F)cc(S(=O)(=O)[O-])cc5F)c5ccc2[nH]5)C=C4)C=C3)cc1)c1ccccc1
REMARK SMILES IDX 17 1 16 2 15 3 13 4 14 5 2 7 1 8 88 9 89 10 93 11 90 12
REMARK SMILES IDX 92 13 91 14 3 15 4 16 5 18 6 19 7 20 8 21 9 25 10 26 11 27
REMARK SMILES IDX 12 28 18 29 19 30 20 31 21 33 22 34 23 35 87 36 24 37 86 38
REMARK SMILES IDX 25 39 26 40 27 41 80 42 28 43 85 44 79 45 81 46 29 47 84 48
REMARK SMILES IDX 78 49 77 50 30 52 64 53 43 54 63 55 44 56 47 57 62 58 82 59
REMARK SMILES IDX 45 60 46 61 61 63 83 64 48 65 31 66 32 67 41 68 33 69 34 70
REMARK SMILES IDX 40 71 42 72 35 73 36 74 37 75 38 76 39 77 65 78 66 79 75 80
REMARK SMILES IDX 67 81 68 82 74 83 76 84 69 85 70 86 71 87 72 88 73 89 49 90
REMARK SMILES IDX 50 91 59 92 51 93 52 94 58 95 60 96 53 97 54 98 55 99 56 100
REMARK SMILES IDX 57 101
REMARK H PARENT 15 6 3 17 8 22 8 23 8 24 19 32 81 51 47 62
REMARK Flexibility Score: inf
ROOT
ATOM      1  C   UNL A   1      37.675  20.791  25.000  1.00  0.00     0.042 C 
ENDROOT
BRANCH   1   2
ATOM      2  C   UNL A   1      36.612  21.872  25.125  1.00  0.00     0.117 C 
BRANCH   2   3
ATOM      3  N   UNL A   1      35.756  21.711  26.291  1.00  0.00    -0.354 N 
ATOM      4  C   UNL A   1      34.437  21.370  26.439  1.00  0.00     0.250 C 
ATOM      5  O   UNL A   1      34.047  21.314  27.609  1.00  0.00    -0.272 OA
ATOM      6  H   UNL A   1      36.217  21.882  27.145  1.00  0.00     0.163 HD
BRANCH   4   7
ATOM      7  C   UNL A   1      33.510  21.082  25.204  1.00  0.00     0.142 C 
ATOM      8  C   UNL A   1      33.907  22.079  24.069  1.00  0.00     0.051 C 
BRANCH   7   9
ATOM      9  C   UNL A   1      33.600  19.706  24.516  1.00  0.00    -0.013 A 
ATOM     10  C   UNL A   1      34.665  18.808  24.689  1.00  0.00     0.007 A 
ATOM     11  C   UNL A   1      32.577  19.327  23.614  1.00  0.00     0.007 A 
ATOM     12  C   UNL A   1      34.648  17.544  24.088  1.00  0.00     0.000 A 
ATOM     13  C   UNL A   1      32.575  18.079  22.989  1.00  0.00     0.000 A 
ATOM     14  C   UNL A   1      33.601  17.178  23.247  1.00  0.00     0.000 A 
ENDBRANCH   7   9
BRANCH   7  15
ATOM     15  N   UNL A   1      32.122  21.349  25.672  1.00  0.00    -0.332 N 
ATOM     16  C   UNL A   1      31.307  22.417  25.833  1.00  0.00     0.291 C 
ATOM     17  H   UNL A   1      31.670  20.515  25.938  1.00  0.00     0.165 HD
ATOM     18  O   UNL A   1      30.175  22.087  26.228  1.00  0.00    -0.267 OA
BRANCH  16  19
ATOM     19  C   UNL A   1      31.581  23.938  25.622  1.00  0.00     0.267 C 
ATOM     20  C   UNL A   1      32.983  24.482  25.825  1.00  0.00     0.100 C 
BRANCH  19  21
ATOM     21  N   UNL A   1      30.761  24.650  26.692  1.00  0.00    -0.337 N 
ATOM     22  H   UNL A   1      30.301  23.959  27.285  1.00  0.00     0.345 HD
ATOM     23  H   UNL A   1      30.055  25.237  26.247  1.00  0.00     0.345 HD
ATOM     24  H   UNL A   1      31.375  25.231  27.262  1.00  0.00     0.345 HD
ENDBRANCH  19  21
BRANCH  19  25
ATOM     25  C   UNL A   1      31.118  24.262  24.181  1.00  0.00     0.453 C 
ATOM     26  F   UNL A   1      30.852  23.129  23.480  1.00  0.00    -0.164 F 
ATOM     27  F   UNL A   1      29.990  25.005  24.163  1.00  0.00    -0.164 F 
ATOM     28  F   UNL A   1      32.057  24.941  23.484  1.00  0.00    -0.164 F 
ENDBRANCH  19  25
ENDBRANCH  16  19
ENDBRANCH   7  15
ENDBRANCH   4   7
ENDBRANCH   2   3
ENDBRANCH   1   2
BRANCH   1  29
ATOM     29  C   UNL A   1      38.963  21.061  25.767  1.00  0.00     0.118 C 
BRANCH  29  30
ATOM     30  N   UNL A   1      39.797  19.878  25.929  1.00  0.00    -0.352 N 
ATOM     31  C   UNL A   1      41.144  19.760  26.196  1.00  0.00     0.251 C 
ATOM     32  H   UNL A   1      39.320  19.021  25.832  1.00  0.00     0.163 HD
ATOM     33  O   UNL A   1      41.673  18.658  26.145  1.00  0.00    -0.269 OA
BRANCH  31  34
ATOM     34  C   UNL A   1      41.955  20.960  26.506  1.00  0.00     0.039 A 
ATOM     35  C   UNL A   1      42.430  21.746  25.451  1.00  0.00     0.014 A 
ATOM     36  C   UNL A   1      42.249  21.317  27.824  1.00  0.00     0.014 A 
ATOM     37  C   UNL A   1      43.106  22.938  25.722  1.00  0.00     0.010 A 
ATOM     38  C   UNL A   1      42.846  22.546  28.093  1.00  0.00     0.010 A 
ATOM     39  C   UNL A   1      43.270  23.377  27.046  1.00  0.00    -0.014 A 
BRANCH  39  40
ATOM     40  C   UNL A   1      43.850  24.709  27.361  1.00  0.00     0.031 A 
ATOM     41  C   UNL A   1      42.961  25.839  27.805  1.00  0.00     0.074 A 
ATOM     42  C   UNL A   1      45.166  24.926  27.158  1.00  0.00     0.049 A 
ATOM     43  N   UNL A   1      43.263  27.095  28.013  1.00  0.00    -0.248 NA
ATOM     44  C   UNL A   1      41.539  25.521  28.017  1.00  0.00     0.031 C 
ATOM     45  C   UNL A   1      46.125  23.927  26.683  1.00  0.00     0.029 A 
ATOM     46  N   UNL A   1      45.921  26.063  27.306  1.00  0.00    -0.354 N 
ATOM     47  C   UNL A   1      42.071  27.719  28.361  1.00  0.00     0.074 A 
ATOM     48  C   UNL A   1      41.033  26.715  28.291  1.00  0.00     0.031 C 
ATOM     49  C   UNL A   1      47.341  24.488  26.594  1.00  0.00     0.029 A 
ATOM     50  C   UNL A   1      47.243  25.897  26.961  1.00  0.00     0.049 A 
ATOM     51  H   UNL A   1      45.553  26.917  27.629  1.00  0.00     0.167 HD
ATOM     52  C   UNL A   1      41.865  29.008  28.726  1.00  0.00     0.037 A 
ATOM     53  C   UNL A   1      48.258  26.782  26.924  1.00  0.00     0.037 A 
ATOM     54  C   UNL A   1      42.907  29.998  28.817  1.00  0.00     0.049 A 
ATOM     55  C   UNL A   1      48.002  28.210  27.322  1.00  0.00     0.074 A 
ATOM     56  C   UNL A   1      42.810  31.313  29.240  1.00  0.00     0.029 A 
ATOM     57  N   UNL A   1      44.235  29.786  28.476  1.00  0.00    -0.354 N 
ATOM     58  N   UNL A   1      46.880  28.767  27.712  1.00  0.00    -0.248 NA
ATOM     59  C   UNL A   1      49.148  29.130  27.275  1.00  0.00     0.031 C 
ATOM     60  C   UNL A   1      44.069  31.908  29.113  1.00  0.00     0.029 A 
ATOM     61  C   UNL A   1      44.962  30.952  28.656  1.00  0.00     0.049 A 
ATOM     62  H   UNL A   1      44.606  28.934  28.153  1.00  0.00     0.167 HD
ATOM     63  C   UNL A   1      47.190  30.097  27.977  1.00  0.00     0.074 A 
ATOM     64  C   UNL A   1      48.605  30.257  27.717  1.00  0.00     0.031 C 
ATOM     65  C   UNL A   1      46.373  31.096  28.396  1.00  0.00     0.037 A 
BRANCH  52  66
ATOM     66  C   UNL A   1      40.457  29.422  29.058  1.00  0.00     0.058 A 
ATOM     67  C   UNL A   1      40.050  29.651  30.381  1.00  0.00     0.135 A 
ATOM     68  C   UNL A   1      39.512  29.628  28.039  1.00  0.00     0.135 A 
ATOM     69  F   UNL A   1      40.909  29.457  31.396  1.00  0.00    -0.206 F 
ATOM     70  C   UNL A   1      38.750  30.040  30.686  1.00  0.00     0.059 A 
ATOM     71  C   UNL A   1      38.214  30.043  28.319  1.00  0.00     0.059 A 
ATOM     72  F   UNL A   1      39.848  29.424  26.755  1.00  0.00    -0.206 F 
ATOM     73  C   UNL A   1      37.838  30.232  29.648  1.00  0.00     0.060 A 
BRANCH  73  74
ATOM     74  S   UNL A   1      36.156  30.739  30.062  1.00  0.00     0.124 S 
ATOM     75  O   UNL A   1      35.501  30.664  28.759  1.00  0.00    -0.237 OA
ATOM     76  O   UNL A   1      35.753  29.726  31.032  1.00  0.00    -0.237 OA
ATOM     77  O   UNL A   1      36.329  32.084  30.600  1.00  0.00    -0.744 OA
ENDBRANCH  73  74
ENDBRANCH  52  66
BRANCH  53  78
ATOM     78  C   UNL A   1      49.615  26.340  26.505  1.00  0.00     0.058 A 
ATOM     79  C   UNL A   1      50.501  25.763  27.426  1.00  0.00     0.135 A 
ATOM     80  C   UNL A   1      50.048  26.471  25.175  1.00  0.00     0.135 A 
ATOM     81  F   UNL A   1      50.135  25.623  28.710  1.00  0.00    -0.206 F 
ATOM     82  C   UNL A   1      51.773  25.342  27.051  1.00  0.00     0.059 A 
ATOM     83  C   UNL A   1      51.306  26.035  24.770  1.00  0.00     0.059 A 
ATOM     84  F   UNL A   1      49.233  27.003  24.251  1.00  0.00    -0.206 F 
ATOM     85  C   UNL A   1      52.165  25.480  25.717  1.00  0.00     0.060 A 
BRANCH  85  86
ATOM     86  S   UNL A   1      53.798  24.881  25.230  1.00  0.00     0.124 S 
ATOM     87  O   UNL A   1      54.602  25.242  26.391  1.00  0.00    -0.237 OA
ATOM     88  O   UNL A   1      53.557  23.454  25.038  1.00  0.00    -0.237 OA
ATOM     89  O   UNL A   1      54.079  25.630  24.009  1.00  0.00    -0.744 OA
ENDBRANCH  85  86
ENDBRANCH  53  78
BRANCH  65  90
ATOM     90  C   UNL A   1      46.992  32.447  28.622  1.00  0.00     0.058 A 
ATOM     91  C   UNL A   1      47.044  33.413  27.606  1.00  0.00     0.135 A 
ATOM     92  C   UNL A   1      47.486  32.800  29.890  1.00  0.00     0.135 A 
ATOM     93  F   UNL A   1      46.594  33.123  26.375  1.00  0.00    -0.206 F 
ATOM     94  C   UNL A   1      47.580  34.677  27.832  1.00  0.00     0.059 A 
ATOM     95  C   UNL A   1      48.002  34.066  30.145  1.00  0.00     0.059 A 
ATOM     96  F   UNL A   1      47.451  31.916  30.899  1.00  0.00    -0.206 F 
ATOM     97  C   UNL A   1      48.053  34.995  29.107  1.00  0.00     0.060 A 
BRANCH  97  98
ATOM     98  S   UNL A   1      48.706  36.653  29.398  1.00  0.00     0.124 S 
ATOM     99  O   UNL A   1      49.287  36.973  28.098  1.00  0.00    -0.237 OA
ATOM    100  O   UNL A   1      47.507  37.403  29.757  1.00  0.00    -0.237 OA
ATOM    101  O   UNL A   1      49.663  36.455  30.482  1.00  0.00    -0.744 OA
ENDBRANCH  97  98
ENDBRANCH  65  90
ENDBRANCH  39  40
ENDBRANCH  31  34
ENDBRANCH  29  30
ENDBRANCH   1  29
TORSDOF 18
ENDMDL
