MODEL 1
REMARK VINA RESULT:     -11.3      0.000      0.000
REMARK SMILES CC(C)(C)OC(=O)N1C[C@H](Oc2ccncc2)C[C@H]1C(=O)NCCCNC(=O)c1ccc(-c2c3nc(c(-c4c(F)cc(S(=O)(=O)[O-])cc4F)c4ccc([nH]4)c(-c4c(F)cc(S(=O)(=O)[O-])cc4F)c4nc(c(-c5c(F)cc(S(=O)(=O)[O-])cc5F)c5ccc2[nH]5)C=C4)C=C3)cc1
REMARK SMILES IDX 24 1 23 2 22 3 20 4 21 5 19 7 8 8 9 9 10 10 18 11 6 12 7 13
REMARK SMILES IDX 5 14 2 15 1 16 3 17 4 18 11 19 12 20 13 21 17 22 14 23 16 24
REMARK SMILES IDX 15 25 25 26 26 27 27 28 28 30 29 31 30 32 94 33 31 34 93 35
REMARK SMILES IDX 32 36 33 37 34 38 87 39 35 40 92 41 86 42 88 43 36 44 91 45
REMARK SMILES IDX 85 46 84 47 37 49 71 50 50 51 70 52 51 53 54 54 69 55 89 56
REMARK SMILES IDX 52 57 53 58 68 60 90 61 55 62 38 63 39 64 48 65 40 66 41 67
REMARK SMILES IDX 47 68 49 69 42 70 43 71 44 72 45 73 46 74 72 75 73 76 82 77
REMARK SMILES IDX 74 78 75 79 81 80 83 81 76 82 77 83 78 84 79 85 80 86 56 87
REMARK SMILES IDX 57 88 66 89 58 90 59 91 65 92 67 93 60 94 61 95 62 96 63 97
REMARK SMILES IDX 64 98
REMARK H PARENT 22 6 26 29 88 48 54 59
REMARK Flexibility Score: inf
ROOT
ATOM      1  C   UNL A   1      35.801  23.668  25.845  1.00  0.00     0.042 C 
ENDROOT
BRANCH   1   2
ATOM      2  C   UNL A   1      34.533  24.297  25.298  1.00  0.00     0.117 C 
BRANCH   2   3
ATOM      3  N   UNL A   1      33.478  24.508  26.278  1.00  0.00    -0.354 N 
ATOM      4  C   UNL A   1      32.435  23.672  26.578  1.00  0.00     0.243 C 
ATOM      5  O   UNL A   1      31.908  23.797  27.688  1.00  0.00    -0.273 OA
ATOM      6  H   UNL A   1      33.518  25.351  26.784  1.00  0.00     0.163 HD
BRANCH   4   7
ATOM      7  C   UNL A   1      31.949  22.616  25.552  1.00  0.00     0.181 C 
ATOM      8  N   UNL A   1      32.012  22.998  24.137  1.00  0.00    -0.292 N 
ATOM      9  C   UNL A   1      32.784  22.073  23.337  1.00  0.00     0.169 C 
ATOM     10  C   UNL A   1      33.017  20.852  24.218  1.00  0.00     0.195 C 
ATOM     11  C   UNL A   1      32.847  21.361  25.651  1.00  0.00     0.082 C 
BRANCH   8  12
ATOM     12  C   UNL A   1      31.163  23.942  23.624  1.00  0.00     0.411 C 
ATOM     13  O   UNL A   1      30.234  23.670  22.887  1.00  0.00    -0.224 OA
BRANCH  12  14
ATOM     14  O   UNL A   1      31.548  25.211  23.919  1.00  0.00    -0.444 OA
BRANCH  14  15
ATOM     15  C   UNL A   1      32.041  26.052  22.835  1.00  0.00     0.106 C 
ATOM     16  C   UNL A   1      33.108  26.944  23.481  1.00  0.00     0.056 C 
ATOM     17  C   UNL A   1      30.942  26.946  22.249  1.00  0.00     0.056 C 
ATOM     18  C   UNL A   1      32.719  25.210  21.739  1.00  0.00     0.056 C 
ENDBRANCH  14  15
ENDBRANCH  12  14
ENDBRANCH   8  12
BRANCH  10  19
ATOM     19  O   UNL A   1      32.267  19.686  23.849  1.00  0.00    -0.488 OA
BRANCH  19  20
ATOM     20  C   UNL A   1      32.804  18.471  24.147  1.00  0.00     0.122 A 
ATOM     21  C   UNL A   1      32.579  17.874  25.378  1.00  0.00     0.066 A 
ATOM     22  C   UNL A   1      33.440  17.760  23.137  1.00  0.00     0.066 A 
ATOM     23  C   UNL A   1      33.068  16.595  25.572  1.00  0.00     0.115 A 
ATOM     24  C   UNL A   1      33.895  16.488  23.429  1.00  0.00     0.115 A 
ATOM     25  N   UNL A   1      33.733  15.895  24.630  1.00  0.00    -0.264 NA
ENDBRANCH  19  20
ENDBRANCH  10  19
ENDBRANCH   4   7
ENDBRANCH   2   3
ENDBRANCH   1   2
BRANCH   1  26
ATOM     26  C   UNL A   1      36.948  23.611  24.838  1.00  0.00     0.118 C 
BRANCH  26  27
ATOM     27  N   UNL A   1      38.043  22.721  25.220  1.00  0.00    -0.352 N 
ATOM     28  C   UNL A   1      39.162  22.902  25.998  1.00  0.00     0.251 C 
ATOM     29  H   UNL A   1      37.962  21.813  24.848  1.00  0.00     0.163 HD
ATOM     30  O   UNL A   1      39.994  22.000  26.070  1.00  0.00    -0.269 OA
BRANCH  28  31
ATOM     31  C   UNL A   1      39.408  24.174  26.714  1.00  0.00     0.039 A 
ATOM     32  C   UNL A   1      38.881  24.340  27.999  1.00  0.00     0.014 A 
ATOM     33  C   UNL A   1      40.133  25.211  26.131  1.00  0.00     0.014 A 
ATOM     34  C   UNL A   1      39.175  25.493  28.733  1.00  0.00     0.010 A 
ATOM     35  C   UNL A   1      40.520  26.304  26.899  1.00  0.00     0.010 A 
ATOM     36  C   UNL A   1      40.050  26.458  28.212  1.00  0.00    -0.014 A 
BRANCH  36  37
ATOM     37  C   UNL A   1      40.499  27.633  29.005  1.00  0.00     0.031 A 
ATOM     38  C   UNL A   1      41.822  27.594  29.724  1.00  0.00     0.074 A 
ATOM     39  C   UNL A   1      39.670  28.684  29.178  1.00  0.00     0.049 A 
ATOM     40  N   UNL A   1      42.299  28.414  30.625  1.00  0.00    -0.248 NA
ATOM     41  C   UNL A   1      42.702  26.451  29.429  1.00  0.00     0.031 C 
ATOM     42  C   UNL A   1      38.335  28.821  28.591  1.00  0.00     0.029 A 
ATOM     43  N   UNL A   1      39.824  29.831  29.915  1.00  0.00    -0.354 N 
ATOM     44  C   UNL A   1      43.501  27.856  31.046  1.00  0.00     0.074 A 
ATOM     45  C   UNL A   1      43.666  26.613  30.323  1.00  0.00     0.031 C 
ATOM     46  C   UNL A   1      37.805  29.995  28.967  1.00  0.00     0.029 A 
ATOM     47  C   UNL A   1      38.742  30.675  29.855  1.00  0.00     0.049 A 
ATOM     48  H   UNL A   1      40.633  30.029  30.439  1.00  0.00     0.167 HD
ATOM     49  C   UNL A   1      44.394  28.341  31.941  1.00  0.00     0.037 A 
ATOM     50  C   UNL A   1      38.522  31.861  30.456  1.00  0.00     0.037 A 
ATOM     51  C   UNL A   1      44.269  29.618  32.593  1.00  0.00     0.049 A 
ATOM     52  C   UNL A   1      39.574  32.428  31.365  1.00  0.00     0.074 A 
ATOM     53  C   UNL A   1      45.157  30.238  33.453  1.00  0.00     0.029 A 
ATOM     54  N   UNL A   1      43.195  30.481  32.434  1.00  0.00    -0.354 N 
ATOM     55  N   UNL A   1      40.715  31.897  31.733  1.00  0.00    -0.248 NA
ATOM     56  C   UNL A   1      39.310  33.755  31.940  1.00  0.00     0.031 C 
ATOM     57  C   UNL A   1      44.617  31.477  33.820  1.00  0.00     0.029 A 
ATOM     58  C   UNL A   1      43.403  31.634  33.173  1.00  0.00     0.049 A 
ATOM     59  H   UNL A   1      42.402  30.301  31.878  1.00  0.00     0.167 HD
ATOM     60  C   UNL A   1      41.313  32.830  32.571  1.00  0.00     0.074 A 
ATOM     61  C   UNL A   1      40.413  33.964  32.646  1.00  0.00     0.031 C 
ATOM     62  C   UNL A   1      42.500  32.754  33.222  1.00  0.00     0.037 A 
BRANCH  49  63
ATOM     63  C   UNL A   1      45.592  27.490  32.251  1.00  0.00     0.058 A 
ATOM     64  C   UNL A   1      45.609  26.616  33.350  1.00  0.00     0.135 A 
ATOM     65  C   UNL A   1      46.739  27.549  31.443  1.00  0.00     0.135 A 
ATOM     66  F   UNL A   1      44.544  26.534  34.164  1.00  0.00    -0.206 F 
ATOM     67  C   UNL A   1      46.734  25.859  33.660  1.00  0.00     0.059 A 
ATOM     68  C   UNL A   1      47.867  26.783  31.720  1.00  0.00     0.059 A 
ATOM     69  F   UNL A   1      46.775  28.368  30.380  1.00  0.00    -0.206 F 
ATOM     70  C   UNL A   1      47.862  25.957  32.844  1.00  0.00     0.060 A 
BRANCH  70  71
ATOM     71  S   UNL A   1      49.326  24.987  33.264  1.00  0.00     0.124 S 
ATOM     72  O   UNL A   1      50.017  25.891  34.179  1.00  0.00    -0.237 OA
ATOM     73  O   UNL A   1      48.751  23.790  33.872  1.00  0.00    -0.237 OA
ATOM     74  O   UNL A   1      49.974  24.781  31.974  1.00  0.00    -0.744 OA
ENDBRANCH  70  71
ENDBRANCH  49  63
BRANCH  50  75
ATOM     75  C   UNL A   1      37.268  32.607  30.182  1.00  0.00     0.058 A 
ATOM     76  C   UNL A   1      36.155  32.459  31.022  1.00  0.00     0.135 A 
ATOM     77  C   UNL A   1      37.163  33.497  29.102  1.00  0.00     0.135 A 
ATOM     78  F   UNL A   1      36.210  31.616  32.064  1.00  0.00    -0.206 F 
ATOM     79  C   UNL A   1      34.975  33.158  30.797  1.00  0.00     0.059 A 
ATOM     80  C   UNL A   1      35.998  34.221  28.866  1.00  0.00     0.059 A 
ATOM     81  F   UNL A   1      38.209  33.685  28.282  1.00  0.00    -0.206 F 
ATOM     82  C   UNL A   1      34.906  34.038  29.715  1.00  0.00     0.060 A 
BRANCH  82  83
ATOM     83  S   UNL A   1      33.391  34.989  29.462  1.00  0.00     0.124 S 
ATOM     84  O   UNL A   1      32.823  34.997  30.805  1.00  0.00    -0.237 OA
ATOM     85  O   UNL A   1      33.904  36.267  28.978  1.00  0.00    -0.237 OA
ATOM     86  O   UNL A   1      32.665  34.200  28.471  1.00  0.00    -0.744 OA
ENDBRANCH  82  83
ENDBRANCH  50  75
BRANCH  62  87
ATOM     87  C   UNL A   1      42.903  33.938  34.049  1.00  0.00     0.058 A 
ATOM     88  C   UNL A   1      43.599  35.018  33.486  1.00  0.00     0.135 A 
ATOM     89  C   UNL A   1      42.547  34.013  35.404  1.00  0.00     0.135 A 
ATOM     90  F   UNL A   1      43.966  34.986  32.195  1.00  0.00    -0.206 F 
ATOM     91  C   UNL A   1      43.942  36.131  34.245  1.00  0.00     0.059 A 
ATOM     92  C   UNL A   1      42.866  35.123  36.178  1.00  0.00     0.059 A 
ATOM     93  F   UNL A   1      41.874  33.006  35.983  1.00  0.00    -0.206 F 
ATOM     94  C   UNL A   1      43.574  36.174  35.592  1.00  0.00     0.060 A 
BRANCH  94  95
ATOM     95  S   UNL A   1      43.989  37.637  36.563  1.00  0.00     0.124 S 
ATOM     96  O   UNL A   1      43.818  38.700  35.578  1.00  0.00    -0.237 OA
ATOM     97  O   UNL A   1      42.996  37.600  37.633  1.00  0.00    -0.237 OA
ATOM     98  O   UNL A   1      45.363  37.383  36.985  1.00  0.00    -0.744 OA
ENDBRANCH  94  95
ENDBRANCH  62  87
ENDBRANCH  36  37
ENDBRANCH  28  31
ENDBRANCH  26  27
ENDBRANCH   1  26
TORSDOF 18
ENDMDL
MODEL 2
REMARK VINA RESULT:     -11.3      4.750     10.113
REMARK SMILES CC(C)(C)OC(=O)N1C[C@H](Oc2ccncc2)C[C@H]1C(=O)NCCCNC(=O)c1ccc(-c2c3nc(c(-c4c(F)cc(S(=O)(=O)[O-])cc4F)c4ccc([nH]4)c(-c4c(F)cc(S(=O)(=O)[O-])cc4F)c4nc(c(-c5c(F)cc(S(=O)(=O)[O-])cc5F)c5ccc2[nH]5)C=C4)C=C3)cc1
REMARK SMILES IDX 24 1 23 2 22 3 20 4 21 5 19 7 8 8 9 9 10 10 18 11 6 12 7 13
REMARK SMILES IDX 5 14 2 15 1 16 3 17 4 18 11 19 12 20 13 21 17 22 14 23 16 24
REMARK SMILES IDX 15 25 25 26 26 27 27 28 28 30 29 31 30 32 94 33 31 34 93 35
REMARK SMILES IDX 32 36 33 37 34 38 87 39 35 40 92 41 86 42 88 43 36 44 91 45
REMARK SMILES IDX 85 46 84 47 37 49 71 50 50 51 70 52 51 53 54 54 69 55 89 56
REMARK SMILES IDX 52 57 53 58 68 60 90 61 55 62 38 63 39 64 48 65 40 66 41 67
REMARK SMILES IDX 47 68 49 69 42 70 43 71 44 72 45 73 46 74 72 75 73 76 82 77
REMARK SMILES IDX 74 78 75 79 81 80 83 81 76 82 77 83 78 84 79 85 80 86 56 87
REMARK SMILES IDX 57 88 66 89 58 90 59 91 65 92 67 93 60 94 61 95 62 96 63 97
REMARK SMILES IDX 64 98
REMARK H PARENT 22 6 26 29 88 48 54 59
REMARK Flexibility Score: inf
ROOT
ATOM      1  C   UNL A   1      33.346  29.088  27.228  1.00  0.00     0.042 C 
ENDROOT
BRANCH   1   2
ATOM      2  C   UNL A   1      33.056  27.736  26.603  1.00  0.00     0.117 C 
BRANCH   2   3
ATOM      3  N   UNL A   1      31.650  27.364  26.566  1.00  0.00    -0.354 N 
ATOM      4  C   UNL A   1      31.097  26.237  26.017  1.00  0.00     0.243 C 
ATOM      5  O   UNL A   1      29.992  25.882  26.440  1.00  0.00    -0.273 OA
ATOM      6  H   UNL A   1      31.022  27.996  26.984  1.00  0.00     0.163 HD
BRANCH   4   7
ATOM      7  C   UNL A   1      31.844  25.451  24.909  1.00  0.00     0.181 C 
ATOM      8  N   UNL A   1      32.537  26.249  23.891  1.00  0.00    -0.292 N 
ATOM      9  C   UNL A   1      33.944  25.926  23.784  1.00  0.00     0.169 C 
ATOM     10  C   UNL A   1      34.139  24.643  24.581  1.00  0.00     0.195 C 
ATOM     11  C   UNL A   1      32.960  24.598  25.554  1.00  0.00     0.082 C 
BRANCH   8  12
ATOM     12  C   UNL A   1      31.836  26.968  22.961  1.00  0.00     0.411 C 
ATOM     13  O   UNL A   1      31.406  26.483  21.931  1.00  0.00    -0.224 OA
BRANCH  12  14
ATOM     14  O   UNL A   1      31.788  28.295  23.249  1.00  0.00    -0.444 OA
BRANCH  14  15
ATOM     15  C   UNL A   1      30.488  28.955  23.238  1.00  0.00     0.106 C 
ATOM     16  C   UNL A   1      30.538  29.942  24.411  1.00  0.00     0.056 C 
ATOM     17  C   UNL A   1      29.336  27.970  23.474  1.00  0.00     0.056 C 
ATOM     18  C   UNL A   1      30.279  29.758  21.943  1.00  0.00     0.056 C 
ENDBRANCH  14  15
ENDBRANCH  12  14
ENDBRANCH   8  12
BRANCH  10  19
ATOM     19  O   UNL A   1      34.375  23.468  23.791  1.00  0.00    -0.488 OA
BRANCH  19  20
ATOM     20  C   UNL A   1      35.250  22.546  24.279  1.00  0.00     0.122 A 
ATOM     21  C   UNL A   1      34.821  21.279  24.643  1.00  0.00     0.066 A 
ATOM     22  C   UNL A   1      36.607  22.835  24.246  1.00  0.00     0.066 A 
ATOM     23  C   UNL A   1      35.779  20.361  25.031  1.00  0.00     0.115 A 
ATOM     24  C   UNL A   1      37.489  21.852  24.654  1.00  0.00     0.115 A 
ATOM     25  N   UNL A   1      37.103  20.624  25.058  1.00  0.00    -0.264 NA
ENDBRANCH  19  20
ENDBRANCH  10  19
ENDBRANCH   4   7
ENDBRANCH   2   3
ENDBRANCH   1   2
BRANCH   1  26
ATOM     26  C   UNL A   1      34.812  29.291  27.609  1.00  0.00     0.118 C 
BRANCH  26  27
ATOM     27  N   UNL A   1      35.024  30.237  28.704  1.00  0.00    -0.352 N 
ATOM     28  C   UNL A   1      36.122  30.540  29.474  1.00  0.00     0.251 C 
ATOM     29  H   UNL A   1      34.222  30.761  28.934  1.00  0.00     0.163 HD
ATOM     30  O   UNL A   1      35.996  31.315  30.419  1.00  0.00    -0.269 OA
BRANCH  28  31
ATOM     31  C   UNL A   1      37.441  29.919  29.216  1.00  0.00     0.039 A 
ATOM     32  C   UNL A   1      37.928  29.883  27.904  1.00  0.00     0.014 A 
ATOM     33  C   UNL A   1      38.196  29.356  30.242  1.00  0.00     0.014 A 
ATOM     34  C   UNL A   1      39.209  29.386  27.646  1.00  0.00     0.010 A 
ATOM     35  C   UNL A   1      39.510  28.968  30.005  1.00  0.00     0.010 A 
ATOM     36  C   UNL A   1      40.036  28.982  28.704  1.00  0.00    -0.014 A 
BRANCH  36  37
ATOM     37  C   UNL A   1      41.450  28.574  28.495  1.00  0.00     0.031 A 
ATOM     38  C   UNL A   1      42.545  29.608  28.533  1.00  0.00     0.074 A 
ATOM     39  C   UNL A   1      41.739  27.301  28.154  1.00  0.00     0.049 A 
ATOM     40  N   UNL A   1      43.798  29.500  28.175  1.00  0.00    -0.248 NA
ATOM     41  C   UNL A   1      42.166  30.956  28.985  1.00  0.00     0.031 C 
ATOM     42  C   UNL A   1      40.766  26.214  28.017  1.00  0.00     0.029 A 
ATOM     43  N   UNL A   1      42.937  26.711  27.839  1.00  0.00    -0.354 N 
ATOM     44  C   UNL A   1      44.339  30.775  28.299  1.00  0.00     0.074 A 
ATOM     45  C   UNL A   1      43.271  31.646  28.739  1.00  0.00     0.031 C 
ATOM     46  C   UNL A   1      41.408  25.086  27.676  1.00  0.00     0.029 A 
ATOM     47  C   UNL A   1      42.830  25.376  27.527  1.00  0.00     0.049 A 
ATOM     48  H   UNL A   1      43.793  27.197  27.837  1.00  0.00     0.167 HD
ATOM     49  C   UNL A   1      45.612  31.181  28.083  1.00  0.00     0.037 A 
ATOM     50  C   UNL A   1      43.770  24.487  27.152  1.00  0.00     0.037 A 
ATOM     51  C   UNL A   1      46.691  30.297  27.729  1.00  0.00     0.049 A 
ATOM     52  C   UNL A   1      45.196  24.939  27.018  1.00  0.00     0.074 A 
ATOM     53  C   UNL A   1      48.033  30.595  27.567  1.00  0.00     0.029 A 
ATOM     54  N   UNL A   1      46.553  28.934  27.508  1.00  0.00    -0.354 N 
ATOM     55  N   UNL A   1      45.692  26.144  27.164  1.00  0.00    -0.248 NA
ATOM     56  C   UNL A   1      46.189  23.913  26.672  1.00  0.00     0.031 C 
ATOM     57  C   UNL A   1      48.706  29.410  27.243  1.00  0.00     0.029 A 
ATOM     58  C   UNL A   1      47.786  28.375  27.221  1.00  0.00     0.049 A 
ATOM     59  H   UNL A   1      45.703  28.439  27.550  1.00  0.00     0.167 HD
ATOM     60  C   UNL A   1      47.058  26.019  26.940  1.00  0.00     0.074 A 
ATOM     61  C   UNL A   1      47.311  24.620  26.662  1.00  0.00     0.031 C 
ATOM     62  C   UNL A   1      48.016  26.978  26.961  1.00  0.00     0.037 A 
BRANCH  49  63
ATOM     63  C   UNL A   1      45.906  32.646  28.239  1.00  0.00     0.058 A 
ATOM     64  C   UNL A   1      46.323  33.186  29.466  1.00  0.00     0.135 A 
ATOM     65  C   UNL A   1      45.766  33.522  27.150  1.00  0.00     0.135 A 
ATOM     66  F   UNL A   1      46.455  32.394  30.542  1.00  0.00    -0.206 F 
ATOM     67  C   UNL A   1      46.553  34.549  29.619  1.00  0.00     0.059 A 
ATOM     68  C   UNL A   1      46.015  34.886  27.275  1.00  0.00     0.059 A 
ATOM     69  F   UNL A   1      45.370  33.058  25.955  1.00  0.00    -0.206 F 
ATOM     70  C   UNL A   1      46.388  35.392  28.520  1.00  0.00     0.060 A 
BRANCH  70  71
ATOM     71  S   UNL A   1      46.670  37.163  28.732  1.00  0.00     0.124 S 
ATOM     72  O   UNL A   1      45.681  37.724  27.815  1.00  0.00    -0.237 OA
ATOM     73  O   UNL A   1      46.398  37.361  30.153  1.00  0.00    -0.237 OA
ATOM     74  O   UNL A   1      48.063  37.332  28.335  1.00  0.00    -0.744 OA
ENDBRANCH  70  71
ENDBRANCH  49  63
BRANCH  50  75
ATOM     75  C   UNL A   1      43.394  23.071  26.915  1.00  0.00     0.058 A 
ATOM     76  C   UNL A   1      43.346  22.556  25.612  1.00  0.00     0.135 A 
ATOM     77  C   UNL A   1      43.105  22.200  27.977  1.00  0.00     0.135 A 
ATOM     78  F   UNL A   1      43.612  23.354  24.566  1.00  0.00    -0.206 F 
ATOM     79  C   UNL A   1      43.012  21.229  25.364  1.00  0.00     0.059 A 
ATOM     80  C   UNL A   1      42.785  20.863  27.756  1.00  0.00     0.059 A 
ATOM     81  F   UNL A   1      43.157  22.643  29.243  1.00  0.00    -0.206 F 
ATOM     82  C   UNL A   1      42.733  20.389  26.444  1.00  0.00     0.060 A 
BRANCH  82  83
ATOM     83  S   UNL A   1      42.360  18.652  26.122  1.00  0.00     0.124 S 
ATOM     84  O   UNL A   1      43.307  18.342  25.057  1.00  0.00    -0.237 OA
ATOM     85  O   UNL A   1      42.627  18.031  27.415  1.00  0.00    -0.237 OA
ATOM     86  O   UNL A   1      40.954  18.682  25.730  1.00  0.00    -0.744 OA
ENDBRANCH  82  83
ENDBRANCH  50  75
BRANCH  62  87
ATOM     87  C   UNL A   1      49.427  26.540  26.702  1.00  0.00     0.058 A 
ATOM     88  C   UNL A   1      49.965  26.543  25.407  1.00  0.00     0.135 A 
ATOM     89  C   UNL A   1      50.259  26.159  27.765  1.00  0.00     0.135 A 
ATOM     90  F   UNL A   1      49.204  26.893  24.358  1.00  0.00    -0.206 F 
ATOM     91  C   UNL A   1      51.284  26.169  25.172  1.00  0.00     0.059 A 
ATOM     92  C   UNL A   1      51.585  25.797  27.555  1.00  0.00     0.059 A 
ATOM     93  F   UNL A   1      49.788  26.147  29.022  1.00  0.00    -0.206 F 
ATOM     94  C   UNL A   1      52.086  25.795  26.252  1.00  0.00     0.060 A 
BRANCH  94  95
ATOM     95  S   UNL A   1      53.808  25.347  25.946  1.00  0.00     0.124 S 
ATOM     96  O   UNL A   1      54.108  26.138  24.758  1.00  0.00    -0.237 OA
ATOM     97  O   UNL A   1      54.469  25.774  27.176  1.00  0.00    -0.237 OA
ATOM     98  O   UNL A   1      53.749  23.902  25.744  1.00  0.00    -0.744 OA
ENDBRANCH  94  95
ENDBRANCH  62  87
ENDBRANCH  36  37
ENDBRANCH  28  31
ENDBRANCH  26  27
ENDBRANCH   1  26
TORSDOF 18
ENDMDL
MODEL 3
REMARK VINA RESULT:     -11.3      4.994     10.710
REMARK SMILES CC(C)(C)OC(=O)N1C[C@H](Oc2ccncc2)C[C@H]1C(=O)NCCCNC(=O)c1ccc(-c2c3nc(c(-c4c(F)cc(S(=O)(=O)[O-])cc4F)c4ccc([nH]4)c(-c4c(F)cc(S(=O)(=O)[O-])cc4F)c4nc(c(-c5c(F)cc(S(=O)(=O)[O-])cc5F)c5ccc2[nH]5)C=C4)C=C3)cc1
REMARK SMILES IDX 24 1 23 2 22 3 20 4 21 5 19 7 8 8 9 9 10 10 18 11 6 12 7 13
REMARK SMILES IDX 5 14 2 15 1 16 3 17 4 18 11 19 12 20 13 21 17 22 14 23 16 24
REMARK SMILES IDX 15 25 25 26 26 27 27 28 28 30 29 31 30 32 94 33 31 34 93 35
REMARK SMILES IDX 32 36 33 37 34 38 87 39 35 40 92 41 86 42 88 43 36 44 91 45
REMARK SMILES IDX 85 46 84 47 37 49 71 50 50 51 70 52 51 53 54 54 69 55 89 56
REMARK SMILES IDX 52 57 53 58 68 60 90 61 55 62 38 63 39 64 48 65 40 66 41 67
REMARK SMILES IDX 47 68 49 69 42 70 43 71 44 72 45 73 46 74 72 75 73 76 82 77
REMARK SMILES IDX 74 78 75 79 81 80 83 81 76 82 77 83 78 84 79 85 80 86 56 87
REMARK SMILES IDX 57 88 66 89 58 90 59 91 65 92 67 93 60 94 61 95 62 96 63 97
REMARK SMILES IDX 64 98
REMARK H PARENT 22 6 26 29 88 48 54 59
REMARK Flexibility Score: inf
ROOT
ATOM      1  C   UNL A   1      33.908  29.808  27.329  1.00  0.00     0.042 C 
ENDROOT
BRANCH   1   2
ATOM      2  C   UNL A   1      34.111  28.548  26.509  1.00  0.00     0.117 C 
BRANCH   2   3
ATOM      3  N   UNL A   1      33.217  27.448  26.838  1.00  0.00    -0.354 N 
ATOM      4  C   UNL A   1      32.536  26.636  25.970  1.00  0.00     0.243 C 
ATOM      5  O   UNL A   1      32.185  25.527  26.386  1.00  0.00    -0.273 OA
ATOM      6  H   UNL A   1      33.086  27.267  27.796  1.00  0.00     0.163 HD
BRANCH   4   7
ATOM      7  C   UNL A   1      32.226  27.106  24.526  1.00  0.00     0.181 C 
ATOM      8  N   UNL A   1      32.361  26.102  23.465  1.00  0.00    -0.292 N 
ATOM      9  C   UNL A   1      31.152  25.939  22.686  1.00  0.00     0.169 C 
ATOM     10  C   UNL A   1      30.248  27.103  23.071  1.00  0.00     0.195 C 
ATOM     11  C   UNL A   1      30.749  27.556  24.444  1.00  0.00     0.082 C 
BRANCH   8  12
ATOM     12  C   UNL A   1      33.591  25.635  23.088  1.00  0.00     0.411 C 
ATOM     13  O   UNL A   1      34.032  25.756  21.961  1.00  0.00    -0.224 OA
BRANCH  12  14
ATOM     14  O   UNL A   1      34.202  24.916  24.066  1.00  0.00    -0.444 OA
BRANCH  14  15
ATOM     15  C   UNL A   1      34.294  23.470  23.901  1.00  0.00     0.106 C 
ATOM     16  C   UNL A   1      35.718  23.221  23.388  1.00  0.00     0.056 C 
ATOM     17  C   UNL A   1      33.298  22.940  22.862  1.00  0.00     0.056 C 
ATOM     18  C   UNL A   1      34.135  22.743  25.248  1.00  0.00     0.056 C 
ENDBRANCH  14  15
ENDBRANCH  12  14
ENDBRANCH   8  12
BRANCH  10  19
ATOM     19  O   UNL A   1      30.101  28.116  22.066  1.00  0.00    -0.488 OA
BRANCH  19  20
ATOM     20  C   UNL A   1      29.192  29.104  22.294  1.00  0.00     0.122 A 
ATOM     21  C   UNL A   1      28.019  28.847  22.986  1.00  0.00     0.066 A 
ATOM     22  C   UNL A   1      29.537  30.410  21.973  1.00  0.00     0.066 A 
ATOM     23  C   UNL A   1      27.192  29.918  23.271  1.00  0.00     0.115 A 
ATOM     24  C   UNL A   1      28.643  31.413  22.299  1.00  0.00     0.115 A 
ATOM     25  N   UNL A   1      27.472  31.194  22.930  1.00  0.00    -0.264 NA
ENDBRANCH  19  20
ENDBRANCH  10  19
ENDBRANCH   4   7
ENDBRANCH   2   3
ENDBRANCH   1   2
BRANCH   1  26
ATOM     26  C   UNL A   1      35.209  30.502  27.728  1.00  0.00     0.118 C 
BRANCH  26  27
ATOM     27  N   UNL A   1      35.301  30.840  29.148  1.00  0.00    -0.352 N 
ATOM     28  C   UNL A   1      36.272  30.623  30.096  1.00  0.00     0.251 C 
ATOM     29  H   UNL A   1      34.511  31.318  29.492  1.00  0.00     0.163 HD
ATOM     30  O   UNL A   1      36.044  30.921  31.267  1.00  0.00    -0.269 OA
BRANCH  28  31
ATOM     31  C   UNL A   1      37.568  30.000  29.747  1.00  0.00     0.039 A 
ATOM     32  C   UNL A   1      38.021  30.075  28.424  1.00  0.00     0.014 A 
ATOM     33  C   UNL A   1      38.333  29.325  30.695  1.00  0.00     0.014 A 
ATOM     34  C   UNL A   1      39.282  29.575  28.087  1.00  0.00     0.010 A 
ATOM     35  C   UNL A   1      39.630  28.931  30.387  1.00  0.00     0.010 A 
ATOM     36  C   UNL A   1      40.125  29.054  29.080  1.00  0.00    -0.014 A 
BRANCH  36  37
ATOM     37  C   UNL A   1      41.523  28.635  28.796  1.00  0.00     0.031 A 
ATOM     38  C   UNL A   1      42.631  29.655  28.809  1.00  0.00     0.074 A 
ATOM     39  C   UNL A   1      41.779  27.368  28.409  1.00  0.00     0.049 A 
ATOM     40  N   UNL A   1      43.865  29.542  28.391  1.00  0.00    -0.248 NA
ATOM     41  C   UNL A   1      42.291  30.996  29.313  1.00  0.00     0.031 C 
ATOM     42  C   UNL A   1      40.787  26.297  28.290  1.00  0.00     0.029 A 
ATOM     43  N   UNL A   1      42.954  26.772  28.025  1.00  0.00    -0.354 N 
ATOM     44  C   UNL A   1      44.428  30.806  28.522  1.00  0.00     0.074 A 
ATOM     45  C   UNL A   1      43.392  31.678  29.033  1.00  0.00     0.031 C 
ATOM     46  C   UNL A   1      41.398  25.170  27.891  1.00  0.00     0.029 A 
ATOM     47  C   UNL A   1      42.815  25.447  27.684  1.00  0.00     0.049 A 
ATOM     48  H   UNL A   1      43.814  27.248  27.995  1.00  0.00     0.167 HD
ATOM     49  C   UNL A   1      45.695  31.203  28.258  1.00  0.00     0.037 A 
ATOM     50  C   UNL A   1      43.725  24.557  27.244  1.00  0.00     0.037 A 
ATOM     51  C   UNL A   1      46.745  30.315  27.833  1.00  0.00     0.049 A 
ATOM     52  C   UNL A   1      45.149  24.996  27.056  1.00  0.00     0.074 A 
ATOM     53  C   UNL A   1      48.081  30.601  27.617  1.00  0.00     0.029 A 
ATOM     54  N   UNL A   1      46.579  28.960  27.584  1.00  0.00    -0.354 N 
ATOM     55  N   UNL A   1      45.667  26.190  27.209  1.00  0.00    -0.248 NA
ATOM     56  C   UNL A   1      46.111  23.967  26.638  1.00  0.00     0.031 C 
ATOM     57  C   UNL A   1      48.724  29.417  27.232  1.00  0.00     0.029 A 
ATOM     58  C   UNL A   1      47.790  28.394  27.226  1.00  0.00     0.049 A 
ATOM     59  H   UNL A   1      45.726  28.474  27.652  1.00  0.00     0.167 HD
ATOM     60  C   UNL A   1      47.019  26.055  26.920  1.00  0.00     0.074 A 
ATOM     61  C   UNL A   1      47.241  24.660  26.595  1.00  0.00     0.031 C 
ATOM     62  C   UNL A   1      47.990  27.001  26.920  1.00  0.00     0.037 A 
BRANCH  49  63
ATOM     63  C   UNL A   1      46.014  32.659  28.438  1.00  0.00     0.058 A 
ATOM     64  C   UNL A   1      46.519  33.158  29.649  1.00  0.00     0.135 A 
ATOM     65  C   UNL A   1      45.811  33.570  27.388  1.00  0.00     0.135 A 
ATOM     66  F   UNL A   1      46.715  32.332  30.690  1.00  0.00    -0.206 F 
ATOM     67  C   UNL A   1      46.775  34.513  29.827  1.00  0.00     0.059 A 
ATOM     68  C   UNL A   1      46.084  34.926  27.536  1.00  0.00     0.059 A 
ATOM     69  F   UNL A   1      45.331  33.145  26.209  1.00  0.00    -0.206 F 
ATOM     70  C   UNL A   1      46.545  35.391  28.767  1.00  0.00     0.060 A 
BRANCH  70  71
ATOM     71  S   UNL A   1      46.860  37.152  29.012  1.00  0.00     0.124 S 
ATOM     72  O   UNL A   1      47.924  37.119  30.011  1.00  0.00    -0.237 OA
ATOM     73  O   UNL A   1      47.258  37.593  27.678  1.00  0.00    -0.237 OA
ATOM     74  O   UNL A   1      45.574  37.662  29.478  1.00  0.00    -0.744 OA
ENDBRANCH  70  71
ENDBRANCH  49  63
BRANCH  50  75
ATOM     75  C   UNL A   1      43.320  23.152  26.989  1.00  0.00     0.058 A 
ATOM     76  C   UNL A   1      43.234  22.664  25.677  1.00  0.00     0.135 A 
ATOM     77  C   UNL A   1      43.039  22.266  28.040  1.00  0.00     0.135 A 
ATOM     78  F   UNL A   1      43.491  23.476  24.641  1.00  0.00    -0.206 F 
ATOM     79  C   UNL A   1      42.873  21.347  25.412  1.00  0.00     0.059 A 
ATOM     80  C   UNL A   1      42.693  20.939  27.801  1.00  0.00     0.059 A 
ATOM     81  F   UNL A   1      43.126  22.683  29.313  1.00  0.00    -0.206 F 
ATOM     82  C   UNL A   1      42.604  20.492  26.482  1.00  0.00     0.060 A 
BRANCH  82  83
ATOM     83  S   UNL A   1      42.194  18.767  26.135  1.00  0.00     0.124 S 
ATOM     84  O   UNL A   1      40.789  18.871  25.758  1.00  0.00    -0.237 OA
ATOM     85  O   UNL A   1      43.122  18.437  25.057  1.00  0.00    -0.237 OA
ATOM     86  O   UNL A   1      42.462  18.100  27.406  1.00  0.00    -0.744 OA
ENDBRANCH  82  83
ENDBRANCH  50  75
BRANCH  62  87
ATOM     87  C   UNL A   1      49.381  26.553  26.586  1.00  0.00     0.058 A 
ATOM     88  C   UNL A   1      49.889  26.661  25.283  1.00  0.00     0.135 A 
ATOM     89  C   UNL A   1      50.228  26.057  27.588  1.00  0.00     0.135 A 
ATOM     90  F   UNL A   1      49.112  27.124  24.291  1.00  0.00    -0.206 F 
ATOM     91  C   UNL A   1      51.190  26.277  24.980  1.00  0.00     0.059 A 
ATOM     92  C   UNL A   1      51.538  25.682  27.311  1.00  0.00     0.059 A 
ATOM     93  F   UNL A   1      49.787  25.942  28.851  1.00  0.00    -0.206 F 
ATOM     94  C   UNL A   1      52.007  25.786  26.001  1.00  0.00     0.060 A 
BRANCH  94  95
ATOM     95  S   UNL A   1      53.708  25.325  25.610  1.00  0.00     0.124 S 
ATOM     96  O   UNL A   1      53.935  26.064  24.373  1.00  0.00    -0.237 OA
ATOM     97  O   UNL A   1      54.443  25.804  26.778  1.00  0.00    -0.237 OA
ATOM     98  O   UNL A   1      53.641  23.873  25.474  1.00  0.00    -0.744 OA
ENDBRANCH  94  95
ENDBRANCH  62  87
ENDBRANCH  36  37
ENDBRANCH  28  31
ENDBRANCH  26  27
ENDBRANCH   1  26
TORSDOF 18
ENDMDL
