MODEL 1
REMARK VINA RESULT:     -13.6      0.000      0.000
REMARK SMILES COc1ccc2c(c1)c(CC(=O)NCCCNC(=O)c1ccc(-c3c4nc(c(-c5c(F)cc(S(=O)(=O)[O-])cc5F)c5ccc([nH]5)c(-c5c(F)cc(S(=O)(=O)[O-])cc5F)c5nc(c(-c6c(F)cc(S(=O)(=O)[O-])cc6F)c6ccc3[nH]6)C=C5)C=C4)cc1)c(C)n2C(=O)c1ccc(Cl)cc1
REMARK SMILES IDX 15 1 14 2 13 3 11 4 12 5 10 7 9 8 3 9 4 10 8 11 5 12 7 13
REMARK SMILES IDX 6 14 88 15 86 16 87 17 2 18 1 19 89 20 90 21 91 22 92 23
REMARK SMILES IDX 97 24 93 25 96 26 94 27 95 28 16 29 17 30 18 31 19 33 20 34
REMARK SMILES IDX 21 35 85 36 22 37 84 38 23 39 24 40 25 41 78 42 26 43 83 44
REMARK SMILES IDX 77 45 79 46 27 47 82 48 76 49 75 50 28 52 62 53 41 54 61 55
REMARK SMILES IDX 42 56 45 57 60 58 80 59 43 60 44 61 59 63 81 64 46 65 29 66
REMARK SMILES IDX 30 67 39 68 31 69 32 70 38 71 40 72 33 73 34 74 35 75 36 76
REMARK SMILES IDX 37 77 63 78 64 79 73 80 65 81 66 82 72 83 74 84 67 85 68 86
REMARK SMILES IDX 69 87 70 88 71 89 47 90 48 91 57 92 49 93 50 94 56 95 58 96
REMARK SMILES IDX 51 97 52 98 53 99 54 100 55 101
REMARK H PARENT 13 6 17 32 79 51 45 62
REMARK Flexibility Score: inf
ROOT
ATOM      1  C   UNL A   1      37.106  22.302  24.186  1.00  0.00     0.042 C 
ENDROOT
BRANCH   1   2
ATOM      2  C   UNL A   1      35.586  22.279  24.011  1.00  0.00     0.117 C 
BRANCH   2   3
ATOM      3  N   UNL A   1      35.115  23.329  23.123  1.00  0.00    -0.356 N 
ATOM      4  C   UNL A   1      34.260  24.359  23.380  1.00  0.00     0.224 C 
ATOM      5  O   UNL A   1      33.991  25.134  22.455  1.00  0.00    -0.275 OA
ATOM      6  H   UNL A   1      35.463  23.288  22.203  1.00  0.00     0.163 HD
BRANCH   4   7
ATOM      7  C   UNL A   1      33.711  24.576  24.779  1.00  0.00     0.138 C 
BRANCH   7   8
ATOM      8  C   UNL A   1      32.620  25.604  24.844  1.00  0.00    -0.009 A 
ATOM      9  C   UNL A   1      33.469  28.744  26.848  1.00  0.00     0.119 A 
ATOM     10  C   UNL A   1      32.223  29.337  26.730  1.00  0.00     0.048 A 
ATOM     11  C   UNL A   1      33.712  27.516  26.231  1.00  0.00     0.057 A 
ATOM     12  C   UNL A   1      31.197  28.708  26.020  1.00  0.00     0.031 A 
ATOM     13  C   UNL A   1      32.691  26.865  25.499  1.00  0.00     0.008 A 
ATOM     14  C   UNL A   1      31.444  27.485  25.365  1.00  0.00     0.057 A 
ATOM     15  N   UNL A   1      30.657  26.692  24.507  1.00  0.00    -0.280 N 
ATOM     16  C   UNL A   1      31.328  25.470  24.349  1.00  0.00     0.028 A 
ATOM     17  C   UNL A   1      30.735  24.247  23.711  1.00  0.00     0.065 C 
BRANCH   9  18
ATOM     18  O   UNL A   1      34.525  29.297  27.522  1.00  0.00    -0.497 OA
ATOM     19  C   UNL A   1      34.513  30.722  27.557  1.00  0.00     0.278 C 
ENDBRANCH   9  18
BRANCH  15  20
ATOM     20  C   UNL A   1      29.422  27.064  23.904  1.00  0.00     0.262 C 
ATOM     21  O   UNL A   1      28.482  26.270  23.949  1.00  0.00    -0.268 OA
BRANCH  20  22
ATOM     22  C   UNL A   1      29.156  28.327  23.200  1.00  0.00     0.040 A 
ATOM     23  C   UNL A   1      27.885  28.911  23.235  1.00  0.00     0.015 A 
ATOM     24  C   UNL A   1      30.194  28.911  22.464  1.00  0.00     0.015 A 
ATOM     25  C   UNL A   1      27.626  30.030  22.440  1.00  0.00     0.021 A 
ATOM     26  C   UNL A   1      29.930  30.035  21.680  1.00  0.00     0.021 A 
ATOM     27  C   UNL A   1      28.643  30.573  21.651  1.00  0.00     0.041 A 
ATOM     28  Cl  UNL A   1      28.296  31.896  20.606  1.00  0.00    -0.084 Cl
ENDBRANCH  20  22
ENDBRANCH  15  20
ENDBRANCH   7   8
ENDBRANCH   4   7
ENDBRANCH   2   3
ENDBRANCH   1   2
BRANCH   1  29
ATOM     29  C   UNL A   1      37.548  22.955  25.498  1.00  0.00     0.118 C 
BRANCH  29  30
ATOM     30  N   UNL A   1      38.559  22.196  26.206  1.00  0.00    -0.352 N 
ATOM     31  C   UNL A   1      39.597  22.492  27.040  1.00  0.00     0.251 C 
ATOM     32  H   UNL A   1      38.475  21.227  26.047  1.00  0.00     0.163 HD
ATOM     33  O   UNL A   1      40.184  21.519  27.522  1.00  0.00    -0.269 OA
BRANCH  31  34
ATOM     34  C   UNL A   1      40.104  23.855  27.338  1.00  0.00     0.039 A 
ATOM     35  C   UNL A   1      41.345  24.156  27.902  1.00  0.00     0.014 A 
ATOM     36  C   UNL A   1      39.184  24.900  27.131  1.00  0.00     0.014 A 
ATOM     37  C   UNL A   1      41.594  25.430  28.398  1.00  0.00     0.010 A 
ATOM     38  C   UNL A   1      39.437  26.178  27.600  1.00  0.00     0.010 A 
ATOM     39  C   UNL A   1      40.603  26.409  28.318  1.00  0.00    -0.014 A 
BRANCH  39  40
ATOM     40  C   UNL A   1      40.812  27.657  29.040  1.00  0.00     0.031 A 
ATOM     41  C   UNL A   1      41.890  28.537  28.505  1.00  0.00     0.074 A 
ATOM     42  C   UNL A   1      40.027  28.009  30.079  1.00  0.00     0.049 A 
ATOM     43  N   UNL A   1      43.000  28.882  29.073  1.00  0.00    -0.248 NA
ATOM     44  C   UNL A   1      41.778  28.976  27.105  1.00  0.00     0.031 C 
ATOM     45  C   UNL A   1      38.800  27.371  30.567  1.00  0.00     0.029 A 
ATOM     46  N   UNL A   1      40.126  29.105  30.878  1.00  0.00    -0.354 N 
ATOM     47  C   UNL A   1      43.640  29.742  28.183  1.00  0.00     0.074 A 
ATOM     48  C   UNL A   1      42.918  29.648  26.939  1.00  0.00     0.031 C 
ATOM     49  C   UNL A   1      38.145  28.224  31.387  1.00  0.00     0.029 A 
ATOM     50  C   UNL A   1      38.975  29.394  31.601  1.00  0.00     0.049 A 
ATOM     51  H   UNL A   1      40.945  29.648  30.938  1.00  0.00     0.167 HD
ATOM     52  C   UNL A   1      44.615  30.610  28.578  1.00  0.00     0.037 A 
ATOM     53  C   UNL A   1      38.712  30.567  32.231  1.00  0.00     0.037 A 
ATOM     54  C   UNL A   1      45.136  30.272  29.875  1.00  0.00     0.049 A 
ATOM     55  C   UNL A   1      40.028  31.227  32.470  1.00  0.00     0.074 A 
ATOM     56  C   UNL A   1      45.816  29.185  30.387  1.00  0.00     0.029 A 
ATOM     57  N   UNL A   1      44.655  30.957  30.966  1.00  0.00    -0.354 N 
ATOM     58  N   UNL A   1      40.940  30.738  33.271  1.00  0.00    -0.248 NA
ATOM     59  C   UNL A   1      40.526  32.132  31.442  1.00  0.00     0.031 C 
ATOM     60  C   UNL A   1      45.268  28.992  31.689  1.00  0.00     0.029 A 
ATOM     61  C   UNL A   1      44.342  30.013  31.913  1.00  0.00     0.049 A 
ATOM     62  H   UNL A   1      44.554  31.932  31.050  1.00  0.00     0.167 HD
ATOM     63  C   UNL A   1      42.146  30.937  32.612  1.00  0.00     0.074 A 
ATOM     64  C   UNL A   1      41.831  31.849  31.511  1.00  0.00     0.031 C 
ATOM     65  C   UNL A   1      43.229  30.132  32.828  1.00  0.00     0.037 A 
BRANCH  52  66
ATOM     66  C   UNL A   1      44.882  31.944  27.929  1.00  0.00     0.058 A 
ATOM     67  C   UNL A   1      46.085  32.159  27.227  1.00  0.00     0.135 A 
ATOM     68  C   UNL A   1      44.122  33.099  28.214  1.00  0.00     0.135 A 
ATOM     69  F   UNL A   1      46.886  31.128  26.910  1.00  0.00    -0.206 F 
ATOM     70  C   UNL A   1      46.533  33.438  26.892  1.00  0.00     0.059 A 
ATOM     71  C   UNL A   1      44.525  34.378  27.845  1.00  0.00     0.059 A 
ATOM     72  F   UNL A   1      43.005  33.048  28.950  1.00  0.00    -0.206 F 
ATOM     73  C   UNL A   1      45.753  34.543  27.223  1.00  0.00     0.060 A 
BRANCH  73  74
ATOM     74  S   UNL A   1      46.389  36.200  26.911  1.00  0.00     0.124 S 
ATOM     75  O   UNL A   1      47.279  35.961  25.780  1.00  0.00    -0.237 OA
ATOM     76  O   UNL A   1      45.167  36.941  26.617  1.00  0.00    -0.237 OA
ATOM     77  O   UNL A   1      47.044  36.551  28.166  1.00  0.00    -0.744 OA
ENDBRANCH  73  74
ENDBRANCH  52  66
BRANCH  53  78
ATOM     78  C   UNL A   1      37.420  31.310  32.183  1.00  0.00     0.058 A 
ATOM     79  C   UNL A   1      36.823  31.836  33.343  1.00  0.00     0.135 A 
ATOM     80  C   UNL A   1      36.870  31.743  30.957  1.00  0.00     0.135 A 
ATOM     81  F   UNL A   1      37.298  31.503  34.552  1.00  0.00    -0.206 F 
ATOM     82  C   UNL A   1      35.768  32.758  33.288  1.00  0.00     0.059 A 
ATOM     83  C   UNL A   1      35.816  32.652  30.878  1.00  0.00     0.059 A 
ATOM     84  F   UNL A   1      37.401  31.364  29.786  1.00  0.00    -0.206 F 
ATOM     85  C   UNL A   1      35.283  33.175  32.049  1.00  0.00     0.060 A 
BRANCH  85  86
ATOM     86  S   UNL A   1      34.031  34.479  31.963  1.00  0.00     0.124 S 
ATOM     87  O   UNL A   1      33.658  34.449  30.553  1.00  0.00    -0.237 OA
ATOM     88  O   UNL A   1      33.022  33.995  32.900  1.00  0.00    -0.237 OA
ATOM     89  O   UNL A   1      34.753  35.674  32.391  1.00  0.00    -0.744 OA
ENDBRANCH  85  86
ENDBRANCH  53  78
BRANCH  65  90
ATOM     90  C   UNL A   1      43.175  29.131  33.956  1.00  0.00     0.058 A 
ATOM     91  C   UNL A   1      43.492  29.429  35.293  1.00  0.00     0.135 A 
ATOM     92  C   UNL A   1      42.613  27.872  33.701  1.00  0.00     0.135 A 
ATOM     93  F   UNL A   1      43.923  30.650  35.640  1.00  0.00    -0.206 F 
ATOM     94  C   UNL A   1      43.304  28.503  36.322  1.00  0.00     0.059 A 
ATOM     95  C   UNL A   1      42.389  26.942  34.714  1.00  0.00     0.059 A 
ATOM     96  F   UNL A   1      42.219  27.550  32.459  1.00  0.00    -0.206 F 
ATOM     97  C   UNL A   1      42.755  27.257  36.021  1.00  0.00     0.060 A 
BRANCH  97  98
ATOM     98  S   UNL A   1      42.478  26.067  37.353  1.00  0.00     0.124 S 
ATOM     99  O   UNL A   1      41.077  26.300  37.686  1.00  0.00    -0.237 OA
ATOM    100  O   UNL A   1      42.773  24.791  36.709  1.00  0.00    -0.237 OA
ATOM    101  O   UNL A   1      43.438  26.473  38.378  1.00  0.00    -0.744 OA
ENDBRANCH  97  98
ENDBRANCH  65  90
ENDBRANCH  39  40
ENDBRANCH  31  34
ENDBRANCH  29  30
ENDBRANCH   1  29
TORSDOF 17
ENDMDL
MODEL 2
REMARK VINA RESULT:     -13.3      3.079      5.016
REMARK SMILES COc1ccc2c(c1)c(CC(=O)NCCCNC(=O)c1ccc(-c3c4nc(c(-c5c(F)cc(S(=O)(=O)[O-])cc5F)c5ccc([nH]5)c(-c5c(F)cc(S(=O)(=O)[O-])cc5F)c5nc(c(-c6c(F)cc(S(=O)(=O)[O-])cc6F)c6ccc3[nH]6)C=C5)C=C4)cc1)c(C)n2C(=O)c1ccc(Cl)cc1
REMARK SMILES IDX 15 1 14 2 13 3 11 4 12 5 10 7 9 8 3 9 4 10 8 11 5 12 7 13
REMARK SMILES IDX 6 14 88 15 86 16 87 17 2 18 1 19 89 20 90 21 91 22 92 23
REMARK SMILES IDX 97 24 93 25 96 26 94 27 95 28 16 29 17 30 18 31 19 33 20 34
REMARK SMILES IDX 21 35 85 36 22 37 84 38 23 39 24 40 25 41 78 42 26 43 83 44
REMARK SMILES IDX 77 45 79 46 27 47 82 48 76 49 75 50 28 52 62 53 41 54 61 55
REMARK SMILES IDX 42 56 45 57 60 58 80 59 43 60 44 61 59 63 81 64 46 65 29 66
REMARK SMILES IDX 30 67 39 68 31 69 32 70 38 71 40 72 33 73 34 74 35 75 36 76
REMARK SMILES IDX 37 77 63 78 64 79 73 80 65 81 66 82 72 83 74 84 67 85 68 86
REMARK SMILES IDX 69 87 70 88 71 89 47 90 48 91 57 92 49 93 50 94 56 95 58 96
REMARK SMILES IDX 51 97 52 98 53 99 54 100 55 101
REMARK H PARENT 13 6 17 32 79 51 45 62
REMARK Flexibility Score: inf
ROOT
ATOM      1  C   UNL A   1      39.982  22.888  27.012  1.00  0.00     0.042 C 
ENDROOT
BRANCH   1   2
ATOM      2  C   UNL A   1      38.781  22.152  26.415  1.00  0.00     0.117 C 
BRANCH   2   3
ATOM      3  N   UNL A   1      38.313  22.763  25.182  1.00  0.00    -0.356 N 
ATOM      4  C   UNL A   1      37.097  23.311  24.896  1.00  0.00     0.224 C 
ATOM      5  O   UNL A   1      36.920  23.768  23.762  1.00  0.00    -0.275 OA
ATOM      6  H   UNL A   1      38.968  22.784  24.448  1.00  0.00     0.163 HD
BRANCH   4   7
ATOM      7  C   UNL A   1      36.024  23.407  25.965  1.00  0.00     0.138 C 
BRANCH   7   8
ATOM      8  C   UNL A   1      34.755  22.687  25.611  1.00  0.00    -0.009 A 
ATOM      9  C   UNL A   1      31.537  24.585  26.407  1.00  0.00     0.119 A 
ATOM     10  C   UNL A   1      30.670  23.573  26.030  1.00  0.00     0.048 A 
ATOM     11  C   UNL A   1      32.914  24.400  26.278  1.00  0.00     0.057 A 
ATOM     12  C   UNL A   1      31.160  22.357  25.542  1.00  0.00     0.031 A 
ATOM     13  C   UNL A   1      33.433  23.182  25.779  1.00  0.00     0.008 A 
ATOM     14  C   UNL A   1      32.547  22.176  25.377  1.00  0.00     0.057 A 
ATOM     15  N   UNL A   1      33.308  21.129  24.820  1.00  0.00    -0.280 N 
ATOM     16  C   UNL A   1      34.651  21.385  25.136  1.00  0.00     0.028 A 
ATOM     17  C   UNL A   1      35.773  20.406  24.948  1.00  0.00     0.065 C 
BRANCH   9  18
ATOM     18  O   UNL A   1      31.136  25.802  26.889  1.00  0.00    -0.497 OA
ATOM     19  C   UNL A   1      31.837  26.910  26.332  1.00  0.00     0.278 C 
ENDBRANCH   9  18
BRANCH  15  20
ATOM     20  C   UNL A   1      32.810  20.027  24.068  1.00  0.00     0.262 C 
ATOM     21  O   UNL A   1      32.175  20.255  23.039  1.00  0.00    -0.268 OA
BRANCH  20  22
ATOM     22  C   UNL A   1      32.971  18.607  24.418  1.00  0.00     0.040 A 
ATOM     23  C   UNL A   1      33.424  17.684  23.468  1.00  0.00     0.015 A 
ATOM     24  C   UNL A   1      32.623  18.195  25.709  1.00  0.00     0.015 A 
ATOM     25  C   UNL A   1      33.426  16.324  23.786  1.00  0.00     0.021 A 
ATOM     26  C   UNL A   1      32.638  16.836  26.023  1.00  0.00     0.021 A 
ATOM     27  C   UNL A   1      33.014  15.905  25.053  1.00  0.00     0.041 A 
ATOM     28  Cl  UNL A   1      32.935  14.223  25.410  1.00  0.00    -0.084 Cl
ENDBRANCH  20  22
ENDBRANCH  15  20
ENDBRANCH   7   8
ENDBRANCH   4   7
ENDBRANCH   2   3
ENDBRANCH   1   2
BRANCH   1  29
ATOM     29  C   UNL A   1      41.278  22.078  26.937  1.00  0.00     0.118 C 
BRANCH  29  30
ATOM     30  N   UNL A   1      42.062  22.356  25.750  1.00  0.00    -0.352 N 
ATOM     31  C   UNL A   1      42.837  23.390  25.312  1.00  0.00     0.251 C 
ATOM     32  H   UNL A   1      42.029  21.616  25.101  1.00  0.00     0.163 HD
ATOM     33  O   UNL A   1      43.430  23.194  24.247  1.00  0.00    -0.269 OA
BRANCH  31  34
ATOM     34  C   UNL A   1      42.953  24.720  25.963  1.00  0.00     0.039 A 
ATOM     35  C   UNL A   1      43.714  25.007  27.097  1.00  0.00     0.014 A 
ATOM     36  C   UNL A   1      42.119  25.724  25.434  1.00  0.00     0.014 A 
ATOM     37  C   UNL A   1      43.521  26.202  27.779  1.00  0.00     0.010 A 
ATOM     38  C   UNL A   1      41.944  26.927  26.097  1.00  0.00     0.010 A 
ATOM     39  C   UNL A   1      42.575  27.117  27.319  1.00  0.00    -0.014 A 
BRANCH  39  40
ATOM     40  C   UNL A   1      42.242  28.249  28.174  1.00  0.00     0.031 A 
ATOM     41  C   UNL A   1      43.259  29.338  28.222  1.00  0.00     0.074 A 
ATOM     42  C   UNL A   1      41.059  28.323  28.816  1.00  0.00     0.049 A 
ATOM     43  N   UNL A   1      43.966  29.731  29.232  1.00  0.00    -0.248 NA
ATOM     44  C   UNL A   1      43.633  29.978  26.951  1.00  0.00     0.031 C 
ATOM     45  C   UNL A   1      39.881  27.458  28.683  1.00  0.00     0.029 A 
ATOM     46  N   UNL A   1      40.626  29.279  29.680  1.00  0.00    -0.354 N 
ATOM     47  C   UNL A   1      44.735  30.800  28.776  1.00  0.00     0.074 A 
ATOM     48  C   UNL A   1      44.598  30.813  27.341  1.00  0.00     0.031 C 
ATOM     49  C   UNL A   1      38.808  28.074  29.229  1.00  0.00     0.029 A 
ATOM     50  C   UNL A   1      39.250  29.293  29.878  1.00  0.00     0.049 A 
ATOM     51  H   UNL A   1      41.236  29.909  30.127  1.00  0.00     0.167 HD
ATOM     52  C   UNL A   1      45.291  31.714  29.621  1.00  0.00     0.037 A 
ATOM     53  C   UNL A   1      38.544  30.304  30.445  1.00  0.00     0.037 A 
ATOM     54  C   UNL A   1      45.307  31.244  30.980  1.00  0.00     0.049 A 
ATOM     55  C   UNL A   1      39.508  31.085  31.273  1.00  0.00     0.074 A 
ATOM     56  C   UNL A   1      45.917  30.188  31.627  1.00  0.00     0.029 A 
ATOM     57  N   UNL A   1      44.313  31.674  31.827  1.00  0.00    -0.354 N 
ATOM     58  N   UNL A   1      40.100  30.598  32.333  1.00  0.00    -0.248 NA
ATOM     59  C   UNL A   1      40.195  32.201  30.637  1.00  0.00     0.031 C 
ATOM     60  C   UNL A   1      44.944  29.717  32.556  1.00  0.00     0.029 A 
ATOM     61  C   UNL A   1      43.832  30.557  32.465  1.00  0.00     0.049 A 
ATOM     62  H   UNL A   1      44.007  32.601  31.951  1.00  0.00     0.167 HD
ATOM     63  C   UNL A   1      41.408  31.059  32.261  1.00  0.00     0.074 A 
ATOM     64  C   UNL A   1      41.393  32.086  31.219  1.00  0.00     0.031 C 
ATOM     65  C   UNL A   1      42.446  30.379  32.836  1.00  0.00     0.037 A 
BRANCH  52  66
ATOM     66  C   UNL A   1      45.540  33.158  29.270  1.00  0.00     0.058 A 
ATOM     67  C   UNL A   1      44.461  33.994  28.917  1.00  0.00     0.135 A 
ATOM     68  C   UNL A   1      46.828  33.670  28.998  1.00  0.00     0.135 A 
ATOM     69  F   UNL A   1      43.194  33.602  29.126  1.00  0.00    -0.206 F 
ATOM     70  C   UNL A   1      44.648  35.221  28.277  1.00  0.00     0.059 A 
ATOM     71  C   UNL A   1      47.038  34.911  28.409  1.00  0.00     0.059 A 
ATOM     72  F   UNL A   1      47.934  32.945  29.203  1.00  0.00    -0.206 F 
ATOM     73  C   UNL A   1      45.942  35.661  28.011  1.00  0.00     0.060 A 
BRANCH  73  74
ATOM     74  S   UNL A   1      46.183  37.179  27.070  1.00  0.00     0.124 S 
ATOM     75  O   UNL A   1      47.070  37.930  27.951  1.00  0.00    -0.237 OA
ATOM     76  O   UNL A   1      46.781  36.677  25.837  1.00  0.00    -0.237 OA
ATOM     77  O   UNL A   1      44.831  37.709  26.934  1.00  0.00    -0.744 OA
ENDBRANCH  73  74
ENDBRANCH  52  66
BRANCH  53  78
ATOM     78  C   UNL A   1      37.263  30.867  29.929  1.00  0.00     0.058 A 
ATOM     79  C   UNL A   1      36.296  31.417  30.788  1.00  0.00     0.135 A 
ATOM     80  C   UNL A   1      37.075  31.112  28.551  1.00  0.00     0.135 A 
ATOM     81  F   UNL A   1      36.409  31.261  32.115  1.00  0.00    -0.206 F 
ATOM     82  C   UNL A   1      35.225  32.189  30.312  1.00  0.00     0.059 A 
ATOM     83  C   UNL A   1      36.013  31.867  28.055  1.00  0.00     0.059 A 
ATOM     84  F   UNL A   1      37.969  30.697  27.643  1.00  0.00    -0.206 F 
ATOM     85  C   UNL A   1      35.103  32.424  28.943  1.00  0.00     0.060 A 
BRANCH  85  86
ATOM     86  S   UNL A   1      33.818  33.542  28.332  1.00  0.00     0.124 S 
ATOM     87  O   UNL A   1      32.920  32.624  27.640  1.00  0.00    -0.237 OA
ATOM     88  O   UNL A   1      33.307  34.125  29.568  1.00  0.00    -0.237 OA
ATOM     89  O   UNL A   1      34.552  34.465  27.468  1.00  0.00    -0.744 OA
ENDBRANCH  85  86
ENDBRANCH  53  78
BRANCH  65  90
ATOM     90  C   UNL A   1      42.137  29.211  33.740  1.00  0.00     0.058 A 
ATOM     91  C   UNL A   1      42.129  27.868  33.321  1.00  0.00     0.135 A 
ATOM     92  C   UNL A   1      42.018  29.447  35.116  1.00  0.00     0.135 A 
ATOM     93  F   UNL A   1      42.354  27.548  32.038  1.00  0.00    -0.206 F 
ATOM     94  C   UNL A   1      41.962  26.813  34.221  1.00  0.00     0.059 A 
ATOM     95  C   UNL A   1      41.879  28.411  36.037  1.00  0.00     0.059 A 
ATOM     96  F   UNL A   1      42.092  30.701  35.592  1.00  0.00    -0.206 F 
ATOM     97  C   UNL A   1      41.833  27.096  35.580  1.00  0.00     0.060 A 
BRANCH  97  98
ATOM     98  S   UNL A   1      41.651  25.734  36.754  1.00  0.00     0.124 S 
ATOM     99  O   UNL A   1      42.934  25.753  37.448  1.00  0.00    -0.237 OA
ATOM    100  O   UNL A   1      40.496  26.145  37.545  1.00  0.00    -0.237 OA
ATOM    101  O   UNL A   1      41.424  24.572  35.896  1.00  0.00    -0.744 OA
ENDBRANCH  97  98
ENDBRANCH  65  90
ENDBRANCH  39  40
ENDBRANCH  31  34
ENDBRANCH  29  30
ENDBRANCH   1  29
TORSDOF 17
ENDMDL
MODEL 3
REMARK VINA RESULT:     -13.3      3.515      9.662
REMARK SMILES COc1ccc2c(c1)c(CC(=O)NCCCNC(=O)c1ccc(-c3c4nc(c(-c5c(F)cc(S(=O)(=O)[O-])cc5F)c5ccc([nH]5)c(-c5c(F)cc(S(=O)(=O)[O-])cc5F)c5nc(c(-c6c(F)cc(S(=O)(=O)[O-])cc6F)c6ccc3[nH]6)C=C5)C=C4)cc1)c(C)n2C(=O)c1ccc(Cl)cc1
REMARK SMILES IDX 15 1 14 2 13 3 11 4 12 5 10 7 9 8 3 9 4 10 8 11 5 12 7 13
REMARK SMILES IDX 6 14 88 15 86 16 87 17 2 18 1 19 89 20 90 21 91 22 92 23
REMARK SMILES IDX 97 24 93 25 96 26 94 27 95 28 16 29 17 30 18 31 19 33 20 34
REMARK SMILES IDX 21 35 85 36 22 37 84 38 23 39 24 40 25 41 78 42 26 43 83 44
REMARK SMILES IDX 77 45 79 46 27 47 82 48 76 49 75 50 28 52 62 53 41 54 61 55
REMARK SMILES IDX 42 56 45 57 60 58 80 59 43 60 44 61 59 63 81 64 46 65 29 66
REMARK SMILES IDX 30 67 39 68 31 69 32 70 38 71 40 72 33 73 34 74 35 75 36 76
REMARK SMILES IDX 37 77 63 78 64 79 73 80 65 81 66 82 72 83 74 84 67 85 68 86
REMARK SMILES IDX 69 87 70 88 71 89 47 90 48 91 57 92 49 93 50 94 56 95 58 96
REMARK SMILES IDX 51 97 52 98 53 99 54 100 55 101
REMARK H PARENT 13 6 17 32 79 51 45 62
REMARK Flexibility Score: inf
ROOT
ATOM      1  C   UNL A   1      33.082  28.602  27.414  1.00  0.00     0.042 C 
ENDROOT
BRANCH   1   2
ATOM      2  C   UNL A   1      31.788  28.395  26.625  1.00  0.00     0.117 C 
BRANCH   2   3
ATOM      3  N   UNL A   1      32.036  28.004  25.247  1.00  0.00    -0.356 N 
ATOM      4  C   UNL A   1      32.380  26.785  24.743  1.00  0.00     0.224 C 
ATOM      5  O   UNL A   1      32.552  26.689  23.523  1.00  0.00    -0.275 OA
ATOM      6  H   UNL A   1      31.942  28.724  24.582  1.00  0.00     0.163 HD
BRANCH   4   7
ATOM      7  C   UNL A   1      32.485  25.575  25.655  1.00  0.00     0.138 C 
BRANCH   7   8
ATOM      8  C   UNL A   1      32.952  24.333  24.954  1.00  0.00    -0.009 A 
ATOM      9  C   UNL A   1      36.698  23.632  25.222  1.00  0.00     0.119 A 
ATOM     10  C   UNL A   1      36.699  22.515  24.402  1.00  0.00     0.048 A 
ATOM     11  C   UNL A   1      35.497  24.290  25.492  1.00  0.00     0.057 A 
ATOM     12  C   UNL A   1      35.514  22.052  23.823  1.00  0.00     0.031 A 
ATOM     13  C   UNL A   1      34.284  23.835  24.924  1.00  0.00     0.008 A 
ATOM     14  C   UNL A   1      34.293  22.691  24.119  1.00  0.00     0.057 A 
ATOM     15  N   UNL A   1      32.959  22.391  23.780  1.00  0.00    -0.280 N 
ATOM     16  C   UNL A   1      32.183  23.501  24.149  1.00  0.00     0.028 A 
ATOM     17  C   UNL A   1      30.750  23.709  23.754  1.00  0.00     0.065 C 
BRANCH   9  18
ATOM     18  O   UNL A   1      37.814  24.144  25.828  1.00  0.00    -0.497 OA
ATOM     19  C   UNL A   1      38.659  23.161  26.420  1.00  0.00     0.278 C 
ENDBRANCH   9  18
BRANCH  15  20
ATOM     20  C   UNL A   1      32.485  21.186  23.187  1.00  0.00     0.262 C 
ATOM     21  O   UNL A   1      31.982  21.240  22.064  1.00  0.00    -0.268 OA
BRANCH  20  22
ATOM     22  C   UNL A   1      32.523  19.853  23.806  1.00  0.00     0.040 A 
ATOM     23  C   UNL A   1      32.517  19.711  25.198  1.00  0.00     0.015 A 
ATOM     24  C   UNL A   1      32.603  18.733  22.971  1.00  0.00     0.015 A 
ATOM     25  C   UNL A   1      32.702  18.443  25.755  1.00  0.00     0.021 A 
ATOM     26  C   UNL A   1      32.776  17.468  23.535  1.00  0.00     0.021 A 
ATOM     27  C   UNL A   1      32.851  17.332  24.921  1.00  0.00     0.041 A 
ATOM     28  Cl  UNL A   1      33.166  15.787  25.611  1.00  0.00    -0.084 Cl
ENDBRANCH  20  22
ENDBRANCH  15  20
ENDBRANCH   7   8
ENDBRANCH   4   7
ENDBRANCH   2   3
ENDBRANCH   1   2
BRANCH   1  29
ATOM     29  C   UNL A   1      34.164  29.328  26.611  1.00  0.00     0.118 C 
BRANCH  29  30
ATOM     30  N   UNL A   1      34.323  30.719  26.985  1.00  0.00    -0.352 N 
ATOM     31  C   UNL A   1      35.279  31.456  27.620  1.00  0.00     0.251 C 
ATOM     32  H   UNL A   1      33.551  31.267  26.713  1.00  0.00     0.163 HD
ATOM     33  O   UNL A   1      35.069  32.672  27.663  1.00  0.00    -0.269 OA
BRANCH  31  34
ATOM     34  C   UNL A   1      36.475  30.911  28.310  1.00  0.00     0.039 A 
ATOM     35  C   UNL A   1      37.482  31.666  28.913  1.00  0.00     0.014 A 
ATOM     36  C   UNL A   1      36.634  29.514  28.226  1.00  0.00     0.014 A 
ATOM     37  C   UNL A   1      38.683  31.067  29.269  1.00  0.00     0.010 A 
ATOM     38  C   UNL A   1      37.821  28.908  28.604  1.00  0.00     0.010 A 
ATOM     39  C   UNL A   1      38.874  29.705  29.033  1.00  0.00    -0.014 A 
BRANCH  39  40
ATOM     40  C   UNL A   1      40.213  29.159  29.211  1.00  0.00     0.031 A 
ATOM     41  C   UNL A   1      40.663  29.010  30.624  1.00  0.00     0.074 A 
ATOM     42  C   UNL A   1      40.954  28.755  28.159  1.00  0.00     0.049 A 
ATOM     43  N   UNL A   1      41.634  29.619  31.225  1.00  0.00    -0.248 NA
ATOM     44  C   UNL A   1      39.842  28.178  31.517  1.00  0.00     0.031 C 
ATOM     45  C   UNL A   1      40.563  28.622  26.751  1.00  0.00     0.029 A 
ATOM     46  N   UNL A   1      42.226  28.276  28.158  1.00  0.00    -0.354 N 
ATOM     47  C   UNL A   1      41.673  29.105  32.520  1.00  0.00     0.074 A 
ATOM     48  C   UNL A   1      40.465  28.335  32.685  1.00  0.00     0.031 C 
ATOM     49  C   UNL A   1      41.477  27.865  26.101  1.00  0.00     0.029 A 
ATOM     50  C   UNL A   1      42.581  27.593  27.000  1.00  0.00     0.049 A 
ATOM     51  H   UNL A   1      42.844  28.402  28.914  1.00  0.00     0.167 HD
ATOM     52  C   UNL A   1      42.780  29.198  33.310  1.00  0.00     0.037 A 
ATOM     53  C   UNL A   1      43.662  26.783  26.861  1.00  0.00     0.037 A 
ATOM     54  C   UNL A   1      43.711  30.174  32.812  1.00  0.00     0.049 A 
ATOM     55  C   UNL A   1      44.635  27.186  27.917  1.00  0.00     0.074 A 
ATOM     56  C   UNL A   1      43.663  31.540  32.619  1.00  0.00     0.029 A 
ATOM     57  N   UNL A   1      44.780  29.731  32.070  1.00  0.00    -0.354 N 
ATOM     58  N   UNL A   1      45.227  28.353  27.939  1.00  0.00    -0.248 NA
ATOM     59  C   UNL A   1      44.554  26.508  29.204  1.00  0.00     0.031 C 
ATOM     60  C   UNL A   1      44.352  31.760  31.391  1.00  0.00     0.029 A 
ATOM     61  C   UNL A   1      44.836  30.525  30.951  1.00  0.00     0.049 A 
ATOM     62  H   UNL A   1      45.386  28.989  32.297  1.00  0.00     0.167 HD
ATOM     63  C   UNL A   1      45.224  28.736  29.274  1.00  0.00     0.074 A 
ATOM     64  C   UNL A   1      44.842  27.532  30.013  1.00  0.00     0.031 C 
ATOM     65  C   UNL A   1      45.246  30.050  29.649  1.00  0.00     0.037 A 
BRANCH  52  66
ATOM     66  C   UNL A   1      43.163  28.188  34.361  1.00  0.00     0.058 A 
ATOM     67  C   UNL A   1      43.360  28.598  35.695  1.00  0.00     0.135 A 
ATOM     68  C   UNL A   1      43.616  26.888  34.045  1.00  0.00     0.135 A 
ATOM     69  F   UNL A   1      42.972  29.818  36.101  1.00  0.00    -0.206 F 
ATOM     70  C   UNL A   1      44.020  27.798  36.630  1.00  0.00     0.059 A 
ATOM     71  C   UNL A   1      44.230  26.055  34.974  1.00  0.00     0.059 A 
ATOM     72  F   UNL A   1      43.571  26.407  32.797  1.00  0.00    -0.206 F 
ATOM     73  C   UNL A   1      44.468  26.535  36.253  1.00  0.00     0.060 A 
BRANCH  73  74
ATOM     74  S   UNL A   1      45.434  25.556  37.417  1.00  0.00     0.124 S 
ATOM     75  O   UNL A   1      44.537  25.499  38.565  1.00  0.00    -0.237 OA
ATOM     76  O   UNL A   1      45.614  24.307  36.683  1.00  0.00    -0.237 OA
ATOM     77  O   UNL A   1      46.645  26.349  37.600  1.00  0.00    -0.744 OA
ENDBRANCH  73  74
ENDBRANCH  52  66
BRANCH  53  78
ATOM     78  C   UNL A   1      43.664  25.440  26.214  1.00  0.00     0.058 A 
ATOM     79  C   UNL A   1      44.573  25.112  25.192  1.00  0.00     0.135 A 
ATOM     80  C   UNL A   1      42.941  24.361  26.766  1.00  0.00     0.135 A 
ATOM     81  F   UNL A   1      45.326  26.069  24.629  1.00  0.00    -0.206 F 
ATOM     82  C   UNL A   1      44.773  23.790  24.766  1.00  0.00     0.059 A 
ATOM     83  C   UNL A   1      43.116  23.041  26.352  1.00  0.00     0.059 A 
ATOM     84  F   UNL A   1      42.098  24.542  27.792  1.00  0.00    -0.206 F 
ATOM     85  C   UNL A   1      44.052  22.758  25.366  1.00  0.00     0.060 A 
BRANCH  85  86
ATOM     86  S   UNL A   1      44.413  21.038  24.935  1.00  0.00     0.124 S 
ATOM     87  O   UNL A   1      43.229  20.346  25.432  1.00  0.00    -0.237 OA
ATOM     88  O   UNL A   1      44.550  21.108  23.485  1.00  0.00    -0.237 OA
ATOM     89  O   UNL A   1      45.649  20.756  25.662  1.00  0.00    -0.744 OA
ENDBRANCH  85  86
ENDBRANCH  53  78
BRANCH  65  90
ATOM     90  C   UNL A   1      45.481  31.102  28.593  1.00  0.00     0.058 A 
ATOM     91  C   UNL A   1      44.467  31.663  27.796  1.00  0.00     0.135 A 
ATOM     92  C   UNL A   1      46.752  31.688  28.509  1.00  0.00     0.135 A 
ATOM     93  F   UNL A   1      43.199  31.240  27.902  1.00  0.00    -0.206 F 
ATOM     94  C   UNL A   1      44.715  32.723  26.921  1.00  0.00     0.059 A 
ATOM     95  C   UNL A   1      47.017  32.765  27.666  1.00  0.00     0.059 A 
ATOM     96  F   UNL A   1      47.748  31.250  29.296  1.00  0.00    -0.206 F 
ATOM     97  C   UNL A   1      45.998  33.266  26.860  1.00  0.00     0.060 A 
BRANCH  97  98
ATOM     98  S   UNL A   1      46.317  34.660  25.755  1.00  0.00     0.124 S 
ATOM     99  O   UNL A   1      47.721  34.465  25.413  1.00  0.00    -0.237 OA
ATOM    100  O   UNL A   1      45.364  34.437  24.673  1.00  0.00    -0.237 OA
ATOM    101  O   UNL A   1      46.035  35.828  26.589  1.00  0.00    -0.744 OA
ENDBRANCH  97  98
ENDBRANCH  65  90
ENDBRANCH  39  40
ENDBRANCH  31  34
ENDBRANCH  29  30
ENDBRANCH   1  29
TORSDOF 17
ENDMDL
