MODEL 1
REMARK VINA RESULT:     -11.4      0.000      0.000
REMARK SMILES C[C@H](CNC(=O)Cc1ccc(F)c(F)c1)C(=O)NCCCNC(=O)c1ccc(-c2c3nc(c(-c4c(F)cc(S(=O)(=O)[O-])cc4F)c4ccc([nH]4)c(-c4c(F)cc(S(=O)(=O)[O-])cc4F)c4nc(c(-c5c(F)cc(S(=O)(=O)[O-])cc5F)c5ccc2[nH]5)C=C4)C=C3)cc1
REMARK SMILES IDX 19 1 18 2 16 3 17 4 2 6 1 7 3 8 4 9 5 10 6 12 7 13 8 14 9 15
REMARK SMILES IDX 15 16 10 17 13 18 11 19 14 20 12 21 20 22 21 23 22 24 23 25
REMARK SMILES IDX 24 27 25 28 26 29 90 30 27 31 89 32 28 33 29 34 30 35 83 36
REMARK SMILES IDX 31 37 88 38 82 39 84 40 32 41 87 42 81 43 80 44 33 46 67 47
REMARK SMILES IDX 46 48 66 49 47 50 50 51 65 52 85 53 48 54 49 55 64 57 86 58
REMARK SMILES IDX 51 59 34 60 35 61 44 62 36 63 37 64 43 65 45 66 38 67 39 68
REMARK SMILES IDX 40 69 41 70 42 71 68 72 69 73 78 74 70 75 71 76 77 77 79 78
REMARK SMILES IDX 72 79 73 80 74 81 75 82 76 83 52 84 53 85 62 86 54 87 55 88
REMARK SMILES IDX 61 89 63 90 56 91 57 92 58 93 59 94 60 95
REMARK H PARENT 18 5 4 11 22 26 84 45 50 56
REMARK Flexibility Score: inf
ROOT
ATOM      1  C   UNL A   1      37.142  20.733  25.143  1.00  0.00     0.117 C 
ENDROOT
BRANCH   1   2
ATOM      2  N   UNL A   1      37.021  21.598  23.984  1.00  0.00    -0.356 N 
ATOM      3  C   UNL A   1      36.472  22.832  23.848  1.00  0.00     0.224 C 
ATOM      4  O   UNL A   1      36.376  23.296  22.711  1.00  0.00    -0.275 OA
ATOM      5  H   UNL A   1      37.400  21.226  23.154  1.00  0.00     0.163 HD
BRANCH   3   6
ATOM      6  C   UNL A   1      36.019  23.643  25.051  1.00  0.00     0.094 C 
ATOM      7  C   UNL A   1      37.160  23.781  26.068  1.00  0.00     0.020 C 
BRANCH   6   8
ATOM      8  C   UNL A   1      34.598  23.256  25.541  1.00  0.00     0.129 C 
BRANCH   8   9
ATOM      9  N   UNL A   1      33.556  23.285  24.525  1.00  0.00    -0.355 N 
ATOM     10  C   UNL A   1      32.650  22.368  24.083  1.00  0.00     0.224 C 
ATOM     11  H   UNL A   1      33.492  24.149  24.057  1.00  0.00     0.163 HD
ATOM     12  O   UNL A   1      31.993  22.679  23.085  1.00  0.00    -0.275 OA
BRANCH  10  13
ATOM     13  C   UNL A   1      32.400  21.061  24.812  1.00  0.00     0.135 C 
BRANCH  13  14
ATOM     14  C   UNL A   1      32.975  19.793  24.216  1.00  0.00    -0.036 A 
ATOM     15  C   UNL A   1      32.266  19.078  23.239  1.00  0.00     0.007 A 
ATOM     16  C   UNL A   1      34.145  19.217  24.707  1.00  0.00     0.046 A 
ATOM     17  C   UNL A   1      32.715  17.822  22.801  1.00  0.00     0.043 A 
ATOM     18  C   UNL A   1      34.587  17.968  24.291  1.00  0.00     0.159 A 
ATOM     19  C   UNL A   1      33.869  17.267  23.344  1.00  0.00     0.158 A 
ATOM     20  F   UNL A   1      35.693  17.450  24.843  1.00  0.00    -0.204 F 
ATOM     21  F   UNL A   1      34.271  16.050  22.959  1.00  0.00    -0.204 F 
ENDBRANCH  13  14
ENDBRANCH  10  13
ENDBRANCH   8   9
ENDBRANCH   6   8
ENDBRANCH   3   6
ENDBRANCH   1   2
BRANCH   1  22
ATOM     22  C   UNL A   1      38.393  19.878  25.036  1.00  0.00     0.042 C 
BRANCH  22  23
ATOM     23  C   UNL A   1      39.426  20.253  26.079  1.00  0.00     0.118 C 
BRANCH  23  24
ATOM     24  N   UNL A   1      40.539  19.314  26.103  1.00  0.00    -0.352 N 
ATOM     25  C   UNL A   1      41.889  19.576  26.187  1.00  0.00     0.251 C 
ATOM     26  H   UNL A   1      40.293  18.362  26.052  1.00  0.00     0.163 HD
ATOM     27  O   UNL A   1      42.702  18.695  25.975  1.00  0.00    -0.269 OA
BRANCH  25  28
ATOM     28  C   UNL A   1      42.322  20.951  26.518  1.00  0.00     0.039 A 
ATOM     29  C   UNL A   1      42.458  21.324  27.855  1.00  0.00     0.014 A 
ATOM     30  C   UNL A   1      42.638  21.847  25.495  1.00  0.00     0.014 A 
ATOM     31  C   UNL A   1      42.983  22.581  28.165  1.00  0.00     0.010 A 
ATOM     32  C   UNL A   1      43.266  23.042  25.804  1.00  0.00     0.010 A 
ATOM     33  C   UNL A   1      43.428  23.433  27.141  1.00  0.00    -0.014 A 
BRANCH  33  34
ATOM     34  C   UNL A   1      44.025  24.763  27.417  1.00  0.00     0.031 A 
ATOM     35  C   UNL A   1      43.129  25.886  27.868  1.00  0.00     0.074 A 
ATOM     36  C   UNL A   1      45.329  24.988  27.165  1.00  0.00     0.049 A 
ATOM     37  N   UNL A   1      43.393  27.160  27.986  1.00  0.00    -0.248 NA
ATOM     38  C   UNL A   1      41.732  25.532  28.182  1.00  0.00     0.031 C 
ATOM     39  C   UNL A   1      46.287  23.989  26.684  1.00  0.00     0.029 A 
ATOM     40  N   UNL A   1      46.071  26.139  27.258  1.00  0.00    -0.354 N 
ATOM     41  C   UNL A   1      42.193  27.760  28.351  1.00  0.00     0.074 A 
ATOM     42  C   UNL A   1      41.188  26.722  28.376  1.00  0.00     0.031 C 
ATOM     43  C   UNL A   1      47.492  24.567  26.542  1.00  0.00     0.029 A 
ATOM     44  C   UNL A   1      47.383  25.985  26.873  1.00  0.00     0.049 A 
ATOM     45  H   UNL A   1      45.699  26.995  27.570  1.00  0.00     0.167 HD
ATOM     46  C   UNL A   1      41.956  29.056  28.662  1.00  0.00     0.037 A 
ATOM     47  C   UNL A   1      48.378  26.889  26.782  1.00  0.00     0.037 A 
ATOM     48  C   UNL A   1      42.977  30.068  28.683  1.00  0.00     0.049 A 
ATOM     49  C   UNL A   1      48.098  28.321  27.152  1.00  0.00     0.074 A 
ATOM     50  C   UNL A   1      42.860  31.398  29.043  1.00  0.00     0.029 A 
ATOM     51  N   UNL A   1      44.305  29.858  28.339  1.00  0.00    -0.354 N 
ATOM     52  N   UNL A   1      46.967  28.865  27.536  1.00  0.00    -0.248 NA
ATOM     53  C   UNL A   1      49.224  29.261  27.081  1.00  0.00     0.031 C 
ATOM     54  C   UNL A   1      44.111  32.003  28.882  1.00  0.00     0.029 A 
ATOM     55  C   UNL A   1      45.017  31.037  28.471  1.00  0.00     0.049 A 
ATOM     56  H   UNL A   1      44.683  28.999  28.046  1.00  0.00     0.167 HD
ATOM     57  C   UNL A   1      47.255  30.202  27.791  1.00  0.00     0.074 A 
ATOM     58  C   UNL A   1      48.665  30.384  27.515  1.00  0.00     0.031 C 
ATOM     59  C   UNL A   1      46.428  31.187  28.220  1.00  0.00     0.037 A 
BRANCH  46  60
ATOM     60  C   UNL A   1      40.547  29.444  29.012  1.00  0.00     0.058 A 
ATOM     61  C   UNL A   1      40.154  29.684  30.339  1.00  0.00     0.135 A 
ATOM     62  C   UNL A   1      39.579  29.603  28.006  1.00  0.00     0.135 A 
ATOM     63  F   UNL A   1      41.033  29.529  31.343  1.00  0.00    -0.206 F 
ATOM     64  C   UNL A   1      38.848  30.034  30.661  1.00  0.00     0.059 A 
ATOM     65  C   UNL A   1      38.274  29.983  28.302  1.00  0.00     0.059 A 
ATOM     66  F   UNL A   1      39.898  29.384  26.721  1.00  0.00    -0.206 F 
ATOM     67  C   UNL A   1      37.914  30.181  29.634  1.00  0.00     0.060 A 
BRANCH  67  68
ATOM     68  S   UNL A   1      36.223  30.640  30.068  1.00  0.00     0.124 S 
ATOM     69  O   UNL A   1      36.383  32.052  30.405  1.00  0.00    -0.237 OA
ATOM     70  O   UNL A   1      35.497  30.363  28.832  1.00  0.00    -0.237 OA
ATOM     71  O   UNL A   1      35.907  29.759  31.188  1.00  0.00    -0.744 OA
ENDBRANCH  67  68
ENDBRANCH  46  60
BRANCH  47  72
ATOM     72  C   UNL A   1      49.735  26.461  26.346  1.00  0.00     0.058 A 
ATOM     73  C   UNL A   1      50.640  25.901  27.259  1.00  0.00     0.135 A 
ATOM     74  C   UNL A   1      50.147  26.584  25.010  1.00  0.00     0.135 A 
ATOM     75  F   UNL A   1      50.294  25.765  28.548  1.00  0.00    -0.206 F 
ATOM     76  C   UNL A   1      51.913  25.496  26.870  1.00  0.00     0.059 A 
ATOM     77  C   UNL A   1      51.406  26.163  24.591  1.00  0.00     0.059 A 
ATOM     78  F   UNL A   1      49.312  27.096  24.092  1.00  0.00    -0.206 F 
ATOM     79  C   UNL A   1      52.287  25.630  25.532  1.00  0.00     0.060 A 
BRANCH  79  80
ATOM     80  S   UNL A   1      53.925  25.060  25.028  1.00  0.00     0.124 S 
ATOM     81  O   UNL A   1      54.118  25.792  23.782  1.00  0.00    -0.237 OA
ATOM     82  O   UNL A   1      54.755  25.481  26.152  1.00  0.00    -0.237 OA
ATOM     83  O   UNL A   1      53.751  23.617  24.893  1.00  0.00    -0.744 OA
ENDBRANCH  79  80
ENDBRANCH  47  72
BRANCH  59  84
ATOM     84  C   UNL A   1      47.029  32.537  28.485  1.00  0.00     0.058 A 
ATOM     85  C   UNL A   1      47.694  32.830  29.684  1.00  0.00     0.135 A 
ATOM     86  C   UNL A   1      47.023  33.518  27.479  1.00  0.00     0.135 A 
ATOM     87  F   UNL A   1      47.723  31.929  30.678  1.00  0.00    -0.206 F 
ATOM     88  C   UNL A   1      48.328  34.053  29.880  1.00  0.00     0.059 A 
ATOM     89  C   UNL A   1      47.672  34.737  27.644  1.00  0.00     0.059 A 
ATOM     90  F   UNL A   1      46.408  33.282  26.309  1.00  0.00    -0.206 F 
ATOM     91  C   UNL A   1      48.318  34.997  28.851  1.00  0.00     0.060 A 
BRANCH  91  92
ATOM     92  S   UNL A   1      49.204  36.551  29.093  1.00  0.00     0.124 S 
ATOM     93  O   UNL A   1      49.150  36.696  30.543  1.00  0.00    -0.237 OA
ATOM     94  O   UNL A   1      50.518  36.251  28.532  1.00  0.00    -0.237 OA
ATOM     95  O   UNL A   1      48.412  37.515  28.335  1.00  0.00    -0.744 OA
ENDBRANCH  91  92
ENDBRANCH  59  84
ENDBRANCH  33  34
ENDBRANCH  25  28
ENDBRANCH  23  24
ENDBRANCH  22  23
ENDBRANCH   1  22
TORSDOF 17
ENDMDL
MODEL 2
REMARK VINA RESULT:     -11.4      4.996     10.332
REMARK SMILES C[C@H](CNC(=O)Cc1ccc(F)c(F)c1)C(=O)NCCCNC(=O)c1ccc(-c2c3nc(c(-c4c(F)cc(S(=O)(=O)[O-])cc4F)c4ccc([nH]4)c(-c4c(F)cc(S(=O)(=O)[O-])cc4F)c4nc(c(-c5c(F)cc(S(=O)(=O)[O-])cc5F)c5ccc2[nH]5)C=C4)C=C3)cc1
REMARK SMILES IDX 19 1 18 2 16 3 17 4 2 6 1 7 3 8 4 9 5 10 6 12 7 13 8 14 9 15
REMARK SMILES IDX 15 16 10 17 13 18 11 19 14 20 12 21 20 22 21 23 22 24 23 25
REMARK SMILES IDX 24 27 25 28 26 29 90 30 27 31 89 32 28 33 29 34 30 35 83 36
REMARK SMILES IDX 31 37 88 38 82 39 84 40 32 41 87 42 81 43 80 44 33 46 67 47
REMARK SMILES IDX 46 48 66 49 47 50 50 51 65 52 85 53 48 54 49 55 64 57 86 58
REMARK SMILES IDX 51 59 34 60 35 61 44 62 36 63 37 64 43 65 45 66 38 67 39 68
REMARK SMILES IDX 40 69 41 70 42 71 68 72 69 73 78 74 70 75 71 76 77 77 79 78
REMARK SMILES IDX 72 79 73 80 74 81 75 82 76 83 52 84 53 85 62 86 54 87 55 88
REMARK SMILES IDX 61 89 63 90 56 91 57 92 58 93 59 94 60 95
REMARK H PARENT 18 5 4 11 22 26 84 45 50 56
REMARK Flexibility Score: inf
ROOT
ATOM      1  C   UNL A   1      35.050  33.334  30.576  1.00  0.00     0.117 C 
ENDROOT
BRANCH   1   2
ATOM      2  N   UNL A   1      36.404  33.786  30.311  1.00  0.00    -0.356 N 
ATOM      3  C   UNL A   1      37.467  33.946  31.141  1.00  0.00     0.224 C 
ATOM      4  O   UNL A   1      38.478  34.481  30.683  1.00  0.00    -0.275 OA
ATOM      5  H   UNL A   1      36.582  34.017  29.371  1.00  0.00     0.163 HD
BRANCH   3   6
ATOM      6  C   UNL A   1      37.440  33.456  32.580  1.00  0.00     0.094 C 
ATOM      7  C   UNL A   1      36.701  34.458  33.476  1.00  0.00     0.020 C 
BRANCH   6   8
ATOM      8  C   UNL A   1      38.800  32.869  33.045  1.00  0.00     0.129 C 
BRANCH   8   9
ATOM      9  N   UNL A   1      38.725  31.891  34.121  1.00  0.00    -0.355 N 
ATOM     10  C   UNL A   1      38.890  30.540  34.174  1.00  0.00     0.224 C 
ATOM     11  H   UNL A   1      38.508  32.290  34.995  1.00  0.00     0.163 HD
ATOM     12  O   UNL A   1      38.606  29.992  35.243  1.00  0.00    -0.275 OA
BRANCH  10  13
ATOM     13  C   UNL A   1      39.460  29.748  33.012  1.00  0.00     0.135 C 
BRANCH  13  14
ATOM     14  C   UNL A   1      40.911  29.321  33.088  1.00  0.00    -0.036 A 
ATOM     15  C   UNL A   1      41.873  30.157  33.673  1.00  0.00     0.007 A 
ATOM     16  C   UNL A   1      41.368  28.162  32.462  1.00  0.00     0.046 A 
ATOM     17  C   UNL A   1      43.239  29.842  33.603  1.00  0.00     0.043 A 
ATOM     18  C   UNL A   1      42.718  27.851  32.373  1.00  0.00     0.159 A 
ATOM     19  C   UNL A   1      43.654  28.694  32.937  1.00  0.00     0.158 A 
ATOM     20  F   UNL A   1      43.092  26.747  31.712  1.00  0.00    -0.204 F 
ATOM     21  F   UNL A   1      44.960  28.418  32.830  1.00  0.00    -0.204 F 
ENDBRANCH  13  14
ENDBRANCH  10  13
ENDBRANCH   8   9
ENDBRANCH   6   8
ENDBRANCH   3   6
ENDBRANCH   1   2
BRANCH   1  22
ATOM     22  C   UNL A   1      34.185  33.507  29.339  1.00  0.00     0.042 C 
BRANCH  22  23
ATOM     23  C   UNL A   1      34.684  32.671  28.178  1.00  0.00     0.118 C 
BRANCH  23  24
ATOM     24  N   UNL A   1      33.973  31.404  28.077  1.00  0.00    -0.352 N 
ATOM     25  C   UNL A   1      34.487  30.127  28.024  1.00  0.00     0.251 C 
ATOM     26  H   UNL A   1      32.991  31.469  28.042  1.00  0.00     0.163 HD
ATOM     27  O   UNL A   1      33.775  29.188  27.720  1.00  0.00    -0.269 OA
BRANCH  25  28
ATOM     28  C   UNL A   1      35.922  29.931  28.322  1.00  0.00     0.039 A 
ATOM     29  C   UNL A   1      36.313  29.585  29.617  1.00  0.00     0.014 A 
ATOM     30  C   UNL A   1      36.868  30.044  27.302  1.00  0.00     0.014 A 
ATOM     31  C   UNL A   1      37.653  29.282  29.869  1.00  0.00     0.010 A 
ATOM     32  C   UNL A   1      38.170  29.629  27.528  1.00  0.00     0.010 A 
ATOM     33  C   UNL A   1      38.583  29.262  28.817  1.00  0.00    -0.014 A 
BRANCH  33  34
ATOM     34  C   UNL A   1      40.010  28.912  29.025  1.00  0.00     0.031 A 
ATOM     35  C   UNL A   1      40.962  29.980  29.497  1.00  0.00     0.074 A 
ATOM     36  C   UNL A   1      40.465  27.688  28.695  1.00  0.00     0.049 A 
ATOM     37  N   UNL A   1      42.266  29.954  29.568  1.00  0.00    -0.248 NA
ATOM     38  C   UNL A   1      40.366  31.268  29.898  1.00  0.00     0.031 C 
ATOM     39  C   UNL A   1      39.646  26.585  28.186  1.00  0.00     0.029 A 
ATOM     40  N   UNL A   1      41.736  27.172  28.716  1.00  0.00    -0.354 N 
ATOM     41  C   UNL A   1      42.645  31.226  29.983  1.00  0.00     0.074 A 
ATOM     42  C   UNL A   1      41.440  32.015  30.092  1.00  0.00     0.031 C 
ATOM     43  C   UNL A   1      40.433  25.519  27.961  1.00  0.00     0.029 A 
ATOM     44  C   UNL A   1      41.816  25.876  28.261  1.00  0.00     0.049 A 
ATOM     45  H   UNL A   1      42.519  27.682  29.026  1.00  0.00     0.167 HD
ATOM     46  C   UNL A   1      43.884  31.686  30.274  1.00  0.00     0.037 A 
ATOM     47  C   UNL A   1      42.886  25.075  28.091  1.00  0.00     0.037 A 
ATOM     48  C   UNL A   1      45.069  30.874  30.212  1.00  0.00     0.049 A 
ATOM     49  C   UNL A   1      44.253  25.600  28.439  1.00  0.00     0.074 A 
ATOM     50  C   UNL A   1      46.366  31.220  30.544  1.00  0.00     0.029 A 
ATOM     51  N   UNL A   1      45.098  29.549  29.799  1.00  0.00    -0.354 N 
ATOM     52  N   UNL A   1      44.590  26.792  28.872  1.00  0.00    -0.248 NA
ATOM     53  C   UNL A   1      45.383  24.675  28.282  1.00  0.00     0.031 C 
ATOM     54  C   UNL A   1      47.187  30.115  30.297  1.00  0.00     0.029 A 
ATOM     55  C   UNL A   1      46.393  29.065  29.860  1.00  0.00     0.049 A 
ATOM     56  H   UNL A   1      44.314  29.031  29.508  1.00  0.00     0.167 HD
ATOM     57  C   UNL A   1      45.965  26.748  29.077  1.00  0.00     0.074 A 
ATOM     58  C   UNL A   1      46.397  25.413  28.717  1.00  0.00     0.031 C 
ATOM     59  C   UNL A   1      46.794  27.722  29.526  1.00  0.00     0.037 A 
BRANCH  46  60
ATOM     60  C   UNL A   1      44.015  33.124  30.694  1.00  0.00     0.058 A 
ATOM     61  C   UNL A   1      44.096  33.495  32.046  1.00  0.00     0.135 A 
ATOM     62  C   UNL A   1      44.087  34.144  29.731  1.00  0.00     0.135 A 
ATOM     63  F   UNL A   1      44.014  32.563  33.009  1.00  0.00    -0.206 F 
ATOM     64  C   UNL A   1      44.208  34.826  32.430  1.00  0.00     0.059 A 
ATOM     65  C   UNL A   1      44.230  35.480  30.092  1.00  0.00     0.059 A 
ATOM     66  F   UNL A   1      44.012  33.847  28.424  1.00  0.00    -0.206 F 
ATOM     67  C   UNL A   1      44.274  35.812  31.445  1.00  0.00     0.060 A 
BRANCH  67  68
ATOM     68  S   UNL A   1      44.424  37.535  31.961  1.00  0.00     0.124 S 
ATOM     69  O   UNL A   1      45.867  37.658  32.145  1.00  0.00    -0.237 OA
ATOM     70  O   UNL A   1      43.869  38.253  30.818  1.00  0.00    -0.237 OA
ATOM     71  O   UNL A   1      43.629  37.596  33.183  1.00  0.00    -0.744 OA
ENDBRANCH  67  68
ENDBRANCH  46  60
BRANCH  47  72
ATOM     72  C   UNL A   1      42.703  23.685  27.590  1.00  0.00     0.058 A 
ATOM     73  C   UNL A   1      42.796  23.396  26.221  1.00  0.00     0.135 A 
ATOM     74  C   UNL A   1      42.451  22.619  28.467  1.00  0.00     0.135 A 
ATOM     75  F   UNL A   1      43.031  24.382  25.342  1.00  0.00    -0.206 F 
ATOM     76  C   UNL A   1      42.628  22.103  25.735  1.00  0.00     0.059 A 
ATOM     77  C   UNL A   1      42.304  21.313  28.008  1.00  0.00     0.059 A 
ATOM     78  F   UNL A   1      42.372  22.839  29.789  1.00  0.00    -0.206 F 
ATOM     79  C   UNL A   1      42.383  21.067  26.638  1.00  0.00     0.060 A 
BRANCH  79  80
ATOM     80  S   UNL A   1      42.210  19.386  26.001  1.00  0.00     0.124 S 
ATOM     81  O   UNL A   1      43.013  19.449  24.785  1.00  0.00    -0.237 OA
ATOM     82  O   UNL A   1      42.762  18.587  27.090  1.00  0.00    -0.237 OA
ATOM     83  O   UNL A   1      40.770  19.250  25.801  1.00  0.00    -0.744 OA
ENDBRANCH  79  80
ENDBRANCH  47  72
BRANCH  59  84
ATOM     84  C   UNL A   1      48.241  27.373  29.722  1.00  0.00     0.058 A 
ATOM     85  C   UNL A   1      49.201  27.606  28.726  1.00  0.00     0.135 A 
ATOM     86  C   UNL A   1      48.685  26.890  30.964  1.00  0.00     0.135 A 
ATOM     87  F   UNL A   1      48.827  28.062  27.520  1.00  0.00    -0.206 F 
ATOM     88  C   UNL A   1      50.552  27.366  28.954  1.00  0.00     0.059 A 
ATOM     89  C   UNL A   1      50.033  26.669  31.222  1.00  0.00     0.059 A 
ATOM     90  F   UNL A   1      47.806  26.660  31.953  1.00  0.00    -0.206 F 
ATOM     91  C   UNL A   1      50.960  26.905  30.208  1.00  0.00     0.060 A 
BRANCH  91  92
ATOM     92  S   UNL A   1      52.723  26.665  30.511  1.00  0.00     0.124 S 
ATOM     93  O   UNL A   1      53.211  26.351  29.173  1.00  0.00    -0.237 OA
ATOM     94  O   UNL A   1      53.127  27.962  31.046  1.00  0.00    -0.237 OA
ATOM     95  O   UNL A   1      52.756  25.562  31.467  1.00  0.00    -0.744 OA
ENDBRANCH  91  92
ENDBRANCH  59  84
ENDBRANCH  33  34
ENDBRANCH  25  28
ENDBRANCH  23  24
ENDBRANCH  22  23
ENDBRANCH   1  22
TORSDOF 17
ENDMDL
MODEL 3
REMARK VINA RESULT:     -11.3      3.587      7.957
REMARK SMILES C[C@H](CNC(=O)Cc1ccc(F)c(F)c1)C(=O)NCCCNC(=O)c1ccc(-c2c3nc(c(-c4c(F)cc(S(=O)(=O)[O-])cc4F)c4ccc([nH]4)c(-c4c(F)cc(S(=O)(=O)[O-])cc4F)c4nc(c(-c5c(F)cc(S(=O)(=O)[O-])cc5F)c5ccc2[nH]5)C=C4)C=C3)cc1
REMARK SMILES IDX 19 1 18 2 16 3 17 4 2 6 1 7 3 8 4 9 5 10 6 12 7 13 8 14 9 15
REMARK SMILES IDX 15 16 10 17 13 18 11 19 14 20 12 21 20 22 21 23 22 24 23 25
REMARK SMILES IDX 24 27 25 28 26 29 90 30 27 31 89 32 28 33 29 34 30 35 83 36
REMARK SMILES IDX 31 37 88 38 82 39 84 40 32 41 87 42 81 43 80 44 33 46 67 47
REMARK SMILES IDX 46 48 66 49 47 50 50 51 65 52 85 53 48 54 49 55 64 57 86 58
REMARK SMILES IDX 51 59 34 60 35 61 44 62 36 63 37 64 43 65 45 66 38 67 39 68
REMARK SMILES IDX 40 69 41 70 42 71 68 72 69 73 78 74 70 75 71 76 77 77 79 78
REMARK SMILES IDX 72 79 73 80 74 81 75 82 76 83 52 84 53 85 62 86 54 87 55 88
REMARK SMILES IDX 61 89 63 90 56 91 57 92 58 93 59 94 60 95
REMARK H PARENT 18 5 4 11 22 26 84 45 50 56
REMARK Flexibility Score: inf
ROOT
ATOM      1  C   UNL A   1      32.162  26.918  25.741  1.00  0.00     0.117 C 
ENDROOT
BRANCH   1   2
ATOM      2  N   UNL A   1      31.248  27.235  24.658  1.00  0.00    -0.356 N 
ATOM      3  C   UNL A   1      31.100  26.681  23.427  1.00  0.00     0.224 C 
ATOM      4  O   UNL A   1      30.332  27.233  22.638  1.00  0.00    -0.275 OA
ATOM      5  H   UNL A   1      30.632  27.980  24.848  1.00  0.00     0.163 HD
BRANCH   3   6
ATOM      6  C   UNL A   1      31.823  25.403  23.033  1.00  0.00     0.094 C 
ATOM      7  C   UNL A   1      32.480  25.561  21.655  1.00  0.00     0.020 C 
BRANCH   6   8
ATOM      8  C   UNL A   1      31.005  24.123  23.351  1.00  0.00     0.129 C 
BRANCH   8   9
ATOM      9  N   UNL A   1      31.510  23.315  24.452  1.00  0.00    -0.355 N 
ATOM     10  C   UNL A   1      32.750  22.875  24.801  1.00  0.00     0.224 C 
ATOM     11  H   UNL A   1      30.806  23.026  25.077  1.00  0.00     0.163 HD
ATOM     12  O   UNL A   1      32.807  22.071  25.736  1.00  0.00    -0.275 OA
BRANCH  10  13
ATOM     13  C   UNL A   1      34.011  23.392  24.132  1.00  0.00     0.135 C 
BRANCH  13  14
ATOM     14  C   UNL A   1      35.345  23.027  24.752  1.00  0.00    -0.036 A 
ATOM     15  C   UNL A   1      36.063  23.967  25.505  1.00  0.00     0.007 A 
ATOM     16  C   UNL A   1      35.969  21.811  24.485  1.00  0.00     0.046 A 
ATOM     17  C   UNL A   1      37.367  23.691  25.944  1.00  0.00     0.043 A 
ATOM     18  C   UNL A   1      37.265  21.536  24.900  1.00  0.00     0.159 A 
ATOM     19  C   UNL A   1      37.966  22.478  25.624  1.00  0.00     0.158 A 
ATOM     20  F   UNL A   1      37.824  20.365  24.564  1.00  0.00    -0.204 F 
ATOM     21  F   UNL A   1      39.227  22.234  26.003  1.00  0.00    -0.204 F 
ENDBRANCH  13  14
ENDBRANCH  10  13
ENDBRANCH   8   9
ENDBRANCH   6   8
ENDBRANCH   3   6
ENDBRANCH   1   2
BRANCH   1  22
ATOM     22  C   UNL A   1      33.573  27.357  25.387  1.00  0.00     0.042 C 
BRANCH  22  23
ATOM     23  C   UNL A   1      34.314  27.903  26.590  1.00  0.00     0.118 C 
BRANCH  23  24
ATOM     24  N   UNL A   1      33.865  29.242  26.943  1.00  0.00    -0.352 N 
ATOM     25  C   UNL A   1      34.489  30.184  27.730  1.00  0.00     0.251 C 
ATOM     26  H   UNL A   1      32.995  29.511  26.566  1.00  0.00     0.163 HD
ATOM     27  O   UNL A   1      33.884  31.171  28.107  1.00  0.00    -0.269 OA
BRANCH  25  28
ATOM     28  C   UNL A   1      35.897  29.956  28.121  1.00  0.00     0.039 A 
ATOM     29  C   UNL A   1      36.184  29.457  29.392  1.00  0.00     0.014 A 
ATOM     30  C   UNL A   1      36.922  30.192  27.203  1.00  0.00     0.014 A 
ATOM     31  C   UNL A   1      37.503  29.128  29.716  1.00  0.00     0.010 A 
ATOM     32  C   UNL A   1      38.206  29.756  27.484  1.00  0.00     0.010 A 
ATOM     33  C   UNL A   1      38.516  29.237  28.750  1.00  0.00    -0.014 A 
BRANCH  33  34
ATOM     34  C   UNL A   1      39.925  28.867  29.031  1.00  0.00     0.031 A 
ATOM     35  C   UNL A   1      40.858  29.913  29.584  1.00  0.00     0.074 A 
ATOM     36  C   UNL A   1      40.388  27.647  28.698  1.00  0.00     0.049 A 
ATOM     37  N   UNL A   1      42.155  29.872  29.730  1.00  0.00    -0.248 NA
ATOM     38  C   UNL A   1      40.251  31.197  29.981  1.00  0.00     0.031 C 
ATOM     39  C   UNL A   1      39.590  26.565  28.115  1.00  0.00     0.029 A 
ATOM     40  N   UNL A   1      41.651  27.118  28.780  1.00  0.00    -0.354 N 
ATOM     41  C   UNL A   1      42.521  31.129  30.198  1.00  0.00     0.074 A 
ATOM     42  C   UNL A   1      41.318  31.929  30.256  1.00  0.00     0.031 C 
ATOM     43  C   UNL A   1      40.379  25.497  27.911  1.00  0.00     0.029 A 
ATOM     44  C   UNL A   1      41.746  25.832  28.299  1.00  0.00     0.049 A 
ATOM     45  H   UNL A   1      42.419  27.611  29.148  1.00  0.00     0.167 HD
ATOM     46  C   UNL A   1      43.745  31.569  30.571  1.00  0.00     0.037 A 
ATOM     47  C   UNL A   1      42.816  25.024  28.171  1.00  0.00     0.037 A 
ATOM     48  C   UNL A   1      44.924  30.747  30.558  1.00  0.00     0.049 A 
ATOM     49  C   UNL A   1      44.165  25.526  28.611  1.00  0.00     0.074 A 
ATOM     50  C   UNL A   1      46.202  31.071  30.973  1.00  0.00     0.029 A 
ATOM     51  N   UNL A   1      44.965  29.433  30.115  1.00  0.00    -0.354 N 
ATOM     52  N   UNL A   1      44.488  26.704  29.093  1.00  0.00    -0.248 NA
ATOM     53  C   UNL A   1      45.294  24.594  28.497  1.00  0.00     0.031 C 
ATOM     54  C   UNL A   1      47.026  29.964  30.747  1.00  0.00     0.029 A 
ATOM     55  C   UNL A   1      46.250  28.934  30.239  1.00  0.00     0.049 A 
ATOM     56  H   UNL A   1      44.195  28.930  29.766  1.00  0.00     0.167 HD
ATOM     57  C   UNL A   1      45.848  26.640  29.375  1.00  0.00     0.074 A 
ATOM     58  C   UNL A   1      46.288  25.310  29.009  1.00  0.00     0.031 C 
ATOM     59  C   UNL A   1      46.658  27.595  29.896  1.00  0.00     0.037 A 
BRANCH  46  60
ATOM     60  C   UNL A   1      43.864  32.995  31.033  1.00  0.00     0.058 A 
ATOM     61  C   UNL A   1      43.706  33.351  32.383  1.00  0.00     0.135 A 
ATOM     62  C   UNL A   1      44.166  34.018  30.119  1.00  0.00     0.135 A 
ATOM     63  F   UNL A   1      43.398  32.417  33.297  1.00  0.00    -0.206 F 
ATOM     64  C   UNL A   1      43.808  34.671  32.805  1.00  0.00     0.059 A 
ATOM     65  C   UNL A   1      44.304  35.342  30.524  1.00  0.00     0.059 A 
ATOM     66  F   UNL A   1      44.325  33.736  28.817  1.00  0.00    -0.206 F 
ATOM     67  C   UNL A   1      44.107  35.661  31.867  1.00  0.00     0.060 A 
BRANCH  67  68
ATOM     68  S   UNL A   1      44.241  37.370  32.432  1.00  0.00     0.124 S 
ATOM     69  O   UNL A   1      43.244  37.403  33.497  1.00  0.00    -0.237 OA
ATOM     70  O   UNL A   1      45.632  37.448  32.864  1.00  0.00    -0.237 OA
ATOM     71  O   UNL A   1      43.913  38.149  31.242  1.00  0.00    -0.744 OA
ENDBRANCH  67  68
ENDBRANCH  46  60
BRANCH  47  72
ATOM     72  C   UNL A   1      42.650  23.649  27.627  1.00  0.00     0.058 A 
ATOM     73  C   UNL A   1      42.366  22.569  28.475  1.00  0.00     0.135 A 
ATOM     74  C   UNL A   1      42.753  23.389  26.252  1.00  0.00     0.135 A 
ATOM     75  F   UNL A   1      42.262  22.765  29.798  1.00  0.00    -0.206 F 
ATOM     76  C   UNL A   1      42.208  21.276  27.984  1.00  0.00     0.059 A 
ATOM     77  C   UNL A   1      42.574  22.110  25.733  1.00  0.00     0.059 A 
ATOM     78  F   UNL A   1      43.004  24.391  25.394  1.00  0.00    -0.206 F 
ATOM     79  C   UNL A   1      42.312  21.057  26.610  1.00  0.00     0.060 A 
BRANCH  79  80
ATOM     80  S   UNL A   1      42.063  19.384  25.978  1.00  0.00     0.124 S 
ATOM     81  O   UNL A   1      42.919  19.386  24.798  1.00  0.00    -0.237 OA
ATOM     82  O   UNL A   1      42.517  18.562  27.095  1.00  0.00    -0.237 OA
ATOM     83  O   UNL A   1      40.627  19.335  25.717  1.00  0.00    -0.744 OA
ENDBRANCH  79  80
ENDBRANCH  47  72
BRANCH  59  84
ATOM     84  C   UNL A   1      48.088  27.226  30.167  1.00  0.00     0.058 A 
ATOM     85  C   UNL A   1      49.116  27.533  29.264  1.00  0.00     0.135 A 
ATOM     86  C   UNL A   1      48.443  26.645  31.396  1.00  0.00     0.135 A 
ATOM     87  F   UNL A   1      48.829  28.084  28.074  1.00  0.00    -0.206 F 
ATOM     88  C   UNL A   1      50.448  27.271  29.568  1.00  0.00     0.059 A 
ATOM     89  C   UNL A   1      49.769  26.399  31.731  1.00  0.00     0.059 A 
ATOM     90  F   UNL A   1      47.495  26.342  32.298  1.00  0.00    -0.206 F 
ATOM     91  C   UNL A   1      50.765  26.711  30.808  1.00  0.00     0.060 A 
BRANCH  91  92
ATOM     92  S   UNL A   1      52.503  26.442  31.217  1.00  0.00     0.124 S 
ATOM     93  O   UNL A   1      52.822  27.658  31.956  1.00  0.00    -0.237 OA
ATOM     94  O   UNL A   1      52.450  25.214  32.006  1.00  0.00    -0.237 OA
ATOM     95  O   UNL A   1      53.143  26.313  29.911  1.00  0.00    -0.744 OA
ENDBRANCH  91  92
ENDBRANCH  59  84
ENDBRANCH  33  34
ENDBRANCH  25  28
ENDBRANCH  23  24
ENDBRANCH  22  23
ENDBRANCH   1  22
TORSDOF 17
ENDMDL
