MODEL 1
REMARK VINA RESULT:     -12.4      0.000      0.000
REMARK SMILES C[C@@H](C1CC1)N(C)C(=O)N1Cc2nc[nH]c2C[C@H]1C(=O)NCCCNC(=O)c1ccc(-c2c3nc(c(-c4c(F)cc(S(=O)(=O)[O-])cc4F)c4ccc([nH]4)c(-c4c(F)cc(S(=O)(=O)[O-])cc4F)c4nc(c(-c5c(F)cc(S(=O)(=O)[O-])cc5F)c5ccc2[nH]5)C=C4)C=C3)cc1
REMARK SMILES IDX 22 1 21 2 19 3 20 4 18 6 10 7 11 8 12 9 17 10 13 11 16 12
REMARK SMILES IDX 14 13 15 14 8 16 9 17 6 18 7 19 2 20 1 21 3 22 4 23 5 24
REMARK SMILES IDX 23 25 24 26 25 27 26 28 27 30 28 31 29 32 93 33 30 34 92 35
REMARK SMILES IDX 31 36 32 37 33 38 86 39 34 40 91 41 85 42 87 43 35 44 90 45
REMARK SMILES IDX 84 46 83 47 36 49 70 50 49 51 69 52 50 53 53 54 68 55 88 56
REMARK SMILES IDX 51 57 52 58 67 60 89 61 54 62 37 63 38 64 47 65 39 66 40 67
REMARK SMILES IDX 46 68 48 69 41 70 42 71 43 72 44 73 45 74 71 75 72 76 81 77
REMARK SMILES IDX 73 78 74 79 80 80 82 81 75 82 76 83 77 84 78 85 79 86 55 87
REMARK SMILES IDX 56 88 65 89 57 90 58 91 64 92 66 93 59 94 60 95 61 96 62 97
REMARK SMILES IDX 63 98
REMARK H PARENT 21 5 15 15 25 29 87 48 53 59
REMARK Flexibility Score: inf
ROOT
ATOM      1  C   UNL A   1      36.400  23.176  23.178  1.00  0.00     0.117 C 
ENDROOT
BRANCH   1   2
ATOM      2  N   UNL A   1      35.019  22.922  22.794  1.00  0.00    -0.354 N 
ATOM      3  C   UNL A   1      33.844  23.564  23.014  1.00  0.00     0.243 C 
ATOM      4  O   UNL A   1      32.936  23.265  22.222  1.00  0.00    -0.273 OA
ATOM      5  H   UNL A   1      34.915  22.105  22.255  1.00  0.00     0.163 HD
BRANCH   3   6
ATOM      6  C   UNL A   1      33.560  24.651  24.093  1.00  0.00     0.182 C 
ATOM      7  N   UNL A   1      32.117  24.959  24.389  1.00  0.00    -0.306 N 
ATOM      8  C   UNL A   1      31.443  24.249  25.502  1.00  0.00     0.180 C 
ATOM      9  C   UNL A   1      32.398  23.677  26.483  1.00  0.00     0.081 A 
ATOM     10  C   UNL A   1      34.488  24.483  25.330  1.00  0.00     0.091 C 
ATOM     11  N   UNL A   1      32.052  22.843  27.516  1.00  0.00    -0.240 NA
ATOM     12  C   UNL A   1      33.761  23.795  26.410  1.00  0.00     0.042 A 
ATOM     13  C   UNL A   1      33.190  22.472  28.060  1.00  0.00     0.197 A 
ATOM     14  N   UNL A   1      34.264  23.055  27.440  1.00  0.00    -0.348 N 
ATOM     15  H   UNL A   1      35.211  22.959  27.689  1.00  0.00     0.167 HD
BRANCH   7  16
ATOM     16  C   UNL A   1      31.291  25.906  23.789  1.00  0.00     0.321 C 
ATOM     17  O   UNL A   1      30.321  25.521  23.128  1.00  0.00    -0.248 OA
BRANCH  16  18
ATOM     18  N   UNL A   1      31.481  27.257  24.006  1.00  0.00    -0.325 N 
ATOM     19  C   UNL A   1      30.410  28.235  23.856  1.00  0.00     0.149 C 
BRANCH  18  20
ATOM     20  C   UNL A   1      32.614  27.718  24.841  1.00  0.00     0.086 C 
ATOM     21  C   UNL A   1      33.404  28.893  24.251  1.00  0.00     0.031 C 
BRANCH  20  22
ATOM     22  C   UNL A   1      32.296  27.925  26.309  1.00  0.00     0.011 C 
ATOM     23  C   UNL A   1      33.294  28.472  27.304  1.00  0.00     0.006 C 
ATOM     24  C   UNL A   1      32.072  29.275  26.955  1.00  0.00     0.006 C 
ENDBRANCH  20  22
ENDBRANCH  18  20
ENDBRANCH  16  18
ENDBRANCH   7  16
ENDBRANCH   3   6
ENDBRANCH   1   2
BRANCH   1  25
ATOM     25  C   UNL A   1      36.947  22.196  24.214  1.00  0.00     0.042 C 
BRANCH  25  26
ATOM     26  C   UNL A   1      37.587  22.873  25.410  1.00  0.00     0.118 C 
BRANCH  26  27
ATOM     27  N   UNL A   1      38.384  21.957  26.240  1.00  0.00    -0.352 N 
ATOM     28  C   UNL A   1      39.597  22.223  26.853  1.00  0.00     0.251 C 
ATOM     29  H   UNL A   1      38.014  21.053  26.375  1.00  0.00     0.163 HD
ATOM     30  O   UNL A   1      40.339  21.319  27.237  1.00  0.00    -0.269 OA
BRANCH  28  31
ATOM     31  C   UNL A   1      39.973  23.633  27.025  1.00  0.00     0.039 A 
ATOM     32  C   UNL A   1      39.024  24.660  27.024  1.00  0.00     0.014 A 
ATOM     33  C   UNL A   1      41.288  23.865  27.398  1.00  0.00     0.014 A 
ATOM     34  C   UNL A   1      39.388  25.907  27.535  1.00  0.00     0.010 A 
ATOM     35  C   UNL A   1      41.566  25.009  28.097  1.00  0.00     0.010 A 
ATOM     36  C   UNL A   1      40.654  26.065  28.116  1.00  0.00    -0.014 A 
BRANCH  36  37
ATOM     37  C   UNL A   1      41.024  27.273  28.861  1.00  0.00     0.031 A 
ATOM     38  C   UNL A   1      42.130  28.094  28.277  1.00  0.00     0.074 A 
ATOM     39  C   UNL A   1      40.229  27.754  29.845  1.00  0.00     0.049 A 
ATOM     40  N   UNL A   1      43.257  28.413  28.827  1.00  0.00    -0.248 NA
ATOM     41  C   UNL A   1      42.022  28.529  26.873  1.00  0.00     0.031 C 
ATOM     42  C   UNL A   1      38.954  27.200  30.331  1.00  0.00     0.029 A 
ATOM     43  N   UNL A   1      40.302  28.931  30.521  1.00  0.00    -0.354 N 
ATOM     44  C   UNL A   1      43.902  29.269  27.933  1.00  0.00     0.074 A 
ATOM     45  C   UNL A   1      43.188  29.151  26.688  1.00  0.00     0.031 C 
ATOM     46  C   UNL A   1      38.259  28.157  30.979  1.00  0.00     0.029 A 
ATOM     47  C   UNL A   1      39.112  29.317  31.131  1.00  0.00     0.049 A 
ATOM     48  H   UNL A   1      41.128  29.466  30.573  1.00  0.00     0.167 HD
ATOM     49  C   UNL A   1      44.829  30.178  28.353  1.00  0.00     0.037 A 
ATOM     50  C   UNL A   1      38.830  30.512  31.705  1.00  0.00     0.037 A 
ATOM     51  C   UNL A   1      45.276  29.880  29.692  1.00  0.00     0.049 A 
ATOM     52  C   UNL A   1      40.135  31.151  32.016  1.00  0.00     0.074 A 
ATOM     53  C   UNL A   1      45.877  28.791  30.293  1.00  0.00     0.029 A 
ATOM     54  N   UNL A   1      44.771  30.641  30.720  1.00  0.00    -0.354 N 
ATOM     55  N   UNL A   1      40.979  30.679  32.894  1.00  0.00    -0.248 NA
ATOM     56  C   UNL A   1      40.711  32.043  31.020  1.00  0.00     0.031 C 
ATOM     57  C   UNL A   1      45.268  28.700  31.578  1.00  0.00     0.029 A 
ATOM     58  C   UNL A   1      44.393  29.779  31.717  1.00  0.00     0.049 A 
ATOM     59  H   UNL A   1      44.694  31.622  30.736  1.00  0.00     0.167 HD
ATOM     60  C   UNL A   1      42.228  30.850  32.314  1.00  0.00     0.074 A 
ATOM     61  C   UNL A   1      42.008  31.786  31.214  1.00  0.00     0.031 C 
ATOM     62  C   UNL A   1      43.260  29.997  32.591  1.00  0.00     0.037 A 
BRANCH  49  63
ATOM     63  C   UNL A   1      45.076  31.531  27.717  1.00  0.00     0.058 A 
ATOM     64  C   UNL A   1      46.329  31.799  27.123  1.00  0.00     0.135 A 
ATOM     65  C   UNL A   1      44.252  32.659  27.922  1.00  0.00     0.135 A 
ATOM     66  F   UNL A   1      47.199  30.805  26.877  1.00  0.00    -0.206 F 
ATOM     67  C   UNL A   1      46.765  33.097  26.842  1.00  0.00     0.059 A 
ATOM     68  C   UNL A   1      44.643  33.954  27.596  1.00  0.00     0.059 A 
ATOM     69  F   UNL A   1      43.068  32.577  28.541  1.00  0.00    -0.206 F 
ATOM     70  C   UNL A   1      45.918  34.169  27.104  1.00  0.00     0.060 A 
BRANCH  70  71
ATOM     71  S   UNL A   1      46.521  35.852  26.872  1.00  0.00     0.124 S 
ATOM     72  O   UNL A   1      45.271  36.601  26.815  1.00  0.00    -0.237 OA
ATOM     73  O   UNL A   1      47.334  36.052  28.068  1.00  0.00    -0.237 OA
ATOM     74  O   UNL A   1      47.266  35.771  25.620  1.00  0.00    -0.744 OA
ENDBRANCH  70  71
ENDBRANCH  49  63
BRANCH  50  75
ATOM     75  C   UNL A   1      37.528  31.230  31.743  1.00  0.00     0.058 A 
ATOM     76  C   UNL A   1      36.878  31.497  32.961  1.00  0.00     0.135 A 
ATOM     77  C   UNL A   1      37.016  31.900  30.611  1.00  0.00     0.135 A 
ATOM     78  F   UNL A   1      37.303  30.917  34.093  1.00  0.00    -0.206 F 
ATOM     79  C   UNL A   1      35.825  32.415  33.060  1.00  0.00     0.059 A 
ATOM     80  C   UNL A   1      35.959  32.806  30.683  1.00  0.00     0.059 A 
ATOM     81  F   UNL A   1      37.589  31.765  29.405  1.00  0.00    -0.206 F 
ATOM     82  C   UNL A   1      35.387  33.083  31.917  1.00  0.00     0.060 A 
BRANCH  82  83
ATOM     83  S   UNL A   1      34.169  34.411  32.071  1.00  0.00     0.124 S 
ATOM     84  O   UNL A   1      33.655  34.511  30.708  1.00  0.00    -0.237 OA
ATOM     85  O   UNL A   1      33.246  33.871  33.063  1.00  0.00    -0.237 OA
ATOM     86  O   UNL A   1      34.965  35.550  32.522  1.00  0.00    -0.744 OA
ENDBRANCH  82  83
ENDBRANCH  50  75
BRANCH  62  87
ATOM     87  C   UNL A   1      43.111  29.037  33.747  1.00  0.00     0.058 A 
ATOM     88  C   UNL A   1      43.300  29.381  35.098  1.00  0.00     0.135 A 
ATOM     89  C   UNL A   1      42.588  27.761  33.487  1.00  0.00     0.135 A 
ATOM     90  F   UNL A   1      43.689  30.613  35.449  1.00  0.00    -0.206 F 
ATOM     91  C   UNL A   1      43.027  28.489  36.136  1.00  0.00     0.059 A 
ATOM     92  C   UNL A   1      42.277  26.865  34.507  1.00  0.00     0.059 A 
ATOM     93  F   UNL A   1      42.320  27.389  32.224  1.00  0.00    -0.206 F 
ATOM     94  C   UNL A   1      42.513  27.232  35.831  1.00  0.00     0.060 A 
BRANCH  94  95
ATOM     95  S   UNL A   1      42.086  26.108  37.178  1.00  0.00     0.124 S 
ATOM     96  O   UNL A   1      42.297  24.801  36.565  1.00  0.00    -0.237 OA
ATOM     97  O   UNL A   1      43.039  26.481  38.219  1.00  0.00    -0.237 OA
ATOM     98  O   UNL A   1      40.695  26.442  37.473  1.00  0.00    -0.744 OA
ENDBRANCH  94  95
ENDBRANCH  62  87
ENDBRANCH  36  37
ENDBRANCH  28  31
ENDBRANCH  26  27
ENDBRANCH  25  26
ENDBRANCH   1  25
TORSDOF 17
ENDMDL
MODEL 2
REMARK VINA RESULT:     -12.4      2.875      9.239
REMARK SMILES C[C@@H](C1CC1)N(C)C(=O)N1Cc2nc[nH]c2C[C@H]1C(=O)NCCCNC(=O)c1ccc(-c2c3nc(c(-c4c(F)cc(S(=O)(=O)[O-])cc4F)c4ccc([nH]4)c(-c4c(F)cc(S(=O)(=O)[O-])cc4F)c4nc(c(-c5c(F)cc(S(=O)(=O)[O-])cc5F)c5ccc2[nH]5)C=C4)C=C3)cc1
REMARK SMILES IDX 22 1 21 2 19 3 20 4 18 6 10 7 11 8 12 9 17 10 13 11 16 12
REMARK SMILES IDX 14 13 15 14 8 16 9 17 6 18 7 19 2 20 1 21 3 22 4 23 5 24
REMARK SMILES IDX 23 25 24 26 25 27 26 28 27 30 28 31 29 32 93 33 30 34 92 35
REMARK SMILES IDX 31 36 32 37 33 38 86 39 34 40 91 41 85 42 87 43 35 44 90 45
REMARK SMILES IDX 84 46 83 47 36 49 70 50 49 51 69 52 50 53 53 54 68 55 88 56
REMARK SMILES IDX 51 57 52 58 67 60 89 61 54 62 37 63 38 64 47 65 39 66 40 67
REMARK SMILES IDX 46 68 48 69 41 70 42 71 43 72 44 73 45 74 71 75 72 76 81 77
REMARK SMILES IDX 73 78 74 79 80 80 82 81 75 82 76 83 77 84 78 85 79 86 55 87
REMARK SMILES IDX 56 88 65 89 57 90 58 91 64 92 66 93 59 94 60 95 61 96 62 97
REMARK SMILES IDX 63 98
REMARK H PARENT 21 5 15 15 25 29 87 48 53 59
REMARK Flexibility Score: inf
ROOT
ATOM      1  C   UNL A   1      31.795  27.667  26.598  1.00  0.00     0.117 C 
ENDROOT
BRANCH   1   2
ATOM      2  N   UNL A   1      32.933  26.774  26.442  1.00  0.00    -0.354 N 
ATOM      3  C   UNL A   1      33.544  26.198  25.376  1.00  0.00     0.243 C 
ATOM      4  O   UNL A   1      34.702  25.808  25.593  1.00  0.00    -0.273 OA
ATOM      5  H   UNL A   1      33.353  26.534  27.300  1.00  0.00     0.163 HD
BRANCH   3   6
ATOM      6  C   UNL A   1      32.966  26.046  23.937  1.00  0.00     0.182 C 
ATOM      7  N   UNL A   1      31.670  25.293  23.798  1.00  0.00    -0.306 N 
ATOM      8  C   UNL A   1      30.394  26.047  23.801  1.00  0.00     0.180 C 
ATOM      9  C   UNL A   1      30.572  27.481  23.464  1.00  0.00     0.081 A 
ATOM     10  C   UNL A   1      33.068  27.377  23.139  1.00  0.00     0.091 C 
ATOM     11  N   UNL A   1      29.586  28.432  23.547  1.00  0.00    -0.240 NA
ATOM     12  C   UNL A   1      31.770  28.071  23.154  1.00  0.00     0.042 A 
ATOM     13  C   UNL A   1      30.182  29.574  23.285  1.00  0.00     0.197 A 
ATOM     14  N   UNL A   1      31.512  29.402  23.003  1.00  0.00    -0.348 N 
ATOM     15  H   UNL A   1      32.155  30.101  22.744  1.00  0.00     0.167 HD
BRANCH   7  16
ATOM     16  C   UNL A   1      31.477  23.930  23.590  1.00  0.00     0.321 C 
ATOM     17  O   UNL A   1      30.402  23.542  23.122  1.00  0.00    -0.248 OA
BRANCH  16  18
ATOM     18  N   UNL A   1      32.499  23.025  23.803  1.00  0.00    -0.325 N 
ATOM     19  C   UNL A   1      33.737  23.044  23.035  1.00  0.00     0.149 C 
BRANCH  18  20
ATOM     20  C   UNL A   1      32.596  22.313  25.098  1.00  0.00     0.086 C 
ATOM     21  C   UNL A   1      31.993  23.069  26.289  1.00  0.00     0.031 C 
BRANCH  20  22
ATOM     22  C   UNL A   1      32.167  20.858  25.071  1.00  0.00     0.011 C 
ATOM     23  C   UNL A   1      32.532  19.907  23.955  1.00  0.00     0.006 C 
ATOM     24  C   UNL A   1      33.088  19.688  25.333  1.00  0.00     0.006 C 
ENDBRANCH  20  22
ENDBRANCH  18  20
ENDBRANCH  16  18
ENDBRANCH   7  16
ENDBRANCH   3   6
ENDBRANCH   1   2
BRANCH   1  25
ATOM     25  C   UNL A   1      32.148  29.024  27.205  1.00  0.00     0.042 C 
BRANCH  25  26
ATOM     26  C   UNL A   1      33.638  29.301  27.248  1.00  0.00     0.118 C 
BRANCH  26  27
ATOM     27  N   UNL A   1      33.977  30.706  26.981  1.00  0.00    -0.352 N 
ATOM     28  C   UNL A   1      35.000  31.444  27.554  1.00  0.00     0.251 C 
ATOM     29  H   UNL A   1      33.415  31.176  26.322  1.00  0.00     0.163 HD
ATOM     30  O   UNL A   1      35.002  32.674  27.527  1.00  0.00    -0.269 OA
BRANCH  28  31
ATOM     31  C   UNL A   1      36.088  30.700  28.204  1.00  0.00     0.039 A 
ATOM     32  C   UNL A   1      36.471  29.423  27.783  1.00  0.00     0.014 A 
ATOM     33  C   UNL A   1      36.848  31.418  29.115  1.00  0.00     0.014 A 
ATOM     34  C   UNL A   1      37.708  28.927  28.193  1.00  0.00     0.010 A 
ATOM     35  C   UNL A   1      38.141  31.023  29.326  1.00  0.00     0.010 A 
ATOM     36  C   UNL A   1      38.566  29.755  28.932  1.00  0.00    -0.014 A 
BRANCH  36  37
ATOM     37  C   UNL A   1      39.957  29.383  29.211  1.00  0.00     0.031 A 
ATOM     38  C   UNL A   1      40.330  29.263  30.655  1.00  0.00     0.074 A 
ATOM     39  C   UNL A   1      40.761  28.908  28.230  1.00  0.00     0.049 A 
ATOM     40  N   UNL A   1      41.247  29.914  31.295  1.00  0.00    -0.248 NA
ATOM     41  C   UNL A   1      39.520  28.390  31.523  1.00  0.00     0.031 C 
ATOM     42  C   UNL A   1      40.431  28.701  26.811  1.00  0.00     0.029 A 
ATOM     43  N   UNL A   1      41.999  28.355  28.318  1.00  0.00    -0.354 N 
ATOM     44  C   UNL A   1      41.282  29.380  32.584  1.00  0.00     0.074 A 
ATOM     45  C   UNL A   1      40.086  28.589  32.716  1.00  0.00     0.031 C 
ATOM     46  C   UNL A   1      41.300  27.828  26.263  1.00  0.00     0.029 A 
ATOM     47  C   UNL A   1      42.356  27.575  27.221  1.00  0.00     0.049 A 
ATOM     48  H   UNL A   1      42.593  28.493  29.091  1.00  0.00     0.167 HD
ATOM     49  C   UNL A   1      42.404  29.444  33.356  1.00  0.00     0.037 A 
ATOM     50  C   UNL A   1      43.431  26.756  27.106  1.00  0.00     0.037 A 
ATOM     51  C   UNL A   1      43.344  30.401  32.826  1.00  0.00     0.049 A 
ATOM     52  C   UNL A   1      44.414  27.204  28.128  1.00  0.00     0.074 A 
ATOM     53  C   UNL A   1      43.296  31.754  32.549  1.00  0.00     0.029 A 
ATOM     54  N   UNL A   1      44.430  29.918  32.135  1.00  0.00    -0.354 N 
ATOM     55  N   UNL A   1      45.015  28.363  28.093  1.00  0.00    -0.248 NA
ATOM     56  C   UNL A   1      44.375  26.565  29.435  1.00  0.00     0.031 C 
ATOM     57  C   UNL A   1      44.027  31.906  31.335  1.00  0.00     0.029 A 
ATOM     58  C   UNL A   1      44.543  30.656  30.985  1.00  0.00     0.049 A 
ATOM     59  H   UNL A   1      45.017  29.179  32.415  1.00  0.00     0.167 HD
ATOM     60  C   UNL A   1      45.035  28.793  29.411  1.00  0.00     0.074 A 
ATOM     61  C   UNL A   1      44.725  27.603  30.201  1.00  0.00     0.031 C 
ATOM     62  C   UNL A   1      45.009  30.124  29.723  1.00  0.00     0.037 A 
BRANCH  49  63
ATOM     63  C   UNL A   1      42.823  28.405  34.378  1.00  0.00     0.058 A 
ATOM     64  C   UNL A   1      43.064  28.802  35.712  1.00  0.00     0.135 A 
ATOM     65  C   UNL A   1      43.275  27.110  34.043  1.00  0.00     0.135 A 
ATOM     66  F   UNL A   1      42.677  30.013  36.147  1.00  0.00    -0.206 F 
ATOM     67  C   UNL A   1      43.780  28.011  36.613  1.00  0.00     0.059 A 
ATOM     68  C   UNL A   1      43.940  26.282  34.942  1.00  0.00     0.059 A 
ATOM     69  F   UNL A   1      43.186  26.620  32.801  1.00  0.00    -0.206 F 
ATOM     70  C   UNL A   1      44.233  26.759  36.208  1.00  0.00     0.060 A 
BRANCH  70  71
ATOM     71  S   UNL A   1      45.272  25.791  37.317  1.00  0.00     0.124 S 
ATOM     72  O   UNL A   1      46.604  26.250  36.939  1.00  0.00    -0.237 OA
ATOM     73  O   UNL A   1      44.796  26.215  38.629  1.00  0.00    -0.237 OA
ATOM     74  O   UNL A   1      44.953  24.413  36.955  1.00  0.00    -0.744 OA
ENDBRANCH  70  71
ENDBRANCH  49  63
BRANCH  50  75
ATOM     75  C   UNL A   1      43.533  25.469  26.368  1.00  0.00     0.058 A 
ATOM     76  C   UNL A   1      44.484  25.287  25.349  1.00  0.00     0.135 A 
ATOM     77  C   UNL A   1      42.880  24.302  26.817  1.00  0.00     0.135 A 
ATOM     78  F   UNL A   1      45.165  26.337  24.868  1.00  0.00    -0.206 F 
ATOM     79  C   UNL A   1      44.808  24.021  24.847  1.00  0.00     0.059 A 
ATOM     80  C   UNL A   1      43.174  23.032  26.322  1.00  0.00     0.059 A 
ATOM     81  F   UNL A   1      41.992  24.344  27.823  1.00  0.00    -0.206 F 
ATOM     82  C   UNL A   1      44.164  22.894  25.357  1.00  0.00     0.060 A 
BRANCH  82  83
ATOM     83  S   UNL A   1      44.717  21.246  24.861  1.00  0.00     0.124 S 
ATOM     84  O   UNL A   1      44.574  21.302  23.410  1.00  0.00    -0.237 OA
ATOM     85  O   UNL A   1      46.086  21.216  25.366  1.00  0.00    -0.237 OA
ATOM     86  O   UNL A   1      43.785  20.355  25.547  1.00  0.00    -0.744 OA
ENDBRANCH  82  83
ENDBRANCH  50  75
BRANCH  62  87
ATOM     87  C   UNL A   1      45.244  31.127  28.618  1.00  0.00     0.058 A 
ATOM     88  C   UNL A   1      44.230  31.663  27.802  1.00  0.00     0.135 A 
ATOM     89  C   UNL A   1      46.521  31.693  28.495  1.00  0.00     0.135 A 
ATOM     90  F   UNL A   1      42.959  31.264  27.926  1.00  0.00    -0.206 F 
ATOM     91  C   UNL A   1      44.482  32.680  26.880  1.00  0.00     0.059 A 
ATOM     92  C   UNL A   1      46.790  32.731  27.605  1.00  0.00     0.059 A 
ATOM     93  F   UNL A   1      47.520  31.276  29.290  1.00  0.00    -0.206 F 
ATOM     94  C   UNL A   1      45.766  33.210  26.790  1.00  0.00     0.060 A 
BRANCH  94  95
ATOM     95  S   UNL A   1      46.073  34.579  25.653  1.00  0.00     0.124 S 
ATOM     96  O   UNL A   1      45.168  34.270  24.551  1.00  0.00    -0.237 OA
ATOM     97  O   UNL A   1      45.719  35.746  26.456  1.00  0.00    -0.237 OA
ATOM     98  O   UNL A   1      47.495  34.456  25.346  1.00  0.00    -0.744 OA
ENDBRANCH  94  95
ENDBRANCH  62  87
ENDBRANCH  36  37
ENDBRANCH  28  31
ENDBRANCH  26  27
ENDBRANCH  25  26
ENDBRANCH   1  25
TORSDOF 17
ENDMDL
MODEL 3
REMARK VINA RESULT:     -11.9      3.369      8.165
REMARK SMILES C[C@@H](C1CC1)N(C)C(=O)N1Cc2nc[nH]c2C[C@H]1C(=O)NCCCNC(=O)c1ccc(-c2c3nc(c(-c4c(F)cc(S(=O)(=O)[O-])cc4F)c4ccc([nH]4)c(-c4c(F)cc(S(=O)(=O)[O-])cc4F)c4nc(c(-c5c(F)cc(S(=O)(=O)[O-])cc5F)c5ccc2[nH]5)C=C4)C=C3)cc1
REMARK SMILES IDX 22 1 21 2 19 3 20 4 18 6 10 7 11 8 12 9 17 10 13 11 16 12
REMARK SMILES IDX 14 13 15 14 8 16 9 17 6 18 7 19 2 20 1 21 3 22 4 23 5 24
REMARK SMILES IDX 23 25 24 26 25 27 26 28 27 30 28 31 29 32 93 33 30 34 92 35
REMARK SMILES IDX 31 36 32 37 33 38 86 39 34 40 91 41 85 42 87 43 35 44 90 45
REMARK SMILES IDX 84 46 83 47 36 49 70 50 49 51 69 52 50 53 53 54 68 55 88 56
REMARK SMILES IDX 51 57 52 58 67 60 89 61 54 62 37 63 38 64 47 65 39 66 40 67
REMARK SMILES IDX 46 68 48 69 41 70 42 71 43 72 44 73 45 74 71 75 72 76 81 77
REMARK SMILES IDX 73 78 74 79 80 80 82 81 75 82 76 83 77 84 78 85 79 86 55 87
REMARK SMILES IDX 56 88 65 89 57 90 58 91 64 92 66 93 59 94 60 95 61 96 62 97
REMARK SMILES IDX 63 98
REMARK H PARENT 21 5 15 15 25 29 87 48 53 59
REMARK Flexibility Score: inf
ROOT
ATOM      1  C   UNL A   1      36.726  23.112  24.061  1.00  0.00     0.117 C 
ENDROOT
BRANCH   1   2
ATOM      2  N   UNL A   1      35.976  23.825  25.085  1.00  0.00    -0.354 N 
ATOM      3  C   UNL A   1      34.659  24.081  25.286  1.00  0.00     0.243 C 
ATOM      4  O   UNL A   1      34.365  24.387  26.452  1.00  0.00    -0.273 OA
ATOM      5  H   UNL A   1      36.553  24.205  25.787  1.00  0.00     0.163 HD
BRANCH   3   6
ATOM      6  C   UNL A   1      33.514  23.966  24.236  1.00  0.00     0.182 C 
ATOM      7  N   UNL A   1      32.188  23.448  24.725  1.00  0.00    -0.306 N 
ATOM      8  C   UNL A   1      31.152  24.414  25.160  1.00  0.00     0.180 C 
ATOM      9  C   UNL A   1      31.372  25.777  24.614  1.00  0.00     0.081 A 
ATOM     10  C   UNL A   1      33.456  25.219  23.315  1.00  0.00     0.091 C 
ATOM     11  N   UNL A   1      30.657  26.890  24.980  1.00  0.00    -0.240 NA
ATOM     12  C   UNL A   1      32.397  26.131  23.777  1.00  0.00     0.042 A 
ATOM     13  C   UNL A   1      31.241  27.895  24.366  1.00  0.00     0.197 A 
ATOM     14  N   UNL A   1      32.290  27.478  23.590  1.00  0.00    -0.348 N 
ATOM     15  H   UNL A   1      32.855  28.039  23.012  1.00  0.00     0.167 HD
BRANCH   7  16
ATOM     16  C   UNL A   1      31.736  22.131  24.775  1.00  0.00     0.321 C 
ATOM     17  O   UNL A   1      30.880  21.824  25.611  1.00  0.00    -0.248 OA
BRANCH  16  18
ATOM     18  N   UNL A   1      32.153  21.200  23.845  1.00  0.00    -0.325 N 
ATOM     19  C   UNL A   1      31.982  21.390  22.410  1.00  0.00     0.149 C 
BRANCH  18  20
ATOM     20  C   UNL A   1      33.193  20.210  24.208  1.00  0.00     0.086 C 
ATOM     21  C   UNL A   1      33.897  20.483  25.543  1.00  0.00     0.031 C 
BRANCH  20  22
ATOM     22  C   UNL A   1      32.781  18.756  24.070  1.00  0.00     0.011 C 
ATOM     23  C   UNL A   1      32.417  18.120  22.749  1.00  0.00     0.006 C 
ATOM     24  C   UNL A   1      33.651  17.671  23.478  1.00  0.00     0.006 C 
ENDBRANCH  20  22
ENDBRANCH  18  20
ENDBRANCH  16  18
ENDBRANCH   7  16
ENDBRANCH   3   6
ENDBRANCH   1   2
BRANCH   1  25
ATOM     25  C   UNL A   1      37.106  21.685  24.449  1.00  0.00     0.042 C 
BRANCH  25  26
ATOM     26  C   UNL A   1      38.326  21.604  25.347  1.00  0.00     0.118 C 
BRANCH  26  27
ATOM     27  N   UNL A   1      38.834  20.235  25.516  1.00  0.00    -0.352 N 
ATOM     28  C   UNL A   1      40.128  19.856  25.837  1.00  0.00     0.251 C 
ATOM     29  H   UNL A   1      38.184  19.506  25.388  1.00  0.00     0.163 HD
ATOM     30  O   UNL A   1      40.535  18.714  25.632  1.00  0.00    -0.269 OA
BRANCH  28  31
ATOM     31  C   UNL A   1      41.004  20.876  26.430  1.00  0.00     0.039 A 
ATOM     32  C   UNL A   1      41.721  21.786  25.648  1.00  0.00     0.014 A 
ATOM     33  C   UNL A   1      40.913  21.021  27.806  1.00  0.00     0.014 A 
ATOM     34  C   UNL A   1      42.242  22.928  26.258  1.00  0.00     0.010 A 
ATOM     35  C   UNL A   1      41.227  22.239  28.347  1.00  0.00     0.010 A 
ATOM     36  C   UNL A   1      41.951  23.175  27.607  1.00  0.00    -0.014 A 
BRANCH  36  37
ATOM     37  C   UNL A   1      42.278  24.450  28.254  1.00  0.00     0.031 A 
ATOM     38  C   UNL A   1      41.224  25.509  28.193  1.00  0.00     0.074 A 
ATOM     39  C   UNL A   1      43.340  24.555  29.087  1.00  0.00     0.049 A 
ATOM     40  N   UNL A   1      41.318  26.695  27.682  1.00  0.00    -0.248 NA
ATOM     41  C   UNL A   1      39.865  25.181  28.661  1.00  0.00     0.031 C 
ATOM     42  C   UNL A   1      44.301  23.506  29.466  1.00  0.00     0.029 A 
ATOM     43  N   UNL A   1      43.701  25.579  29.905  1.00  0.00    -0.354 N 
ATOM     44  C   UNL A   1      40.112  27.339  27.960  1.00  0.00     0.074 A 
ATOM     45  C   UNL A   1      39.203  26.309  28.390  1.00  0.00     0.031 C 
ATOM     46  C   UNL A   1      44.921  23.848  30.613  1.00  0.00     0.029 A 
ATOM     47  C   UNL A   1      44.558  25.211  30.939  1.00  0.00     0.049 A 
ATOM     48  H   UNL A   1      43.383  26.502  29.777  1.00  0.00     0.167 HD
ATOM     49  C   UNL A   1      40.026  28.699  28.034  1.00  0.00     0.037 A 
ATOM     50  C   UNL A   1      44.932  25.961  32.005  1.00  0.00     0.037 A 
ATOM     51  C   UNL A   1      41.190  29.323  27.456  1.00  0.00     0.049 A 
ATOM     52  C   UNL A   1      44.683  27.378  31.634  1.00  0.00     0.074 A 
ATOM     53  C   UNL A   1      41.785  29.296  26.209  1.00  0.00     0.029 A 
ATOM     54  N   UNL A   1      42.144  29.818  28.314  1.00  0.00    -0.354 N 
ATOM     55  N   UNL A   1      45.333  28.002  30.688  1.00  0.00    -0.248 NA
ATOM     56  C   UNL A   1      43.396  27.959  31.989  1.00  0.00     0.031 C 
ATOM     57  C   UNL A   1      43.186  29.291  26.472  1.00  0.00     0.029 A 
ATOM     58  C   UNL A   1      43.365  29.395  27.853  1.00  0.00     0.049 A 
ATOM     59  H   UNL A   1      41.981  30.373  29.110  1.00  0.00     0.167 HD
ATOM     60  C   UNL A   1      44.371  28.763  30.039  1.00  0.00     0.074 A 
ATOM     61  C   UNL A   1      43.226  28.778  30.947  1.00  0.00     0.031 C 
ATOM     62  C   UNL A   1      44.483  29.062  28.710  1.00  0.00     0.037 A 
BRANCH  49  63
ATOM     63  C   UNL A   1      39.080  29.467  28.936  1.00  0.00     0.058 A 
ATOM     64  C   UNL A   1      38.045  30.237  28.361  1.00  0.00     0.135 A 
ATOM     65  C   UNL A   1      39.323  29.710  30.305  1.00  0.00     0.135 A 
ATOM     66  F   UNL A   1      37.722  30.091  27.065  1.00  0.00    -0.206 F 
ATOM     67  C   UNL A   1      37.370  31.235  29.067  1.00  0.00     0.059 A 
ATOM     68  C   UNL A   1      38.623  30.660  31.043  1.00  0.00     0.059 A 
ATOM     69  F   UNL A   1      40.318  29.114  30.973  1.00  0.00    -0.206 F 
ATOM     70  C   UNL A   1      37.684  31.452  30.405  1.00  0.00     0.060 A 
BRANCH  70  71
ATOM     71  S   UNL A   1      36.917  32.825  31.285  1.00  0.00     0.124 S 
ATOM     72  O   UNL A   1      35.502  32.568  31.043  1.00  0.00    -0.237 OA
ATOM     73  O   UNL A   1      37.382  32.609  32.651  1.00  0.00    -0.237 OA
ATOM     74  O   UNL A   1      37.469  34.000  30.618  1.00  0.00    -0.744 OA
ENDBRANCH  70  71
ENDBRANCH  49  63
BRANCH  50  75
ATOM     75  C   UNL A   1      45.225  25.507  33.391  1.00  0.00     0.058 A 
ATOM     76  C   UNL A   1      44.191  25.142  34.272  1.00  0.00     0.135 A 
ATOM     77  C   UNL A   1      46.533  25.172  33.803  1.00  0.00     0.135 A 
ATOM     78  F   UNL A   1      42.914  25.407  33.959  1.00  0.00    -0.206 F 
ATOM     79  C   UNL A   1      44.434  24.437  35.457  1.00  0.00     0.059 A 
ATOM     80  C   UNL A   1      46.800  24.485  34.985  1.00  0.00     0.059 A 
ATOM     81  F   UNL A   1      47.594  25.422  33.020  1.00  0.00    -0.206 F 
ATOM     82  C   UNL A   1      45.742  24.092  35.795  1.00  0.00     0.060 A 
BRANCH  82  83
ATOM     83  S   UNL A   1      46.043  23.012  37.214  1.00  0.00     0.124 S 
ATOM     84  O   UNL A   1      45.304  23.691  38.273  1.00  0.00    -0.237 OA
ATOM     85  O   UNL A   1      45.486  21.743  36.759  1.00  0.00    -0.237 OA
ATOM     86  O   UNL A   1      47.497  23.034  37.354  1.00  0.00    -0.744 OA
ENDBRANCH  82  83
ENDBRANCH  50  75
BRANCH  62  87
ATOM     87  C   UNL A   1      45.799  28.795  28.020  1.00  0.00     0.058 A 
ATOM     88  C   UNL A   1      46.913  29.654  28.071  1.00  0.00     0.135 A 
ATOM     89  C   UNL A   1      45.996  27.540  27.425  1.00  0.00     0.135 A 
ATOM     90  F   UNL A   1      46.853  30.826  28.715  1.00  0.00    -0.206 F 
ATOM     91  C   UNL A   1      48.146  29.303  27.521  1.00  0.00     0.059 A 
ATOM     92  C   UNL A   1      47.226  27.153  26.898  1.00  0.00     0.059 A 
ATOM     93  F   UNL A   1      44.995  26.644  27.401  1.00  0.00    -0.206 F 
ATOM     94  C   UNL A   1      48.295  28.047  26.938  1.00  0.00     0.060 A 
BRANCH  94  95
ATOM     95  S   UNL A   1      49.912  27.562  26.297  1.00  0.00     0.124 S 
ATOM     96  O   UNL A   1      49.634  26.248  25.728  1.00  0.00    -0.237 OA
ATOM     97  O   UNL A   1      50.204  28.621  25.334  1.00  0.00    -0.237 OA
ATOM     98  O   UNL A   1      50.763  27.562  27.484  1.00  0.00    -0.744 OA
ENDBRANCH  94  95
ENDBRANCH  62  87
ENDBRANCH  36  37
ENDBRANCH  28  31
ENDBRANCH  26  27
ENDBRANCH  25  26
ENDBRANCH   1  25
TORSDOF 17
ENDMDL
