MODEL 1
REMARK VINA RESULT:     -12.5      0.000      0.000
REMARK SMILES CC[C@H]1CC[C@](C(=O)NCCCNC(=O)c2ccc(-c3c4nc(c(-c5c(F)cc(S(=O)(=O)[O-])cc5F)c5ccc([nH]5)c(-c5c(F)cc(S(=O)(=O)[O-])cc5F)c5nc(c(-c6c(F)cc(S(=O)(=O)[O-])cc6F)c6ccc3[nH]6)C=C5)C=C4)cc2)([C@H]2CCC[C@@H](S(C)(=O)=O)C2)CC1
REMARK SMILES IDX 11 1 10 2 9 3 7 4 8 5 6 7 3 8 93 9 4 10 92 11 5 12 2 13 1 14
REMARK SMILES IDX 82 15 83 16 91 17 84 18 86 19 85 20 87 21 88 22 89 23 90 24
REMARK SMILES IDX 12 25 13 26 14 27 15 29 16 30 17 31 81 32 18 33 80 34 19 35
REMARK SMILES IDX 20 36 21 37 74 38 22 39 79 40 73 41 75 42 23 43 78 44 72 45
REMARK SMILES IDX 71 46 24 48 58 49 37 50 57 51 38 52 41 53 56 54 76 55 39 56
REMARK SMILES IDX 40 57 55 59 77 60 42 61 25 62 26 63 35 64 27 65 28 66 34 67
REMARK SMILES IDX 36 68 29 69 30 70 31 71 32 72 33 73 59 74 60 75 69 76 61 77
REMARK SMILES IDX 62 78 68 79 70 80 63 81 64 82 65 83 66 84 67 85 43 86 44 87
REMARK SMILES IDX 53 88 45 89 46 90 52 91 54 92 47 93 48 94 49 95 50 96 51 97
REMARK H PARENT 9 6 13 28 75 47 41 58
REMARK Flexibility Score: inf
ROOT
ATOM      1  C   UNL A   1      34.541  29.821  27.620  1.00  0.00     0.042 C 
ENDROOT
BRANCH   1   2
ATOM      2  C   UNL A   1      33.477  30.486  26.772  1.00  0.00     0.117 C 
BRANCH   2   3
ATOM      3  N   UNL A   1      33.331  29.823  25.505  1.00  0.00    -0.356 N 
ATOM      4  C   UNL A   1      32.102  29.363  25.145  1.00  0.00     0.226 C 
ATOM      5  O   UNL A   1      31.076  29.977  25.432  1.00  0.00    -0.274 OA
ATOM      6  H   UNL A   1      34.105  29.704  24.909  1.00  0.00     0.163 HD
BRANCH   4   7
ATOM      7  C   UNL A   1      32.079  28.000  24.462  1.00  0.00     0.052 C 
ATOM      8  C   UNL A   1      30.048  28.954  22.367  1.00  0.00    -0.011 C 
ATOM      9  C   UNL A   1      31.546  29.319  22.321  1.00  0.00     0.005 C 
ATOM     10  C   UNL A   1      29.611  28.209  23.633  1.00  0.00     0.005 C 
ATOM     11  C   UNL A   1      32.501  28.305  22.992  1.00  0.00     0.017 C 
ATOM     12  C   UNL A   1      30.673  27.342  24.306  1.00  0.00     0.017 C 
BRANCH   8  13
ATOM     13  C   UNL A   1      29.192  30.230  22.123  1.00  0.00    -0.000 C 
ATOM     14  C   UNL A   1      28.006  30.426  23.062  1.00  0.00     0.004 C 
ENDBRANCH   8  13
BRANCH   7  15
ATOM     15  C   UNL A   1      33.024  27.014  25.253  1.00  0.00     0.006 C 
ATOM     16  C   UNL A   1      32.448  26.316  26.498  1.00  0.00     0.005 C 
ATOM     17  C   UNL A   1      33.828  26.024  24.353  1.00  0.00     0.024 C 
ATOM     18  C   UNL A   1      31.868  24.927  26.267  1.00  0.00     0.002 C 
ATOM     19  C   UNL A   1      33.472  24.524  24.342  1.00  0.00     0.108 C 
ATOM     20  C   UNL A   1      32.886  23.991  25.641  1.00  0.00     0.020 C 
BRANCH  19  21
ATOM     21  S   UNL A   1      32.685  23.891  22.838  1.00  0.00     0.150 S 
ATOM     22  C   UNL A   1      32.597  22.113  22.907  1.00  0.00     0.158 C 
ATOM     23  O   UNL A   1      31.333  24.400  22.764  1.00  0.00    -0.229 OA
ATOM     24  O   UNL A   1      33.613  24.185  21.749  1.00  0.00    -0.229 OA
ENDBRANCH  19  21
ENDBRANCH   7  15
ENDBRANCH   4   7
ENDBRANCH   2   3
ENDBRANCH   1   2
BRANCH   1  25
ATOM     25  C   UNL A   1      35.504  30.875  28.122  1.00  0.00     0.118 C 
BRANCH  25  26
ATOM     26  N   UNL A   1      35.507  30.902  29.586  1.00  0.00    -0.352 N 
ATOM     27  C   UNL A   1      36.356  30.268  30.460  1.00  0.00     0.251 C 
ATOM     28  H   UNL A   1      34.803  31.450  30.001  1.00  0.00     0.163 HD
ATOM     29  O   UNL A   1      36.025  30.103  31.631  1.00  0.00    -0.269 OA
BRANCH  27  30
ATOM     30  C   UNL A   1      37.658  29.779  29.969  1.00  0.00     0.039 A 
ATOM     31  C   UNL A   1      38.023  29.970  28.635  1.00  0.00     0.014 A 
ATOM     32  C   UNL A   1      38.528  29.137  30.850  1.00  0.00     0.014 A 
ATOM     33  C   UNL A   1      39.291  29.571  28.209  1.00  0.00     0.010 A 
ATOM     34  C   UNL A   1      39.831  28.878  30.465  1.00  0.00     0.010 A 
ATOM     35  C   UNL A   1      40.219  29.056  29.132  1.00  0.00    -0.014 A 
BRANCH  35  36
ATOM     36  C   UNL A   1      41.587  28.645  28.735  1.00  0.00     0.031 A 
ATOM     37  C   UNL A   1      42.678  29.682  28.659  1.00  0.00     0.074 A 
ATOM     38  C   UNL A   1      41.820  27.378  28.342  1.00  0.00     0.049 A 
ATOM     39  N   UNL A   1      43.902  29.566  28.214  1.00  0.00    -0.248 NA
ATOM     40  C   UNL A   1      42.328  31.048  29.088  1.00  0.00     0.031 C 
ATOM     41  C   UNL A   1      40.821  26.308  28.291  1.00  0.00     0.029 A 
ATOM     42  N   UNL A   1      42.969  26.781  27.896  1.00  0.00    -0.354 N 
ATOM     43  C   UNL A   1      44.445  30.845  28.268  1.00  0.00     0.074 A 
ATOM     44  C   UNL A   1      43.399  31.732  28.719  1.00  0.00     0.031 C 
ATOM     45  C   UNL A   1      41.409  25.179  27.866  1.00  0.00     0.029 A 
ATOM     46  C   UNL A   1      42.813  25.453  27.579  1.00  0.00     0.049 A 
ATOM     47  H   UNL A   1      43.827  27.257  27.810  1.00  0.00     0.167 HD
ATOM     48  C   UNL A   1      45.711  31.240  27.996  1.00  0.00     0.037 A 
ATOM     49  C   UNL A   1      43.702  24.559  27.107  1.00  0.00     0.037 A 
ATOM     50  C   UNL A   1      46.758  30.334  27.608  1.00  0.00     0.049 A 
ATOM     51  C   UNL A   1      45.122  24.997  26.881  1.00  0.00     0.074 A 
ATOM     52  C   UNL A   1      48.099  30.601  27.407  1.00  0.00     0.029 A 
ATOM     53  N   UNL A   1      46.576  28.979  27.364  1.00  0.00    -0.354 N 
ATOM     54  N   UNL A   1      45.645  26.192  27.018  1.00  0.00    -0.248 NA
ATOM     55  C   UNL A   1      46.074  23.967  26.449  1.00  0.00     0.031 C 
ATOM     56  C   UNL A   1      48.723  29.414  27.006  1.00  0.00     0.029 A 
ATOM     57  C   UNL A   1      47.779  28.399  27.000  1.00  0.00     0.049 A 
ATOM     58  H   UNL A   1      45.719  28.502  27.440  1.00  0.00     0.167 HD
ATOM     59  C   UNL A   1      46.992  26.058  26.705  1.00  0.00     0.074 A 
ATOM     60  C   UNL A   1      47.205  24.659  26.387  1.00  0.00     0.031 C 
ATOM     61  C   UNL A   1      47.964  27.004  26.684  1.00  0.00     0.037 A 
BRANCH  48  62
ATOM     62  C   UNL A   1      46.020  32.708  28.124  1.00  0.00     0.058 A 
ATOM     63  C   UNL A   1      46.446  33.274  29.337  1.00  0.00     0.135 A 
ATOM     64  C   UNL A   1      45.865  33.567  27.024  1.00  0.00     0.135 A 
ATOM     65  F   UNL A   1      46.597  32.504  30.426  1.00  0.00    -0.206 F 
ATOM     66  C   UNL A   1      46.651  34.643  29.472  1.00  0.00     0.059 A 
ATOM     67  C   UNL A   1      46.097  34.936  27.126  1.00  0.00     0.059 A 
ATOM     68  F   UNL A   1      45.463  33.083  25.838  1.00  0.00    -0.206 F 
ATOM     69  C   UNL A   1      46.465  35.468  28.362  1.00  0.00     0.060 A 
BRANCH  69  70
ATOM     70  S   UNL A   1      46.702  37.246  28.558  1.00  0.00     0.124 S 
ATOM     71  O   UNL A   1      46.429  37.726  27.206  1.00  0.00    -0.237 OA
ATOM     72  O   UNL A   1      45.701  37.589  29.564  1.00  0.00    -0.237 OA
ATOM     73  O   UNL A   1      48.089  37.358  28.996  1.00  0.00    -0.744 OA
ENDBRANCH  69  70
ENDBRANCH  48  62
BRANCH  49  74
ATOM     74  C   UNL A   1      43.270  23.156  26.870  1.00  0.00     0.058 A 
ATOM     75  C   UNL A   1      43.164  22.646  25.569  1.00  0.00     0.135 A 
ATOM     76  C   UNL A   1      43.031  22.277  27.940  1.00  0.00     0.135 A 
ATOM     77  F   UNL A   1      43.380  23.449  24.516  1.00  0.00    -0.206 F 
ATOM     78  C   UNL A   1      42.841  21.315  25.331  1.00  0.00     0.059 A 
ATOM     79  C   UNL A   1      42.728  20.936  27.728  1.00  0.00     0.059 A 
ATOM     80  F   UNL A   1      43.141  22.712  29.204  1.00  0.00    -0.206 F 
ATOM     81  C   UNL A   1      42.634  20.464  26.419  1.00  0.00     0.060 A 
BRANCH  81  82
ATOM     82  S   UNL A   1      42.313  18.715  26.101  1.00  0.00     0.124 S 
ATOM     83  O   UNL A   1      40.897  18.734  25.753  1.00  0.00    -0.237 OA
ATOM     84  O   UNL A   1      43.236  18.428  25.006  1.00  0.00    -0.237 OA
ATOM     85  O   UNL A   1      42.644  18.076  27.370  1.00  0.00    -0.744 OA
ENDBRANCH  81  82
ENDBRANCH  49  74
BRANCH  61  86
ATOM     86  C   UNL A   1      49.352  26.557  26.321  1.00  0.00     0.058 A 
ATOM     87  C   UNL A   1      49.855  26.707  25.020  1.00  0.00     0.135 A 
ATOM     88  C   UNL A   1      50.206  26.027  27.302  1.00  0.00     0.135 A 
ATOM     89  F   UNL A   1      49.075  27.203  24.047  1.00  0.00    -0.206 F 
ATOM     90  C   UNL A   1      51.155  26.332  24.699  1.00  0.00     0.059 A 
ATOM     91  C   UNL A   1      51.517  25.669  27.008  1.00  0.00     0.059 A 
ATOM     92  F   UNL A   1      49.775  25.874  28.564  1.00  0.00    -0.206 F 
ATOM     93  C   UNL A   1      51.979  25.816  25.701  1.00  0.00     0.060 A 
BRANCH  93  94
ATOM     94  S   UNL A   1      53.676  25.366  25.280  1.00  0.00     0.124 S 
ATOM     95  O   UNL A   1      54.439  26.239  26.166  1.00  0.00    -0.237 OA
ATOM     96  O   UNL A   1      53.713  23.944  25.604  1.00  0.00    -0.237 OA
ATOM     97  O   UNL A   1      53.768  25.681  23.857  1.00  0.00    -0.744 OA
ENDBRANCH  93  94
ENDBRANCH  61  86
ENDBRANCH  35  36
ENDBRANCH  27  30
ENDBRANCH  25  26
ENDBRANCH   1  25
TORSDOF 16
ENDMDL
MODEL 2
REMARK VINA RESULT:     -12.4      6.608     12.205
REMARK SMILES CC[C@H]1CC[C@](C(=O)NCCCNC(=O)c2ccc(-c3c4nc(c(-c5c(F)cc(S(=O)(=O)[O-])cc5F)c5ccc([nH]5)c(-c5c(F)cc(S(=O)(=O)[O-])cc5F)c5nc(c(-c6c(F)cc(S(=O)(=O)[O-])cc6F)c6ccc3[nH]6)C=C5)C=C4)cc2)([C@H]2CCC[C@@H](S(C)(=O)=O)C2)CC1
REMARK SMILES IDX 11 1 10 2 9 3 7 4 8 5 6 7 3 8 93 9 4 10 92 11 5 12 2 13 1 14
REMARK SMILES IDX 82 15 83 16 91 17 84 18 86 19 85 20 87 21 88 22 89 23 90 24
REMARK SMILES IDX 12 25 13 26 14 27 15 29 16 30 17 31 81 32 18 33 80 34 19 35
REMARK SMILES IDX 20 36 21 37 74 38 22 39 79 40 73 41 75 42 23 43 78 44 72 45
REMARK SMILES IDX 71 46 24 48 58 49 37 50 57 51 38 52 41 53 56 54 76 55 39 56
REMARK SMILES IDX 40 57 55 59 77 60 42 61 25 62 26 63 35 64 27 65 28 66 34 67
REMARK SMILES IDX 36 68 29 69 30 70 31 71 32 72 33 73 59 74 60 75 69 76 61 77
REMARK SMILES IDX 62 78 68 79 70 80 63 81 64 82 65 83 66 84 67 85 43 86 44 87
REMARK SMILES IDX 53 88 45 89 46 90 52 91 54 92 47 93 48 94 49 95 50 96 51 97
REMARK H PARENT 9 6 13 28 75 47 41 58
REMARK Flexibility Score: inf
ROOT
ATOM      1  C   UNL A   1      37.450  23.497  25.227  1.00  0.00     0.042 C 
ENDROOT
BRANCH   1   2
ATOM      2  C   UNL A   1      35.976  23.563  25.565  1.00  0.00     0.117 C 
BRANCH   2   3
ATOM      3  N   UNL A   1      35.264  24.394  24.633  1.00  0.00    -0.356 N 
ATOM      4  C   UNL A   1      33.972  24.722  24.903  1.00  0.00     0.226 C 
ATOM      5  O   UNL A   1      33.589  24.936  26.052  1.00  0.00    -0.274 OA
ATOM      6  H   UNL A   1      35.703  24.719  23.814  1.00  0.00     0.163 HD
BRANCH   4   7
ATOM      7  C   UNL A   1      33.020  24.703  23.712  1.00  0.00     0.052 C 
ATOM      8  C   UNL A   1      32.123  21.832  24.328  1.00  0.00    -0.011 C 
ATOM      9  C   UNL A   1      31.631  23.061  25.120  1.00  0.00     0.005 C 
ATOM     10  C   UNL A   1      33.225  22.130  23.306  1.00  0.00     0.005 C 
ATOM     11  C   UNL A   1      31.628  24.398  24.344  1.00  0.00     0.017 C 
ATOM     12  C   UNL A   1      33.222  23.533  22.700  1.00  0.00     0.017 C 
BRANCH   8  13
ATOM     13  C   UNL A   1      32.540  20.706  25.315  1.00  0.00    -0.000 C 
ATOM     14  C   UNL A   1      33.528  21.109  26.406  1.00  0.00     0.004 C 
ENDBRANCH   8  13
BRANCH   7  15
ATOM     15  C   UNL A   1      33.135  26.075  22.942  1.00  0.00     0.006 C 
ATOM     16  C   UNL A   1      31.915  26.542  22.126  1.00  0.00     0.005 C 
ATOM     17  C   UNL A   1      33.753  27.240  23.778  1.00  0.00     0.024 C 
ATOM     18  C   UNL A   1      30.964  27.489  22.845  1.00  0.00     0.002 C 
ATOM     19  C   UNL A   1      32.865  28.407  24.253  1.00  0.00     0.108 C 
ATOM     20  C   UNL A   1      31.683  28.727  23.352  1.00  0.00     0.020 C 
BRANCH  19  21
ATOM     21  S   UNL A   1      32.508  28.479  26.029  1.00  0.00     0.150 S 
ATOM     22  C   UNL A   1      31.994  30.126  26.472  1.00  0.00     0.158 C 
ATOM     23  O   UNL A   1      31.417  27.578  26.326  1.00  0.00    -0.229 OA
ATOM     24  O   UNL A   1      33.790  28.286  26.700  1.00  0.00    -0.229 OA
ENDBRANCH  19  21
ENDBRANCH   7  15
ENDBRANCH   4   7
ENDBRANCH   2   3
ENDBRANCH   1   2
BRANCH   1  25
ATOM     25  C   UNL A   1      38.231  24.278  26.263  1.00  0.00     0.118 C 
BRANCH  25  26
ATOM     26  N   UNL A   1      39.656  23.957  26.171  1.00  0.00    -0.352 N 
ATOM     27  C   UNL A   1      40.735  24.681  26.617  1.00  0.00     0.251 C 
ATOM     28  H   UNL A   1      39.871  23.105  25.728  1.00  0.00     0.163 HD
ATOM     29  O   UNL A   1      41.856  24.461  26.163  1.00  0.00    -0.269 OA
BRANCH  27  30
ATOM     30  C   UNL A   1      40.526  25.728  27.633  1.00  0.00     0.039 A 
ATOM     31  C   UNL A   1      39.573  25.553  28.638  1.00  0.00     0.014 A 
ATOM     32  C   UNL A   1      41.298  26.890  27.592  1.00  0.00     0.014 A 
ATOM     33  C   UNL A   1      39.445  26.521  29.636  1.00  0.00     0.010 A 
ATOM     34  C   UNL A   1      41.272  27.771  28.658  1.00  0.00     0.010 A 
ATOM     35  C   UNL A   1      40.321  27.620  29.674  1.00  0.00    -0.014 A 
BRANCH  35  36
ATOM     36  C   UNL A   1      40.246  28.659  30.729  1.00  0.00     0.031 A 
ATOM     37  C   UNL A   1      41.120  28.538  31.950  1.00  0.00     0.074 A 
ATOM     38  C   UNL A   1      39.325  29.637  30.642  1.00  0.00     0.049 A 
ATOM     39  N   UNL A   1      41.121  29.256  33.043  1.00  0.00    -0.248 NA
ATOM     40  C   UNL A   1      42.085  27.423  31.970  1.00  0.00     0.031 C 
ATOM     41  C   UNL A   1      38.365  29.805  29.549  1.00  0.00     0.029 A 
ATOM     42  N   UNL A   1      39.035  30.667  31.498  1.00  0.00    -0.354 N 
ATOM     43  C   UNL A   1      42.047  28.654  33.888  1.00  0.00     0.074 A 
ATOM     44  C   UNL A   1      42.534  27.473  33.213  1.00  0.00     0.031 C 
ATOM     45  C   UNL A   1      37.613  30.891  29.787  1.00  0.00     0.029 A 
ATOM     46  C   UNL A   1      38.010  31.472  31.065  1.00  0.00     0.049 A 
ATOM     47  H   UNL A   1      39.516  30.817  32.344  1.00  0.00     0.167 HD
ATOM     48  C   UNL A   1      42.477  29.065  35.104  1.00  0.00     0.037 A 
ATOM     49  C   UNL A   1      37.451  32.556  31.637  1.00  0.00     0.037 A 
ATOM     50  C   UNL A   1      42.028  30.276  35.735  1.00  0.00     0.049 A 
ATOM     51  C   UNL A   1      37.990  33.041  32.953  1.00  0.00     0.074 A 
ATOM     52  C   UNL A   1      42.467  30.847  36.915  1.00  0.00     0.029 A 
ATOM     53  N   UNL A   1      41.035  31.106  35.231  1.00  0.00    -0.354 N 
ATOM     54  N   UNL A   1      38.927  32.511  33.703  1.00  0.00    -0.248 NA
ATOM     55  C   UNL A   1      37.409  34.276  33.495  1.00  0.00     0.031 C 
ATOM     56  C   UNL A   1      41.713  32.004  37.144  1.00  0.00     0.029 A 
ATOM     57  C   UNL A   1      40.836  32.177  36.084  1.00  0.00     0.049 A 
ATOM     58  H   UNL A   1      40.546  30.955  34.391  1.00  0.00     0.167 HD
ATOM     59  C   UNL A   1      39.061  33.354  34.800  1.00  0.00     0.074 A 
ATOM     60  C   UNL A   1      38.117  34.438  34.605  1.00  0.00     0.031 C 
ATOM     61  C   UNL A   1      39.887  33.243  35.870  1.00  0.00     0.037 A 
BRANCH  48  62
ATOM     62  C   UNL A   1      43.485  28.198  35.810  1.00  0.00     0.058 A 
ATOM     63  C   UNL A   1      44.866  28.336  35.591  1.00  0.00     0.135 A 
ATOM     64  C   UNL A   1      43.064  27.199  36.703  1.00  0.00     0.135 A 
ATOM     65  F   UNL A   1      45.325  29.265  34.737  1.00  0.00    -0.206 F 
ATOM     66  C   UNL A   1      45.788  27.480  36.183  1.00  0.00     0.059 A 
ATOM     67  C   UNL A   1      43.972  26.351  37.333  1.00  0.00     0.059 A 
ATOM     68  F   UNL A   1      41.758  27.022  36.955  1.00  0.00    -0.206 F 
ATOM     69  C   UNL A   1      45.330  26.484  37.046  1.00  0.00     0.060 A 
BRANCH  69  70
ATOM     70  S   UNL A   1      46.534  25.358  37.782  1.00  0.00     0.124 S 
ATOM     71  O   UNL A   1      45.778  24.821  38.909  1.00  0.00    -0.237 OA
ATOM     72  O   UNL A   1      46.797  24.422  36.693  1.00  0.00    -0.237 OA
ATOM     73  O   UNL A   1      47.648  26.233  38.132  1.00  0.00    -0.744 OA
ENDBRANCH  69  70
ENDBRANCH  48  62
BRANCH  49  74
ATOM     74  C   UNL A   1      36.355  33.269  30.931  1.00  0.00     0.058 A 
ATOM     75  C   UNL A   1      35.044  33.242  31.425  1.00  0.00     0.135 A 
ATOM     76  C   UNL A   1      36.609  34.054  29.794  1.00  0.00     0.135 A 
ATOM     77  F   UNL A   1      34.752  32.503  32.507  1.00  0.00    -0.206 F 
ATOM     78  C   UNL A   1      34.022  33.969  30.825  1.00  0.00     0.059 A 
ATOM     79  C   UNL A   1      35.609  34.808  29.188  1.00  0.00     0.059 A 
ATOM     80  F   UNL A   1      37.852  34.130  29.294  1.00  0.00    -0.206 F 
ATOM     81  C   UNL A   1      34.317  34.758  29.711  1.00  0.00     0.060 A 
BRANCH  81  82
ATOM     82  S   UNL A   1      33.005  35.776  28.999  1.00  0.00     0.124 S 
ATOM     83  O   UNL A   1      32.244  36.148  30.186  1.00  0.00    -0.237 OA
ATOM     84  O   UNL A   1      33.762  36.850  28.362  1.00  0.00    -0.237 OA
ATOM     85  O   UNL A   1      32.335  34.863  28.079  1.00  0.00    -0.744 OA
ENDBRANCH  81  82
ENDBRANCH  49  74
BRANCH  61  86
ATOM     86  C   UNL A   1      39.824  34.329  36.905  1.00  0.00     0.058 A 
ATOM     87  C   UNL A   1      40.525  35.535  36.747  1.00  0.00     0.135 A 
ATOM     88  C   UNL A   1      39.005  34.185  38.037  1.00  0.00     0.135 A 
ATOM     89  F   UNL A   1      41.325  35.718  35.686  1.00  0.00    -0.206 F 
ATOM     90  C   UNL A   1      40.430  36.555  37.687  1.00  0.00     0.059 A 
ATOM     91  C   UNL A   1      38.875  35.203  38.975  1.00  0.00     0.059 A 
ATOM     92  F   UNL A   1      38.306  33.055  38.226  1.00  0.00    -0.206 F 
ATOM     93  C   UNL A   1      39.600  36.381  38.796  1.00  0.00     0.060 A 
BRANCH  93  94
ATOM     94  S   UNL A   1      39.456  37.727  39.990  1.00  0.00     0.124 S 
ATOM     95  O   UNL A   1      40.706  38.448  39.772  1.00  0.00    -0.237 OA
ATOM     96  O   UNL A   1      38.244  38.409  39.548  1.00  0.00    -0.237 OA
ATOM     97  O   UNL A   1      39.345  37.035  41.271  1.00  0.00    -0.744 OA
ENDBRANCH  93  94
ENDBRANCH  61  86
ENDBRANCH  35  36
ENDBRANCH  27  30
ENDBRANCH  25  26
ENDBRANCH   1  25
TORSDOF 16
ENDMDL
MODEL 3
REMARK VINA RESULT:     -12.3      4.808      6.061
REMARK SMILES CC[C@H]1CC[C@](C(=O)NCCCNC(=O)c2ccc(-c3c4nc(c(-c5c(F)cc(S(=O)(=O)[O-])cc5F)c5ccc([nH]5)c(-c5c(F)cc(S(=O)(=O)[O-])cc5F)c5nc(c(-c6c(F)cc(S(=O)(=O)[O-])cc6F)c6ccc3[nH]6)C=C5)C=C4)cc2)([C@H]2CCC[C@@H](S(C)(=O)=O)C2)CC1
REMARK SMILES IDX 11 1 10 2 9 3 7 4 8 5 6 7 3 8 93 9 4 10 92 11 5 12 2 13 1 14
REMARK SMILES IDX 82 15 83 16 91 17 84 18 86 19 85 20 87 21 88 22 89 23 90 24
REMARK SMILES IDX 12 25 13 26 14 27 15 29 16 30 17 31 81 32 18 33 80 34 19 35
REMARK SMILES IDX 20 36 21 37 74 38 22 39 79 40 73 41 75 42 23 43 78 44 72 45
REMARK SMILES IDX 71 46 24 48 58 49 37 50 57 51 38 52 41 53 56 54 76 55 39 56
REMARK SMILES IDX 40 57 55 59 77 60 42 61 25 62 26 63 35 64 27 65 28 66 34 67
REMARK SMILES IDX 36 68 29 69 30 70 31 71 32 72 33 73 59 74 60 75 69 76 61 77
REMARK SMILES IDX 62 78 68 79 70 80 63 81 64 82 65 83 66 84 67 85 43 86 44 87
REMARK SMILES IDX 53 88 45 89 46 90 52 91 54 92 47 93 48 94 49 95 50 96 51 97
REMARK H PARENT 9 6 13 28 75 47 41 58
REMARK Flexibility Score: inf
ROOT
ATOM      1  C   UNL A   1      33.329  28.064  24.917  1.00  0.00     0.042 C 
ENDROOT
BRANCH   1   2
ATOM      2  C   UNL A   1      33.856  26.767  24.339  1.00  0.00     0.117 C 
BRANCH   2   3
ATOM      3  N   UNL A   1      33.474  25.643  25.148  1.00  0.00    -0.356 N 
ATOM      4  C   UNL A   1      32.972  24.536  24.535  1.00  0.00     0.226 C 
ATOM      5  O   UNL A   1      33.394  24.159  23.443  1.00  0.00    -0.274 OA
ATOM      6  H   UNL A   1      33.571  25.672  26.127  1.00  0.00     0.163 HD
BRANCH   4   7
ATOM      7  C   UNL A   1      31.796  23.866  25.237  1.00  0.00     0.052 C 
ATOM      8  C   UNL A   1      29.873  26.111  24.410  1.00  0.00    -0.011 C 
ATOM      9  C   UNL A   1      30.351  25.008  23.444  1.00  0.00     0.005 C 
ATOM     10  C   UNL A   1      30.558  26.101  25.781  1.00  0.00     0.005 C 
ATOM     11  C   UNL A   1      30.743  23.666  24.104  1.00  0.00     0.017 C 
ATOM     12  C   UNL A   1      31.040  24.741  26.284  1.00  0.00     0.017 C 
BRANCH   8  13
ATOM     13  C   UNL A   1      29.988  27.498  23.716  1.00  0.00    -0.000 C 
ATOM     14  C   UNL A   1      30.665  27.505  22.349  1.00  0.00     0.004 C 
ENDBRANCH   8  13
BRANCH   7  15
ATOM     15  C   UNL A   1      32.302  22.546  25.939  1.00  0.00     0.006 C 
ATOM     16  C   UNL A   1      32.103  21.215  25.190  1.00  0.00     0.005 C 
ATOM     17  C   UNL A   1      33.727  22.650  26.568  1.00  0.00     0.024 C 
ATOM     18  C   UNL A   1      33.287  20.743  24.359  1.00  0.00     0.002 C 
ATOM     19  C   UNL A   1      34.913  21.903  25.925  1.00  0.00     0.108 C 
ATOM     20  C   UNL A   1      34.547  20.618  25.197  1.00  0.00     0.020 C 
BRANCH  19  21
ATOM     21  S   UNL A   1      36.153  22.925  25.087  1.00  0.00     0.150 S 
ATOM     22  C   UNL A   1      37.787  22.410  25.578  1.00  0.00     0.158 C 
ATOM     23  O   UNL A   1      36.036  22.731  23.659  1.00  0.00    -0.229 OA
ATOM     24  O   UNL A   1      35.996  24.269  25.635  1.00  0.00    -0.229 OA
ENDBRANCH  19  21
ENDBRANCH   7  15
ENDBRANCH   4   7
ENDBRANCH   2   3
ENDBRANCH   1   2
BRANCH   1  25
ATOM     25  C   UNL A   1      34.127  28.414  26.154  1.00  0.00     0.118 C 
BRANCH  25  26
ATOM     26  N   UNL A   1      33.906  29.815  26.519  1.00  0.00    -0.352 N 
ATOM     27  C   UNL A   1      34.523  30.562  27.493  1.00  0.00     0.251 C 
ATOM     28  H   UNL A   1      33.221  30.287  25.994  1.00  0.00     0.163 HD
ATOM     29  O   UNL A   1      33.996  31.591  27.908  1.00  0.00    -0.269 OA
BRANCH  27  30
ATOM     30  C   UNL A   1      35.815  30.104  28.038  1.00  0.00     0.039 A 
ATOM     31  C   UNL A   1      37.000  30.356  27.344  1.00  0.00     0.014 A 
ATOM     32  C   UNL A   1      35.845  29.429  29.259  1.00  0.00     0.014 A 
ATOM     33  C   UNL A   1      38.219  29.984  27.915  1.00  0.00     0.010 A 
ATOM     34  C   UNL A   1      37.056  29.195  29.886  1.00  0.00     0.010 A 
ATOM     35  C   UNL A   1      38.257  29.434  29.208  1.00  0.00    -0.014 A 
BRANCH  35  36
ATOM     36  C   UNL A   1      39.527  29.050  29.870  1.00  0.00     0.031 A 
ATOM     37  C   UNL A   1      40.013  29.842  31.057  1.00  0.00     0.074 A 
ATOM     38  C   UNL A   1      40.289  28.073  29.342  1.00  0.00     0.049 A 
ATOM     39  N   UNL A   1      41.149  29.761  31.698  1.00  0.00    -0.248 NA
ATOM     40  C   UNL A   1      39.123  30.908  31.553  1.00  0.00     0.031 C 
ATOM     41  C   UNL A   1      39.964  27.296  28.145  1.00  0.00     0.029 A 
ATOM     42  N   UNL A   1      41.504  27.578  29.739  1.00  0.00    -0.354 N 
ATOM     43  C   UNL A   1      41.126  30.787  32.635  1.00  0.00     0.074 A 
ATOM     44  C   UNL A   1      39.899  31.521  32.433  1.00  0.00     0.031 C 
ATOM     45  C   UNL A   1      40.941  26.403  27.921  1.00  0.00     0.029 A 
ATOM     46  C   UNL A   1      41.977  26.570  28.935  1.00  0.00     0.049 A 
ATOM     47  H   UNL A   1      41.992  27.913  30.526  1.00  0.00     0.167 HD
ATOM     48  C   UNL A   1      42.031  31.074  33.600  1.00  0.00     0.037 A 
ATOM     49  C   UNL A   1      43.121  25.862  29.006  1.00  0.00     0.037 A 
ATOM     50  C   UNL A   1      43.218  30.296  33.830  1.00  0.00     0.049 A 
ATOM     51  C   UNL A   1      44.080  26.144  30.127  1.00  0.00     0.074 A 
ATOM     52  C   UNL A   1      44.154  30.427  34.839  1.00  0.00     0.029 A 
ATOM     53  N   UNL A   1      43.630  29.235  33.035  1.00  0.00    -0.354 N 
ATOM     54  N   UNL A   1      44.006  27.063  31.062  1.00  0.00    -0.248 NA
ATOM     55  C   UNL A   1      45.270  25.289  30.215  1.00  0.00     0.031 C 
ATOM     56  C   UNL A   1      45.152  29.468  34.633  1.00  0.00     0.029 A 
ATOM     57  C   UNL A   1      44.814  28.711  33.522  1.00  0.00     0.049 A 
ATOM     58  H   UNL A   1      43.149  28.903  32.243  1.00  0.00     0.167 HD
ATOM     59  C   UNL A   1      45.131  26.889  31.858  1.00  0.00     0.074 A 
ATOM     60  C   UNL A   1      45.860  25.765  31.304  1.00  0.00     0.031 C 
ATOM     61  C   UNL A   1      45.524  27.593  32.949  1.00  0.00     0.037 A 
BRANCH  48  62
ATOM     62  C   UNL A   1      41.756  32.269  34.474  1.00  0.00     0.058 A 
ATOM     63  C   UNL A   1      40.956  32.178  35.626  1.00  0.00     0.135 A 
ATOM     64  C   UNL A   1      42.279  33.529  34.143  1.00  0.00     0.135 A 
ATOM     65  F   UNL A   1      40.416  31.002  35.983  1.00  0.00    -0.206 F 
ATOM     66  C   UNL A   1      40.637  33.300  36.383  1.00  0.00     0.059 A 
ATOM     67  C   UNL A   1      42.001  34.661  34.906  1.00  0.00     0.059 A 
ATOM     68  F   UNL A   1      43.053  33.678  33.056  1.00  0.00    -0.206 F 
ATOM     69  C   UNL A   1      41.157  34.539  36.010  1.00  0.00     0.060 A 
BRANCH  69  70
ATOM     70  S   UNL A   1      40.710  35.993  36.983  1.00  0.00     0.124 S 
ATOM     71  O   UNL A   1      39.750  36.648  36.099  1.00  0.00    -0.237 OA
ATOM     72  O   UNL A   1      40.151  35.400  38.195  1.00  0.00    -0.237 OA
ATOM     73  O   UNL A   1      41.980  36.689  37.159  1.00  0.00    -0.744 OA
ENDBRANCH  69  70
ENDBRANCH  48  62
BRANCH  49  74
ATOM     74  C   UNL A   1      43.379  24.792  28.008  1.00  0.00     0.058 A 
ATOM     75  C   UNL A   1      44.089  25.063  26.830  1.00  0.00     0.135 A 
ATOM     76  C   UNL A   1      42.990  23.463  28.246  1.00  0.00     0.135 A 
ATOM     77  F   UNL A   1      44.478  26.318  26.557  1.00  0.00    -0.206 F 
ATOM     78  C   UNL A   1      44.410  24.058  25.924  1.00  0.00     0.059 A 
ATOM     79  C   UNL A   1      43.318  22.437  27.366  1.00  0.00     0.059 A 
ATOM     80  F   UNL A   1      42.326  23.149  29.369  1.00  0.00    -0.206 F 
ATOM     81  C   UNL A   1      44.029  22.745  26.206  1.00  0.00     0.060 A 
BRANCH  81  82
ATOM     82  S   UNL A   1      44.537  21.433  25.073  1.00  0.00     0.124 S 
ATOM     83  O   UNL A   1      45.871  21.115  25.569  1.00  0.00    -0.237 OA
ATOM     84  O   UNL A   1      43.513  20.417  25.300  1.00  0.00    -0.237 OA
ATOM     85  O   UNL A   1      44.486  22.080  23.766  1.00  0.00    -0.744 OA
ENDBRANCH  81  82
ENDBRANCH  49  74
BRANCH  61  86
ATOM     86  C   UNL A   1      46.792  27.159  33.629  1.00  0.00     0.058 A 
ATOM     87  C   UNL A   1      48.034  27.714  33.288  1.00  0.00     0.135 A 
ATOM     88  C   UNL A   1      46.752  26.221  34.673  1.00  0.00     0.135 A 
ATOM     89  F   UNL A   1      48.124  28.611  32.293  1.00  0.00    -0.206 F 
ATOM     90  C   UNL A   1      49.200  27.341  33.949  1.00  0.00     0.059 A 
ATOM     91  C   UNL A   1      47.902  25.853  35.364  1.00  0.00     0.059 A 
ATOM     92  F   UNL A   1      45.586  25.669  35.043  1.00  0.00    -0.206 F 
ATOM     93  C   UNL A   1      49.122  26.411  34.987  1.00  0.00     0.060 A 
BRANCH  93  94
ATOM     94  S   UNL A   1      50.636  25.962  35.862  1.00  0.00     0.124 S 
ATOM     95  O   UNL A   1      51.317  27.250  35.950  1.00  0.00    -0.237 OA
ATOM     96  O   UNL A   1      50.124  25.427  37.119  1.00  0.00    -0.237 OA
ATOM     97  O   UNL A   1      51.261  24.981  34.979  1.00  0.00    -0.744 OA
ENDBRANCH  93  94
ENDBRANCH  61  86
ENDBRANCH  35  36
ENDBRANCH  27  30
ENDBRANCH  25  26
ENDBRANCH   1  25
TORSDOF 16
ENDMDL
