MODEL 1
REMARK VINA RESULT:     -12.6      0.000      0.000
REMARK SMILES O=C(NCCCNC(=O)C1(Cc2ccncc2)Cc2ccccc2C1)c1ccc(-c2c3nc(c(-c4c(F)cc(S(=O)(=O)[O-])cc4F)c4ccc([nH]4)c(-c4c(F)cc(S(=O)(=O)[O-])cc4F)c4nc(c(-c5c(F)cc(S(=O)(=O)[O-])cc5F)c5ccc2[nH]5)C=C4)C=C3)cc1
REMARK SMILES IDX 4 1 3 2 1 3 2 4 26 6 27 7 91 8 28 9 90 10 29 11 30 12 31 13
REMARK SMILES IDX 84 14 32 15 89 16 83 17 85 18 33 19 88 20 82 21 81 22 34 24
REMARK SMILES IDX 68 25 47 26 67 27 48 28 51 29 66 30 86 31 49 32 50 33 65 35
REMARK SMILES IDX 87 36 52 37 35 38 36 39 45 40 37 41 38 42 44 43 46 44 39 45
REMARK SMILES IDX 40 46 41 47 42 48 43 49 69 50 70 51 79 52 71 53 72 54 78 55
REMARK SMILES IDX 80 56 73 57 74 58 75 59 76 60 77 61 53 62 54 63 63 64 55 65
REMARK SMILES IDX 56 66 62 67 64 68 57 69 58 70 59 71 60 72 61 73 5 74 6 75
REMARK SMILES IDX 7 76 8 77 9 79 10 80 18 81 25 82 19 83 24 84 20 85 23 86
REMARK SMILES IDX 21 87 22 88 11 89 12 90 13 91 17 92 14 93 16 94 15 95
REMARK H PARENT 3 5 85 23 51 34 7 78
REMARK Flexibility Score: inf
ROOT
ATOM      1  C   UNL A   1      35.706  31.733  28.581  1.00  0.00     0.118 C 
ENDROOT
BRANCH   1   2
ATOM      2  N   UNL A   1      35.598  31.095  29.879  1.00  0.00    -0.352 N 
ATOM      3  O   UNL A   1      36.095  29.592  31.465  1.00  0.00    -0.269 OA
ATOM      4  C   UNL A   1      36.484  30.256  30.509  1.00  0.00     0.251 C 
ATOM      5  H   UNL A   1      34.773  31.291  30.379  1.00  0.00     0.163 HD
BRANCH   4   6
ATOM      6  C   UNL A   1      37.893  30.152  30.055  1.00  0.00     0.039 A 
ATOM      7  C   UNL A   1      38.957  30.272  30.954  1.00  0.00     0.014 A 
ATOM      8  C   UNL A   1      38.147  29.817  28.720  1.00  0.00     0.014 A 
ATOM      9  C   UNL A   1      40.271  30.115  30.510  1.00  0.00     0.010 A 
ATOM     10  C   UNL A   1      39.458  29.600  28.289  1.00  0.00     0.010 A 
ATOM     11  C   UNL A   1      40.530  29.738  29.183  1.00  0.00    -0.014 A 
BRANCH  11  12
ATOM     12  C   UNL A   1      41.904  29.339  28.785  1.00  0.00     0.031 A 
ATOM     13  C   UNL A   1      43.011  30.346  28.668  1.00  0.00     0.074 A 
ATOM     14  C   UNL A   1      42.127  28.043  28.482  1.00  0.00     0.049 A 
ATOM     15  N   UNL A   1      44.249  30.161  28.286  1.00  0.00    -0.248 NA
ATOM     16  C   UNL A   1      42.692  31.740  29.014  1.00  0.00     0.031 C 
ATOM     17  C   UNL A   1      41.113  26.984  28.522  1.00  0.00     0.029 A 
ATOM     18  N   UNL A   1      43.264  27.396  28.070  1.00  0.00    -0.354 N 
ATOM     19  C   UNL A   1      44.853  31.411  28.326  1.00  0.00     0.074 A 
ATOM     20  C   UNL A   1      43.842  32.353  28.760  1.00  0.00     0.031 C 
ATOM     21  C   UNL A   1      41.674  25.822  28.154  1.00  0.00     0.029 A 
ATOM     22  C   UNL A   1      43.070  26.059  27.808  1.00  0.00     0.049 A 
ATOM     23  H   UNL A   1      44.135  27.844  27.971  1.00  0.00     0.167 HD
ATOM     24  C   UNL A   1      46.135  31.735  28.030  1.00  0.00     0.037 A 
ATOM     25  C   UNL A   1      43.910  25.131  27.311  1.00  0.00     0.037 A 
ATOM     26  C   UNL A   1      47.140  30.782  27.629  1.00  0.00     0.049 A 
ATOM     27  C   UNL A   1      45.319  25.527  26.976  1.00  0.00     0.074 A 
ATOM     28  C   UNL A   1      48.490  31.000  27.413  1.00  0.00     0.029 A 
ATOM     29  N   UNL A   1      46.904  29.442  27.365  1.00  0.00    -0.354 N 
ATOM     30  N   UNL A   1      45.897  26.697  27.109  1.00  0.00    -0.248 NA
ATOM     31  C   UNL A   1      46.188  24.485  26.415  1.00  0.00     0.031 C 
ATOM     32  C   UNL A   1      49.061  29.802  26.972  1.00  0.00     0.029 A 
ATOM     33  C   UNL A   1      48.074  28.830  26.946  1.00  0.00     0.049 A 
ATOM     34  H   UNL A   1      46.034  28.991  27.460  1.00  0.00     0.167 HD
ATOM     35  C   UNL A   1      47.195  26.532  26.648  1.00  0.00     0.074 A 
ATOM     36  C   UNL A   1      47.329  25.143  26.258  1.00  0.00     0.031 C 
ATOM     37  C   UNL A   1      48.187  27.450  26.550  1.00  0.00     0.037 A 
BRANCH  24  38
ATOM     38  C   UNL A   1      46.546  33.177  28.120  1.00  0.00     0.058 A 
ATOM     39  C   UNL A   1      47.149  33.701  29.273  1.00  0.00     0.135 A 
ATOM     40  C   UNL A   1      46.432  34.017  26.999  1.00  0.00     0.135 A 
ATOM     41  F   UNL A   1      47.272  32.944  30.374  1.00  0.00    -0.206 F 
ATOM     42  C   UNL A   1      47.626  35.008  29.313  1.00  0.00     0.059 A 
ATOM     43  C   UNL A   1      46.918  35.321  27.011  1.00  0.00     0.059 A 
ATOM     44  F   UNL A   1      45.862  33.564  25.872  1.00  0.00    -0.206 F 
ATOM     45  C   UNL A   1      47.510  35.809  28.175  1.00  0.00     0.060 A 
BRANCH  45  46
ATOM     46  S   UNL A   1      48.175  37.488  28.228  1.00  0.00     0.124 S 
ATOM     47  O   UNL A   1      47.003  38.251  28.645  1.00  0.00    -0.237 OA
ATOM     48  O   UNL A   1      49.240  37.371  29.221  1.00  0.00    -0.237 OA
ATOM     49  O   UNL A   1      48.621  37.721  26.859  1.00  0.00    -0.744 OA
ENDBRANCH  45  46
ENDBRANCH  24  38
BRANCH  25  50
ATOM     50  C   UNL A   1      43.424  23.751  27.058  1.00  0.00     0.058 A 
ATOM     51  C   UNL A   1      43.131  23.310  25.760  1.00  0.00     0.135 A 
ATOM     52  C   UNL A   1      43.246  22.844  28.114  1.00  0.00     0.135 A 
ATOM     53  F   UNL A   1      43.282  24.144  24.719  1.00  0.00    -0.206 F 
ATOM     54  C   UNL A   1      42.658  22.025  25.518  1.00  0.00     0.059 A 
ATOM     55  C   UNL A   1      42.799  21.545  27.896  1.00  0.00     0.059 A 
ATOM     56  F   UNL A   1      43.530  23.212  29.374  1.00  0.00    -0.206 F 
ATOM     57  C   UNL A   1      42.493  21.150  26.594  1.00  0.00     0.060 A 
BRANCH  57  58
ATOM     58  S   UNL A   1      41.908  19.471  26.273  1.00  0.00     0.124 S 
ATOM     59  O   UNL A   1      42.288  18.791  27.506  1.00  0.00    -0.237 OA
ATOM     60  O   UNL A   1      40.477  19.675  26.071  1.00  0.00    -0.237 OA
ATOM     61  O   UNL A   1      42.652  19.083  25.080  1.00  0.00    -0.744 OA
ENDBRANCH  57  58
ENDBRANCH  25  50
BRANCH  37  62
ATOM     62  C   UNL A   1      49.500  26.985  25.990  1.00  0.00     0.058 A 
ATOM     63  C   UNL A   1      49.787  27.101  24.621  1.00  0.00     0.135 A 
ATOM     64  C   UNL A   1      50.498  26.470  26.831  1.00  0.00     0.135 A 
ATOM     65  F   UNL A   1      48.859  27.576  23.775  1.00  0.00    -0.206 F 
ATOM     66  C   UNL A   1      51.017  26.712  24.103  1.00  0.00     0.059 A 
ATOM     67  C   UNL A   1      51.743  26.095  26.338  1.00  0.00     0.059 A 
ATOM     68  F   UNL A   1      50.273  26.344  28.149  1.00  0.00    -0.206 F 
ATOM     69  C   UNL A   1      51.990  26.213  24.971  1.00  0.00     0.060 A 
BRANCH  69  70
ATOM     70  S   UNL A   1      53.602  25.757  24.294  1.00  0.00     0.124 S 
ATOM     71  O   UNL A   1      53.728  24.375  24.744  1.00  0.00    -0.237 OA
ATOM     72  O   UNL A   1      53.402  25.941  22.860  1.00  0.00    -0.237 OA
ATOM     73  O   UNL A   1      54.513  26.708  24.921  1.00  0.00    -0.744 OA
ENDBRANCH  69  70
ENDBRANCH  37  62
ENDBRANCH  11  12
ENDBRANCH   4   6
ENDBRANCH   1   2
BRANCH   1  74
ATOM     74  C   UNL A   1      34.616  31.258  27.631  1.00  0.00     0.042 C 
BRANCH  74  75
ATOM     75  C   UNL A   1      34.728  29.788  27.225  1.00  0.00     0.117 C 
BRANCH  75  76
ATOM     76  N   UNL A   1      33.645  28.968  27.743  1.00  0.00    -0.356 N 
ATOM     77  C   UNL A   1      32.532  28.426  27.178  1.00  0.00     0.227 C 
ATOM     78  H   UNL A   1      33.737  28.759  28.701  1.00  0.00     0.163 HD
ATOM     79  O   UNL A   1      31.794  27.806  27.949  1.00  0.00    -0.274 OA
BRANCH  77  80
ATOM     80  C   UNL A   1      32.201  28.559  25.687  1.00  0.00     0.061 C 
ATOM     81  C   UNL A   1      31.095  27.510  25.347  1.00  0.00     0.053 C 
ATOM     82  C   UNL A   1      31.505  29.933  25.395  1.00  0.00     0.053 C 
ATOM     83  C   UNL A   1      30.286  28.205  24.298  1.00  0.00    -0.044 A 
ATOM     84  C   UNL A   1      30.541  29.577  24.302  1.00  0.00    -0.044 A 
ATOM     85  C   UNL A   1      29.390  27.643  23.404  1.00  0.00     0.004 A 
ATOM     86  C   UNL A   1      29.922  30.419  23.397  1.00  0.00     0.004 A 
ATOM     87  C   UNL A   1      28.766  28.483  22.481  1.00  0.00     0.000 A 
ATOM     88  C   UNL A   1      29.035  29.860  22.473  1.00  0.00     0.000 A 
BRANCH  80  89
ATOM     89  C   UNL A   1      33.420  28.395  24.735  1.00  0.00     0.053 C 
BRANCH  89  90
ATOM     90  C   UNL A   1      33.584  27.123  23.924  1.00  0.00    -0.044 A 
ATOM     91  C   UNL A   1      33.987  25.896  24.459  1.00  0.00     0.024 A 
ATOM     92  C   UNL A   1      33.223  27.140  22.570  1.00  0.00     0.024 A 
ATOM     93  C   UNL A   1      34.035  24.778  23.637  1.00  0.00     0.111 A 
ATOM     94  C   UNL A   1      33.302  25.972  21.827  1.00  0.00     0.111 A 
ATOM     95  N   UNL A   1      33.706  24.790  22.331  1.00  0.00    -0.265 NA
ENDBRANCH  89  90
ENDBRANCH  80  89
ENDBRANCH  77  80
ENDBRANCH  75  76
ENDBRANCH  74  75
ENDBRANCH   1  74
TORSDOF 15
ENDMDL
MODEL 2
REMARK VINA RESULT:     -12.5      6.993     12.463
REMARK SMILES O=C(NCCCNC(=O)C1(Cc2ccncc2)Cc2ccccc2C1)c1ccc(-c2c3nc(c(-c4c(F)cc(S(=O)(=O)[O-])cc4F)c4ccc([nH]4)c(-c4c(F)cc(S(=O)(=O)[O-])cc4F)c4nc(c(-c5c(F)cc(S(=O)(=O)[O-])cc5F)c5ccc2[nH]5)C=C4)C=C3)cc1
REMARK SMILES IDX 4 1 3 2 1 3 2 4 26 6 27 7 91 8 28 9 90 10 29 11 30 12 31 13
REMARK SMILES IDX 84 14 32 15 89 16 83 17 85 18 33 19 88 20 82 21 81 22 34 24
REMARK SMILES IDX 68 25 47 26 67 27 48 28 51 29 66 30 86 31 49 32 50 33 65 35
REMARK SMILES IDX 87 36 52 37 35 38 36 39 45 40 37 41 38 42 44 43 46 44 39 45
REMARK SMILES IDX 40 46 41 47 42 48 43 49 69 50 70 51 79 52 71 53 72 54 78 55
REMARK SMILES IDX 80 56 73 57 74 58 75 59 76 60 77 61 53 62 54 63 63 64 55 65
REMARK SMILES IDX 56 66 62 67 64 68 57 69 58 70 59 71 60 72 61 73 5 74 6 75
REMARK SMILES IDX 7 76 8 77 9 79 10 80 18 81 25 82 19 83 24 84 20 85 23 86
REMARK SMILES IDX 21 87 22 88 11 89 12 90 13 91 17 92 14 93 16 94 15 95
REMARK H PARENT 3 5 85 23 51 34 7 78
REMARK Flexibility Score: inf
ROOT
ATOM      1  C   UNL A   1      39.907  23.297  27.034  1.00  0.00     0.118 C 
ENDROOT
BRANCH   1   2
ATOM      2  N   UNL A   1      40.669  24.046  26.053  1.00  0.00    -0.352 N 
ATOM      3  O   UNL A   1      41.471  25.889  25.061  1.00  0.00    -0.269 OA
ATOM      4  C   UNL A   1      41.094  25.352  26.098  1.00  0.00     0.251 C 
ATOM      5  H   UNL A   1      40.916  23.550  25.240  1.00  0.00     0.163 HD
BRANCH   4   6
ATOM      6  C   UNL A   1      41.111  26.106  27.375  1.00  0.00     0.039 A 
ATOM      7  C   UNL A   1      42.188  26.928  27.720  1.00  0.00     0.014 A 
ATOM      8  C   UNL A   1      39.974  26.075  28.190  1.00  0.00     0.014 A 
ATOM      9  C   UNL A   1      42.154  27.670  28.902  1.00  0.00     0.010 A 
ATOM     10  C   UNL A   1      39.914  26.865  29.342  1.00  0.00     0.010 A 
ATOM     11  C   UNL A   1      41.001  27.676  29.702  1.00  0.00    -0.014 A 
BRANCH  11  12
ATOM     12  C   UNL A   1      40.882  28.647  30.818  1.00  0.00     0.031 A 
ATOM     13  C   UNL A   1      41.720  28.526  32.057  1.00  0.00     0.074 A 
ATOM     14  C   UNL A   1      39.960  29.627  30.713  1.00  0.00     0.049 A 
ATOM     15  N   UNL A   1      41.699  29.266  33.136  1.00  0.00    -0.248 NA
ATOM     16  C   UNL A   1      42.704  27.433  32.099  1.00  0.00     0.031 C 
ATOM     17  C   UNL A   1      39.060  29.816  29.570  1.00  0.00     0.029 A 
ATOM     18  N   UNL A   1      39.613  30.636  31.575  1.00  0.00    -0.354 N 
ATOM     19  C   UNL A   1      42.647  28.722  33.993  1.00  0.00     0.074 A 
ATOM     20  C   UNL A   1      43.221  27.580  33.314  1.00  0.00     0.031 C 
ATOM     21  C   UNL A   1      38.270  30.875  29.800  1.00  0.00     0.029 A 
ATOM     22  C   UNL A   1      38.572  31.412  31.122  1.00  0.00     0.049 A 
ATOM     23  H   UNL A   1      40.066  30.791  32.436  1.00  0.00     0.167 HD
ATOM     24  C   UNL A   1      43.003  29.145  35.231  1.00  0.00     0.037 A 
ATOM     25  C   UNL A   1      37.907  32.423  31.714  1.00  0.00     0.037 A 
ATOM     26  C   UNL A   1      42.445  30.303  35.883  1.00  0.00     0.049 A 
ATOM     27  C   UNL A   1      38.314  32.855  33.093  1.00  0.00     0.074 A 
ATOM     28  C   UNL A   1      42.819  30.870  37.089  1.00  0.00     0.029 A 
ATOM     29  N   UNL A   1      41.388  31.056  35.398  1.00  0.00    -0.354 N 
ATOM     30  N   UNL A   1      39.276  32.384  33.850  1.00  0.00    -0.248 NA
ATOM     31  C   UNL A   1      37.543  33.944  33.705  1.00  0.00     0.031 C 
ATOM     32  C   UNL A   1      41.956  31.938  37.357  1.00  0.00     0.029 A 
ATOM     33  C   UNL A   1      41.067  32.057  36.301  1.00  0.00     0.049 A 
ATOM     34  H   UNL A   1      40.931  30.903  34.539  1.00  0.00     0.167 HD
ATOM     35  C   UNL A   1      39.225  33.119  35.026  1.00  0.00     0.074 A 
ATOM     36  C   UNL A   1      38.156  34.084  34.872  1.00  0.00     0.031 C 
ATOM     37  C   UNL A   1      39.991  33.001  36.137  1.00  0.00     0.037 A 
BRANCH  24  38
ATOM     38  C   UNL A   1      44.043  28.362  35.980  1.00  0.00     0.058 A 
ATOM     39  C   UNL A   1      45.403  28.702  35.926  1.00  0.00     0.135 A 
ATOM     40  C   UNL A   1      43.659  27.326  36.848  1.00  0.00     0.135 A 
ATOM     41  F   UNL A   1      45.823  29.677  35.105  1.00  0.00    -0.206 F 
ATOM     42  C   UNL A   1      46.348  28.042  36.707  1.00  0.00     0.059 A 
ATOM     43  C   UNL A   1      44.585  26.665  37.651  1.00  0.00     0.059 A 
ATOM     44  F   UNL A   1      42.371  26.961  36.936  1.00  0.00    -0.206 F 
ATOM     45  C   UNL A   1      45.928  27.029  37.570  1.00  0.00     0.060 A 
BRANCH  45  46
ATOM     46  S   UNL A   1      47.160  26.213  38.610  1.00  0.00     0.124 S 
ATOM     47  O   UNL A   1      46.314  25.427  39.501  1.00  0.00    -0.237 OA
ATOM     48  O   UNL A   1      47.935  25.449  37.635  1.00  0.00    -0.237 OA
ATOM     49  O   UNL A   1      47.868  27.325  39.235  1.00  0.00    -0.744 OA
ENDBRANCH  45  46
ENDBRANCH  24  38
BRANCH  25  50
ATOM     50  C   UNL A   1      36.759  33.061  31.022  1.00  0.00     0.058 A 
ATOM     51  C   UNL A   1      35.437  32.771  31.390  1.00  0.00     0.135 A 
ATOM     52  C   UNL A   1      36.963  33.977  29.978  1.00  0.00     0.135 A 
ATOM     53  F   UNL A   1      35.191  31.898  32.379  1.00  0.00    -0.206 F 
ATOM     54  C   UNL A   1      34.356  33.352  30.733  1.00  0.00     0.059 A 
ATOM     55  C   UNL A   1      35.900  34.590  29.324  1.00  0.00     0.059 A 
ATOM     56  F   UNL A   1      38.211  34.301  29.602  1.00  0.00    -0.206 F 
ATOM     57  C   UNL A   1      34.600  34.258  29.699  1.00  0.00     0.060 A 
BRANCH  57  58
ATOM     58  S   UNL A   1      33.195  35.034  28.870  1.00  0.00     0.124 S 
ATOM     59  O   UNL A   1      32.347  35.387  30.002  1.00  0.00    -0.237 OA
ATOM     60  O   UNL A   1      33.824  36.150  28.171  1.00  0.00    -0.237 OA
ATOM     61  O   UNL A   1      32.690  33.970  28.007  1.00  0.00    -0.744 OA
ENDBRANCH  57  58
ENDBRANCH  25  50
BRANCH  37  62
ATOM     62  C   UNL A   1      39.695  33.931  37.278  1.00  0.00     0.058 A 
ATOM     63  C   UNL A   1      38.887  33.527  38.352  1.00  0.00     0.135 A 
ATOM     64  C   UNL A   1      40.262  35.214  37.326  1.00  0.00     0.135 A 
ATOM     65  F   UNL A   1      38.312  32.314  38.345  1.00  0.00    -0.206 F 
ATOM     66  C   UNL A   1      38.643  34.368  39.432  1.00  0.00     0.059 A 
ATOM     67  C   UNL A   1      40.050  36.063  38.406  1.00  0.00     0.059 A 
ATOM     68  F   UNL A   1      41.045  35.644  36.324  1.00  0.00    -0.206 F 
ATOM     69  C   UNL A   1      39.232  35.634  39.451  1.00  0.00     0.060 A 
BRANCH  69  70
ATOM     70  S   UNL A   1      38.948  36.699  40.882  1.00  0.00     0.124 S 
ATOM     71  O   UNL A   1      37.998  35.905  41.654  1.00  0.00    -0.237 OA
ATOM     72  O   UNL A   1      40.286  36.820  41.453  1.00  0.00    -0.237 OA
ATOM     73  O   UNL A   1      38.412  37.921  40.291  1.00  0.00    -0.744 OA
ENDBRANCH  69  70
ENDBRANCH  37  62
ENDBRANCH  11  12
ENDBRANCH   4   6
ENDBRANCH   1   2
BRANCH   1  74
ATOM     74  C   UNL A   1      38.852  22.421  26.373  1.00  0.00     0.042 C 
BRANCH  74  75
ATOM     75  C   UNL A   1      37.693  23.193  25.743  1.00  0.00     0.117 C 
BRANCH  75  76
ATOM     76  N   UNL A   1      36.485  23.171  26.551  1.00  0.00    -0.356 N 
ATOM     77  C   UNL A   1      35.255  22.619  26.374  1.00  0.00     0.227 C 
ATOM     78  H   UNL A   1      36.577  23.656  27.403  1.00  0.00     0.163 HD
ATOM     79  O   UNL A   1      34.438  22.845  27.273  1.00  0.00    -0.274 OA
BRANCH  77  80
ATOM     80  C   UNL A   1      34.887  21.765  25.155  1.00  0.00     0.061 C 
ATOM     81  C   UNL A   1      35.666  20.415  25.263  1.00  0.00     0.053 C 
ATOM     82  C   UNL A   1      33.383  21.327  25.219  1.00  0.00     0.053 C 
ATOM     83  C   UNL A   1      34.714  19.431  24.660  1.00  0.00    -0.044 A 
ATOM     84  C   UNL A   1      33.423  19.959  24.605  1.00  0.00    -0.044 A 
ATOM     85  C   UNL A   1      34.989  18.157  24.193  1.00  0.00     0.004 A 
ATOM     86  C   UNL A   1      32.379  19.233  24.060  1.00  0.00     0.004 A 
ATOM     87  C   UNL A   1      33.946  17.419  23.634  1.00  0.00     0.000 A 
ATOM     88  C   UNL A   1      32.651  17.956  23.563  1.00  0.00     0.000 A 
BRANCH  80  89
ATOM     89  C   UNL A   1      35.160  22.445  23.783  1.00  0.00     0.053 C 
BRANCH  89  90
ATOM     90  C   UNL A   1      34.332  23.641  23.350  1.00  0.00    -0.044 A 
ATOM     91  C   UNL A   1      34.389  24.898  23.958  1.00  0.00     0.024 A 
ATOM     92  C   UNL A   1      33.523  23.519  22.211  1.00  0.00     0.024 A 
ATOM     93  C   UNL A   1      33.639  25.942  23.433  1.00  0.00     0.111 A 
ATOM     94  C   UNL A   1      32.810  24.619  21.759  1.00  0.00     0.111 A 
ATOM     95  N   UNL A   1      32.846  25.829  22.350  1.00  0.00    -0.265 NA
ENDBRANCH  89  90
ENDBRANCH  80  89
ENDBRANCH  77  80
ENDBRANCH  75  76
ENDBRANCH  74  75
ENDBRANCH   1  74
TORSDOF 15
ENDMDL
MODEL 3
REMARK VINA RESULT:     -12.5      3.126      4.797
REMARK SMILES O=C(NCCCNC(=O)C1(Cc2ccncc2)Cc2ccccc2C1)c1ccc(-c2c3nc(c(-c4c(F)cc(S(=O)(=O)[O-])cc4F)c4ccc([nH]4)c(-c4c(F)cc(S(=O)(=O)[O-])cc4F)c4nc(c(-c5c(F)cc(S(=O)(=O)[O-])cc5F)c5ccc2[nH]5)C=C4)C=C3)cc1
REMARK SMILES IDX 4 1 3 2 1 3 2 4 26 6 27 7 91 8 28 9 90 10 29 11 30 12 31 13
REMARK SMILES IDX 84 14 32 15 89 16 83 17 85 18 33 19 88 20 82 21 81 22 34 24
REMARK SMILES IDX 68 25 47 26 67 27 48 28 51 29 66 30 86 31 49 32 50 33 65 35
REMARK SMILES IDX 87 36 52 37 35 38 36 39 45 40 37 41 38 42 44 43 46 44 39 45
REMARK SMILES IDX 40 46 41 47 42 48 43 49 69 50 70 51 79 52 71 53 72 54 78 55
REMARK SMILES IDX 80 56 73 57 74 58 75 59 76 60 77 61 53 62 54 63 63 64 55 65
REMARK SMILES IDX 56 66 62 67 64 68 57 69 58 70 59 71 60 72 61 73 5 74 6 75
REMARK SMILES IDX 7 76 8 77 9 79 10 80 18 81 25 82 19 83 24 84 20 85 23 86
REMARK SMILES IDX 21 87 22 88 11 89 12 90 13 91 17 92 14 93 16 94 15 95
REMARK H PARENT 3 5 85 23 51 34 7 78
REMARK Flexibility Score: inf
ROOT
ATOM      1  C   UNL A   1      33.446  28.445  27.045  1.00  0.00     0.118 C 
ENDROOT
BRANCH   1   2
ATOM      2  N   UNL A   1      33.465  29.850  27.408  1.00  0.00    -0.352 N 
ATOM      3  O   UNL A   1      34.128  31.654  28.560  1.00  0.00    -0.269 OA
ATOM      4  C   UNL A   1      34.419  30.553  28.102  1.00  0.00     0.251 C 
ATOM      5  H   UNL A   1      32.684  30.372  27.117  1.00  0.00     0.163 HD
BRANCH   4   6
ATOM      6  C   UNL A   1      35.784  30.004  28.293  1.00  0.00     0.039 A 
ATOM      7  C   UNL A   1      36.735  30.046  27.268  1.00  0.00     0.014 A 
ATOM      8  C   UNL A   1      36.152  29.541  29.561  1.00  0.00     0.014 A 
ATOM      9  C   UNL A   1      38.029  29.573  27.492  1.00  0.00     0.010 A 
ATOM     10  C   UNL A   1      37.464  29.124  29.803  1.00  0.00     0.010 A 
ATOM     11  C   UNL A   1      38.415  29.146  28.772  1.00  0.00    -0.014 A 
BRANCH  11  12
ATOM     12  C   UNL A   1      39.847  28.877  29.058  1.00  0.00     0.031 A 
ATOM     13  C   UNL A   1      40.757  29.945  29.589  1.00  0.00     0.074 A 
ATOM     14  C   UNL A   1      40.330  27.647  28.783  1.00  0.00     0.049 A 
ATOM     15  N   UNL A   1      42.038  29.878  29.844  1.00  0.00    -0.248 NA
ATOM     16  C   UNL A   1      40.159  31.262  29.864  1.00  0.00     0.031 C 
ATOM     17  C   UNL A   1      39.545  26.540  28.225  1.00  0.00     0.029 A 
ATOM     18  N   UNL A   1      41.589  27.120  28.919  1.00  0.00    -0.354 N 
ATOM     19  C   UNL A   1      42.407  31.141  30.289  1.00  0.00     0.074 A 
ATOM     20  C   UNL A   1      41.215  31.962  30.261  1.00  0.00     0.031 C 
ATOM     21  C   UNL A   1      40.337  25.469  28.071  1.00  0.00     0.029 A 
ATOM     22  C   UNL A   1      41.693  25.823  28.473  1.00  0.00     0.049 A 
ATOM     23  H   UNL A   1      42.346  27.622  29.300  1.00  0.00     0.167 HD
ATOM     24  C   UNL A   1      43.631  31.568  30.687  1.00  0.00     0.037 A 
ATOM     25  C   UNL A   1      42.765  25.016  28.365  1.00  0.00     0.037 A 
ATOM     26  C   UNL A   1      44.803  30.731  30.740  1.00  0.00     0.049 A 
ATOM     27  C   UNL A   1      44.110  25.525  28.798  1.00  0.00     0.074 A 
ATOM     28  C   UNL A   1      46.059  31.046  31.231  1.00  0.00     0.029 A 
ATOM     29  N   UNL A   1      44.872  29.429  30.271  1.00  0.00    -0.354 N 
ATOM     30  N   UNL A   1      44.420  26.695  29.303  1.00  0.00    -0.248 NA
ATOM     31  C   UNL A   1      45.251  24.614  28.637  1.00  0.00     0.031 C 
ATOM     32  C   UNL A   1      46.901  29.949  31.015  1.00  0.00     0.029 A 
ATOM     33  C   UNL A   1      46.160  28.940  30.421  1.00  0.00     0.049 A 
ATOM     34  H   UNL A   1      44.118  28.925  29.888  1.00  0.00     0.167 HD
ATOM     35  C   UNL A   1      45.791  26.661  29.520  1.00  0.00     0.074 A 
ATOM     36  C   UNL A   1      46.247  25.346  29.117  1.00  0.00     0.031 C 
ATOM     37  C   UNL A   1      46.600  27.634  30.003  1.00  0.00     0.037 A 
BRANCH  24  38
ATOM     38  C   UNL A   1      43.786  33.004  31.100  1.00  0.00     0.058 A 
ATOM     39  C   UNL A   1      43.643  33.406  32.436  1.00  0.00     0.135 A 
ATOM     40  C   UNL A   1      44.188  33.970  30.163  1.00  0.00     0.135 A 
ATOM     41  F   UNL A   1      43.251  32.525  33.369  1.00  0.00    -0.206 F 
ATOM     42  C   UNL A   1      43.895  34.718  32.830  1.00  0.00     0.059 A 
ATOM     43  C   UNL A   1      44.462  35.282  30.537  1.00  0.00     0.059 A 
ATOM     44  F   UNL A   1      44.338  33.636  28.871  1.00  0.00    -0.206 F 
ATOM     45  C   UNL A   1      44.308  35.647  31.874  1.00  0.00     0.060 A 
BRANCH  45  46
ATOM     46  S   UNL A   1      44.674  37.333  32.409  1.00  0.00     0.124 S 
ATOM     47  O   UNL A   1      45.861  37.126  33.233  1.00  0.00    -0.237 OA
ATOM     48  O   UNL A   1      44.897  38.022  31.141  1.00  0.00    -0.237 OA
ATOM     49  O   UNL A   1      43.470  37.731  33.131  1.00  0.00    -0.744 OA
ENDBRANCH  45  46
ENDBRANCH  24  38
BRANCH  25  50
ATOM     50  C   UNL A   1      42.616  23.659  27.780  1.00  0.00     0.058 A 
ATOM     51  C   UNL A   1      42.468  22.528  28.596  1.00  0.00     0.135 A 
ATOM     52  C   UNL A   1      42.616  23.468  26.390  1.00  0.00     0.135 A 
ATOM     53  F   UNL A   1      42.467  22.660  29.931  1.00  0.00    -0.206 F 
ATOM     54  C   UNL A   1      42.346  21.252  28.055  1.00  0.00     0.059 A 
ATOM     55  C   UNL A   1      42.469  22.206  25.824  1.00  0.00     0.059 A 
ATOM     56  F   UNL A   1      42.736  24.522  25.566  1.00  0.00    -0.206 F 
ATOM     57  C   UNL A   1      42.350  21.102  26.667  1.00  0.00     0.060 A 
BRANCH  57  58
ATOM     58  S   UNL A   1      42.160  19.448  25.966  1.00  0.00     0.124 S 
ATOM     59  O   UNL A   1      42.980  19.545  24.764  1.00  0.00    -0.237 OA
ATOM     60  O   UNL A   1      42.685  18.598  27.030  1.00  0.00    -0.237 OA
ATOM     61  O   UNL A   1      40.721  19.344  25.745  1.00  0.00    -0.744 OA
ENDBRANCH  57  58
ENDBRANCH  25  50
BRANCH  37  62
ATOM     62  C   UNL A   1      48.064  27.318  30.114  1.00  0.00     0.058 A 
ATOM     63  C   UNL A   1      48.938  27.548  29.041  1.00  0.00     0.135 A 
ATOM     64  C   UNL A   1      48.605  26.832  31.314  1.00  0.00     0.135 A 
ATOM     65  F   UNL A   1      48.465  27.999  27.869  1.00  0.00    -0.206 F 
ATOM     66  C   UNL A   1      50.302  27.297  29.151  1.00  0.00     0.059 A 
ATOM     67  C   UNL A   1      49.968  26.595  31.454  1.00  0.00     0.059 A 
ATOM     68  F   UNL A   1      47.809  26.600  32.370  1.00  0.00    -0.206 F 
ATOM     69  C   UNL A   1      50.807  26.824  30.364  1.00  0.00     0.060 A 
BRANCH  69  70
ATOM     70  S   UNL A   1      52.586  26.548  30.511  1.00  0.00     0.124 S 
ATOM     71  O   UNL A   1      53.032  27.812  31.088  1.00  0.00    -0.237 OA
ATOM     72  O   UNL A   1      52.652  25.389  31.396  1.00  0.00    -0.237 OA
ATOM     73  O   UNL A   1      53.005  26.303  29.135  1.00  0.00    -0.744 OA
ENDBRANCH  69  70
ENDBRANCH  37  62
ENDBRANCH  11  12
ENDBRANCH   4   6
ENDBRANCH   1   2
BRANCH   1  74
ATOM     74  C   UNL A   1      33.603  28.254  25.543  1.00  0.00     0.042 C 
BRANCH  74  75
ATOM     75  C   UNL A   1      32.590  27.295  24.918  1.00  0.00     0.117 C 
BRANCH  75  76
ATOM     76  N   UNL A   1      32.943  26.890  23.567  1.00  0.00    -0.356 N 
ATOM     77  C   UNL A   1      33.573  25.798  23.055  1.00  0.00     0.227 C 
ATOM     78  H   UNL A   1      32.668  27.540  22.880  1.00  0.00     0.163 HD
ATOM     79  O   UNL A   1      33.744  25.810  21.832  1.00  0.00    -0.274 OA
BRANCH  77  80
ATOM     80  C   UNL A   1      34.041  24.620  23.917  1.00  0.00     0.061 C 
ATOM     81  C   UNL A   1      34.918  23.689  23.019  1.00  0.00     0.053 C 
ATOM     82  C   UNL A   1      35.037  25.106  25.025  1.00  0.00     0.053 C 
ATOM     83  C   UNL A   1      35.938  23.163  23.980  1.00  0.00    -0.044 A 
ATOM     84  C   UNL A   1      35.985  23.948  25.133  1.00  0.00    -0.044 A 
ATOM     85  C   UNL A   1      36.759  22.059  23.828  1.00  0.00     0.004 A 
ATOM     86  C   UNL A   1      36.840  23.634  26.174  1.00  0.00     0.004 A 
ATOM     87  C   UNL A   1      37.620  21.728  24.875  1.00  0.00     0.000 A 
ATOM     88  C   UNL A   1      37.655  22.507  26.042  1.00  0.00     0.000 A 
BRANCH  80  89
ATOM     89  C   UNL A   1      32.894  23.810  24.586  1.00  0.00     0.053 C 
BRANCH  89  90
ATOM     90  C   UNL A   1      32.694  22.346  24.236  1.00  0.00    -0.044 A 
ATOM     91  C   UNL A   1      32.220  21.891  23.002  1.00  0.00     0.024 A 
ATOM     92  C   UNL A   1      33.092  21.375  25.164  1.00  0.00     0.024 A 
ATOM     93  C   UNL A   1      32.144  20.525  22.765  1.00  0.00     0.111 A 
ATOM     94  C   UNL A   1      32.980  20.032  24.838  1.00  0.00     0.111 A 
ATOM     95  N   UNL A   1      32.508  19.585  23.658  1.00  0.00    -0.265 NA
ENDBRANCH  89  90
ENDBRANCH  80  89
ENDBRANCH  77  80
ENDBRANCH  75  76
ENDBRANCH  74  75
ENDBRANCH   1  74
TORSDOF 15
ENDMDL
