MODEL 1
REMARK VINA RESULT:     -13.1      0.000      0.000
REMARK SMILES CC(=O)N1CCC2(CC1)C[C@H](C(=O)NCCCNC(=O)c1ccc(-c3c4nc(c(-c5c(F)cc(S(=O)(=O)[O-])cc5F)c5ccc([nH]5)c(-c5c(F)cc(S(=O)(=O)[O-])cc5F)c5nc(c(-c6c(F)cc(S(=O)(=O)[O-])cc6F)c6ccc3[nH]6)C=C5)C=C4)cc1)[N@H+](Cc1ncc[nH]1)C2
REMARK SMILES IDX 16 1 15 2 14 3 12 4 13 5 11 7 1 8 2 9 3 10 4 11 5 12 9 13
REMARK SMILES IDX 6 14 8 15 7 16 10 17 94 18 87 19 88 21 89 22 90 23 93 24
REMARK SMILES IDX 91 25 92 26 17 28 18 29 19 30 20 32 21 33 22 34 86 35 23 36
REMARK SMILES IDX 85 37 24 38 25 39 26 40 79 41 27 42 84 43 78 44 80 45 28 46
REMARK SMILES IDX 83 47 77 48 76 49 29 51 63 52 42 53 62 54 43 55 46 56 61 57
REMARK SMILES IDX 81 58 44 59 45 60 60 62 82 63 47 64 30 65 31 66 40 67 32 68
REMARK SMILES IDX 33 69 39 70 41 71 34 72 35 73 36 74 37 75 38 76 64 77 65 78
REMARK SMILES IDX 74 79 66 80 67 81 73 82 75 83 68 84 69 85 70 86 71 87 72 88
REMARK SMILES IDX 48 89 49 90 58 91 50 92 51 93 57 94 59 95 52 96 53 97 54 98
REMARK SMILES IDX 55 99 56 100
REMARK H PARENT 14 6 87 20 93 27 18 31 80 50 46 61
REMARK Flexibility Score: inf
ROOT
ATOM      1  C   UNL A   1      40.184  22.052  26.965  1.00  0.00     0.042 C 
ENDROOT
BRANCH   1   2
ATOM      2  C   UNL A   1      38.915  22.699  26.414  1.00  0.00     0.118 C 
BRANCH   2   3
ATOM      3  N   UNL A   1      38.212  21.783  25.543  1.00  0.00    -0.351 N 
ATOM      4  C   UNL A   1      36.916  21.454  25.354  1.00  0.00     0.278 C 
ATOM      5  O   UNL A   1      36.799  20.363  24.758  1.00  0.00    -0.268 OA
ATOM      6  H   UNL A   1      38.819  21.283  24.950  1.00  0.00     0.163 HD
BRANCH   4   7
ATOM      7  C   UNL A   1      35.632  22.276  25.543  1.00  0.00     0.275 C 
ATOM      8  C   UNL A   1      32.606  28.328  22.769  1.00  0.00     0.114 C 
ATOM      9  C   UNL A   1      32.011  26.966  22.566  1.00  0.00     0.219 C 
ATOM     10  O   UNL A   1      31.390  26.713  21.533  1.00  0.00    -0.275 OA
ATOM     11  N   UNL A   1      32.302  26.005  23.517  1.00  0.00    -0.343 N 
ATOM     12  C   UNL A   1      32.381  24.638  23.053  1.00  0.00     0.120 C 
ATOM     13  C   UNL A   1      32.709  26.217  24.909  1.00  0.00     0.120 C 
ATOM     14  C   UNL A   1      33.829  24.211  23.221  1.00  0.00     0.034 C 
ATOM     15  C   UNL A   1      34.097  25.621  25.215  1.00  0.00     0.034 C 
ATOM     16  C   UNL A   1      34.258  24.164  24.704  1.00  0.00     0.029 C 
ATOM     17  C   UNL A   1      35.708  23.653  24.839  1.00  0.00     0.088 C 
ATOM     18  C   UNL A   1      33.489  23.140  25.567  1.00  0.00     0.270 C 
ATOM     19  N   UNL A   1      34.216  21.848  25.496  1.00  0.00    -0.318 N 
ATOM     20  H   UNL A   1      34.109  21.173  26.253  1.00  0.00     0.349 HD
BRANCH  19  21
ATOM     21  C   UNL A   1      33.660  20.954  24.481  1.00  0.00     0.339 C 
BRANCH  21  22
ATOM     22  C   UNL A   1      33.405  19.518  24.791  1.00  0.00     0.161 A 
ATOM     23  N   UNL A   1      32.265  18.935  25.106  1.00  0.00    -0.236 NA
ATOM     24  N   UNL A   1      34.424  18.588  24.784  1.00  0.00    -0.344 N 
ATOM     25  C   UNL A   1      32.558  17.613  25.328  1.00  0.00     0.131 A 
ATOM     26  C   UNL A   1      33.896  17.380  25.143  1.00  0.00     0.104 A 
ATOM     27  H   UNL A   1      35.366  18.764  24.559  1.00  0.00     0.167 HD
ENDBRANCH  21  22
ENDBRANCH  19  21
ENDBRANCH   4   7
ENDBRANCH   2   3
ENDBRANCH   1   2
BRANCH   1  28
ATOM     28  C   UNL A   1      41.325  22.994  27.308  1.00  0.00     0.118 C 
BRANCH  28  29
ATOM     29  N   UNL A   1      41.624  23.912  26.224  1.00  0.00    -0.352 N 
ATOM     30  C   UNL A   1      41.595  25.282  26.143  1.00  0.00     0.251 C 
ATOM     31  H   UNL A   1      41.899  23.468  25.389  1.00  0.00     0.163 HD
ATOM     32  O   UNL A   1      41.682  25.783  25.021  1.00  0.00    -0.269 OA
BRANCH  30  33
ATOM     33  C   UNL A   1      41.450  26.174  27.328  1.00  0.00     0.039 A 
ATOM     34  C   UNL A   1      40.336  25.981  28.159  1.00  0.00     0.014 A 
ATOM     35  C   UNL A   1      42.305  27.242  27.606  1.00  0.00     0.014 A 
ATOM     36  C   UNL A   1      40.105  26.825  29.253  1.00  0.00     0.010 A 
ATOM     37  C   UNL A   1      42.140  28.010  28.763  1.00  0.00     0.010 A 
ATOM     38  C   UNL A   1      41.020  27.837  29.584  1.00  0.00    -0.014 A 
BRANCH  38  39
ATOM     39  C   UNL A   1      40.780  28.732  30.753  1.00  0.00     0.031 A 
ATOM     40  C   UNL A   1      41.645  28.635  31.989  1.00  0.00     0.074 A 
ATOM     41  C   UNL A   1      39.772  29.626  30.713  1.00  0.00     0.049 A 
ATOM     42  N   UNL A   1      41.596  29.343  33.090  1.00  0.00    -0.248 NA
ATOM     43  C   UNL A   1      42.678  27.587  32.005  1.00  0.00     0.031 C 
ATOM     44  C   UNL A   1      38.815  29.773  29.612  1.00  0.00     0.029 A 
ATOM     45  N   UNL A   1      39.385  30.588  31.613  1.00  0.00    -0.354 N 
ATOM     46  C   UNL A   1      42.572  28.812  33.930  1.00  0.00     0.074 A 
ATOM     47  C   UNL A   1      43.154  27.686  33.237  1.00  0.00     0.031 C 
ATOM     48  C   UNL A   1      37.986  30.794  29.880  1.00  0.00     0.029 A 
ATOM     49  C   UNL A   1      38.330  31.357  31.182  1.00  0.00     0.049 A 
ATOM     50  H   UNL A   1      39.823  30.713  32.486  1.00  0.00     0.167 HD
ATOM     51  C   UNL A   1      42.971  29.242  35.153  1.00  0.00     0.037 A 
ATOM     52  C   UNL A   1      37.716  32.407  31.761  1.00  0.00     0.037 A 
ATOM     53  C   UNL A   1      42.420  30.393  35.821  1.00  0.00     0.049 A 
ATOM     54  C   UNL A   1      38.214  32.903  33.090  1.00  0.00     0.074 A 
ATOM     55  C   UNL A   1      42.799  30.953  37.029  1.00  0.00     0.029 A 
ATOM     56  N   UNL A   1      41.375  31.164  35.335  1.00  0.00    -0.354 N 
ATOM     57  N   UNL A   1      39.185  32.430  33.835  1.00  0.00    -0.248 NA
ATOM     58  C   UNL A   1      37.546  34.086  33.649  1.00  0.00     0.031 C 
ATOM     59  C   UNL A   1      41.961  32.044  37.289  1.00  0.00     0.029 A 
ATOM     60  C   UNL A   1      41.088  32.189  36.223  1.00  0.00     0.049 A 
ATOM     61  H   UNL A   1      40.906  31.007  34.484  1.00  0.00     0.167 HD
ATOM     62  C   UNL A   1      39.254  33.267  34.944  1.00  0.00     0.074 A 
ATOM     63  C   UNL A   1      38.245  34.289  34.757  1.00  0.00     0.031 C 
ATOM     64  C   UNL A   1      40.073  33.192  36.023  1.00  0.00     0.037 A 
BRANCH  51  65
ATOM     65  C   UNL A   1      44.070  28.472  35.839  1.00  0.00     0.058 A 
ATOM     66  C   UNL A   1      45.426  28.773  35.625  1.00  0.00     0.135 A 
ATOM     67  C   UNL A   1      43.767  27.439  36.741  1.00  0.00     0.135 A 
ATOM     68  F   UNL A   1      45.775  29.741  34.763  1.00  0.00    -0.206 F 
ATOM     69  C   UNL A   1      46.441  28.056  36.250  1.00  0.00     0.059 A 
ATOM     70  C   UNL A   1      44.767  26.727  37.401  1.00  0.00     0.059 A 
ATOM     71  F   UNL A   1      42.490  27.109  36.987  1.00  0.00    -0.206 F 
ATOM     72  C   UNL A   1      46.101  27.032  37.136  1.00  0.00     0.060 A 
BRANCH  72  73
ATOM     73  S   UNL A   1      47.431  26.113  37.940  1.00  0.00     0.124 S 
ATOM     74  O   UNL A   1      47.521  24.929  37.092  1.00  0.00    -0.237 OA
ATOM     75  O   UNL A   1      48.552  27.042  37.854  1.00  0.00    -0.237 OA
ATOM     76  O   UNL A   1      46.915  25.880  39.288  1.00  0.00    -0.744 OA
ENDBRANCH  72  73
ENDBRANCH  51  65
BRANCH  52  77
ATOM     77  C   UNL A   1      36.595  33.090  31.061  1.00  0.00     0.058 A 
ATOM     78  C   UNL A   1      35.274  32.959  31.517  1.00  0.00     0.135 A 
ATOM     79  C   UNL A   1      36.820  33.903  29.940  1.00  0.00     0.135 A 
ATOM     80  F   UNL A   1      35.005  32.188  32.582  1.00  0.00    -0.206 F 
ATOM     81  C   UNL A   1      34.215  33.596  30.879  1.00  0.00     0.059 A 
ATOM     82  C   UNL A   1      35.781  34.573  29.301  1.00  0.00     0.059 A 
ATOM     83  F   UNL A   1      38.068  34.079  29.477  1.00  0.00    -0.206 F 
ATOM     84  C   UNL A   1      34.480  34.406  29.772  1.00  0.00     0.060 A 
BRANCH  84  85
ATOM     85  S   UNL A   1      33.107  35.279  28.988  1.00  0.00     0.124 S 
ATOM     86  O   UNL A   1      32.231  35.531  30.126  1.00  0.00    -0.237 OA
ATOM     87  O   UNL A   1      33.771  36.449  28.420  1.00  0.00    -0.237 OA
ATOM     88  O   UNL A   1      32.614  34.314  28.009  1.00  0.00    -0.744 OA
ENDBRANCH  84  85
ENDBRANCH  52  77
BRANCH  64  89
ATOM     89  C   UNL A   1      39.916  34.260  37.070  1.00  0.00     0.058 A 
ATOM     90  C   UNL A   1      39.109  34.066  38.202  1.00  0.00     0.135 A 
ATOM     91  C   UNL A   1      40.580  35.490  36.938  1.00  0.00     0.135 A 
ATOM     92  F   UNL A   1      38.451  32.908  38.373  1.00  0.00    -0.206 F 
ATOM     93  C   UNL A   1      38.929  35.072  39.145  1.00  0.00     0.059 A 
ATOM     94  C   UNL A   1      40.436  36.500  37.885  1.00  0.00     0.059 A 
ATOM     95  F   UNL A   1      41.375  35.722  35.883  1.00  0.00    -0.206 F 
ATOM     96  C   UNL A   1      39.589  36.290  38.972  1.00  0.00     0.060 A 
BRANCH  96  97
ATOM     97  S   UNL A   1      39.336  37.596  40.192  1.00  0.00     0.124 S 
ATOM     98  O   UNL A   1      38.964  36.824  41.373  1.00  0.00    -0.237 OA
ATOM     99  O   UNL A   1      40.644  38.240  40.242  1.00  0.00    -0.237 OA
ATOM    100  O   UNL A   1      38.269  38.403  39.606  1.00  0.00    -0.744 OA
ENDBRANCH  96  97
ENDBRANCH  64  89
ENDBRANCH  38  39
ENDBRANCH  30  33
ENDBRANCH  28  29
ENDBRANCH   1  28
TORSDOF 15
ENDMDL
MODEL 2
REMARK VINA RESULT:     -12.8      0.307      1.573
REMARK SMILES CC(=O)N1CCC2(CC1)C[C@H](C(=O)NCCCNC(=O)c1ccc(-c3c4nc(c(-c5c(F)cc(S(=O)(=O)[O-])cc5F)c5ccc([nH]5)c(-c5c(F)cc(S(=O)(=O)[O-])cc5F)c5nc(c(-c6c(F)cc(S(=O)(=O)[O-])cc6F)c6ccc3[nH]6)C=C5)C=C4)cc1)[N@H+](Cc1ncc[nH]1)C2
REMARK SMILES IDX 16 1 15 2 14 3 12 4 13 5 11 7 1 8 2 9 3 10 4 11 5 12 9 13
REMARK SMILES IDX 6 14 8 15 7 16 10 17 94 18 87 19 88 21 89 22 90 23 93 24
REMARK SMILES IDX 91 25 92 26 17 28 18 29 19 30 20 32 21 33 22 34 86 35 23 36
REMARK SMILES IDX 85 37 24 38 25 39 26 40 79 41 27 42 84 43 78 44 80 45 28 46
REMARK SMILES IDX 83 47 77 48 76 49 29 51 63 52 42 53 62 54 43 55 46 56 61 57
REMARK SMILES IDX 81 58 44 59 45 60 60 62 82 63 47 64 30 65 31 66 40 67 32 68
REMARK SMILES IDX 33 69 39 70 41 71 34 72 35 73 36 74 37 75 38 76 64 77 65 78
REMARK SMILES IDX 74 79 66 80 67 81 73 82 75 83 68 84 69 85 70 86 71 87 72 88
REMARK SMILES IDX 48 89 49 90 58 91 50 92 51 93 57 94 59 95 52 96 53 97 54 98
REMARK SMILES IDX 55 99 56 100
REMARK H PARENT 14 6 87 20 93 27 18 31 80 50 46 61
REMARK Flexibility Score: inf
ROOT
ATOM      1  C   UNL A   1      40.551  21.908  26.970  1.00  0.00     0.042 C 
ENDROOT
BRANCH   1   2
ATOM      2  C   UNL A   1      39.263  22.567  26.478  1.00  0.00     0.118 C 
BRANCH   2   3
ATOM      3  N   UNL A   1      38.579  21.707  25.537  1.00  0.00    -0.351 N 
ATOM      4  C   UNL A   1      37.290  21.368  25.322  1.00  0.00     0.278 C 
ATOM      5  O   UNL A   1      37.194  20.324  24.642  1.00  0.00    -0.268 OA
ATOM      6  H   UNL A   1      39.195  21.268  24.907  1.00  0.00     0.163 HD
BRANCH   4   7
ATOM      7  C   UNL A   1      35.989  22.145  25.574  1.00  0.00     0.275 C 
ATOM      8  C   UNL A   1      32.696  28.170  23.056  1.00  0.00     0.114 C 
ATOM      9  C   UNL A   1      32.135  26.796  22.838  1.00  0.00     0.219 C 
ATOM     10  O   UNL A   1      31.487  26.550  21.819  1.00  0.00    -0.275 OA
ATOM     11  N   UNL A   1      32.486  25.821  23.754  1.00  0.00    -0.343 N 
ATOM     12  C   UNL A   1      32.589  24.469  23.252  1.00  0.00     0.120 C 
ATOM     13  C   UNL A   1      32.933  26.011  25.136  1.00  0.00     0.120 C 
ATOM     14  C   UNL A   1      34.054  24.082  23.362  1.00  0.00     0.034 C 
ATOM     15  C   UNL A   1      34.346  25.450  25.382  1.00  0.00     0.034 C 
ATOM     16  C   UNL A   1      34.533  24.011  24.829  1.00  0.00     0.029 C 
ATOM     17  C   UNL A   1      36.001  23.541  24.903  1.00  0.00     0.088 C 
ATOM     18  C   UNL A   1      33.824  22.943  25.689  1.00  0.00     0.270 C 
ATOM     19  N   UNL A   1      34.586  21.676  25.562  1.00  0.00    -0.318 N 
ATOM     20  H   UNL A   1      34.524  20.980  26.303  1.00  0.00     0.349 HD
BRANCH  19  21
ATOM     21  C   UNL A   1      34.023  20.791  24.542  1.00  0.00     0.339 C 
BRANCH  21  22
ATOM     22  C   UNL A   1      33.777  19.351  24.838  1.00  0.00     0.161 A 
ATOM     23  N   UNL A   1      34.323  18.290  24.276  1.00  0.00    -0.236 NA
ATOM     24  N   UNL A   1      32.873  18.959  25.805  1.00  0.00    -0.344 N 
ATOM     25  C   UNL A   1      33.746  17.198  24.873  1.00  0.00     0.131 A 
ATOM     26  C   UNL A   1      32.835  17.594  25.818  1.00  0.00     0.104 A 
ATOM     27  H   UNL A   1      32.348  19.559  26.383  1.00  0.00     0.167 HD
ENDBRANCH  21  22
ENDBRANCH  19  21
ENDBRANCH   4   7
ENDBRANCH   2   3
ENDBRANCH   1   2
BRANCH   1  28
ATOM     28  C   UNL A   1      41.695  22.845  27.315  1.00  0.00     0.118 C 
BRANCH  28  29
ATOM     29  N   UNL A   1      41.990  23.773  26.239  1.00  0.00    -0.352 N 
ATOM     30  C   UNL A   1      41.825  25.132  26.124  1.00  0.00     0.251 C 
ATOM     31  H   UNL A   1      42.380  23.348  25.441  1.00  0.00     0.163 HD
ATOM     32  O   UNL A   1      41.957  25.622  25.001  1.00  0.00    -0.269 OA
BRANCH  30  33
ATOM     33  C   UNL A   1      41.488  26.021  27.272  1.00  0.00     0.039 A 
ATOM     34  C   UNL A   1      42.323  27.122  27.512  1.00  0.00     0.014 A 
ATOM     35  C   UNL A   1      40.447  25.771  28.168  1.00  0.00     0.014 A 
ATOM     36  C   UNL A   1      42.100  27.961  28.611  1.00  0.00     0.010 A 
ATOM     37  C   UNL A   1      40.155  26.674  29.196  1.00  0.00     0.010 A 
ATOM     38  C   UNL A   1      40.996  27.761  29.455  1.00  0.00    -0.014 A 
BRANCH  38  39
ATOM     39  C   UNL A   1      40.752  28.658  30.621  1.00  0.00     0.031 A 
ATOM     40  C   UNL A   1      41.596  28.545  31.871  1.00  0.00     0.074 A 
ATOM     41  C   UNL A   1      39.759  29.568  30.567  1.00  0.00     0.049 A 
ATOM     42  N   UNL A   1      41.541  29.252  32.972  1.00  0.00    -0.248 NA
ATOM     43  C   UNL A   1      42.611  27.480  31.900  1.00  0.00     0.031 C 
ATOM     44  C   UNL A   1      38.822  29.732  29.453  1.00  0.00     0.029 A 
ATOM     45  N   UNL A   1      39.373  30.534  31.464  1.00  0.00    -0.354 N 
ATOM     46  C   UNL A   1      42.495  28.704  33.826  1.00  0.00     0.074 A 
ATOM     47  C   UNL A   1      43.070  27.570  33.140  1.00  0.00     0.031 C 
ATOM     48  C   UNL A   1      38.005  30.766  29.710  1.00  0.00     0.029 A 
ATOM     49  C   UNL A   1      38.337  31.321  31.018  1.00  0.00     0.049 A 
ATOM     50  H   UNL A   1      39.799  30.652  32.344  1.00  0.00     0.167 HD
ATOM     51  C   UNL A   1      42.882  29.126  35.056  1.00  0.00     0.037 A 
ATOM     52  C   UNL A   1      37.732  32.380  31.589  1.00  0.00     0.037 A 
ATOM     53  C   UNL A   1      42.339  30.284  35.718  1.00  0.00     0.049 A 
ATOM     54  C   UNL A   1      38.217  32.866  32.926  1.00  0.00     0.074 A 
ATOM     55  C   UNL A   1      42.708  30.836  36.932  1.00  0.00     0.029 A 
ATOM     56  N   UNL A   1      41.314  31.073  35.217  1.00  0.00    -0.354 N 
ATOM     57  N   UNL A   1      39.168  32.376  33.686  1.00  0.00    -0.248 NA
ATOM     58  C   UNL A   1      37.559  34.059  33.477  1.00  0.00     0.031 C 
ATOM     59  C   UNL A   1      41.884  31.940  37.181  1.00  0.00     0.029 A 
ATOM     60  C   UNL A   1      41.030  32.100  36.102  1.00  0.00     0.049 A 
ATOM     61  H   UNL A   1      40.856  30.924  34.358  1.00  0.00     0.167 HD
ATOM     62  C   UNL A   1      39.233  33.209  34.797  1.00  0.00     0.074 A 
ATOM     63  C   UNL A   1      38.244  34.248  34.596  1.00  0.00     0.031 C 
ATOM     64  C   UNL A   1      40.035  33.120  35.889  1.00  0.00     0.037 A 
BRANCH  51  65
ATOM     65  C   UNL A   1      43.958  28.337  35.757  1.00  0.00     0.058 A 
ATOM     66  C   UNL A   1      43.647  27.314  36.668  1.00  0.00     0.135 A 
ATOM     67  C   UNL A   1      45.315  28.588  35.498  1.00  0.00     0.135 A 
ATOM     68  F   UNL A   1      42.367  27.038  36.966  1.00  0.00    -0.206 F 
ATOM     69  C   UNL A   1      44.641  26.593  37.323  1.00  0.00     0.059 A 
ATOM     70  C   UNL A   1      46.327  27.859  36.121  1.00  0.00     0.059 A 
ATOM     71  F   UNL A   1      45.672  29.552  34.636  1.00  0.00    -0.206 F 
ATOM     72  C   UNL A   1      45.979  26.874  37.044  1.00  0.00     0.060 A 
BRANCH  72  73
ATOM     73  S   UNL A   1      47.255  25.928  37.902  1.00  0.00     0.124 S 
ATOM     74  O   UNL A   1      46.560  25.544  39.126  1.00  0.00    -0.237 OA
ATOM     75  O   UNL A   1      47.529  24.845  36.962  1.00  0.00    -0.237 OA
ATOM     76  O   UNL A   1      48.338  26.894  38.072  1.00  0.00    -0.744 OA
ENDBRANCH  72  73
ENDBRANCH  51  65
BRANCH  52  77
ATOM     77  C   UNL A   1      36.632  33.082  30.874  1.00  0.00     0.058 A 
ATOM     78  C   UNL A   1      35.298  32.940  31.284  1.00  0.00     0.135 A 
ATOM     79  C   UNL A   1      36.892  33.925  29.782  1.00  0.00     0.135 A 
ATOM     80  F   UNL A   1      34.997  32.141  32.320  1.00  0.00    -0.206 F 
ATOM     81  C   UNL A   1      34.259  33.594  30.631  1.00  0.00     0.059 A 
ATOM     82  C   UNL A   1      35.873  34.611  29.129  1.00  0.00     0.059 A 
ATOM     83  F   UNL A   1      38.154  34.111  29.362  1.00  0.00    -0.206 F 
ATOM     84  C   UNL A   1      34.558  34.432  29.555  1.00  0.00     0.060 A 
BRANCH  84  85
ATOM     85  S   UNL A   1      33.209  35.327  28.753  1.00  0.00     0.124 S 
ATOM     86  O   UNL A   1      32.554  34.262  28.004  1.00  0.00    -0.237 OA
ATOM     87  O   UNL A   1      32.468  35.855  29.895  1.00  0.00    -0.237 OA
ATOM     88  O   UNL A   1      33.905  36.330  27.952  1.00  0.00    -0.744 OA
ENDBRANCH  84  85
ENDBRANCH  52  77
BRANCH  64  89
ATOM     89  C   UNL A   1      39.878  34.189  36.935  1.00  0.00     0.058 A 
ATOM     90  C   UNL A   1      40.599  35.392  36.870  1.00  0.00     0.135 A 
ATOM     91  C   UNL A   1      38.996  34.008  38.012  1.00  0.00     0.135 A 
ATOM     92  F   UNL A   1      41.457  35.613  35.861  1.00  0.00    -0.206 F 
ATOM     93  C   UNL A   1      40.487  36.359  37.864  1.00  0.00     0.059 A 
ATOM     94  C   UNL A   1      38.848  34.974  39.002  1.00  0.00     0.059 A 
ATOM     95  F   UNL A   1      38.272  32.883  38.113  1.00  0.00    -0.206 F 
ATOM     96  C   UNL A   1      39.615  36.136  38.931  1.00  0.00     0.060 A 
BRANCH  96  97
ATOM     97  S   UNL A   1      39.489  37.389  40.224  1.00  0.00     0.124 S 
ATOM     98  O   UNL A   1      40.599  38.273  39.884  1.00  0.00    -0.237 OA
ATOM     99  O   UNL A   1      38.154  37.936  40.005  1.00  0.00    -0.237 OA
ATOM    100  O   UNL A   1      39.651  36.621  41.456  1.00  0.00    -0.744 OA
ENDBRANCH  96  97
ENDBRANCH  64  89
ENDBRANCH  38  39
ENDBRANCH  30  33
ENDBRANCH  28  29
ENDBRANCH   1  28
TORSDOF 15
ENDMDL
MODEL 3
REMARK VINA RESULT:     -12.7      6.518     12.429
REMARK SMILES CC(=O)N1CCC2(CC1)C[C@H](C(=O)NCCCNC(=O)c1ccc(-c3c4nc(c(-c5c(F)cc(S(=O)(=O)[O-])cc5F)c5ccc([nH]5)c(-c5c(F)cc(S(=O)(=O)[O-])cc5F)c5nc(c(-c6c(F)cc(S(=O)(=O)[O-])cc6F)c6ccc3[nH]6)C=C5)C=C4)cc1)[N@H+](Cc1ncc[nH]1)C2
REMARK SMILES IDX 16 1 15 2 14 3 12 4 13 5 11 7 1 8 2 9 3 10 4 11 5 12 9 13
REMARK SMILES IDX 6 14 8 15 7 16 10 17 94 18 87 19 88 21 89 22 90 23 93 24
REMARK SMILES IDX 91 25 92 26 17 28 18 29 19 30 20 32 21 33 22 34 86 35 23 36
REMARK SMILES IDX 85 37 24 38 25 39 26 40 79 41 27 42 84 43 78 44 80 45 28 46
REMARK SMILES IDX 83 47 77 48 76 49 29 51 63 52 42 53 62 54 43 55 46 56 61 57
REMARK SMILES IDX 81 58 44 59 45 60 60 62 82 63 47 64 30 65 31 66 40 67 32 68
REMARK SMILES IDX 33 69 39 70 41 71 34 72 35 73 36 74 37 75 38 76 64 77 65 78
REMARK SMILES IDX 74 79 66 80 67 81 73 82 75 83 68 84 69 85 70 86 71 87 72 88
REMARK SMILES IDX 48 89 49 90 58 91 50 92 51 93 57 94 59 95 52 96 53 97 54 98
REMARK SMILES IDX 55 99 56 100
REMARK H PARENT 14 6 87 20 93 27 18 31 80 50 46 61
REMARK Flexibility Score: inf
ROOT
ATOM      1  C   UNL A   1      34.655  32.157  28.629  1.00  0.00     0.042 C 
ENDROOT
BRANCH   1   2
ATOM      2  C   UNL A   1      34.407  31.065  27.590  1.00  0.00     0.118 C 
BRANCH   2   3
ATOM      3  N   UNL A   1      33.032  31.092  27.140  1.00  0.00    -0.351 N 
ATOM      4  C   UNL A   1      32.357  30.536  26.111  1.00  0.00     0.278 C 
ATOM      5  O   UNL A   1      31.270  31.117  25.904  1.00  0.00    -0.268 OA
ATOM      6  H   UNL A   1      32.455  31.643  27.717  1.00  0.00     0.163 HD
BRANCH   4   7
ATOM      7  C   UNL A   1      32.594  29.229  25.341  1.00  0.00     0.275 C 
ATOM      8  C   UNL A   1      33.050  22.078  26.802  1.00  0.00     0.114 C 
ATOM      9  C   UNL A   1      31.939  22.661  25.980  1.00  0.00     0.219 C 
ATOM     10  O   UNL A   1      30.821  22.145  26.000  1.00  0.00    -0.275 OA
ATOM     11  N   UNL A   1      32.202  23.849  25.322  1.00  0.00    -0.343 N 
ATOM     12  C   UNL A   1      31.086  24.752  25.148  1.00  0.00     0.120 C 
ATOM     13  C   UNL A   1      33.507  24.384  24.927  1.00  0.00     0.120 C 
ATOM     14  C   UNL A   1      31.396  25.982  25.983  1.00  0.00     0.034 C 
ATOM     15  C   UNL A   1      33.808  25.747  25.579  1.00  0.00     0.034 C 
ATOM     16  C   UNL A   1      32.630  26.751  25.461  1.00  0.00     0.029 C 
ATOM     17  C   UNL A   1      32.867  28.033  26.286  1.00  0.00     0.088 C 
ATOM     18  C   UNL A   1      32.476  27.326  24.036  1.00  0.00     0.270 C 
ATOM     19  N   UNL A   1      31.896  28.687  24.154  1.00  0.00    -0.318 N 
ATOM     20  H   UNL A   1      32.056  29.364  23.409  1.00  0.00     0.349 HD
BRANCH  19  21
ATOM     21  C   UNL A   1      30.444  28.686  23.982  1.00  0.00     0.339 C 
BRANCH  21  22
ATOM     22  C   UNL A   1      29.788  29.656  23.059  1.00  0.00     0.161 A 
ATOM     23  N   UNL A   1      29.389  29.468  21.816  1.00  0.00    -0.236 NA
ATOM     24  N   UNL A   1      29.520  30.953  23.448  1.00  0.00    -0.344 N 
ATOM     25  C   UNL A   1      28.878  30.667  21.389  1.00  0.00     0.131 A 
ATOM     26  C   UNL A   1      28.961  31.605  22.386  1.00  0.00     0.104 A 
ATOM     27  H   UNL A   1      29.701  31.339  24.335  1.00  0.00     0.167 HD
ENDBRANCH  21  22
ENDBRANCH  19  21
ENDBRANCH   4   7
ENDBRANCH   2   3
ENDBRANCH   1   2
BRANCH   1  28
ATOM     28  C   UNL A   1      35.977  32.089  29.373  1.00  0.00     0.118 C 
BRANCH  28  29
ATOM     29  N   UNL A   1      35.876  31.334  30.608  1.00  0.00    -0.352 N 
ATOM     30  C   UNL A   1      36.672  30.361  31.160  1.00  0.00     0.251 C 
ATOM     31  H   UNL A   1      35.087  31.562  31.152  1.00  0.00     0.163 HD
ATOM     32  O   UNL A   1      36.214  29.735  32.118  1.00  0.00    -0.269 OA
BRANCH  30  33
ATOM     33  C   UNL A   1      38.032  30.023  30.653  1.00  0.00     0.039 A 
ATOM     34  C   UNL A   1      38.271  30.167  29.279  1.00  0.00     0.014 A 
ATOM     35  C   UNL A   1      39.047  29.492  31.450  1.00  0.00     0.014 A 
ATOM     36  C   UNL A   1      39.507  29.807  28.727  1.00  0.00     0.010 A 
ATOM     37  C   UNL A   1      40.318  29.243  30.920  1.00  0.00     0.010 A 
ATOM     38  C   UNL A   1      40.557  29.363  29.547  1.00  0.00    -0.014 A 
BRANCH  38  39
ATOM     39  C   UNL A   1      41.877  28.986  28.962  1.00  0.00     0.031 A 
ATOM     40  C   UNL A   1      42.995  29.999  28.865  1.00  0.00     0.074 A 
ATOM     41  C   UNL A   1      42.069  27.734  28.502  1.00  0.00     0.049 A 
ATOM     42  N   UNL A   1      44.212  29.845  28.406  1.00  0.00    -0.248 NA
ATOM     43  C   UNL A   1      42.698  31.370  29.311  1.00  0.00     0.031 C 
ATOM     44  C   UNL A   1      41.052  26.680  28.466  1.00  0.00     0.029 A 
ATOM     45  N   UNL A   1      43.187  27.127  27.983  1.00  0.00    -0.354 N 
ATOM     46  C   UNL A   1      44.813  31.099  28.489  1.00  0.00     0.074 A 
ATOM     47  C   UNL A   1      43.809  32.014  28.983  1.00  0.00     0.031 C 
ATOM     48  C   UNL A   1      41.603  25.548  28.001  1.00  0.00     0.029 A 
ATOM     49  C   UNL A   1      43.003  25.800  27.676  1.00  0.00     0.049 A 
ATOM     50  H   UNL A   1      44.039  27.600  27.844  1.00  0.00     0.167 HD
ATOM     51  C   UNL A   1      46.093  31.451  28.211  1.00  0.00     0.037 A 
ATOM     52  C   UNL A   1      43.867  24.882  27.201  1.00  0.00     0.037 A 
ATOM     53  C   UNL A   1      47.103  30.529  27.762  1.00  0.00     0.049 A 
ATOM     54  C   UNL A   1      45.296  25.281  26.957  1.00  0.00     0.074 A 
ATOM     55  C   UNL A   1      48.444  30.769  27.518  1.00  0.00     0.029 A 
ATOM     56  N   UNL A   1      46.884  29.185  27.495  1.00  0.00    -0.354 N 
ATOM     57  N   UNL A   1      45.862  26.455  27.109  1.00  0.00    -0.248 NA
ATOM     58  C   UNL A   1      46.209  24.227  26.493  1.00  0.00     0.031 C 
ATOM     59  C   UNL A   1      49.029  29.577  27.072  1.00  0.00     0.029 A 
ATOM     60  C   UNL A   1      48.062  28.586  27.079  1.00  0.00     0.049 A 
ATOM     61  H   UNL A   1      46.018  28.725  27.588  1.00  0.00     0.167 HD
ATOM     62  C   UNL A   1      47.200  26.278  26.773  1.00  0.00     0.074 A 
ATOM     63  C   UNL A   1      47.362  24.879  26.438  1.00  0.00     0.031 C 
ATOM     64  C   UNL A   1      48.202  27.192  26.740  1.00  0.00     0.037 A 
BRANCH  51  65
ATOM     65  C   UNL A   1      46.476  32.896  28.403  1.00  0.00     0.058 A 
ATOM     66  C   UNL A   1      46.960  33.374  29.632  1.00  0.00     0.135 A 
ATOM     67  C   UNL A   1      46.384  33.810  27.340  1.00  0.00     0.135 A 
ATOM     68  F   UNL A   1      47.056  32.550  30.687  1.00  0.00    -0.206 F 
ATOM     69  C   UNL A   1      47.304  34.711  29.812  1.00  0.00     0.059 A 
ATOM     70  C   UNL A   1      46.751  35.147  27.489  1.00  0.00     0.059 A 
ATOM     71  F   UNL A   1      45.931  33.411  26.142  1.00  0.00    -0.206 F 
ATOM     72  C   UNL A   1      47.194  35.590  28.734  1.00  0.00     0.060 A 
BRANCH  72  73
ATOM     73  S   UNL A   1      47.646  37.320  28.985  1.00  0.00     0.124 S 
ATOM     74  O   UNL A   1      48.439  37.240  30.207  1.00  0.00    -0.237 OA
ATOM     75  O   UNL A   1      48.388  37.631  27.767  1.00  0.00    -0.237 OA
ATOM     76  O   UNL A   1      46.355  37.992  29.117  1.00  0.00    -0.744 OA
ENDBRANCH  72  73
ENDBRANCH  51  65
BRANCH  52  77
ATOM     77  C   UNL A   1      43.415  23.483  26.973  1.00  0.00     0.058 A 
ATOM     78  C   UNL A   1      43.165  23.007  25.677  1.00  0.00     0.135 A 
ATOM     79  C   UNL A   1      43.245  22.588  28.041  1.00  0.00     0.135 A 
ATOM     80  F   UNL A   1      43.308  23.826  24.624  1.00  0.00    -0.206 F 
ATOM     81  C   UNL A   1      42.748  21.701  25.446  1.00  0.00     0.059 A 
ATOM     82  C   UNL A   1      42.855  21.268  27.833  1.00  0.00     0.059 A 
ATOM     83  F   UNL A   1      43.492  22.986  29.299  1.00  0.00    -0.206 F 
ATOM     84  C   UNL A   1      42.600  20.836  26.533  1.00  0.00     0.060 A 
BRANCH  84  85
ATOM     85  S   UNL A   1      42.119  19.123  26.218  1.00  0.00     0.124 S 
ATOM     86  O   UNL A   1      43.035  18.753  25.147  1.00  0.00    -0.237 OA
ATOM     87  O   UNL A   1      42.361  18.493  27.514  1.00  0.00    -0.237 OA
ATOM     88  O   UNL A   1      40.713  19.236  25.841  1.00  0.00    -0.744 OA
ENDBRANCH  84  85
ENDBRANCH  52  77
BRANCH  64  89
ATOM     89  C   UNL A   1      49.563  26.692  26.342  1.00  0.00     0.058 A 
ATOM     90  C   UNL A   1      50.446  26.136  27.282  1.00  0.00     0.135 A 
ATOM     91  C   UNL A   1      49.989  26.770  25.006  1.00  0.00     0.135 A 
ATOM     92  F   UNL A   1      50.088  26.042  28.572  1.00  0.00    -0.206 F 
ATOM     93  C   UNL A   1      51.721  25.717  26.919  1.00  0.00     0.059 A 
ATOM     94  C   UNL A   1      51.250  26.330  24.617  1.00  0.00     0.059 A 
ATOM     95  F   UNL A   1      49.178  27.278  24.066  1.00  0.00    -0.206 F 
ATOM     96  C   UNL A   1      52.118  25.827  25.586  1.00  0.00     0.060 A 
BRANCH  96  97
ATOM     97  S   UNL A   1      53.781  25.297  25.128  1.00  0.00     0.124 S 
ATOM     98  O   UNL A   1      54.517  25.544  26.363  1.00  0.00    -0.237 OA
ATOM     99  O   UNL A   1      53.581  23.894  24.779  1.00  0.00    -0.237 OA
ATOM    100  O   UNL A   1      54.119  26.172  24.009  1.00  0.00    -0.744 OA
ENDBRANCH  96  97
ENDBRANCH  64  89
ENDBRANCH  38  39
ENDBRANCH  30  33
ENDBRANCH  28  29
ENDBRANCH   1  28
TORSDOF 15
ENDMDL
