MODEL 1
REMARK VINA RESULT:     -13.4      0.000      0.000
REMARK SMILES O=C(NCCCNC(=O)c1ccccc1/C=C1/SC(=S)N(C2CCCC2)C1=O)c1ccc(-c2c3nc(c(-c4c(F)cc(S(=O)(=O)[O-])cc4F)c4ccc([nH]4)c(-c4c(F)cc(S(=O)(=O)[O-])cc4F)c4nc(c(-c5c(F)cc(S(=O)(=O)[O-])cc5F)c5ccc2[nH]5)C=C4)C=C3)cc1
REMARK SMILES IDX 4 1 3 2 1 3 2 4 29 6 30 7 94 8 31 9 93 10 32 11 33 12 34 13
REMARK SMILES IDX 87 14 35 15 92 16 86 17 88 18 36 19 91 20 85 21 84 22 37 24
REMARK SMILES IDX 71 25 50 26 70 27 51 28 54 29 69 30 89 31 52 32 53 33 68 35
REMARK SMILES IDX 90 36 55 37 38 38 39 39 48 40 40 41 41 42 47 43 49 44 42 45
REMARK SMILES IDX 43 46 44 47 45 48 46 49 72 50 73 51 82 52 74 53 75 54 81 55
REMARK SMILES IDX 83 56 76 57 77 58 78 59 79 60 80 61 56 62 57 63 66 64 58 65
REMARK SMILES IDX 59 66 65 67 67 68 60 69 61 70 62 71 63 72 64 73 5 74 6 75
REMARK SMILES IDX 7 76 8 77 9 79 10 80 11 81 15 82 12 83 14 84 13 85 16 86
REMARK SMILES IDX 17 87 18 88 27 89 19 90 21 91 28 92 20 93 22 94 23 95 26 96
REMARK SMILES IDX 24 97 25 98
REMARK H PARENT 3 5 88 23 54 34 7 78
REMARK Flexibility Score: inf
ROOT
ATOM      1  C   UNL A   1      39.733  23.352  27.057  1.00  0.00     0.118 C 
ENDROOT
BRANCH   1   2
ATOM      2  N   UNL A   1      40.593  24.070  26.121  1.00  0.00    -0.352 N 
ATOM      3  O   UNL A   1      41.605  25.823  25.135  1.00  0.00    -0.269 OA
ATOM      4  C   UNL A   1      41.013  25.381  26.117  1.00  0.00     0.251 C 
ATOM      5  H   UNL A   1      40.927  23.528  25.370  1.00  0.00     0.163 HD
BRANCH   4   6
ATOM      6  C   UNL A   1      40.724  26.263  27.268  1.00  0.00     0.039 A 
ATOM      7  C   UNL A   1      41.374  27.488  27.399  1.00  0.00     0.014 A 
ATOM      8  C   UNL A   1      39.794  25.867  28.235  1.00  0.00     0.014 A 
ATOM      9  C   UNL A   1      41.273  28.196  28.586  1.00  0.00     0.010 A 
ATOM     10  C   UNL A   1      39.586  26.659  29.371  1.00  0.00     0.010 A 
ATOM     11  C   UNL A   1      40.359  27.809  29.580  1.00  0.00    -0.014 A 
BRANCH  11  12
ATOM     12  C   UNL A   1      40.214  28.679  30.777  1.00  0.00     0.031 A 
ATOM     13  C   UNL A   1      41.162  28.588  31.942  1.00  0.00     0.074 A 
ATOM     14  C   UNL A   1      39.259  29.633  30.755  1.00  0.00     0.049 A 
ATOM     15  N   UNL A   1      41.219  29.341  33.012  1.00  0.00    -0.248 NA
ATOM     16  C   UNL A   1      42.165  27.512  31.918  1.00  0.00     0.031 C 
ATOM     17  C   UNL A   1      38.261  29.796  29.691  1.00  0.00     0.029 A 
ATOM     18  N   UNL A   1      38.997  30.669  31.612  1.00  0.00    -0.354 N 
ATOM     19  C   UNL A   1      42.247  28.824  33.794  1.00  0.00     0.074 A 
ATOM     20  C   UNL A   1      42.772  27.675  33.087  1.00  0.00     0.031 C 
ATOM     21  C   UNL A   1      37.559  30.915  29.913  1.00  0.00     0.029 A 
ATOM     22  C   UNL A   1      38.001  31.508  31.168  1.00  0.00     0.049 A 
ATOM     23  H   UNL A   1      39.477  30.802  32.461  1.00  0.00     0.167 HD
ATOM     24  C   UNL A   1      42.712  29.271  34.985  1.00  0.00     0.037 A 
ATOM     25  C   UNL A   1      37.489  32.628  31.711  1.00  0.00     0.037 A 
ATOM     26  C   UNL A   1      42.196  30.429  35.673  1.00  0.00     0.049 A 
ATOM     27  C   UNL A   1      38.050  33.121  33.011  1.00  0.00     0.074 A 
ATOM     28  C   UNL A   1      42.595  30.961  36.888  1.00  0.00     0.029 A 
ATOM     29  N   UNL A   1      41.174  31.242  35.201  1.00  0.00    -0.354 N 
ATOM     30  N   UNL A   1      39.016  32.610  33.735  1.00  0.00    -0.248 NA
ATOM     31  C   UNL A   1      37.448  34.336  33.572  1.00  0.00     0.031 C 
ATOM     32  C   UNL A   1      41.799  32.081  37.160  1.00  0.00     0.029 A 
ATOM     33  C   UNL A   1      40.929  32.269  36.099  1.00  0.00     0.049 A 
ATOM     34  H   UNL A   1      40.695  31.109  34.352  1.00  0.00     0.167 HD
ATOM     35  C   UNL A   1      39.131  33.434  34.845  1.00  0.00     0.074 A 
ATOM     36  C   UNL A   1      38.165  34.501  34.676  1.00  0.00     0.031 C 
ATOM     37  C   UNL A   1      39.951  33.311  35.917  1.00  0.00     0.037 A 
BRANCH  24  38
ATOM     38  C   UNL A   1      43.835  28.507  35.632  1.00  0.00     0.058 A 
ATOM     39  C   UNL A   1      45.179  28.809  35.363  1.00  0.00     0.135 A 
ATOM     40  C   UNL A   1      43.567  27.499  36.572  1.00  0.00     0.135 A 
ATOM     41  F   UNL A   1      45.493  29.752  34.460  1.00  0.00    -0.206 F 
ATOM     42  C   UNL A   1      46.218  28.127  35.991  1.00  0.00     0.059 A 
ATOM     43  C   UNL A   1      44.590  26.819  37.227  1.00  0.00     0.059 A 
ATOM     44  F   UNL A   1      42.300  27.169  36.866  1.00  0.00    -0.206 F 
ATOM     45  C   UNL A   1      45.913  27.133  36.922  1.00  0.00     0.060 A 
BRANCH  45  46
ATOM     46  S   UNL A   1      47.272  26.268  37.739  1.00  0.00     0.124 S 
ATOM     47  O   UNL A   1      47.211  24.959  37.095  1.00  0.00    -0.237 OA
ATOM     48  O   UNL A   1      48.425  27.092  37.389  1.00  0.00    -0.237 OA
ATOM     49  O   UNL A   1      46.893  26.293  39.148  1.00  0.00    -0.744 OA
ENDBRANCH  45  46
ENDBRANCH  24  38
BRANCH  25  50
ATOM     50  C   UNL A   1      36.378  33.335  31.027  1.00  0.00     0.058 A 
ATOM     51  C   UNL A   1      35.075  33.324  31.545  1.00  0.00     0.135 A 
ATOM     52  C   UNL A   1      36.610  34.071  29.853  1.00  0.00     0.135 A 
ATOM     53  F   UNL A   1      34.805  32.635  32.665  1.00  0.00    -0.206 F 
ATOM     54  C   UNL A   1      34.037  34.006  30.919  1.00  0.00     0.059 A 
ATOM     55  C   UNL A   1      35.596  34.783  29.225  1.00  0.00     0.059 A 
ATOM     56  F   UNL A   1      37.844  34.131  29.331  1.00  0.00    -0.206 F 
ATOM     57  C   UNL A   1      34.309  34.734  29.759  1.00  0.00     0.060 A 
BRANCH  57  58
ATOM     58  S   UNL A   1      32.975  35.667  28.976  1.00  0.00     0.124 S 
ATOM     59  O   UNL A   1      32.399  34.663  28.090  1.00  0.00    -0.237 OA
ATOM     60  O   UNL A   1      32.154  36.056  30.118  1.00  0.00    -0.237 OA
ATOM     61  O   UNL A   1      33.679  36.764  28.320  1.00  0.00    -0.744 OA
ENDBRANCH  57  58
ENDBRANCH  25  50
BRANCH  37  62
ATOM     62  C   UNL A   1      39.824  34.359  36.983  1.00  0.00     0.058 A 
ATOM     63  C   UNL A   1      38.983  34.174  38.092  1.00  0.00     0.135 A 
ATOM     64  C   UNL A   1      40.545  35.560  36.896  1.00  0.00     0.135 A 
ATOM     65  F   UNL A   1      38.268  33.045  38.214  1.00  0.00    -0.206 F 
ATOM     66  C   UNL A   1      38.833  35.158  39.061  1.00  0.00     0.059 A 
ATOM     67  C   UNL A   1      40.428  36.550  37.866  1.00  0.00     0.059 A 
ATOM     68  F   UNL A   1      41.369  35.780  35.859  1.00  0.00    -0.206 F 
ATOM     69  C   UNL A   1      39.554  36.347  38.934  1.00  0.00     0.060 A 
BRANCH  69  70
ATOM     70  S   UNL A   1      39.352  37.623  40.194  1.00  0.00     0.124 S 
ATOM     71  O   UNL A   1      39.005  36.825  41.365  1.00  0.00    -0.237 OA
ATOM     72  O   UNL A   1      40.668  38.252  40.223  1.00  0.00    -0.237 OA
ATOM     73  O   UNL A   1      38.278  38.456  39.660  1.00  0.00    -0.744 OA
ENDBRANCH  69  70
ENDBRANCH  37  62
ENDBRANCH  11  12
ENDBRANCH   4   6
ENDBRANCH   1   2
BRANCH   1  74
ATOM     74  C   UNL A   1      38.644  22.544  26.373  1.00  0.00     0.042 C 
BRANCH  74  75
ATOM     75  C   UNL A   1      37.487  23.386  25.866  1.00  0.00     0.118 C 
BRANCH  75  76
ATOM     76  N   UNL A   1      37.458  23.473  24.414  1.00  0.00    -0.352 N 
ATOM     77  C   UNL A   1      36.586  22.912  23.517  1.00  0.00     0.251 C 
ATOM     78  H   UNL A   1      38.175  24.018  24.014  1.00  0.00     0.163 HD
ATOM     79  O   UNL A   1      36.821  22.999  22.316  1.00  0.00    -0.269 OA
BRANCH  77  80
ATOM     80  C   UNL A   1      35.373  22.207  23.989  1.00  0.00     0.047 A 
ATOM     81  C   UNL A   1      35.581  21.121  24.849  1.00  0.00     0.014 A 
ATOM     82  C   UNL A   1      34.069  22.564  23.583  1.00  0.00    -0.012 A 
ATOM     83  C   UNL A   1      34.491  20.419  25.359  1.00  0.00     0.001 A 
ATOM     84  C   UNL A   1      32.985  21.859  24.123  1.00  0.00     0.009 A 
ATOM     85  C   UNL A   1      33.196  20.795  25.005  1.00  0.00     0.001 A 
BRANCH  82  86
ATOM     86  C   UNL A   1      33.780  23.683  22.670  1.00  0.00     0.030 C 
ATOM     87  C   UNL A   1      33.512  24.943  23.038  1.00  0.00     0.081 C 
ATOM     88  S   UNL A   1      32.878  26.119  21.961  1.00  0.00    -0.054 SA
ATOM     89  C   UNL A   1      33.629  25.525  24.399  1.00  0.00     0.266 C 
ATOM     90  C   UNL A   1      32.488  27.238  23.272  1.00  0.00     0.148 C 
ATOM     91  N   UNL A   1      32.949  26.737  24.475  1.00  0.00    -0.290 N 
ATOM     92  O   UNL A   1      34.322  25.031  25.277  1.00  0.00    -0.268 OA
ATOM     93  S   UNL A   1      31.698  28.669  22.932  1.00  0.00    -0.052 S 
BRANCH  91  94
ATOM     94  C   UNL A   1      32.930  27.391  25.788  1.00  0.00     0.092 C 
ATOM     95  C   UNL A   1      33.667  28.727  25.842  1.00  0.00     0.025 C 
ATOM     96  C   UNL A   1      31.570  27.685  26.421  1.00  0.00     0.025 C 
ATOM     97  C   UNL A   1      33.279  29.272  27.208  1.00  0.00     0.002 C 
ATOM     98  C   UNL A   1      31.860  28.761  27.473  1.00  0.00     0.002 C 
ENDBRANCH  91  94
ENDBRANCH  82  86
ENDBRANCH  77  80
ENDBRANCH  75  76
ENDBRANCH  74  75
ENDBRANCH   1  74
TORSDOF 15
ENDMDL
MODEL 2
REMARK VINA RESULT:     -13.0      6.591     12.083
REMARK SMILES O=C(NCCCNC(=O)c1ccccc1/C=C1/SC(=S)N(C2CCCC2)C1=O)c1ccc(-c2c3nc(c(-c4c(F)cc(S(=O)(=O)[O-])cc4F)c4ccc([nH]4)c(-c4c(F)cc(S(=O)(=O)[O-])cc4F)c4nc(c(-c5c(F)cc(S(=O)(=O)[O-])cc5F)c5ccc2[nH]5)C=C4)C=C3)cc1
REMARK SMILES IDX 4 1 3 2 1 3 2 4 29 6 30 7 94 8 31 9 93 10 32 11 33 12 34 13
REMARK SMILES IDX 87 14 35 15 92 16 86 17 88 18 36 19 91 20 85 21 84 22 37 24
REMARK SMILES IDX 71 25 50 26 70 27 51 28 54 29 69 30 89 31 52 32 53 33 68 35
REMARK SMILES IDX 90 36 55 37 38 38 39 39 48 40 40 41 41 42 47 43 49 44 42 45
REMARK SMILES IDX 43 46 44 47 45 48 46 49 72 50 73 51 82 52 74 53 75 54 81 55
REMARK SMILES IDX 83 56 76 57 77 58 78 59 79 60 80 61 56 62 57 63 66 64 58 65
REMARK SMILES IDX 59 66 65 67 67 68 60 69 61 70 62 71 63 72 64 73 5 74 6 75
REMARK SMILES IDX 7 76 8 77 9 79 10 80 11 81 15 82 12 83 14 84 13 85 16 86
REMARK SMILES IDX 17 87 18 88 27 89 19 90 21 91 28 92 20 93 22 94 23 95 26 96
REMARK SMILES IDX 24 97 25 98
REMARK H PARENT 3 5 88 23 54 34 7 78
REMARK Flexibility Score: inf
ROOT
ATOM      1  C   UNL A   1      35.584  30.670  28.171  1.00  0.00     0.118 C 
ENDROOT
BRANCH   1   2
ATOM      2  N   UNL A   1      35.516  30.581  29.627  1.00  0.00    -0.352 N 
ATOM      3  O   UNL A   1      36.151  30.049  31.720  1.00  0.00    -0.269 OA
ATOM      4  C   UNL A   1      36.472  30.214  30.546  1.00  0.00     0.251 C 
ATOM      5  H   UNL A   1      34.643  30.823  30.014  1.00  0.00     0.163 HD
BRANCH   4   6
ATOM      6  C   UNL A   1      37.871  29.987  30.121  1.00  0.00     0.039 A 
ATOM      7  C   UNL A   1      38.304  30.407  28.866  1.00  0.00     0.014 A 
ATOM      8  C   UNL A   1      38.766  29.344  30.983  1.00  0.00     0.014 A 
ATOM      9  C   UNL A   1      39.537  29.989  28.389  1.00  0.00     0.010 A 
ATOM     10  C   UNL A   1      40.064  29.048  30.548  1.00  0.00     0.010 A 
ATOM     11  C   UNL A   1      40.447  29.327  29.229  1.00  0.00    -0.014 A 
BRANCH  11  12
ATOM     12  C   UNL A   1      41.796  29.011  28.691  1.00  0.00     0.031 A 
ATOM     13  C   UNL A   1      42.923  30.009  28.741  1.00  0.00     0.074 A 
ATOM     14  C   UNL A   1      42.020  27.759  28.237  1.00  0.00     0.049 A 
ATOM     15  N   UNL A   1      44.175  29.846  28.397  1.00  0.00    -0.248 NA
ATOM     16  C   UNL A   1      42.608  31.362  29.223  1.00  0.00     0.031 C 
ATOM     17  C   UNL A   1      40.996  26.717  28.112  1.00  0.00     0.029 A 
ATOM     18  N   UNL A   1      43.175  27.133  27.847  1.00  0.00    -0.354 N 
ATOM     19  C   UNL A   1      44.794  31.074  28.602  1.00  0.00     0.074 A 
ATOM     20  C   UNL A   1      43.773  31.983  29.078  1.00  0.00     0.031 C 
ATOM     21  C   UNL A   1      41.580  25.563  27.763  1.00  0.00     0.029 A 
ATOM     22  C   UNL A   1      43.005  25.797  27.567  1.00  0.00     0.049 A 
ATOM     23  H   UNL A   1      44.042  27.594  27.777  1.00  0.00     0.167 HD
ATOM     24  C   UNL A   1      46.095  31.409  28.418  1.00  0.00     0.037 A 
ATOM     25  C   UNL A   1      43.891  24.860  27.185  1.00  0.00     0.037 A 
ATOM     26  C   UNL A   1      47.110  30.492  27.962  1.00  0.00     0.049 A 
ATOM     27  C   UNL A   1      45.330  25.250  27.027  1.00  0.00     0.074 A 
ATOM     28  C   UNL A   1      48.455  30.734  27.738  1.00  0.00     0.029 A 
ATOM     29  N   UNL A   1      46.895  29.152  27.671  1.00  0.00    -0.354 N 
ATOM     30  N   UNL A   1      45.889  26.420  27.220  1.00  0.00    -0.248 NA
ATOM     31  C   UNL A   1      46.256  24.198  26.592  1.00  0.00     0.031 C 
ATOM     32  C   UNL A   1      49.047  29.548  27.289  1.00  0.00     0.029 A 
ATOM     33  C   UNL A   1      48.080  28.556  27.268  1.00  0.00     0.049 A 
ATOM     34  H   UNL A   1      46.028  28.691  27.741  1.00  0.00     0.167 HD
ATOM     35  C   UNL A   1      47.234  26.249  26.918  1.00  0.00     0.074 A 
ATOM     36  C   UNL A   1      47.409  24.853  26.571  1.00  0.00     0.031 C 
ATOM     37  C   UNL A   1      48.229  27.168  26.912  1.00  0.00     0.037 A 
BRANCH  24  38
ATOM     38  C   UNL A   1      46.502  32.829  28.704  1.00  0.00     0.058 A 
ATOM     39  C   UNL A   1      46.970  33.219  29.968  1.00  0.00     0.135 A 
ATOM     40  C   UNL A   1      46.474  33.800  27.689  1.00  0.00     0.135 A 
ATOM     41  F   UNL A   1      47.002  32.336  30.979  1.00  0.00    -0.206 F 
ATOM     42  C   UNL A   1      47.383  34.524  30.221  1.00  0.00     0.059 A 
ATOM     43  C   UNL A   1      46.901  35.105  27.913  1.00  0.00     0.059 A 
ATOM     44  F   UNL A   1      46.033  33.481  26.462  1.00  0.00    -0.206 F 
ATOM     45  C   UNL A   1      47.344  35.461  29.186  1.00  0.00     0.060 A 
BRANCH  45  46
ATOM     46  S   UNL A   1      47.896  37.147  29.526  1.00  0.00     0.124 S 
ATOM     47  O   UNL A   1      46.866  37.931  28.852  1.00  0.00    -0.237 OA
ATOM     48  O   UNL A   1      47.876  37.196  30.985  1.00  0.00    -0.237 OA
ATOM     49  O   UNL A   1      49.223  37.199  28.919  1.00  0.00    -0.744 OA
ENDBRANCH  45  46
ENDBRANCH  24  38
BRANCH  25  50
ATOM     50  C   UNL A   1      43.428  23.476  26.914  1.00  0.00     0.058 A 
ATOM     51  C   UNL A   1      43.284  22.997  25.604  1.00  0.00     0.135 A 
ATOM     52  C   UNL A   1      43.155  22.591  27.970  1.00  0.00     0.135 A 
ATOM     53  F   UNL A   1      43.533  23.807  24.563  1.00  0.00    -0.206 F 
ATOM     54  C   UNL A   1      42.872  21.693  25.348  1.00  0.00     0.059 A 
ATOM     55  C   UNL A   1      42.770  21.276  27.739  1.00  0.00     0.059 A 
ATOM     56  F   UNL A   1      43.300  22.995  29.241  1.00  0.00    -0.206 F 
ATOM     57  C   UNL A   1      42.619  20.840  26.423  1.00  0.00     0.060 A 
BRANCH  57  58
ATOM     58  S   UNL A   1      42.141  19.130  26.092  1.00  0.00     0.124 S 
ATOM     59  O   UNL A   1      40.713  19.272  25.835  1.00  0.00    -0.237 OA
ATOM     60  O   UNL A   1      42.967  18.792  24.938  1.00  0.00    -0.237 OA
ATOM     61  O   UNL A   1      42.497  18.441  27.329  1.00  0.00    -0.744 OA
ENDBRANCH  57  58
ENDBRANCH  25  50
BRANCH  37  62
ATOM     62  C   UNL A   1      49.591  26.679  26.512  1.00  0.00     0.058 A 
ATOM     63  C   UNL A   1      50.066  26.838  25.201  1.00  0.00     0.135 A 
ATOM     64  C   UNL A   1      50.426  26.046  27.445  1.00  0.00     0.135 A 
ATOM     65  F   UNL A   1      49.300  27.431  24.273  1.00  0.00    -0.206 F 
ATOM     66  C   UNL A   1      51.310  26.353  24.818  1.00  0.00     0.059 A 
ATOM     67  C   UNL A   1      51.684  25.572  27.089  1.00  0.00     0.059 A 
ATOM     68  F   UNL A   1      50.019  25.879  28.714  1.00  0.00    -0.206 F 
ATOM     69  C   UNL A   1      52.109  25.714  25.768  1.00  0.00     0.060 A 
BRANCH  69  70
ATOM     70  S   UNL A   1      53.722  25.081  25.262  1.00  0.00     0.124 S 
ATOM     71  O   UNL A   1      53.824  25.597  23.901  1.00  0.00    -0.237 OA
ATOM     72  O   UNL A   1      54.621  25.688  26.239  1.00  0.00    -0.237 OA
ATOM     73  O   UNL A   1      53.568  23.634  25.376  1.00  0.00    -0.744 OA
ENDBRANCH  69  70
ENDBRANCH  37  62
ENDBRANCH  11  12
ENDBRANCH   4   6
ENDBRANCH   1   2
BRANCH   1  74
ATOM     74  C   UNL A   1      35.446  29.324  27.481  1.00  0.00     0.042 C 
BRANCH  74  75
ATOM     75  C   UNL A   1      34.124  29.142  26.758  1.00  0.00     0.118 C 
BRANCH  75  76
ATOM     76  N   UNL A   1      33.068  28.672  27.643  1.00  0.00    -0.352 N 
ATOM     77  C   UNL A   1      31.775  28.318  27.355  1.00  0.00     0.251 C 
ATOM     78  H   UNL A   1      33.320  28.599  28.591  1.00  0.00     0.163 HD
ATOM     79  O   UNL A   1      31.000  28.077  28.277  1.00  0.00    -0.269 OA
BRANCH  77  80
ATOM     80  C   UNL A   1      31.314  28.226  25.952  1.00  0.00     0.047 A 
ATOM     81  C   UNL A   1      31.324  29.418  25.216  1.00  0.00     0.014 A 
ATOM     82  C   UNL A   1      30.851  27.025  25.371  1.00  0.00    -0.012 A 
ATOM     83  C   UNL A   1      30.930  29.413  23.880  1.00  0.00     0.001 A 
ATOM     84  C   UNL A   1      30.479  27.037  24.021  1.00  0.00     0.009 A 
ATOM     85  C   UNL A   1      30.519  28.223  23.281  1.00  0.00     0.001 A 
BRANCH  82  86
ATOM     86  C   UNL A   1      30.799  25.742  26.092  1.00  0.00     0.030 C 
ATOM     87  C   UNL A   1      31.774  24.823  26.123  1.00  0.00     0.081 C 
ATOM     88  S   UNL A   1      31.540  23.228  26.709  1.00  0.00    -0.054 SA
ATOM     89  C   UNL A   1      33.161  24.968  25.614  1.00  0.00     0.266 C 
ATOM     90  C   UNL A   1      33.078  22.664  26.048  1.00  0.00     0.148 C 
ATOM     91  N   UNL A   1      33.776  23.724  25.501  1.00  0.00    -0.290 N 
ATOM     92  O   UNL A   1      33.693  26.054  25.428  1.00  0.00    -0.268 OA
ATOM     93  S   UNL A   1      33.494  21.052  26.176  1.00  0.00    -0.052 S 
BRANCH  91  94
ATOM     94  C   UNL A   1      35.133  23.717  24.945  1.00  0.00     0.092 C 
ATOM     95  C   UNL A   1      36.221  23.307  25.934  1.00  0.00     0.025 C 
ATOM     96  C   UNL A   1      35.397  22.850  23.714  1.00  0.00     0.025 C 
ATOM     97  C   UNL A   1      37.445  23.153  25.045  1.00  0.00     0.002 C 
ATOM     98  C   UNL A   1      36.919  22.669  23.692  1.00  0.00     0.002 C 
ENDBRANCH  91  94
ENDBRANCH  82  86
ENDBRANCH  77  80
ENDBRANCH  75  76
ENDBRANCH  74  75
ENDBRANCH   1  74
TORSDOF 15
ENDMDL
MODEL 3
REMARK VINA RESULT:     -12.5      6.587     11.668
REMARK SMILES O=C(NCCCNC(=O)c1ccccc1/C=C1/SC(=S)N(C2CCCC2)C1=O)c1ccc(-c2c3nc(c(-c4c(F)cc(S(=O)(=O)[O-])cc4F)c4ccc([nH]4)c(-c4c(F)cc(S(=O)(=O)[O-])cc4F)c4nc(c(-c5c(F)cc(S(=O)(=O)[O-])cc5F)c5ccc2[nH]5)C=C4)C=C3)cc1
REMARK SMILES IDX 4 1 3 2 1 3 2 4 29 6 30 7 94 8 31 9 93 10 32 11 33 12 34 13
REMARK SMILES IDX 87 14 35 15 92 16 86 17 88 18 36 19 91 20 85 21 84 22 37 24
REMARK SMILES IDX 71 25 50 26 70 27 51 28 54 29 69 30 89 31 52 32 53 33 68 35
REMARK SMILES IDX 90 36 55 37 38 38 39 39 48 40 40 41 41 42 47 43 49 44 42 45
REMARK SMILES IDX 43 46 44 47 45 48 46 49 72 50 73 51 82 52 74 53 75 54 81 55
REMARK SMILES IDX 83 56 76 57 77 58 78 59 79 60 80 61 56 62 57 63 66 64 58 65
REMARK SMILES IDX 59 66 65 67 67 68 60 69 61 70 62 71 63 72 64 73 5 74 6 75
REMARK SMILES IDX 7 76 8 77 9 79 10 80 11 81 15 82 12 83 14 84 13 85 16 86
REMARK SMILES IDX 17 87 18 88 27 89 19 90 21 91 28 92 20 93 22 94 23 95 26 96
REMARK SMILES IDX 24 97 25 98
REMARK H PARENT 3 5 88 23 54 34 7 78
REMARK Flexibility Score: inf
ROOT
ATOM      1  C   UNL A   1      35.719  30.702  28.015  1.00  0.00     0.118 C 
ENDROOT
BRANCH   1   2
ATOM      2  N   UNL A   1      35.563  30.756  29.465  1.00  0.00    -0.352 N 
ATOM      3  O   UNL A   1      36.053  30.408  31.635  1.00  0.00    -0.269 OA
ATOM      4  C   UNL A   1      36.449  30.448  30.473  1.00  0.00     0.251 C 
ATOM      5  H   UNL A   1      34.679  31.064  29.772  1.00  0.00     0.163 HD
BRANCH   4   6
ATOM      6  C   UNL A   1      37.860  30.134  30.159  1.00  0.00     0.039 A 
ATOM      7  C   UNL A   1      38.391  30.445  28.910  1.00  0.00     0.014 A 
ATOM      8  C   UNL A   1      38.667  29.518  31.121  1.00  0.00     0.014 A 
ATOM      9  C   UNL A   1      39.631  29.944  28.546  1.00  0.00     0.010 A 
ATOM     10  C   UNL A   1      39.976  29.139  30.795  1.00  0.00     0.010 A 
ATOM     11  C   UNL A   1      40.455  29.307  29.489  1.00  0.00    -0.014 A 
BRANCH  11  12
ATOM     12  C   UNL A   1      41.820  28.899  29.065  1.00  0.00     0.031 A 
ATOM     13  C   UNL A   1      42.108  27.517  28.543  1.00  0.00     0.074 A 
ATOM     14  C   UNL A   1      42.790  29.838  29.066  1.00  0.00     0.049 A 
ATOM     15  N   UNL A   1      43.226  27.045  28.050  1.00  0.00    -0.248 NA
ATOM     16  C   UNL A   1      41.016  26.533  28.591  1.00  0.00     0.031 C 
ATOM     17  C   UNL A   1      42.635  31.203  29.579  1.00  0.00     0.029 A 
ATOM     18  N   UNL A   1      44.072  29.813  28.583  1.00  0.00    -0.354 N 
ATOM     19  C   UNL A   1      42.979  25.710  27.745  1.00  0.00     0.074 A 
ATOM     20  C   UNL A   1      41.612  25.439  28.132  1.00  0.00     0.031 C 
ATOM     21  C   UNL A   1      43.741  31.907  29.304  1.00  0.00     0.029 A 
ATOM     22  C   UNL A   1      44.711  31.028  28.664  1.00  0.00     0.049 A 
ATOM     23  H   UNL A   1      44.494  29.004  28.212  1.00  0.00     0.167 HD
ATOM     24  C   UNL A   1      43.815  24.801  27.187  1.00  0.00     0.037 A 
ATOM     25  C   UNL A   1      45.945  31.399  28.276  1.00  0.00     0.037 A 
ATOM     26  C   UNL A   1      45.171  25.086  26.786  1.00  0.00     0.049 A 
ATOM     27  C   UNL A   1      46.834  30.382  27.627  1.00  0.00     0.074 A 
ATOM     28  C   UNL A   1      46.101  24.232  26.217  1.00  0.00     0.029 A 
ATOM     29  N   UNL A   1      45.788  26.324  26.901  1.00  0.00    -0.354 N 
ATOM     30  N   UNL A   1      46.581  29.124  27.357  1.00  0.00    -0.248 NA
ATOM     31  C   UNL A   1      48.176  30.829  27.237  1.00  0.00     0.031 C 
ATOM     32  C   UNL A   1      47.286  24.947  26.010  1.00  0.00     0.029 A 
ATOM     33  C   UNL A   1      47.085  26.255  26.416  1.00  0.00     0.049 A 
ATOM     34  H   UNL A   1      45.367  27.132  27.272  1.00  0.00     0.167 HD
ATOM     35  C   UNL A   1      47.738  28.624  26.775  1.00  0.00     0.074 A 
ATOM     36  C   UNL A   1      48.675  29.726  26.695  1.00  0.00     0.031 C 
ATOM     37  C   UNL A   1      48.006  27.362  26.360  1.00  0.00     0.037 A 
BRANCH  24  38
ATOM     38  C   UNL A   1      43.295  23.404  26.978  1.00  0.00     0.058 A 
ATOM     39  C   UNL A   1      42.934  22.938  25.704  1.00  0.00     0.135 A 
ATOM     40  C   UNL A   1      43.205  22.505  28.053  1.00  0.00     0.135 A 
ATOM     41  F   UNL A   1      42.984  23.760  24.644  1.00  0.00    -0.206 F 
ATOM     42  C   UNL A   1      42.489  21.634  25.506  1.00  0.00     0.059 A 
ATOM     43  C   UNL A   1      42.783  21.191  27.875  1.00  0.00     0.059 A 
ATOM     44  F   UNL A   1      43.536  22.900  29.293  1.00  0.00    -0.206 F 
ATOM     45  C   UNL A   1      42.417  20.767  26.598  1.00  0.00     0.060 A 
BRANCH  45  46
ATOM     46  S   UNL A   1      41.851  19.074  26.322  1.00  0.00     0.124 S 
ATOM     47  O   UNL A   1      41.965  18.509  27.663  1.00  0.00    -0.237 OA
ATOM     48  O   UNL A   1      40.490  19.273  25.832  1.00  0.00    -0.237 OA
ATOM     49  O   UNL A   1      42.797  18.556  25.339  1.00  0.00    -0.744 OA
ENDBRANCH  45  46
ENDBRANCH  24  38
BRANCH  25  50
ATOM     50  C   UNL A   1      46.404  32.791  28.514  1.00  0.00     0.058 A 
ATOM     51  C   UNL A   1      47.117  33.139  29.669  1.00  0.00     0.135 A 
ATOM     52  C   UNL A   1      46.165  33.797  27.563  1.00  0.00     0.135 A 
ATOM     53  F   UNL A   1      47.369  32.211  30.606  1.00  0.00    -0.206 F 
ATOM     54  C   UNL A   1      47.568  34.437  29.883  1.00  0.00     0.059 A 
ATOM     55  C   UNL A   1      46.629  35.095  27.741  1.00  0.00     0.059 A 
ATOM     56  F   UNL A   1      45.506  33.509  26.431  1.00  0.00    -0.206 F 
ATOM     57  C   UNL A   1      47.319  35.408  28.911  1.00  0.00     0.060 A 
BRANCH  57  58
ATOM     58  S   UNL A   1      47.954  37.081  29.160  1.00  0.00     0.124 S 
ATOM     59  O   UNL A   1      47.653  37.700  27.875  1.00  0.00    -0.237 OA
ATOM     60  O   UNL A   1      47.165  37.548  30.294  1.00  0.00    -0.237 OA
ATOM     61  O   UNL A   1      49.369  36.859  29.441  1.00  0.00    -0.744 OA
ENDBRANCH  57  58
ENDBRANCH  25  50
BRANCH  37  62
ATOM     62  C   UNL A   1      49.372  27.120  25.789  1.00  0.00     0.058 A 
ATOM     63  C   UNL A   1      49.611  27.210  24.408  1.00  0.00     0.135 A 
ATOM     64  C   UNL A   1      50.452  26.796  26.625  1.00  0.00     0.135 A 
ATOM     65  F   UNL A   1      48.608  27.511  23.568  1.00  0.00    -0.206 F 
ATOM     66  C   UNL A   1      50.866  26.950  23.871  1.00  0.00     0.059 A 
ATOM     67  C   UNL A   1      51.721  26.553  26.111  1.00  0.00     0.059 A 
ATOM     68  F   UNL A   1      50.275  26.707  27.953  1.00  0.00    -0.206 F 
ATOM     69  C   UNL A   1      51.913  26.614  24.731  1.00  0.00     0.060 A 
BRANCH  69  70
ATOM     70  S   UNL A   1      53.540  26.273  24.026  1.00  0.00     0.124 S 
ATOM     71  O   UNL A   1      54.297  27.441  24.462  1.00  0.00    -0.237 OA
ATOM     72  O   UNL A   1      53.901  25.010  24.662  1.00  0.00    -0.237 OA
ATOM     73  O   UNL A   1      53.275  26.193  22.592  1.00  0.00    -0.744 OA
ENDBRANCH  69  70
ENDBRANCH  37  62
ENDBRANCH  11  12
ENDBRANCH   4   6
ENDBRANCH   1   2
BRANCH   1  74
ATOM     74  C   UNL A   1      35.498  29.313  27.439  1.00  0.00     0.042 C 
BRANCH  74  75
ATOM     75  C   UNL A   1      34.165  29.152  26.732  1.00  0.00     0.118 C 
BRANCH  75  76
ATOM     76  N   UNL A   1      33.116  28.680  27.624  1.00  0.00    -0.352 N 
ATOM     77  C   UNL A   1      31.822  28.324  27.347  1.00  0.00     0.251 C 
ATOM     78  H   UNL A   1      33.376  28.606  28.571  1.00  0.00     0.163 HD
ATOM     79  O   UNL A   1      31.055  28.081  28.274  1.00  0.00    -0.269 OA
BRANCH  77  80
ATOM     80  C   UNL A   1      31.350  28.233  25.947  1.00  0.00     0.047 A 
ATOM     81  C   UNL A   1      31.350  29.427  25.213  1.00  0.00     0.014 A 
ATOM     82  C   UNL A   1      30.886  27.033  25.367  1.00  0.00    -0.012 A 
ATOM     83  C   UNL A   1      30.945  29.424  23.880  1.00  0.00     0.001 A 
ATOM     84  C   UNL A   1      30.502  27.046  24.020  1.00  0.00     0.009 A 
ATOM     85  C   UNL A   1      30.533  28.234  23.283  1.00  0.00     0.001 A 
BRANCH  82  86
ATOM     86  C   UNL A   1      30.844  25.748  26.086  1.00  0.00     0.030 C 
ATOM     87  C   UNL A   1      31.807  24.816  26.079  1.00  0.00     0.081 C 
ATOM     88  S   UNL A   1      31.573  23.222  26.668  1.00  0.00    -0.054 SA
ATOM     89  C   UNL A   1      33.176  24.944  25.518  1.00  0.00     0.266 C 
ATOM     90  C   UNL A   1      33.078  22.640  25.949  1.00  0.00     0.148 C 
ATOM     91  N   UNL A   1      33.769  23.693  25.379  1.00  0.00    -0.290 N 
ATOM     92  O   UNL A   1      33.714  26.024  25.317  1.00  0.00    -0.268 OA
ATOM     93  S   UNL A   1      33.477  21.022  26.057  1.00  0.00    -0.052 S 
BRANCH  91  94
ATOM     94  C   UNL A   1      35.105  23.670  24.774  1.00  0.00     0.092 C 
ATOM     95  C   UNL A   1      36.191  23.062  25.657  1.00  0.00     0.025 C 
ATOM     96  C   UNL A   1      35.269  22.958  23.431  1.00  0.00     0.025 C 
ATOM     97  C   UNL A   1      37.373  22.946  24.707  1.00  0.00     0.002 C 
ATOM     98  C   UNL A   1      36.772  22.681  23.325  1.00  0.00     0.002 C 
ENDBRANCH  91  94
ENDBRANCH  82  86
ENDBRANCH  77  80
ENDBRANCH  75  76
ENDBRANCH  74  75
ENDBRANCH   1  74
TORSDOF 15
ENDMDL
