MODEL 1
REMARK VINA RESULT:     -12.5      0.000      0.000
REMARK SMILES O=C(CCC(=O)c1c[nH]c2ccccc12)NCCCNC(=O)c1ccc(-c2c3nc(c(-c4c(F)cc(S(=O)(=O)[O-])cc4F)c4ccc([nH]4)c(-c4c(F)cc(S(=O)(=O)[O-])cc4F)c4nc(c(-c5c(F)cc(S(=O)(=O)[O-])cc5F)c5ccc2[nH]5)C=C4)C=C3)cc1
REMARK SMILES IDX 18 1 17 2 16 3 1 4 2 5 3 7 4 8 5 9 6 10 7 11 8 12 15 13 9 14
REMARK SMILES IDX 10 15 14 16 11 18 13 19 12 20 19 21 20 22 21 23 22 25 23 26
REMARK SMILES IDX 24 27 88 28 25 29 87 30 26 31 27 32 28 33 81 34 29 35 86 36
REMARK SMILES IDX 80 37 82 38 30 39 85 40 79 41 78 42 31 44 65 45 44 46 64 47
REMARK SMILES IDX 45 48 48 49 63 50 83 51 46 52 47 53 62 55 84 56 49 57 32 58
REMARK SMILES IDX 33 59 42 60 34 61 35 62 41 63 43 64 36 65 37 66 38 67 39 68
REMARK SMILES IDX 40 69 66 70 67 71 76 72 68 73 69 74 75 75 77 76 70 77 71 78
REMARK SMILES IDX 72 79 73 80 74 81 50 82 51 83 60 84 52 85 53 86 59 87 61 88
REMARK SMILES IDX 54 89 55 90 56 91 57 92 58 93
REMARK H PARENT 16 6 9 17 20 24 82 43 48 54
REMARK Flexibility Score: inf
ROOT
ATOM      1  C   UNL A   1      32.761  27.234  25.731  1.00  0.00     0.042 C 
ENDROOT
BRANCH   1   2
ATOM      2  C   UNL A   1      30.749  26.361  25.871  1.00  0.00     0.117 C 
BRANCH   2   3
ATOM      3  N   UNL A   1      30.232  24.826  25.803  1.00  0.00    -0.356 N 
ATOM      4  O   UNL A   1      31.217  23.783  27.584  1.00  0.00    -0.275 OA
ATOM      5  C   UNL A   1      30.776  23.742  26.439  1.00  0.00     0.220 C 
ATOM      6  H   UNL A   1      29.441  24.654  25.243  1.00  0.00     0.163 HD
BRANCH   5   7
ATOM      7  C   UNL A   1      31.001  22.513  25.554  1.00  0.00     0.108 C 
BRANCH   7   8
ATOM      8  C   UNL A   1      31.694  22.674  24.203  1.00  0.00     0.091 C 
BRANCH   8   9
ATOM      9  C   UNL A   1      32.346  21.405  23.636  1.00  0.00     0.165 C 
ATOM     10  O   UNL A   1      32.000  20.928  22.558  1.00  0.00    -0.294 OA
BRANCH   9  11
ATOM     11  C   UNL A   1      33.478  20.875  24.382  1.00  0.00     0.043 A 
ATOM     12  C   UNL A   1      33.821  19.525  24.464  1.00  0.00     0.095 A 
ATOM     13  C   UNL A   1      34.558  21.641  24.895  1.00  0.00     0.010 A 
ATOM     14  N   UNL A   1      35.134  19.274  24.855  1.00  0.00    -0.360 N 
ATOM     15  C   UNL A   1      35.825  20.438  25.083  1.00  0.00     0.046 A 
ATOM     16  C   UNL A   1      34.985  23.408  25.030  1.00  0.00     0.011 A 
ATOM     17  H   UNL A   1      35.519  18.373  24.955  1.00  0.00     0.166 HD
ATOM     18  C   UNL A   1      37.529  20.928  25.403  1.00  0.00     0.027 A 
ATOM     19  C   UNL A   1      36.689  23.927  25.293  1.00  0.00     0.001 A 
ATOM     20  C   UNL A   1      37.943  22.677  25.496  1.00  0.00     0.002 A 
ENDBRANCH   9  11
ENDBRANCH   8   9
ENDBRANCH   7   8
ENDBRANCH   5   7
ENDBRANCH   2   3
ENDBRANCH   1   2
BRANCH   1  21
ATOM     21  C   UNL A   1      33.886  27.980  26.791  1.00  0.00     0.118 C 
BRANCH  21  22
ATOM     22  N   UNL A   1      33.688  29.400  27.082  1.00  0.00    -0.352 N 
ATOM     23  C   UNL A   1      34.432  30.277  27.827  1.00  0.00     0.251 C 
ATOM     24  H   UNL A   1      32.885  29.793  26.672  1.00  0.00     0.163 HD
ATOM     25  O   UNL A   1      33.942  31.349  28.175  1.00  0.00    -0.269 OA
BRANCH  23  26
ATOM     26  C   UNL A   1      35.828  29.947  28.176  1.00  0.00     0.039 A 
ATOM     27  C   UNL A   1      36.144  29.535  29.473  1.00  0.00     0.014 A 
ATOM     28  C   UNL A   1      36.837  30.097  27.221  1.00  0.00     0.014 A 
ATOM     29  C   UNL A   1      37.466  29.210  29.790  1.00  0.00     0.010 A 
ATOM     30  C   UNL A   1      38.127  29.682  27.509  1.00  0.00     0.010 A 
ATOM     31  C   UNL A   1      38.460  29.251  28.800  1.00  0.00    -0.014 A 
BRANCH  31  32
ATOM     32  C   UNL A   1      39.873  28.892  29.068  1.00  0.00     0.031 A 
ATOM     33  C   UNL A   1      40.818  29.957  29.554  1.00  0.00     0.074 A 
ATOM     34  C   UNL A   1      40.323  27.663  28.749  1.00  0.00     0.049 A 
ATOM     35  N   UNL A   1      42.122  29.934  29.637  1.00  0.00    -0.248 NA
ATOM     36  C   UNL A   1      40.215  31.241  29.952  1.00  0.00     0.031 C 
ATOM     37  C   UNL A   1      39.504  26.568  28.226  1.00  0.00     0.029 A 
ATOM     38  N   UNL A   1      41.589  27.139  28.789  1.00  0.00    -0.354 N 
ATOM     39  C   UNL A   1      42.496  31.208  30.051  1.00  0.00     0.074 A 
ATOM     40  C   UNL A   1      41.286  31.992  30.161  1.00  0.00     0.031 C 
ATOM     41  C   UNL A   1      40.286  25.501  27.999  1.00  0.00     0.029 A 
ATOM     42  C   UNL A   1      41.667  25.849  28.318  1.00  0.00     0.049 A 
ATOM     43  H   UNL A   1      42.370  27.638  29.124  1.00  0.00     0.167 HD
ATOM     44  C   UNL A   1      43.736  31.673  30.331  1.00  0.00     0.037 A 
ATOM     45  C   UNL A   1      42.736  25.047  28.145  1.00  0.00     0.037 A 
ATOM     46  C   UNL A   1      44.922  30.862  30.265  1.00  0.00     0.049 A 
ATOM     47  C   UNL A   1      44.098  25.570  28.509  1.00  0.00     0.074 A 
ATOM     48  C   UNL A   1      46.222  31.206  30.586  1.00  0.00     0.029 A 
ATOM     49  N   UNL A   1      44.946  29.533  29.861  1.00  0.00    -0.354 N 
ATOM     50  N   UNL A   1      44.435  26.764  28.937  1.00  0.00    -0.248 NA
ATOM     51  C   UNL A   1      45.227  24.639  28.376  1.00  0.00     0.031 C 
ATOM     52  C   UNL A   1      47.038  30.093  30.352  1.00  0.00     0.029 A 
ATOM     53  C   UNL A   1      46.238  29.043  29.926  1.00  0.00     0.049 A 
ATOM     54  H   UNL A   1      44.159  29.017  29.572  1.00  0.00     0.167 HD
ATOM     55  C   UNL A   1      45.805  26.718  29.159  1.00  0.00     0.074 A 
ATOM     56  C   UNL A   1      46.238  25.378  28.816  1.00  0.00     0.031 C 
ATOM     57  C   UNL A   1      46.633  27.693  29.607  1.00  0.00     0.037 A 
BRANCH  44  58
ATOM     58  C   UNL A   1      43.868  33.115  30.742  1.00  0.00     0.058 A 
ATOM     59  C   UNL A   1      44.072  34.135  29.799  1.00  0.00     0.135 A 
ATOM     60  C   UNL A   1      43.769  33.486  32.094  1.00  0.00     0.135 A 
ATOM     61  F   UNL A   1      44.188  33.837  28.495  1.00  0.00    -0.206 F 
ATOM     62  C   UNL A   1      44.210  35.465  30.183  1.00  0.00     0.059 A 
ATOM     63  C   UNL A   1      43.874  34.814  32.497  1.00  0.00     0.059 A 
ATOM     64  F   UNL A   1      43.574  32.553  33.039  1.00  0.00    -0.206 F 
ATOM     65  C   UNL A   1      44.112  35.795  31.535  1.00  0.00     0.060 A 
BRANCH  65  66
ATOM     66  S   UNL A   1      44.292  37.526  32.016  1.00  0.00     0.124 S 
ATOM     67  O   UNL A   1      45.719  37.598  32.314  1.00  0.00    -0.237 OA
ATOM     68  O   UNL A   1      43.862  38.232  30.813  1.00  0.00    -0.237 OA
ATOM     69  O   UNL A   1      43.403  37.654  33.166  1.00  0.00    -0.744 OA
ENDBRANCH  65  66
ENDBRANCH  44  58
BRANCH  45  70
ATOM     70  C   UNL A   1      42.549  23.663  27.638  1.00  0.00     0.058 A 
ATOM     71  C   UNL A   1      42.466  23.410  26.260  1.00  0.00     0.135 A 
ATOM     72  C   UNL A   1      42.485  22.564  28.509  1.00  0.00     0.135 A 
ATOM     73  F   UNL A   1      42.520  24.428  25.389  1.00  0.00    -0.206 F 
ATOM     74  C   UNL A   1      42.311  22.120  25.763  1.00  0.00     0.059 A 
ATOM     75  C   UNL A   1      42.355  21.262  28.034  1.00  0.00     0.059 A 
ATOM     76  F   UNL A   1      42.582  22.749  29.834  1.00  0.00    -0.206 F 
ATOM     77  C   UNL A   1      42.260  21.052  26.659  1.00  0.00     0.060 A 
BRANCH  77  78
ATOM     78  S   UNL A   1      42.115  19.376  25.998  1.00  0.00     0.124 S 
ATOM     79  O   UNL A   1      43.015  19.432  24.853  1.00  0.00    -0.237 OA
ATOM     80  O   UNL A   1      42.565  18.562  27.124  1.00  0.00    -0.237 OA
ATOM     81  O   UNL A   1      40.694  19.263  25.682  1.00  0.00    -0.744 OA
ENDBRANCH  77  78
ENDBRANCH  45  70
BRANCH  57  82
ATOM     82  C   UNL A   1      48.076  27.338  29.816  1.00  0.00     0.058 A 
ATOM     83  C   UNL A   1      49.056  27.638  28.861  1.00  0.00     0.135 A 
ATOM     84  C   UNL A   1      48.489  26.764  31.030  1.00  0.00     0.135 A 
ATOM     85  F   UNL A   1      48.710  28.180  27.683  1.00  0.00    -0.206 F 
ATOM     86  C   UNL A   1      50.402  27.377  29.099  1.00  0.00     0.059 A 
ATOM     87  C   UNL A   1      49.830  26.516  31.299  1.00  0.00     0.059 A 
ATOM     88  F   UNL A   1      47.586  26.466  31.979  1.00  0.00    -0.206 F 
ATOM     89  C   UNL A   1      50.779  26.821  30.324  1.00  0.00     0.060 A 
BRANCH  89  90
ATOM     90  S   UNL A   1      52.533  26.544  30.645  1.00  0.00     0.124 S 
ATOM     91  O   UNL A   1      52.486  25.460  31.621  1.00  0.00    -0.237 OA
ATOM     92  O   UNL A   1      53.041  26.187  29.324  1.00  0.00    -0.237 OA
ATOM     93  O   UNL A   1      52.992  27.832  31.157  1.00  0.00    -0.744 OA
ENDBRANCH  89  90
ENDBRANCH  57  82
ENDBRANCH  31  32
ENDBRANCH  23  26
ENDBRANCH  21  22
ENDBRANCH   1  21
TORSDOF 16
ENDMDL
MODEL 2
REMARK VINA RESULT:     -12.4      4.439      6.870
REMARK SMILES O=C(CCC(=O)c1c[nH]c2ccccc12)NCCCNC(=O)c1ccc(-c2c3nc(c(-c4c(F)cc(S(=O)(=O)[O-])cc4F)c4ccc([nH]4)c(-c4c(F)cc(S(=O)(=O)[O-])cc4F)c4nc(c(-c5c(F)cc(S(=O)(=O)[O-])cc5F)c5ccc2[nH]5)C=C4)C=C3)cc1
REMARK SMILES IDX 18 1 17 2 16 3 1 4 2 5 3 7 4 8 5 9 6 10 7 11 8 12 15 13 9 14
REMARK SMILES IDX 10 15 14 16 11 18 13 19 12 20 19 21 20 22 21 23 22 25 23 26
REMARK SMILES IDX 24 27 88 28 25 29 87 30 26 31 27 32 28 33 81 34 29 35 86 36
REMARK SMILES IDX 80 37 82 38 30 39 85 40 79 41 78 42 31 44 65 45 44 46 64 47
REMARK SMILES IDX 45 48 48 49 63 50 83 51 46 52 47 53 62 55 84 56 49 57 32 58
REMARK SMILES IDX 33 59 42 60 34 61 35 62 41 63 43 64 36 65 37 66 38 67 39 68
REMARK SMILES IDX 40 69 66 70 67 71 76 72 68 73 69 74 75 75 77 76 70 77 71 78
REMARK SMILES IDX 72 79 73 80 74 81 50 82 51 83 60 84 52 85 53 86 59 87 61 88
REMARK SMILES IDX 54 89 55 90 56 91 57 92 58 93
REMARK H PARENT 16 6 9 17 20 24 82 43 48 54
REMARK Flexibility Score: inf
ROOT
ATOM      1  C   UNL A   1      34.614  32.261  27.696  1.00  0.00     0.042 C 
ENDROOT
BRANCH   1   2
ATOM      2  C   UNL A   1      33.342  33.976  28.219  1.00  0.00     0.117 C 
BRANCH   2   3
ATOM      3  N   UNL A   1      32.951  34.633  29.648  1.00  0.00    -0.356 N 
ATOM      4  O   UNL A   1      32.939  36.892  29.287  1.00  0.00    -0.275 OA
ATOM      5  C   UNL A   1      33.125  35.936  30.034  1.00  0.00     0.220 C 
ATOM      6  H   UNL A   1      32.544  34.030  30.311  1.00  0.00     0.163 HD
BRANCH   5   7
ATOM      7  C   UNL A   1      33.779  36.127  31.405  1.00  0.00     0.108 C 
BRANCH   7   8
ATOM      8  C   UNL A   1      33.457  35.152  32.536  1.00  0.00     0.091 C 
BRANCH   8   9
ATOM      9  C   UNL A   1      34.285  33.858  32.552  1.00  0.00     0.165 C 
ATOM     10  O   UNL A   1      33.797  32.775  32.240  1.00  0.00    -0.294 OA
BRANCH   9  11
ATOM     11  C   UNL A   1      35.706  34.007  32.832  1.00  0.00     0.043 A 
ATOM     12  C   UNL A   1      36.300  33.816  34.080  1.00  0.00     0.095 A 
ATOM     13  C   UNL A   1      36.734  34.085  31.856  1.00  0.00     0.010 A 
ATOM     14  N   UNL A   1      37.674  33.593  34.049  1.00  0.00    -0.360 N 
ATOM     15  C   UNL A   1      38.162  33.613  32.766  1.00  0.00     0.046 A 
ATOM     16  C   UNL A   1      36.834  34.187  30.038  1.00  0.00     0.011 A 
ATOM     17  H   UNL A   1      38.228  33.440  34.849  1.00  0.00     0.166 HD
ATOM     18  C   UNL A   1      39.710  33.229  31.928  1.00  0.00     0.027 A 
ATOM     19  C   UNL A   1      38.353  33.754  29.173  1.00  0.00     0.001 A 
ATOM     20  C   UNL A   1      39.784  33.297  30.131  1.00  0.00     0.002 A 
ENDBRANCH   9  11
ENDBRANCH   8   9
ENDBRANCH   7   8
ENDBRANCH   5   7
ENDBRANCH   2   3
ENDBRANCH   1   2
BRANCH   1  21
ATOM     21  C   UNL A   1      35.424  30.997  28.527  1.00  0.00     0.118 C 
BRANCH  21  22
ATOM     22  N   UNL A   1      35.453  31.069  29.988  1.00  0.00    -0.352 N 
ATOM     23  C   UNL A   1      36.338  30.551  30.897  1.00  0.00     0.251 C 
ATOM     24  H   UNL A   1      34.710  31.578  30.386  1.00  0.00     0.163 HD
ATOM     25  O   UNL A   1      36.025  30.487  32.083  1.00  0.00    -0.269 OA
BRANCH  23  26
ATOM     26  C   UNL A   1      37.674  30.107  30.452  1.00  0.00     0.039 A 
ATOM     27  C   UNL A   1      38.004  30.140  29.095  1.00  0.00     0.014 A 
ATOM     28  C   UNL A   1      38.587  29.609  31.384  1.00  0.00     0.014 A 
ATOM     29  C   UNL A   1      39.276  29.733  28.684  1.00  0.00     0.010 A 
ATOM     30  C   UNL A   1      39.878  29.298  30.989  1.00  0.00     0.010 A 
ATOM     31  C   UNL A   1      40.232  29.339  29.634  1.00  0.00    -0.014 A 
BRANCH  31  32
ATOM     32  C   UNL A   1      41.605  28.923  29.263  1.00  0.00     0.031 A 
ATOM     33  C   UNL A   1      42.694  29.961  29.215  1.00  0.00     0.074 A 
ATOM     34  C   UNL A   1      41.834  27.663  28.848  1.00  0.00     0.049 A 
ATOM     35  N   UNL A   1      43.896  29.879  28.710  1.00  0.00    -0.248 NA
ATOM     36  C   UNL A   1      42.365  31.287  29.767  1.00  0.00     0.031 C 
ATOM     37  C   UNL A   1      40.841  26.588  28.808  1.00  0.00     0.029 A 
ATOM     38  N   UNL A   1      42.972  27.081  28.349  1.00  0.00    -0.354 N 
ATOM     39  C   UNL A   1      44.448  31.149  28.841  1.00  0.00     0.074 A 
ATOM     40  C   UNL A   1      43.435  31.994  29.434  1.00  0.00     0.031 C 
ATOM     41  C   UNL A   1      41.413  25.477  28.317  1.00  0.00     0.029 A 
ATOM     42  C   UNL A   1      42.798  25.771  27.967  1.00  0.00     0.049 A 
ATOM     43  H   UNL A   1      43.831  27.555  28.271  1.00  0.00     0.167 HD
ATOM     44  C   UNL A   1      45.693  31.566  28.512  1.00  0.00     0.037 A 
ATOM     45  C   UNL A   1      43.656  24.914  27.381  1.00  0.00     0.037 A 
ATOM     46  C   UNL A   1      46.703  30.697  27.970  1.00  0.00     0.049 A 
ATOM     47  C   UNL A   1      45.050  25.385  27.069  1.00  0.00     0.074 A 
ATOM     48  C   UNL A   1      48.018  30.991  27.658  1.00  0.00     0.029 A 
ATOM     49  N   UNL A   1      46.511  29.354  27.674  1.00  0.00    -0.354 N 
ATOM     50  N   UNL A   1      45.572  26.578  27.234  1.00  0.00    -0.248 NA
ATOM     51  C   UNL A   1      45.976  24.397  26.500  1.00  0.00     0.031 C 
ATOM     52  C   UNL A   1      48.615  29.833  27.149  1.00  0.00     0.029 A 
ATOM     53  C   UNL A   1      47.684  28.806  27.184  1.00  0.00     0.049 A 
ATOM     54  H   UNL A   1      45.666  28.864  27.796  1.00  0.00     0.167 HD
ATOM     55  C   UNL A   1      46.895  26.475  26.824  1.00  0.00     0.074 A 
ATOM     56  C   UNL A   1      47.095  25.103  26.401  1.00  0.00     0.031 C 
ATOM     57  C   UNL A   1      47.860  27.427  26.800  1.00  0.00     0.037 A 
BRANCH  44  58
ATOM     58  C   UNL A   1      46.030  33.015  28.738  1.00  0.00     0.058 A 
ATOM     59  C   UNL A   1      45.797  33.989  27.754  1.00  0.00     0.135 A 
ATOM     60  C   UNL A   1      46.576  33.441  29.962  1.00  0.00     0.135 A 
ATOM     61  F   UNL A   1      45.292  33.637  26.561  1.00  0.00    -0.206 F 
ATOM     62  C   UNL A   1      46.125  35.325  27.960  1.00  0.00     0.059 A 
ATOM     63  C   UNL A   1      46.883  34.777  30.200  1.00  0.00     0.059 A 
ATOM     64  F   UNL A   1      46.820  32.553  30.939  1.00  0.00    -0.206 F 
ATOM     65  C   UNL A   1      46.670  35.710  29.185  1.00  0.00     0.060 A 
BRANCH  65  66
ATOM     66  S   UNL A   1      47.088  37.448  29.436  1.00  0.00     0.124 S 
ATOM     67  O   UNL A   1      46.094  38.111  28.597  1.00  0.00    -0.237 OA
ATOM     68  O   UNL A   1      46.909  37.610  30.875  1.00  0.00    -0.237 OA
ATOM     69  O   UNL A   1      48.467  37.538  28.965  1.00  0.00    -0.744 OA
ENDBRANCH  65  66
ENDBRANCH  44  58
BRANCH  45  70
ATOM     70  C   UNL A   1      43.228  23.520  27.090  1.00  0.00     0.058 A 
ATOM     71  C   UNL A   1      42.967  23.112  25.773  1.00  0.00     0.135 A 
ATOM     72  C   UNL A   1      43.104  22.562  28.108  1.00  0.00     0.135 A 
ATOM     73  F   UNL A   1      43.071  23.992  24.767  1.00  0.00    -0.206 F 
ATOM     74  C   UNL A   1      42.585  21.808  25.475  1.00  0.00     0.059 A 
ATOM     75  C   UNL A   1      42.746  21.245  27.832  1.00  0.00     0.059 A 
ATOM     76  F   UNL A   1      43.363  22.895  29.381  1.00  0.00    -0.206 F 
ATOM     77  C   UNL A   1      42.480  20.881  26.513  1.00  0.00     0.060 A 
BRANCH  77  78
ATOM     78  S   UNL A   1      42.037  19.176  26.107  1.00  0.00     0.124 S 
ATOM     79  O   UNL A   1      42.908  18.909  24.969  1.00  0.00    -0.237 OA
ATOM     80  O   UNL A   1      42.365  18.472  27.342  1.00  0.00    -0.237 OA
ATOM     81  O   UNL A   1      40.611  19.264  25.806  1.00  0.00    -0.744 OA
ENDBRANCH  77  78
ENDBRANCH  45  70
BRANCH  57  82
ATOM     82  C   UNL A   1      49.234  27.012  26.364  1.00  0.00     0.058 A 
ATOM     83  C   UNL A   1      50.183  26.527  27.275  1.00  0.00     0.135 A 
ATOM     84  C   UNL A   1      49.571  27.020  25.000  1.00  0.00     0.135 A 
ATOM     85  F   UNL A   1      49.910  26.507  28.589  1.00  0.00    -0.206 F 
ATOM     86  C   UNL A   1      51.426  26.070  26.849  1.00  0.00     0.059 A 
ATOM     87  C   UNL A   1      50.798  26.546  24.550  1.00  0.00     0.059 A 
ATOM     88  F   UNL A   1      48.691  27.467  24.089  1.00  0.00    -0.206 F 
ATOM     89  C   UNL A   1      51.721  26.078  25.484  1.00  0.00     0.060 A 
BRANCH  89  90
ATOM     90  S   UNL A   1      53.312  25.424  24.938  1.00  0.00     0.124 S 
ATOM     91  O   UNL A   1      53.186  24.013  25.289  1.00  0.00    -0.237 OA
ATOM     92  O   UNL A   1      53.302  25.726  23.510  1.00  0.00    -0.237 OA
ATOM     93  O   UNL A   1      54.280  26.183  25.725  1.00  0.00    -0.744 OA
ENDBRANCH  89  90
ENDBRANCH  57  82
ENDBRANCH  31  32
ENDBRANCH  23  26
ENDBRANCH  21  22
ENDBRANCH   1  21
TORSDOF 16
ENDMDL
MODEL 3
REMARK VINA RESULT:     -12.0      5.327     10.023
REMARK SMILES O=C(CCC(=O)c1c[nH]c2ccccc12)NCCCNC(=O)c1ccc(-c2c3nc(c(-c4c(F)cc(S(=O)(=O)[O-])cc4F)c4ccc([nH]4)c(-c4c(F)cc(S(=O)(=O)[O-])cc4F)c4nc(c(-c5c(F)cc(S(=O)(=O)[O-])cc5F)c5ccc2[nH]5)C=C4)C=C3)cc1
REMARK SMILES IDX 18 1 17 2 16 3 1 4 2 5 3 7 4 8 5 9 6 10 7 11 8 12 15 13 9 14
REMARK SMILES IDX 10 15 14 16 11 18 13 19 12 20 19 21 20 22 21 23 22 25 23 26
REMARK SMILES IDX 24 27 88 28 25 29 87 30 26 31 27 32 28 33 81 34 29 35 86 36
REMARK SMILES IDX 80 37 82 38 30 39 85 40 79 41 78 42 31 44 65 45 44 46 64 47
REMARK SMILES IDX 45 48 48 49 63 50 83 51 46 52 47 53 62 55 84 56 49 57 32 58
REMARK SMILES IDX 33 59 42 60 34 61 35 62 41 63 43 64 36 65 37 66 38 67 39 68
REMARK SMILES IDX 40 69 66 70 67 71 76 72 68 73 69 74 75 75 77 76 70 77 71 78
REMARK SMILES IDX 72 79 73 80 74 81 50 82 51 83 60 84 52 85 53 86 59 87 61 88
REMARK SMILES IDX 54 89 55 90 56 91 57 92 58 93
REMARK H PARENT 16 6 9 17 20 24 82 43 48 54
REMARK Flexibility Score: inf
ROOT
ATOM      1  C   UNL A   1      40.517  22.214  27.385  1.00  0.00     0.042 C 
ENDROOT
BRANCH   1   2
ATOM      2  C   UNL A   1      38.862  21.636  26.059  1.00  0.00     0.117 C 
BRANCH   2   3
ATOM      3  N   UNL A   1      38.171  22.393  24.803  1.00  0.00    -0.356 N 
ATOM      4  O   UNL A   1      36.762  23.935  25.733  1.00  0.00    -0.275 OA
ATOM      5  C   UNL A   1      37.037  23.160  24.822  1.00  0.00     0.220 C 
ATOM      6  H   UNL A   1      38.616  22.289  23.930  1.00  0.00     0.163 HD
BRANCH   5   7
ATOM      7  C   UNL A   1      36.012  22.834  23.732  1.00  0.00     0.108 C 
BRANCH   7   8
ATOM      8  C   UNL A   1      34.730  23.658  23.633  1.00  0.00     0.091 C 
BRANCH   8   9
ATOM      9  C   UNL A   1      33.531  23.119  24.426  1.00  0.00     0.165 C 
ATOM     10  O   UNL A   1      33.187  23.616  25.495  1.00  0.00    -0.294 OA
BRANCH   9  11
ATOM     11  C   UNL A   1      32.750  22.074  23.779  1.00  0.00     0.043 A 
ATOM     12  C   UNL A   1      31.922  22.263  22.672  1.00  0.00     0.095 A 
ATOM     13  C   UNL A   1      32.919  20.678  23.976  1.00  0.00     0.010 A 
ATOM     14  N   UNL A   1      31.611  21.103  21.966  1.00  0.00    -0.360 N 
ATOM     15  C   UNL A   1      32.199  19.996  22.525  1.00  0.00     0.046 A 
ATOM     16  C   UNL A   1      33.910  19.601  25.064  1.00  0.00     0.011 A 
ATOM     17  H   UNL A   1      31.040  21.081  21.164  1.00  0.00     0.166 HD
ATOM     18  C   UNL A   1      32.429  18.260  22.104  1.00  0.00     0.027 A 
ATOM     19  C   UNL A   1      34.202  17.877  24.637  1.00  0.00     0.001 A 
ATOM     20  C   UNL A   1      33.441  17.218  23.167  1.00  0.00     0.002 A 
ENDBRANCH   9  11
ENDBRANCH   8   9
ENDBRANCH   7   8
ENDBRANCH   5   7
ENDBRANCH   2   3
ENDBRANCH   1   2
BRANCH   1  21
ATOM     21  C   UNL A   1      41.788  23.367  27.381  1.00  0.00     0.118 C 
BRANCH  21  22
ATOM     22  N   UNL A   1      41.837  24.303  26.258  1.00  0.00    -0.352 N 
ATOM     23  C   UNL A   1      41.420  25.605  26.154  1.00  0.00     0.251 C 
ATOM     24  H   UNL A   1      42.238  23.937  25.438  1.00  0.00     0.163 HD
ATOM     25  O   UNL A   1      41.295  26.117  25.044  1.00  0.00    -0.269 OA
BRANCH  23  26
ATOM     26  C   UNL A   1      41.161  26.394  27.374  1.00  0.00     0.039 A 
ATOM     27  C   UNL A   1      40.080  26.070  28.198  1.00  0.00     0.014 A 
ATOM     28  C   UNL A   1      41.966  27.495  27.674  1.00  0.00     0.014 A 
ATOM     29  C   UNL A   1      39.850  26.813  29.359  1.00  0.00     0.010 A 
ATOM     30  C   UNL A   1      41.798  28.169  28.874  1.00  0.00     0.010 A 
ATOM     31  C   UNL A   1      40.728  27.847  29.720  1.00  0.00    -0.014 A 
BRANCH  31  32
ATOM     32  C   UNL A   1      40.554  28.652  30.952  1.00  0.00     0.031 A 
ATOM     33  C   UNL A   1      39.514  29.741  30.973  1.00  0.00     0.074 A 
ATOM     34  C   UNL A   1      41.408  28.494  31.982  1.00  0.00     0.049 A 
ATOM     35  N   UNL A   1      39.339  30.703  31.839  1.00  0.00    -0.248 NA
ATOM     36  C   UNL A   1      38.578  29.779  29.836  1.00  0.00     0.031 C 
ATOM     37  C   UNL A   1      42.483  27.503  32.048  1.00  0.00     0.029 A 
ATOM     38  N   UNL A   1      41.525  29.189  33.158  1.00  0.00    -0.354 N 
ATOM     39  C   UNL A   1      38.306  31.485  31.330  1.00  0.00     0.074 A 
ATOM     40  C   UNL A   1      37.924  30.909  30.060  1.00  0.00     0.031 C 
ATOM     41  C   UNL A   1      43.146  27.648  33.206  1.00  0.00     0.029 A 
ATOM     42  C   UNL A   1      42.574  28.770  33.943  1.00  0.00     0.049 A 
ATOM     43  H   UNL A   1      40.917  29.919  33.417  1.00  0.00     0.167 HD
ATOM     44  C   UNL A   1      37.721  32.572  31.883  1.00  0.00     0.037 A 
ATOM     45  C   UNL A   1      43.033  29.252  35.114  1.00  0.00     0.037 A 
ATOM     46  C   UNL A   1      38.082  33.099  33.172  1.00  0.00     0.049 A 
ATOM     47  C   UNL A   1      42.335  30.432  35.734  1.00  0.00     0.074 A 
ATOM     48  C   UNL A   1      37.517  34.156  33.862  1.00  0.00     0.029 A 
ATOM     49  N   UNL A   1      39.098  32.593  33.974  1.00  0.00    -0.354 N 
ATOM     50  N   UNL A   1      41.335  31.138  35.261  1.00  0.00    -0.248 NA
ATOM     51  C   UNL A   1      42.819  30.878  37.047  1.00  0.00     0.031 C 
ATOM     52  C   UNL A   1      38.207  34.306  35.070  1.00  0.00     0.029 A 
ATOM     53  C   UNL A   1      39.174  33.316  35.151  1.00  0.00     0.049 A 
ATOM     54  H   UNL A   1      39.676  31.833  33.738  1.00  0.00     0.167 HD
ATOM     55  C   UNL A   1      41.045  32.087  36.233  1.00  0.00     0.074 A 
ATOM     56  C   UNL A   1      41.977  31.868  37.321  1.00  0.00     0.031 C 
ATOM     57  C   UNL A   1      40.094  33.053  36.229  1.00  0.00     0.037 A 
BRANCH  44  58
ATOM     58  C   UNL A   1      36.628  33.253  31.103  1.00  0.00     0.058 A 
ATOM     59  C   UNL A   1      36.913  34.096  30.017  1.00  0.00     0.135 A 
ATOM     60  C   UNL A   1      35.278  33.047  31.433  1.00  0.00     0.135 A 
ATOM     61  F   UNL A   1      38.185  34.341  29.666  1.00  0.00    -0.206 F 
ATOM     62  C   UNL A   1      35.902  34.737  29.308  1.00  0.00     0.059 A 
ATOM     63  C   UNL A   1      34.249  33.654  30.718  1.00  0.00     0.059 A 
ATOM     64  F   UNL A   1      34.947  32.251  32.462  1.00  0.00    -0.206 F 
ATOM     65  C   UNL A   1      34.573  34.512  29.667  1.00  0.00     0.060 A 
BRANCH  65  66
ATOM     66  S   UNL A   1      33.273  35.351  28.736  1.00  0.00     0.124 S 
ATOM     67  O   UNL A   1      32.616  34.226  28.076  1.00  0.00    -0.237 OA
ATOM     68  O   UNL A   1      32.502  36.002  29.790  1.00  0.00    -0.237 OA
ATOM     69  O   UNL A   1      34.012  36.251  27.857  1.00  0.00    -0.744 OA
ENDBRANCH  65  66
ENDBRANCH  44  58
BRANCH  45  70
ATOM     70  C   UNL A   1      44.184  28.595  35.787  1.00  0.00     0.058 A 
ATOM     71  C   UNL A   1      45.499  29.001  35.515  1.00  0.00     0.135 A 
ATOM     72  C   UNL A   1      43.997  27.576  36.734  1.00  0.00     0.135 A 
ATOM     73  F   UNL A   1      45.727  29.969  34.616  1.00  0.00    -0.206 F 
ATOM     74  C   UNL A   1      46.590  28.414  36.147  1.00  0.00     0.059 A 
ATOM     75  C   UNL A   1      45.072  26.989  37.398  1.00  0.00     0.059 A 
ATOM     76  F   UNL A   1      42.758  27.166  37.046  1.00  0.00    -0.206 F 
ATOM     77  C   UNL A   1      46.365  27.410  37.090  1.00  0.00     0.060 A 
BRANCH  77  78
ATOM     78  S   UNL A   1      47.786  26.693  37.945  1.00  0.00     0.124 S 
ATOM     79  O   UNL A   1      48.899  27.310  37.234  1.00  0.00    -0.237 OA
ATOM     80  O   UNL A   1      47.578  27.143  39.318  1.00  0.00    -0.237 OA
ATOM     81  O   UNL A   1      47.616  25.259  37.732  1.00  0.00    -0.744 OA
ENDBRANCH  77  78
ENDBRANCH  45  70
BRANCH  57  82
ATOM     82  C   UNL A   1      39.966  33.906  37.458  1.00  0.00     0.058 A 
ATOM     83  C   UNL A   1      40.697  35.092  37.613  1.00  0.00     0.135 A 
ATOM     84  C   UNL A   1      39.032  33.569  38.452  1.00  0.00     0.135 A 
ATOM     85  F   UNL A   1      41.606  35.452  36.693  1.00  0.00    -0.206 F 
ATOM     86  C   UNL A   1      40.511  35.916  38.718  1.00  0.00     0.059 A 
ATOM     87  C   UNL A   1      38.814  34.389  39.553  1.00  0.00     0.059 A 
ATOM     88  F   UNL A   1      38.303  32.447  38.342  1.00  0.00    -0.206 F 
ATOM     89  C   UNL A   1      39.563  35.558  39.680  1.00  0.00     0.060 A 
BRANCH  89  90
ATOM     90  S   UNL A   1      39.287  36.666  41.077  1.00  0.00     0.124 S 
ATOM     91  O   UNL A   1      40.650  36.901  41.541  1.00  0.00    -0.237 OA
ATOM     92  O   UNL A   1      38.626  37.806  40.447  1.00  0.00    -0.237 OA
ATOM     93  O   UNL A   1      38.443  35.880  41.973  1.00  0.00    -0.744 OA
ENDBRANCH  89  90
ENDBRANCH  57  82
ENDBRANCH  31  32
ENDBRANCH  23  26
ENDBRANCH  21  22
ENDBRANCH   1  21
TORSDOF 16
ENDMDL
