MODEL 1
REMARK VINA RESULT:     -12.7      0.000      0.000
REMARK SMILES O=C(NCCCNC(=O)c1c(F)cccc1NC(=O)C1CCCCC1)c1ccc(-c2c3nc(c(-c4c(F)cc(S(=O)(=O)[O-])cc4F)c4ccc([nH]4)c(-c4c(F)cc(S(=O)(=O)[O-])cc4F)c4nc(c(-c5c(F)cc(S(=O)(=O)[O-])cc5F)c5ccc2[nH]5)C=C4)C=C3)cc1
REMARK SMILES IDX 4 1 3 2 1 3 2 4 26 6 27 7 91 8 28 9 90 10 29 11 30 12 31 13
REMARK SMILES IDX 84 14 32 15 89 16 83 17 85 18 33 19 88 20 82 21 81 22 34 24
REMARK SMILES IDX 68 25 47 26 67 27 48 28 51 29 66 30 86 31 49 32 50 33 65 35
REMARK SMILES IDX 87 36 52 37 35 38 36 39 45 40 37 41 38 42 44 43 46 44 39 45
REMARK SMILES IDX 40 46 41 47 42 48 43 49 69 50 70 51 79 52 71 53 72 54 78 55
REMARK SMILES IDX 80 56 73 57 74 58 75 59 76 60 77 61 53 62 54 63 63 64 55 65
REMARK SMILES IDX 56 66 62 67 64 68 57 69 58 70 59 71 60 72 61 73 5 74 6 75
REMARK SMILES IDX 7 76 8 77 9 79 10 80 11 81 16 82 12 83 13 84 15 85 14 86
REMARK SMILES IDX 17 87 18 88 19 90 20 91 21 92 25 93 22 94 24 95 23 96
REMARK H PARENT 3 5 85 23 51 34 7 78 17 89
REMARK Flexibility Score: inf
ROOT
ATOM      1  C   UNL A   1      39.707  23.422  27.058  1.00  0.00     0.118 C 
ENDROOT
BRANCH   1   2
ATOM      2  N   UNL A   1      40.571  24.103  26.103  1.00  0.00    -0.352 N 
ATOM      3  O   UNL A   1      41.626  25.818  25.099  1.00  0.00    -0.269 OA
ATOM      4  C   UNL A   1      41.043  25.395  26.095  1.00  0.00     0.251 C 
ATOM      5  H   UNL A   1      40.866  23.551  25.344  1.00  0.00     0.163 HD
BRANCH   4   6
ATOM      6  C   UNL A   1      40.828  26.284  27.259  1.00  0.00     0.039 A 
ATOM      7  C   UNL A   1      41.535  27.480  27.387  1.00  0.00     0.014 A 
ATOM      8  C   UNL A   1      39.888  25.926  28.233  1.00  0.00     0.014 A 
ATOM      9  C   UNL A   1      41.435  28.221  28.558  1.00  0.00     0.010 A 
ATOM     10  C   UNL A   1      39.709  26.733  29.363  1.00  0.00     0.010 A 
ATOM     11  C   UNL A   1      40.506  27.872  29.552  1.00  0.00    -0.014 A 
BRANCH  11  12
ATOM     12  C   UNL A   1      40.353  28.755  30.738  1.00  0.00     0.031 A 
ATOM     13  C   UNL A   1      41.295  28.664  31.909  1.00  0.00     0.074 A 
ATOM     14  C   UNL A   1      39.385  29.695  30.717  1.00  0.00     0.049 A 
ATOM     15  N   UNL A   1      41.318  29.386  33.000  1.00  0.00    -0.248 NA
ATOM     16  C   UNL A   1      42.344  27.633  31.854  1.00  0.00     0.031 C 
ATOM     17  C   UNL A   1      38.417  29.879  29.631  1.00  0.00     0.029 A 
ATOM     18  N   UNL A   1      39.077  30.693  31.605  1.00  0.00    -0.354 N 
ATOM     19  C   UNL A   1      42.371  28.897  33.763  1.00  0.00     0.074 A 
ATOM     20  C   UNL A   1      42.949  27.795  33.024  1.00  0.00     0.031 C 
ATOM     21  C   UNL A   1      37.675  30.968  29.881  1.00  0.00     0.029 A 
ATOM     22  C   UNL A   1      38.061  31.515  31.175  1.00  0.00     0.049 A 
ATOM     23  H   UNL A   1      39.538  30.809  32.467  1.00  0.00     0.167 HD
ATOM     24  C   UNL A   1      42.821  29.339  34.962  1.00  0.00     0.037 A 
ATOM     25  C   UNL A   1      37.493  32.587  31.760  1.00  0.00     0.037 A 
ATOM     26  C   UNL A   1      42.250  30.449  35.683  1.00  0.00     0.049 A 
ATOM     27  C   UNL A   1      37.986  33.026  33.108  1.00  0.00     0.074 A 
ATOM     28  C   UNL A   1      42.635  30.969  36.906  1.00  0.00     0.029 A 
ATOM     29  N   UNL A   1      41.181  31.217  35.243  1.00  0.00    -0.354 N 
ATOM     30  N   UNL A   1      38.974  32.537  33.820  1.00  0.00    -0.248 NA
ATOM     31  C   UNL A   1      37.281  34.147  33.741  1.00  0.00     0.031 C 
ATOM     32  C   UNL A   1      41.779  32.029  37.223  1.00  0.00     0.029 A 
ATOM     33  C   UNL A   1      40.886  32.197  36.177  1.00  0.00     0.049 A 
ATOM     34  H   UNL A   1      40.702  31.085  34.393  1.00  0.00     0.167 HD
ATOM     35  C   UNL A   1      39.014  33.299  34.980  1.00  0.00     0.074 A 
ATOM     36  C   UNL A   1      37.967  34.294  34.866  1.00  0.00     0.031 C 
ATOM     37  C   UNL A   1      39.842  33.181  36.047  1.00  0.00     0.037 A 
BRANCH  24  38
ATOM     38  C   UNL A   1      43.995  28.634  35.586  1.00  0.00     0.058 A 
ATOM     39  C   UNL A   1      45.309  28.986  35.238  1.00  0.00     0.135 A 
ATOM     40  C   UNL A   1      43.817  27.542  36.449  1.00  0.00     0.135 A 
ATOM     41  F   UNL A   1      45.536  30.026  34.420  1.00  0.00    -0.206 F 
ATOM     42  C   UNL A   1      46.404  28.265  35.704  1.00  0.00     0.059 A 
ATOM     43  C   UNL A   1      44.899  26.818  36.944  1.00  0.00     0.059 A 
ATOM     44  F   UNL A   1      42.583  27.177  36.830  1.00  0.00    -0.206 F 
ATOM     45  C   UNL A   1      46.189  27.178  36.551  1.00  0.00     0.060 A 
BRANCH  45  46
ATOM     46  S   UNL A   1      47.620  26.253  37.149  1.00  0.00     0.124 S 
ATOM     47  O   UNL A   1      47.602  26.556  38.575  1.00  0.00    -0.237 OA
ATOM     48  O   UNL A   1      47.272  24.882  36.784  1.00  0.00    -0.237 OA
ATOM     49  O   UNL A   1      48.732  26.827  36.395  1.00  0.00    -0.744 OA
ENDBRANCH  45  46
ENDBRANCH  24  38
BRANCH  25  50
ATOM     50  C   UNL A   1      36.397  33.313  31.069  1.00  0.00     0.058 A 
ATOM     51  C   UNL A   1      36.651  34.123  29.951  1.00  0.00     0.135 A 
ATOM     52  C   UNL A   1      35.074  33.231  31.528  1.00  0.00     0.135 A 
ATOM     53  F   UNL A   1      37.901  34.246  29.478  1.00  0.00    -0.206 F 
ATOM     54  C   UNL A   1      35.640  34.844  29.328  1.00  0.00     0.059 A 
ATOM     55  C   UNL A   1      34.039  33.920  30.904  1.00  0.00     0.059 A 
ATOM     56  F   UNL A   1      34.780  32.460  32.587  1.00  0.00    -0.206 F 
ATOM     57  C   UNL A   1      34.336  34.737  29.813  1.00  0.00     0.060 A 
BRANCH  57  58
ATOM     58  S   UNL A   1      33.033  35.669  28.981  1.00  0.00     0.124 S 
ATOM     59  O   UNL A   1      32.439  34.643  28.130  1.00  0.00    -0.237 OA
ATOM     60  O   UNL A   1      32.213  36.118  30.102  1.00  0.00    -0.237 OA
ATOM     61  O   UNL A   1      33.765  36.721  28.283  1.00  0.00    -0.744 OA
ENDBRANCH  57  58
ENDBRANCH  25  50
BRANCH  37  62
ATOM     62  C   UNL A   1      39.661  34.160  37.171  1.00  0.00     0.058 A 
ATOM     63  C   UNL A   1      40.316  35.400  37.147  1.00  0.00     0.135 A 
ATOM     64  C   UNL A   1      38.884  33.846  38.296  1.00  0.00     0.135 A 
ATOM     65  F   UNL A   1      41.072  35.747  36.093  1.00  0.00    -0.206 F 
ATOM     66  C   UNL A   1      40.220  36.292  38.209  1.00  0.00     0.059 A 
ATOM     67  C   UNL A   1      38.753  34.733  39.360  1.00  0.00     0.059 A 
ATOM     68  F   UNL A   1      38.226  32.677  38.359  1.00  0.00    -0.206 F 
ATOM     69  C   UNL A   1      39.438  35.947  39.313  1.00  0.00     0.060 A 
BRANCH  69  70
ATOM     70  S   UNL A   1      39.309  37.123  40.678  1.00  0.00     0.124 S 
ATOM     71  O   UNL A   1      38.339  38.081  40.155  1.00  0.00    -0.237 OA
ATOM     72  O   UNL A   1      38.839  36.278  41.772  1.00  0.00    -0.237 OA
ATOM     73  O   UNL A   1      40.672  37.624  40.823  1.00  0.00    -0.744 OA
ENDBRANCH  69  70
ENDBRANCH  37  62
ENDBRANCH  11  12
ENDBRANCH   4   6
ENDBRANCH   1   2
BRANCH   1  74
ATOM     74  C   UNL A   1      38.576  22.651  26.392  1.00  0.00     0.042 C 
BRANCH  74  75
ATOM     75  C   UNL A   1      37.487  23.530  25.795  1.00  0.00     0.118 C 
BRANCH  75  76
ATOM     76  N   UNL A   1      37.447  23.448  24.343  1.00  0.00    -0.352 N 
ATOM     77  C   UNL A   1      36.506  22.889  23.518  1.00  0.00     0.256 C 
ATOM     78  H   UNL A   1      38.213  23.857  23.882  1.00  0.00     0.163 HD
ATOM     79  O   UNL A   1      36.743  22.773  22.317  1.00  0.00    -0.269 OA
BRANCH  77  80
ATOM     80  C   UNL A   1      35.227  22.373  24.039  1.00  0.00     0.099 A 
ATOM     81  C   UNL A   1      35.232  21.267  24.896  1.00  0.00     0.138 A 
ATOM     82  C   UNL A   1      34.010  23.013  23.710  1.00  0.00     0.057 A 
ATOM     83  F   UNL A   1      36.381  20.671  25.250  1.00  0.00    -0.206 F 
ATOM     84  C   UNL A   1      34.048  20.741  25.396  1.00  0.00     0.040 A 
ATOM     85  C   UNL A   1      32.840  22.521  24.300  1.00  0.00     0.027 A 
ATOM     86  C   UNL A   1      32.850  21.377  25.107  1.00  0.00     0.005 A 
BRANCH  82  87
ATOM     87  N   UNL A   1      34.029  24.111  22.814  1.00  0.00    -0.325 N 
ATOM     88  C   UNL A   1      33.602  25.412  22.882  1.00  0.00     0.227 C 
ATOM     89  H   UNL A   1      34.442  23.891  21.948  1.00  0.00     0.169 HD
ATOM     90  O   UNL A   1      33.858  26.147  21.924  1.00  0.00    -0.274 OA
BRANCH  88  91
ATOM     91  C   UNL A   1      32.820  25.939  24.081  1.00  0.00     0.079 C 
ATOM     92  C   UNL A   1      33.708  26.642  25.123  1.00  0.00     0.013 C 
ATOM     93  C   UNL A   1      31.705  26.917  23.683  1.00  0.00     0.013 C 
ATOM     94  C   UNL A   1      32.886  27.006  26.365  1.00  0.00     0.001 C 
ATOM     95  C   UNL A   1      30.819  27.198  24.892  1.00  0.00     0.001 C 
ATOM     96  C   UNL A   1      31.628  27.809  26.032  1.00  0.00     0.000 C 
ENDBRANCH  88  91
ENDBRANCH  82  87
ENDBRANCH  77  80
ENDBRANCH  75  76
ENDBRANCH  74  75
ENDBRANCH   1  74
TORSDOF 15
ENDMDL
MODEL 2
REMARK VINA RESULT:     -12.6      0.488      8.323
REMARK SMILES O=C(NCCCNC(=O)c1c(F)cccc1NC(=O)C1CCCCC1)c1ccc(-c2c3nc(c(-c4c(F)cc(S(=O)(=O)[O-])cc4F)c4ccc([nH]4)c(-c4c(F)cc(S(=O)(=O)[O-])cc4F)c4nc(c(-c5c(F)cc(S(=O)(=O)[O-])cc5F)c5ccc2[nH]5)C=C4)C=C3)cc1
REMARK SMILES IDX 4 1 3 2 1 3 2 4 26 6 27 7 91 8 28 9 90 10 29 11 30 12 31 13
REMARK SMILES IDX 84 14 32 15 89 16 83 17 85 18 33 19 88 20 82 21 81 22 34 24
REMARK SMILES IDX 68 25 47 26 67 27 48 28 51 29 66 30 86 31 49 32 50 33 65 35
REMARK SMILES IDX 87 36 52 37 35 38 36 39 45 40 37 41 38 42 44 43 46 44 39 45
REMARK SMILES IDX 40 46 41 47 42 48 43 49 69 50 70 51 79 52 71 53 72 54 78 55
REMARK SMILES IDX 80 56 73 57 74 58 75 59 76 60 77 61 53 62 54 63 63 64 55 65
REMARK SMILES IDX 56 66 62 67 64 68 57 69 58 70 59 71 60 72 61 73 5 74 6 75
REMARK SMILES IDX 7 76 8 77 9 79 10 80 11 81 16 82 12 83 13 84 15 85 14 86
REMARK SMILES IDX 17 87 18 88 19 90 20 91 21 92 25 93 22 94 24 95 23 96
REMARK H PARENT 3 5 85 23 51 34 7 78 17 89
REMARK Flexibility Score: inf
ROOT
ATOM      1  C   UNL A   1      39.693  23.414  27.081  1.00  0.00     0.118 C 
ENDROOT
BRANCH   1   2
ATOM      2  N   UNL A   1      40.628  23.989  26.122  1.00  0.00    -0.352 N 
ATOM      3  O   UNL A   1      41.827  25.579  25.074  1.00  0.00    -0.269 OA
ATOM      4  C   UNL A   1      41.189  25.243  26.070  1.00  0.00     0.251 C 
ATOM      5  H   UNL A   1      40.902  23.383  25.397  1.00  0.00     0.163 HD
BRANCH   4   6
ATOM      6  C   UNL A   1      41.008  26.198  27.187  1.00  0.00     0.039 A 
ATOM      7  C   UNL A   1      41.711  27.401  27.223  1.00  0.00     0.014 A 
ATOM      8  C   UNL A   1      40.102  25.894  28.211  1.00  0.00     0.014 A 
ATOM      9  C   UNL A   1      41.646  28.209  28.351  1.00  0.00     0.010 A 
ATOM     10  C   UNL A   1      39.955  26.764  29.297  1.00  0.00     0.010 A 
ATOM     11  C   UNL A   1      40.752  27.915  29.394  1.00  0.00    -0.014 A 
BRANCH  11  12
ATOM     12  C   UNL A   1      40.632  28.865  30.531  1.00  0.00     0.031 A 
ATOM     13  C   UNL A   1      39.569  29.930  30.552  1.00  0.00     0.074 A 
ATOM     14  C   UNL A   1      41.460  28.711  31.586  1.00  0.00     0.049 A 
ATOM     15  N   UNL A   1      39.310  30.811  31.485  1.00  0.00    -0.248 NA
ATOM     16  C   UNL A   1      38.683  30.025  29.380  1.00  0.00     0.031 C 
ATOM     17  C   UNL A   1      42.526  27.709  31.677  1.00  0.00     0.029 A 
ATOM     18  N   UNL A   1      41.515  29.361  32.791  1.00  0.00    -0.354 N 
ATOM     19  C   UNL A   1      38.242  31.566  31.014  1.00  0.00     0.074 A 
ATOM     20  C   UNL A   1      37.917  31.061  29.699  1.00  0.00     0.031 C 
ATOM     21  C   UNL A   1      43.077  27.760  32.898  1.00  0.00     0.029 A 
ATOM     22  C   UNL A   1      42.459  28.845  33.650  1.00  0.00     0.049 A 
ATOM     23  H   UNL A   1      40.937  30.123  33.020  1.00  0.00     0.167 HD
ATOM     24  C   UNL A   1      37.587  32.578  31.633  1.00  0.00     0.037 A 
ATOM     25  C   UNL A   1      42.798  29.208  34.901  1.00  0.00     0.037 A 
ATOM     26  C   UNL A   1      37.908  33.064  32.952  1.00  0.00     0.049 A 
ATOM     27  C   UNL A   1      42.082  30.360  35.543  1.00  0.00     0.074 A 
ATOM     28  C   UNL A   1      37.302  34.087  33.662  1.00  0.00     0.029 A 
ATOM     29  N   UNL A   1      38.911  32.556  33.765  1.00  0.00    -0.354 N 
ATOM     30  N   UNL A   1      41.086  31.072  35.072  1.00  0.00    -0.248 NA
ATOM     31  C   UNL A   1      42.543  30.771  36.875  1.00  0.00     0.031 C 
ATOM     32  C   UNL A   1      37.960  34.221  34.888  1.00  0.00     0.029 A 
ATOM     33  C   UNL A   1      38.950  33.253  34.962  1.00  0.00     0.049 A 
ATOM     34  H   UNL A   1      39.509  31.811  33.526  1.00  0.00     0.167 HD
ATOM     35  C   UNL A   1      40.795  32.009  36.056  1.00  0.00     0.074 A 
ATOM     36  C   UNL A   1      41.705  31.759  37.155  1.00  0.00     0.031 C 
ATOM     37  C   UNL A   1      39.861  32.991  36.046  1.00  0.00     0.037 A 
BRANCH  24  38
ATOM     38  C   UNL A   1      36.448  33.239  30.905  1.00  0.00     0.058 A 
ATOM     39  C   UNL A   1      36.695  34.124  29.843  1.00  0.00     0.135 A 
ATOM     40  C   UNL A   1      35.119  33.076  31.326  1.00  0.00     0.135 A 
ATOM     41  F   UNL A   1      37.947  34.312  29.397  1.00  0.00    -0.206 F 
ATOM     42  C   UNL A   1      35.667  34.843  29.240  1.00  0.00     0.059 A 
ATOM     43  C   UNL A   1      34.072  33.769  30.724  1.00  0.00     0.059 A 
ATOM     44  F   UNL A   1      34.826  32.226  32.323  1.00  0.00    -0.206 F 
ATOM     45  C   UNL A   1      34.359  34.664  29.693  1.00  0.00     0.060 A 
BRANCH  45  46
ATOM     46  S   UNL A   1      33.035  35.603  28.899  1.00  0.00     0.124 S 
ATOM     47  O   UNL A   1      32.394  34.584  28.077  1.00  0.00    -0.237 OA
ATOM     48  O   UNL A   1      32.266  36.075  30.047  1.00  0.00    -0.237 OA
ATOM     49  O   UNL A   1      33.752  36.645  28.168  1.00  0.00    -0.744 OA
ENDBRANCH  45  46
ENDBRANCH  24  38
BRANCH  25  50
ATOM     50  C   UNL A   1      43.867  28.469  35.622  1.00  0.00     0.058 A 
ATOM     51  C   UNL A   1      43.560  27.418  36.500  1.00  0.00     0.135 A 
ATOM     52  C   UNL A   1      45.216  28.818  35.465  1.00  0.00     0.135 A 
ATOM     53  F   UNL A   1      42.283  27.052  36.694  1.00  0.00    -0.206 F 
ATOM     54  C   UNL A   1      44.549  26.754  37.215  1.00  0.00     0.059 A 
ATOM     55  C   UNL A   1      46.228  28.148  36.149  1.00  0.00     0.059 A 
ATOM     56  F   UNL A   1      45.559  29.809  34.629  1.00  0.00    -0.206 F 
ATOM     57  C   UNL A   1      45.881  27.127  37.033  1.00  0.00     0.060 A 
BRANCH  57  58
ATOM     58  S   UNL A   1      47.153  26.243  37.959  1.00  0.00     0.124 S 
ATOM     59  O   UNL A   1      47.334  27.117  39.114  1.00  0.00    -0.237 OA
ATOM     60  O   UNL A   1      46.505  24.963  38.226  1.00  0.00    -0.237 OA
ATOM     61  O   UNL A   1      48.274  26.191  37.026  1.00  0.00    -0.744 OA
ENDBRANCH  57  58
ENDBRANCH  25  50
BRANCH  37  62
ATOM     62  C   UNL A   1      39.764  33.861  37.265  1.00  0.00     0.058 A 
ATOM     63  C   UNL A   1      38.977  33.468  38.360  1.00  0.00     0.135 A 
ATOM     64  C   UNL A   1      40.403  35.108  37.327  1.00  0.00     0.135 A 
ATOM     65  F   UNL A   1      38.344  32.285  38.348  1.00  0.00    -0.206 F 
ATOM     66  C   UNL A   1      38.816  34.291  39.469  1.00  0.00     0.059 A 
ATOM     67  C   UNL A   1      40.276  35.937  38.438  1.00  0.00     0.059 A 
ATOM     68  F   UNL A   1      41.178  35.521  36.311  1.00  0.00    -0.206 F 
ATOM     69  C   UNL A   1      39.466  35.525  39.497  1.00  0.00     0.060 A 
BRANCH  69  70
ATOM     70  S   UNL A   1      39.261  36.574  40.952  1.00  0.00     0.124 S 
ATOM     71  O   UNL A   1      40.636  36.698  41.427  1.00  0.00    -0.237 OA
ATOM     72  O   UNL A   1      38.675  37.784  40.381  1.00  0.00    -0.237 OA
ATOM     73  O   UNL A   1      38.368  35.797  41.806  1.00  0.00    -0.744 OA
ENDBRANCH  69  70
ENDBRANCH  37  62
ENDBRANCH  11  12
ENDBRANCH   4   6
ENDBRANCH   1   2
BRANCH   1  74
ATOM     74  C   UNL A   1      38.503  22.735  26.417  1.00  0.00     0.042 C 
BRANCH  74  75
ATOM     75  C   UNL A   1      37.478  23.697  25.834  1.00  0.00     0.118 C 
BRANCH  75  76
ATOM     76  N   UNL A   1      37.388  23.596  24.386  1.00  0.00    -0.352 N 
ATOM     77  C   UNL A   1      36.436  22.999  23.602  1.00  0.00     0.256 C 
ATOM     78  H   UNL A   1      38.125  24.022  23.893  1.00  0.00     0.163 HD
ATOM     79  O   UNL A   1      36.632  22.876  22.395  1.00  0.00    -0.269 OA
BRANCH  77  80
ATOM     80  C   UNL A   1      35.193  22.453  24.175  1.00  0.00     0.099 A 
ATOM     81  C   UNL A   1      35.243  21.268  24.918  1.00  0.00     0.138 A 
ATOM     82  C   UNL A   1      33.967  23.138  24.011  1.00  0.00     0.057 A 
ATOM     83  F   UNL A   1      36.403  20.624  25.116  1.00  0.00    -0.206 F 
ATOM     84  C   UNL A   1      34.093  20.712  25.460  1.00  0.00     0.040 A 
ATOM     85  C   UNL A   1      32.838  22.606  24.646  1.00  0.00     0.027 A 
ATOM     86  C   UNL A   1      32.888  21.389  25.335  1.00  0.00     0.005 A 
BRANCH  82  87
ATOM     87  N   UNL A   1      33.937  24.319  23.228  1.00  0.00    -0.325 N 
ATOM     88  C   UNL A   1      33.682  25.640  23.491  1.00  0.00     0.227 C 
ATOM     89  H   UNL A   1      34.146  24.154  22.280  1.00  0.00     0.169 HD
ATOM     90  O   UNL A   1      33.830  26.445  22.568  1.00  0.00    -0.274 OA
BRANCH  88  91
ATOM     91  C   UNL A   1      33.212  26.107  24.865  1.00  0.00     0.079 C 
ATOM     92  C   UNL A   1      33.722  27.511  25.235  1.00  0.00     0.013 C 
ATOM     93  C   UNL A   1      31.682  26.117  25.000  1.00  0.00     0.013 C 
ATOM     94  C   UNL A   1      33.344  27.852  26.682  1.00  0.00     0.001 C 
ATOM     95  C   UNL A   1      31.301  26.349  26.459  1.00  0.00     0.001 C 
ATOM     96  C   UNL A   1      31.850  27.680  26.962  1.00  0.00     0.000 C 
ENDBRANCH  88  91
ENDBRANCH  82  87
ENDBRANCH  77  80
ENDBRANCH  75  76
ENDBRANCH  74  75
ENDBRANCH   1  74
TORSDOF 15
ENDMDL
MODEL 3
REMARK VINA RESULT:     -12.5      5.122      9.992
REMARK SMILES O=C(NCCCNC(=O)c1c(F)cccc1NC(=O)C1CCCCC1)c1ccc(-c2c3nc(c(-c4c(F)cc(S(=O)(=O)[O-])cc4F)c4ccc([nH]4)c(-c4c(F)cc(S(=O)(=O)[O-])cc4F)c4nc(c(-c5c(F)cc(S(=O)(=O)[O-])cc5F)c5ccc2[nH]5)C=C4)C=C3)cc1
REMARK SMILES IDX 4 1 3 2 1 3 2 4 26 6 27 7 91 8 28 9 90 10 29 11 30 12 31 13
REMARK SMILES IDX 84 14 32 15 89 16 83 17 85 18 33 19 88 20 82 21 81 22 34 24
REMARK SMILES IDX 68 25 47 26 67 27 48 28 51 29 66 30 86 31 49 32 50 33 65 35
REMARK SMILES IDX 87 36 52 37 35 38 36 39 45 40 37 41 38 42 44 43 46 44 39 45
REMARK SMILES IDX 40 46 41 47 42 48 43 49 69 50 70 51 79 52 71 53 72 54 78 55
REMARK SMILES IDX 80 56 73 57 74 58 75 59 76 60 77 61 53 62 54 63 63 64 55 65
REMARK SMILES IDX 56 66 62 67 64 68 57 69 58 70 59 71 60 72 61 73 5 74 6 75
REMARK SMILES IDX 7 76 8 77 9 79 10 80 11 81 16 82 12 83 13 84 15 85 14 86
REMARK SMILES IDX 17 87 18 88 19 90 20 91 21 92 25 93 22 94 24 95 23 96
REMARK H PARENT 3 5 85 23 51 34 7 78 17 89
REMARK Flexibility Score: inf
ROOT
ATOM      1  C   UNL A   1      34.137  28.032  26.451  1.00  0.00     0.118 C 
ENDROOT
BRANCH   1   2
ATOM      2  N   UNL A   1      33.796  29.350  26.970  1.00  0.00    -0.352 N 
ATOM      3  O   UNL A   1      33.969  31.204  28.234  1.00  0.00    -0.269 OA
ATOM      4  C   UNL A   1      34.517  30.205  27.770  1.00  0.00     0.251 C 
ATOM      5  H   UNL A   1      32.907  29.681  26.705  1.00  0.00     0.163 HD
BRANCH   4   6
ATOM      6  C   UNL A   1      35.932  29.918  28.098  1.00  0.00     0.039 A 
ATOM      7  C   UNL A   1      36.944  30.147  27.166  1.00  0.00     0.014 A 
ATOM      8  C   UNL A   1      36.257  29.430  29.369  1.00  0.00     0.014 A 
ATOM      9  C   UNL A   1      38.241  29.728  27.435  1.00  0.00     0.010 A 
ATOM     10  C   UNL A   1      37.585  29.110  29.677  1.00  0.00     0.010 A 
ATOM     11  C   UNL A   1      38.585  29.224  28.700  1.00  0.00    -0.014 A 
BRANCH  11  12
ATOM     12  C   UNL A   1      40.006  28.892  28.982  1.00  0.00     0.031 A 
ATOM     13  C   UNL A   1      40.585  27.553  28.612  1.00  0.00     0.074 A 
ATOM     14  C   UNL A   1      40.793  29.847  29.521  1.00  0.00     0.049 A 
ATOM     15  N   UNL A   1      41.813  27.123  28.756  1.00  0.00    -0.248 NA
ATOM     16  C   UNL A   1      39.677  26.568  28.003  1.00  0.00     0.031 C 
ATOM     17  C   UNL A   1      40.340  31.184  29.917  1.00  0.00     0.029 A 
ATOM     18  N   UNL A   1      42.136  29.860  29.794  1.00  0.00    -0.354 N 
ATOM     19  C   UNL A   1      41.825  25.823  28.267  1.00  0.00     0.074 A 
ATOM     20  C   UNL A   1      40.475  25.520  27.846  1.00  0.00     0.031 C 
ATOM     21  C   UNL A   1      41.396  31.910  30.309  1.00  0.00     0.029 A 
ATOM     22  C   UNL A   1      42.588  31.072  30.265  1.00  0.00     0.049 A 
ATOM     23  H   UNL A   1      42.720  29.079  29.667  1.00  0.00     0.167 HD
ATOM     24  C   UNL A   1      42.872  24.969  28.166  1.00  0.00     0.037 A 
ATOM     25  C   UNL A   1      43.822  31.465  30.632  1.00  0.00     0.037 A 
ATOM     26  C   UNL A   1      44.219  25.286  28.573  1.00  0.00     0.049 A 
ATOM     27  C   UNL A   1      44.953  30.482  30.549  1.00  0.00     0.074 A 
ATOM     28  C   UNL A   1      45.345  24.485  28.513  1.00  0.00     0.029 A 
ATOM     29  N   UNL A   1      44.623  26.503  29.104  1.00  0.00    -0.354 N 
ATOM     30  N   UNL A   1      44.938  29.250  30.099  1.00  0.00    -0.248 NA
ATOM     31  C   UNL A   1      46.262  30.933  31.037  1.00  0.00     0.031 C 
ATOM     32  C   UNL A   1      46.425  25.203  29.039  1.00  0.00     0.029 A 
ATOM     33  C   UNL A   1      45.979  26.468  29.388  1.00  0.00     0.049 A 
ATOM     34  H   UNL A   1      44.034  27.277  29.258  1.00  0.00     0.167 HD
ATOM     35  C   UNL A   1      46.238  28.782  30.240  1.00  0.00     0.074 A 
ATOM     36  C   UNL A   1      47.017  29.870  30.798  1.00  0.00     0.031 C 
ATOM     37  C   UNL A   1      46.739  27.560  29.941  1.00  0.00     0.037 A 
BRANCH  24  38
ATOM     38  C   UNL A   1      42.623  23.601  27.590  1.00  0.00     0.058 A 
ATOM     39  C   UNL A   1      42.377  22.504  28.431  1.00  0.00     0.135 A 
ATOM     40  C   UNL A   1      42.730  23.358  26.212  1.00  0.00     0.135 A 
ATOM     41  F   UNL A   1      42.260  22.681  29.757  1.00  0.00    -0.206 F 
ATOM     42  C   UNL A   1      42.270  21.211  27.929  1.00  0.00     0.059 A 
ATOM     43  C   UNL A   1      42.606  22.076  25.685  1.00  0.00     0.059 A 
ATOM     44  F   UNL A   1      42.943  24.375  25.362  1.00  0.00    -0.206 F 
ATOM     45  C   UNL A   1      42.394  21.005  26.554  1.00  0.00     0.060 A 
BRANCH  45  46
ATOM     46  S   UNL A   1      42.251  19.321  25.917  1.00  0.00     0.124 S 
ATOM     47  O   UNL A   1      43.108  19.371  24.739  1.00  0.00    -0.237 OA
ATOM     48  O   UNL A   1      42.751  18.528  27.037  1.00  0.00    -0.237 OA
ATOM     49  O   UNL A   1      40.822  19.180  25.653  1.00  0.00    -0.744 OA
ENDBRANCH  45  46
ENDBRANCH  24  38
BRANCH  25  50
ATOM     50  C   UNL A   1      44.045  32.855  31.109  1.00  0.00     0.058 A 
ATOM     51  C   UNL A   1      44.373  33.888  30.217  1.00  0.00     0.135 A 
ATOM     52  C   UNL A   1      43.957  33.172  32.472  1.00  0.00     0.135 A 
ATOM     53  F   UNL A   1      44.480  33.634  28.903  1.00  0.00    -0.206 F 
ATOM     54  C   UNL A   1      44.630  35.179  30.660  1.00  0.00     0.059 A 
ATOM     55  C   UNL A   1      44.182  34.465  32.938  1.00  0.00     0.059 A 
ATOM     56  F   UNL A   1      43.636  32.221  33.362  1.00  0.00    -0.206 F 
ATOM     57  C   UNL A   1      44.533  35.458  32.023  1.00  0.00     0.060 A 
BRANCH  57  58
ATOM     58  S   UNL A   1      44.856  37.145  32.578  1.00  0.00     0.124 S 
ATOM     59  O   UNL A   1      44.125  37.924  31.584  1.00  0.00    -0.237 OA
ATOM     60  O   UNL A   1      44.290  37.140  33.924  1.00  0.00    -0.237 OA
ATOM     61  O   UNL A   1      46.311  37.247  32.514  1.00  0.00    -0.744 OA
ENDBRANCH  57  58
ENDBRANCH  25  50
BRANCH  37  62
ATOM     62  C   UNL A   1      48.202  27.334  30.194  1.00  0.00     0.058 A 
ATOM     63  C   UNL A   1      49.151  27.642  29.207  1.00  0.00     0.135 A 
ATOM     64  C   UNL A   1      48.657  26.760  31.390  1.00  0.00     0.135 A 
ATOM     65  F   UNL A   1      48.766  28.192  28.045  1.00  0.00    -0.206 F 
ATOM     66  C   UNL A   1      50.503  27.375  29.393  1.00  0.00     0.059 A 
ATOM     67  C   UNL A   1      50.008  26.506  31.608  1.00  0.00     0.059 A 
ATOM     68  F   UNL A   1      47.788  26.460  32.369  1.00  0.00    -0.206 F 
ATOM     69  C   UNL A   1      50.921  26.803  30.596  1.00  0.00     0.060 A 
BRANCH  69  70
ATOM     70  S   UNL A   1      52.682  26.478  30.829  1.00  0.00     0.124 S 
ATOM     71  O   UNL A   1      53.130  27.710  31.470  1.00  0.00    -0.237 OA
ATOM     72  O   UNL A   1      52.667  25.290  31.677  1.00  0.00    -0.237 OA
ATOM     73  O   UNL A   1      53.169  26.264  29.470  1.00  0.00    -0.744 OA
ENDBRANCH  69  70
ENDBRANCH  37  62
ENDBRANCH  11  12
ENDBRANCH   4   6
ENDBRANCH   1   2
BRANCH   1  74
ATOM     74  C   UNL A   1      33.017  27.016  26.625  1.00  0.00     0.042 C 
BRANCH  74  75
ATOM     75  C   UNL A   1      31.639  27.630  26.819  1.00  0.00     0.118 C 
BRANCH  75  76
ATOM     76  N   UNL A   1      30.625  26.979  26.003  1.00  0.00    -0.352 N 
ATOM     77  C   UNL A   1      30.546  26.841  24.642  1.00  0.00     0.256 C 
ATOM     78  H   UNL A   1      29.883  26.576  26.506  1.00  0.00     0.163 HD
ATOM     79  O   UNL A   1      29.516  26.402  24.135  1.00  0.00    -0.269 OA
BRANCH  77  80
ATOM     80  C   UNL A   1      31.650  27.252  23.756  1.00  0.00     0.099 A 
ATOM     81  C   UNL A   1      31.913  28.614  23.576  1.00  0.00     0.138 A 
ATOM     82  C   UNL A   1      32.461  26.281  23.125  1.00  0.00     0.057 A 
ATOM     83  F   UNL A   1      31.179  29.550  24.196  1.00  0.00    -0.206 F 
ATOM     84  C   UNL A   1      32.934  29.043  22.737  1.00  0.00     0.040 A 
ATOM     85  C   UNL A   1      33.540  26.737  22.358  1.00  0.00     0.027 A 
ATOM     86  C   UNL A   1      33.757  28.102  22.136  1.00  0.00     0.005 A 
BRANCH  82  87
ATOM     87  N   UNL A   1      32.153  24.908  23.298  1.00  0.00    -0.325 N 
ATOM     88  C   UNL A   1      32.862  23.809  23.709  1.00  0.00     0.227 C 
ATOM     89  H   UNL A   1      31.218  24.694  23.072  1.00  0.00     0.169 HD
ATOM     90  O   UNL A   1      32.248  22.746  23.831  1.00  0.00    -0.274 OA
BRANCH  88  91
ATOM     91  C   UNL A   1      34.360  23.880  23.988  1.00  0.00     0.079 C 
ATOM     92  C   UNL A   1      34.702  23.818  25.488  1.00  0.00     0.013 C 
ATOM     93  C   UNL A   1      35.151  22.768  23.284  1.00  0.00     0.013 C 
ATOM     94  C   UNL A   1      36.202  24.049  25.703  1.00  0.00     0.001 C 
ATOM     95  C   UNL A   1      36.645  23.052  23.403  1.00  0.00     0.001 C 
ATOM     96  C   UNL A   1      37.075  23.113  24.865  1.00  0.00     0.000 C 
ENDBRANCH  88  91
ENDBRANCH  82  87
ENDBRANCH  77  80
ENDBRANCH  75  76
ENDBRANCH  74  75
ENDBRANCH   1  74
TORSDOF 15
ENDMDL
