MODEL 1
REMARK VINA RESULT:     -12.5      0.000      0.000
REMARK SMILES CCSc1ccc(-c2cc(Cl)cc3c2O[C@H](C(F)(F)F)C(C(=O)NCCCNC(=O)c2ccc(-c4c5nc(c(-c6c(F)cc(S(=O)(=O)[O-])cc6F)c6ccc([nH]6)c(-c6c(F)cc(S(=O)(=O)[O-])cc6F)c6nc(c(-c7c(F)cc(S(=O)(=O)[O-])cc7F)c7ccc4[nH]7)C=C6)C=C5)cc2)=C3)cc1
REMARK SMILES IDX 26 1 25 2 24 3 22 4 23 5 21 7 8 8 9 9 14 10 10 11 13 12
REMARK SMILES IDX 15 13 11 14 12 15 97 16 16 17 7 18 4 19 5 20 99 21 6 22
REMARK SMILES IDX 98 23 3 24 2 25 1 26 17 27 18 28 19 29 20 30 27 31 28 32
REMARK SMILES IDX 29 33 30 35 31 36 32 37 96 38 33 39 95 40 34 41 35 42 36 43
REMARK SMILES IDX 89 44 37 45 94 46 88 47 90 48 38 49 93 50 87 51 86 52 39 54
REMARK SMILES IDX 73 55 52 56 72 57 53 58 56 59 71 60 91 61 54 62 55 63 70 65
REMARK SMILES IDX 92 66 57 67 40 68 41 69 50 70 42 71 43 72 49 73 51 74 44 75
REMARK SMILES IDX 45 76 46 77 47 78 48 79 74 80 75 81 84 82 76 83 77 84 83 85
REMARK SMILES IDX 85 86 78 87 79 88 80 89 81 90 82 91 58 92 59 93 68 94 60 95
REMARK SMILES IDX 61 96 67 97 69 98 62 99 63 100 64 101 65 102 66 103
REMARK H PARENT 24 6 28 34 90 53 56 64
REMARK Flexibility Score: inf
ROOT
ATOM      1  C   UNL A   1      34.219  30.567  26.990  1.00  0.00     0.042 C 
ENDROOT
BRANCH   1   2
ATOM      2  C   UNL A   1      33.419  29.671  26.039  1.00  0.00     0.118 C 
BRANCH   2   3
ATOM      3  N   UNL A   1      33.162  28.385  26.656  1.00  0.00    -0.352 N 
ATOM      4  C   UNL A   1      32.151  27.526  26.381  1.00  0.00     0.251 C 
ATOM      5  O   UNL A   1      31.613  26.915  27.298  1.00  0.00    -0.270 OA
ATOM      6  H   UNL A   1      33.796  28.103  27.354  1.00  0.00     0.163 HD
BRANCH   4   7
ATOM      7  C   UNL A   1      31.854  27.251  24.943  1.00  0.00     0.067 C 
ATOM      8  C   UNL A   1      32.750  23.273  24.827  1.00  0.00     0.026 A 
ATOM      9  C   UNL A   1      33.963  23.123  25.549  1.00  0.00     0.033 A 
ATOM     10  C   UNL A   1      32.389  24.594  24.491  1.00  0.00     0.135 A 
ATOM     11  C   UNL A   1      34.859  24.173  25.740  1.00  0.00     0.042 A 
ATOM     12  C   UNL A   1      33.365  25.620  24.587  1.00  0.00     0.019 A 
ATOM     13  O   UNL A   1      31.105  24.976  24.120  1.00  0.00    -0.475 OA
ATOM     14  Cl  UNL A   1      36.308  23.906  26.623  1.00  0.00    -0.084 Cl
ATOM     15  C   UNL A   1      34.603  25.411  25.187  1.00  0.00     0.032 A 
ATOM     16  C   UNL A   1      32.965  26.997  24.224  1.00  0.00     0.025 C 
ATOM     17  C   UNL A   1      30.689  26.305  24.682  1.00  0.00     0.314 C 
BRANCH   8  18
ATOM     18  C   UNL A   1      32.196  21.992  24.294  1.00  0.00    -0.015 A 
ATOM     19  C   UNL A   1      32.337  19.363  23.147  1.00  0.00     0.007 A 
ATOM     20  C   UNL A   1      32.252  19.532  24.527  1.00  0.00     0.015 A 
ATOM     21  C   UNL A   1      32.207  20.509  22.346  1.00  0.00     0.015 A 
ATOM     22  C   UNL A   1      32.164  20.823  25.088  1.00  0.00     0.010 A 
ATOM     23  C   UNL A   1      32.131  21.799  22.906  1.00  0.00     0.010 A 
BRANCH  19  24
ATOM     24  S   UNL A   1      32.521  17.790  22.310  1.00  0.00    -0.126 SA
BRANCH  24  25
ATOM     25  C   UNL A   1      33.974  16.972  23.079  1.00  0.00     0.071 C 
ATOM     26  C   UNL A   1      33.614  16.115  24.283  1.00  0.00     0.016 C 
ENDBRANCH  24  25
ENDBRANCH  19  24
ENDBRANCH   8  18
BRANCH  17  27
ATOM     27  C   UNL A   1      29.686  27.041  23.760  1.00  0.00     0.429 C 
ATOM     28  F   UNL A   1      30.041  26.994  22.457  1.00  0.00    -0.167 F 
ATOM     29  F   UNL A   1      28.442  26.516  23.867  1.00  0.00    -0.167 F 
ATOM     30  F   UNL A   1      29.564  28.361  24.073  1.00  0.00    -0.167 F 
ENDBRANCH  17  27
ENDBRANCH   4   7
ENDBRANCH   2   3
ENDBRANCH   1   2
BRANCH   1  31
ATOM     31  C   UNL A   1      35.176  29.829  27.927  1.00  0.00     0.118 C 
BRANCH  31  32
ATOM     32  N   UNL A   1      35.307  30.463  29.227  1.00  0.00    -0.352 N 
ATOM     33  C   UNL A   1      36.384  30.502  30.076  1.00  0.00     0.251 C 
ATOM     34  H   UNL A   1      34.504  30.936  29.547  1.00  0.00     0.163 HD
ATOM     35  O   UNL A   1      36.239  30.967  31.210  1.00  0.00    -0.269 OA
BRANCH  33  36
ATOM     36  C   UNL A   1      37.699  29.968  29.659  1.00  0.00     0.039 A 
ATOM     37  C   UNL A   1      38.055  30.045  28.311  1.00  0.00     0.014 A 
ATOM     38  C   UNL A   1      38.577  29.384  30.579  1.00  0.00     0.014 A 
ATOM     39  C   UNL A   1      39.311  29.599  27.898  1.00  0.00     0.010 A 
ATOM     40  C   UNL A   1      39.863  29.017  30.179  1.00  0.00     0.010 A 
ATOM     41  C   UNL A   1      40.246  29.120  28.834  1.00  0.00    -0.014 A 
BRANCH  41  42
ATOM     42  C   UNL A   1      41.623  28.753  28.404  1.00  0.00     0.031 A 
ATOM     43  C   UNL A   1      42.716  29.790  28.347  1.00  0.00     0.074 A 
ATOM     44  C   UNL A   1      41.883  27.479  28.048  1.00  0.00     0.049 A 
ATOM     45  N   UNL A   1      43.973  29.642  28.013  1.00  0.00    -0.248 NA
ATOM     46  C   UNL A   1      42.348  31.175  28.685  1.00  0.00     0.031 C 
ATOM     47  C   UNL A   1      40.894  26.397  27.995  1.00  0.00     0.029 A 
ATOM     48  N   UNL A   1      43.053  26.870  27.668  1.00  0.00    -0.354 N 
ATOM     49  C   UNL A   1      44.545  30.906  28.110  1.00  0.00     0.074 A 
ATOM     50  C   UNL A   1      43.484  31.822  28.464  1.00  0.00     0.031 C 
ATOM     51  C   UNL A   1      41.506  25.255  27.645  1.00  0.00     0.029 A 
ATOM     52  C   UNL A   1      42.920  25.524  27.410  1.00  0.00     0.049 A 
ATOM     53  H   UNL A   1      43.909  27.351  27.587  1.00  0.00     0.167 HD
ATOM     54  C   UNL A   1      45.842  31.265  27.952  1.00  0.00     0.037 A 
ATOM     55  C   UNL A   1      43.832  24.610  27.027  1.00  0.00     0.037 A 
ATOM     56  C   UNL A   1      46.900  30.347  27.612  1.00  0.00     0.049 A 
ATOM     57  C   UNL A   1      45.266  25.040  26.859  1.00  0.00     0.074 A 
ATOM     58  C   UNL A   1      48.251  30.607  27.463  1.00  0.00     0.029 A 
ATOM     59  N   UNL A   1      46.728  28.991  27.373  1.00  0.00    -0.354 N 
ATOM     60  N   UNL A   1      45.796  26.229  27.022  1.00  0.00    -0.248 NA
ATOM     61  C   UNL A   1      46.227  24.001  26.466  1.00  0.00     0.031 C 
ATOM     62  C   UNL A   1      48.889  29.419  27.092  1.00  0.00     0.029 A 
ATOM     63  C   UNL A   1      47.945  28.406  27.062  1.00  0.00     0.049 A 
ATOM     64  H   UNL A   1      45.867  28.514  27.416  1.00  0.00     0.167 HD
ATOM     65  C   UNL A   1      47.156  26.073  26.775  1.00  0.00     0.074 A 
ATOM     66  C   UNL A   1      47.370  24.671  26.487  1.00  0.00     0.031 C 
ATOM     67  C   UNL A   1      48.141  27.007  26.778  1.00  0.00     0.037 A 
BRANCH  54  68
ATOM     68  C   UNL A   1      46.207  32.710  28.175  1.00  0.00     0.058 A 
ATOM     69  C   UNL A   1      46.675  33.160  29.420  1.00  0.00     0.135 A 
ATOM     70  C   UNL A   1      46.165  33.635  27.120  1.00  0.00     0.135 A 
ATOM     71  F   UNL A   1      46.719  32.323  30.470  1.00  0.00    -0.206 F 
ATOM     72  C   UNL A   1      47.083  34.475  29.613  1.00  0.00     0.059 A 
ATOM     73  C   UNL A   1      46.594  34.950  27.283  1.00  0.00     0.059 A 
ATOM     74  F   UNL A   1      45.722  33.260  25.910  1.00  0.00    -0.206 F 
ATOM     75  C   UNL A   1      47.047  35.362  28.536  1.00  0.00     0.060 A 
BRANCH  75  76
ATOM     76  S   UNL A   1      47.628  37.051  28.794  1.00  0.00     0.124 S 
ATOM     77  O   UNL A   1      46.632  37.562  29.733  1.00  0.00    -0.237 OA
ATOM     78  O   UNL A   1      48.964  36.839  29.342  1.00  0.00    -0.237 OA
ATOM     79  O   UNL A   1      47.586  37.636  27.458  1.00  0.00    -0.744 OA
ENDBRANCH  75  76
ENDBRANCH  54  68
BRANCH  55  80
ATOM     80  C   UNL A   1      43.431  23.196  26.781  1.00  0.00     0.058 A 
ATOM     81  C   UNL A   1      43.097  22.337  27.840  1.00  0.00     0.135 A 
ATOM     82  C   UNL A   1      43.411  22.665  25.483  1.00  0.00     0.135 A 
ATOM     83  F   UNL A   1      43.101  22.796  29.102  1.00  0.00    -0.206 F 
ATOM     84  C   UNL A   1      42.805  20.994  27.628  1.00  0.00     0.059 A 
ATOM     85  C   UNL A   1      43.088  21.333  25.241  1.00  0.00     0.059 A 
ATOM     86  F   UNL A   1      43.699  23.445  24.430  1.00  0.00    -0.206 F 
ATOM     87  C   UNL A   1      42.810  20.499  26.323  1.00  0.00     0.060 A 
BRANCH  87  88
ATOM     88  S   UNL A   1      42.434  18.754  26.054  1.00  0.00     0.124 S 
ATOM     89  O   UNL A   1      41.033  18.815  25.655  1.00  0.00    -0.237 OA
ATOM     90  O   UNL A   1      43.383  18.393  25.006  1.00  0.00    -0.237 OA
ATOM     91  O   UNL A   1      42.694  18.152  27.358  1.00  0.00    -0.744 OA
ENDBRANCH  87  88
ENDBRANCH  55  80
BRANCH  67  92
ATOM     92  C   UNL A   1      49.538  26.527  26.489  1.00  0.00     0.058 A 
ATOM     93  C   UNL A   1      50.080  26.568  25.194  1.00  0.00     0.135 A 
ATOM     94  C   UNL A   1      50.345  26.019  27.519  1.00  0.00     0.135 A 
ATOM     95  F   UNL A   1      49.352  27.043  24.171  1.00  0.00    -0.206 F 
ATOM     96  C   UNL A   1      51.350  26.072  24.922  1.00  0.00     0.059 A 
ATOM     97  C   UNL A   1      51.633  25.551  27.277  1.00  0.00     0.059 A 
ATOM     98  F   UNL A   1      49.885  25.972  28.780  1.00  0.00    -0.206 F 
ATOM     99  C   UNL A   1      52.116  25.559  25.969  1.00  0.00     0.060 A 
BRANCH  99 100
ATOM    100  S   UNL A   1      53.757  24.903  25.600  1.00  0.00     0.124 S 
ATOM    101  O   UNL A   1      54.453  25.127  26.863  1.00  0.00    -0.237 OA
ATOM    102  O   UNL A   1      53.470  23.509  25.273  1.00  0.00    -0.237 OA
ATOM    103  O   UNL A   1      54.207  25.724  24.481  1.00  0.00    -0.744 OA
ENDBRANCH  99 100
ENDBRANCH  67  92
ENDBRANCH  41  42
ENDBRANCH  33  36
ENDBRANCH  31  32
ENDBRANCH   1  31
TORSDOF 17
ENDMDL
MODEL 2
REMARK VINA RESULT:     -12.5      3.000      9.067
REMARK SMILES CCSc1ccc(-c2cc(Cl)cc3c2O[C@H](C(F)(F)F)C(C(=O)NCCCNC(=O)c2ccc(-c4c5nc(c(-c6c(F)cc(S(=O)(=O)[O-])cc6F)c6ccc([nH]6)c(-c6c(F)cc(S(=O)(=O)[O-])cc6F)c6nc(c(-c7c(F)cc(S(=O)(=O)[O-])cc7F)c7ccc4[nH]7)C=C6)C=C5)cc2)=C3)cc1
REMARK SMILES IDX 26 1 25 2 24 3 22 4 23 5 21 7 8 8 9 9 14 10 10 11 13 12
REMARK SMILES IDX 15 13 11 14 12 15 97 16 16 17 7 18 4 19 5 20 99 21 6 22
REMARK SMILES IDX 98 23 3 24 2 25 1 26 17 27 18 28 19 29 20 30 27 31 28 32
REMARK SMILES IDX 29 33 30 35 31 36 32 37 96 38 33 39 95 40 34 41 35 42 36 43
REMARK SMILES IDX 89 44 37 45 94 46 88 47 90 48 38 49 93 50 87 51 86 52 39 54
REMARK SMILES IDX 73 55 52 56 72 57 53 58 56 59 71 60 91 61 54 62 55 63 70 65
REMARK SMILES IDX 92 66 57 67 40 68 41 69 50 70 42 71 43 72 49 73 51 74 44 75
REMARK SMILES IDX 45 76 46 77 47 78 48 79 74 80 75 81 84 82 76 83 77 84 83 85
REMARK SMILES IDX 85 86 78 87 79 88 80 89 81 90 82 91 58 92 59 93 68 94 60 95
REMARK SMILES IDX 61 96 67 97 69 98 62 99 63 100 64 101 65 102 66 103
REMARK H PARENT 24 6 28 34 90 53 56 64
REMARK Flexibility Score: inf
ROOT
ATOM      1  C   UNL A   1      37.525  20.623  24.990  1.00  0.00     0.042 C 
ENDROOT
BRANCH   1   2
ATOM      2  C   UNL A   1      36.251  21.309  25.495  1.00  0.00     0.118 C 
BRANCH   2   3
ATOM      3  N   UNL A   1      36.140  22.641  24.932  1.00  0.00    -0.352 N 
ATOM      4  C   UNL A   1      35.264  23.067  23.990  1.00  0.00     0.251 C 
ATOM      5  O   UNL A   1      35.641  23.852  23.127  1.00  0.00    -0.270 OA
ATOM      6  H   UNL A   1      36.774  23.312  25.273  1.00  0.00     0.163 HD
BRANCH   4   7
ATOM      7  C   UNL A   1      33.833  22.674  24.155  1.00  0.00     0.067 C 
ATOM      8  C   UNL A   1      32.091  26.348  23.828  1.00  0.00     0.026 A 
ATOM      9  C   UNL A   1      32.887  27.229  24.606  1.00  0.00     0.033 A 
ATOM     10  C   UNL A   1      32.332  24.971  24.013  1.00  0.00     0.135 A 
ATOM     11  C   UNL A   1      33.708  26.786  25.641  1.00  0.00     0.042 A 
ATOM     12  C   UNL A   1      33.075  24.548  25.146  1.00  0.00     0.019 A 
ATOM     13  O   UNL A   1      31.933  23.988  23.114  1.00  0.00    -0.475 OA
ATOM     14  Cl  UNL A   1      34.636  27.920  26.538  1.00  0.00    -0.084 Cl
ATOM     15  C   UNL A   1      33.741  25.447  25.971  1.00  0.00     0.032 A 
ATOM     16  C   UNL A   1      33.309  23.098  25.322  1.00  0.00     0.025 C 
ATOM     17  C   UNL A   1      32.946  22.893  22.936  1.00  0.00     0.314 C 
BRANCH   8  18
ATOM     18  C   UNL A   1      30.936  27.009  23.149  1.00  0.00    -0.015 A 
ATOM     19  C   UNL A   1      28.861  28.970  22.844  1.00  0.00     0.007 A 
ATOM     20  C   UNL A   1      30.103  29.150  22.237  1.00  0.00     0.015 A 
ATOM     21  C   UNL A   1      28.624  27.742  23.481  1.00  0.00     0.015 A 
ATOM     22  C   UNL A   1      31.115  28.176  22.373  1.00  0.00     0.010 A 
ATOM     23  C   UNL A   1      29.638  26.776  23.626  1.00  0.00     0.010 A 
BRANCH  19  24
ATOM     24  S   UNL A   1      27.517  30.154  22.808  1.00  0.00    -0.126 SA
BRANCH  24  25
ATOM     25  C   UNL A   1      28.197  31.717  23.490  1.00  0.00     0.071 C 
ATOM     26  C   UNL A   1      28.694  32.675  22.417  1.00  0.00     0.016 C 
ENDBRANCH  24  25
ENDBRANCH  19  24
ENDBRANCH   8  18
BRANCH  17  27
ATOM     27  C   UNL A   1      32.286  21.537  22.586  1.00  0.00     0.429 C 
ATOM     28  F   UNL A   1      32.836  20.500  23.255  1.00  0.00    -0.167 F 
ATOM     29  F   UNL A   1      30.960  21.549  22.862  1.00  0.00    -0.167 F 
ATOM     30  F   UNL A   1      32.391  21.233  21.263  1.00  0.00    -0.167 F 
ENDBRANCH  17  27
ENDBRANCH   4   7
ENDBRANCH   2   3
ENDBRANCH   1   2
BRANCH   1  31
ATOM     31  C   UNL A   1      38.799  20.973  25.760  1.00  0.00     0.118 C 
BRANCH  31  32
ATOM     32  N   UNL A   1      39.717  19.854  25.885  1.00  0.00    -0.352 N 
ATOM     33  C   UNL A   1      41.066  19.853  26.137  1.00  0.00     0.251 C 
ATOM     34  H   UNL A   1      39.312  18.963  25.773  1.00  0.00     0.163 HD
ATOM     35  O   UNL A   1      41.693  18.794  26.050  1.00  0.00    -0.269 OA
BRANCH  33  36
ATOM     36  C   UNL A   1      41.775  21.106  26.477  1.00  0.00     0.039 A 
ATOM     37  C   UNL A   1      42.130  21.975  25.443  1.00  0.00     0.014 A 
ATOM     38  C   UNL A   1      42.100  21.428  27.799  1.00  0.00     0.014 A 
ATOM     39  C   UNL A   1      42.750  23.189  25.739  1.00  0.00     0.010 A 
ATOM     40  C   UNL A   1      42.642  22.678  28.099  1.00  0.00     0.010 A 
ATOM     41  C   UNL A   1      42.974  23.574  27.074  1.00  0.00    -0.014 A 
BRANCH  41  42
ATOM     42  C   UNL A   1      43.530  24.919  27.388  1.00  0.00     0.031 A 
ATOM     43  C   UNL A   1      44.990  25.221  27.168  1.00  0.00     0.074 A 
ATOM     44  C   UNL A   1      42.713  25.867  27.891  1.00  0.00     0.049 A 
ATOM     45  N   UNL A   1      45.638  26.341  27.370  1.00  0.00    -0.248 NA
ATOM     46  C   UNL A   1      45.839  24.122  26.680  1.00  0.00     0.031 C 
ATOM     47  C   UNL A   1      41.296  25.677  28.213  1.00  0.00     0.029 A 
ATOM     48  N   UNL A   1      42.949  27.180  28.215  1.00  0.00    -0.354 N 
ATOM     49  C   UNL A   1      46.961  26.084  27.027  1.00  0.00     0.074 A 
ATOM     50  C   UNL A   1      47.039  24.685  26.671  1.00  0.00     0.031 C 
ATOM     51  C   UNL A   1      40.782  26.838  28.650  1.00  0.00     0.029 A 
ATOM     52  C   UNL A   1      41.835  27.845  28.677  1.00  0.00     0.049 A 
ATOM     53  H   UNL A   1      43.832  27.606  28.126  1.00  0.00     0.167 HD
ATOM     54  C   UNL A   1      48.007  26.944  26.979  1.00  0.00     0.037 A 
ATOM     55  C   UNL A   1      41.680  29.122  29.078  1.00  0.00     0.037 A 
ATOM     56  C   UNL A   1      47.923  28.341  27.321  1.00  0.00     0.049 A 
ATOM     57  C   UNL A   1      42.862  30.053  29.015  1.00  0.00     0.074 A 
ATOM     58  C   UNL A   1      48.919  29.301  27.272  1.00  0.00     0.029 A 
ATOM     59  N   UNL A   1      46.776  28.980  27.771  1.00  0.00    -0.354 N 
ATOM     60  N   UNL A   1      44.089  29.804  28.622  1.00  0.00    -0.248 NA
ATOM     61  C   UNL A   1      42.636  31.441  29.437  1.00  0.00     0.031 C 
ATOM     62  C   UNL A   1      48.386  30.510  27.733  1.00  0.00     0.029 A 
ATOM     63  C   UNL A   1      47.045  30.317  28.018  1.00  0.00     0.049 A 
ATOM     64  H   UNL A   1      45.901  28.547  27.897  1.00  0.00     0.167 HD
ATOM     65  C   UNL A   1      44.773  31.011  28.727  1.00  0.00     0.074 A 
ATOM     66  C   UNL A   1      43.814  31.994  29.187  1.00  0.00     0.031 C 
ATOM     67  C   UNL A   1      46.078  31.283  28.475  1.00  0.00     0.037 A 
BRANCH  54  68
ATOM     68  C   UNL A   1      49.336  26.411  26.509  1.00  0.00     0.058 A 
ATOM     69  C   UNL A   1      49.779  26.614  25.192  1.00  0.00     0.135 A 
ATOM     70  C   UNL A   1      50.210  25.766  27.399  1.00  0.00     0.135 A 
ATOM     71  F   UNL A   1      48.978  27.209  24.292  1.00  0.00    -0.206 F 
ATOM     72  C   UNL A   1      51.035  26.190  24.772  1.00  0.00     0.059 A 
ATOM     73  C   UNL A   1      51.483  25.358  27.008  1.00  0.00     0.059 A 
ATOM     74  F   UNL A   1      49.837  25.543  28.669  1.00  0.00    -0.206 F 
ATOM     75  C   UNL A   1      51.884  25.570  25.690  1.00  0.00     0.060 A 
BRANCH  75  76
ATOM     76  S   UNL A   1      53.529  25.073  25.138  1.00  0.00     0.124 S 
ATOM     77  O   UNL A   1      53.523  25.531  23.752  1.00  0.00    -0.237 OA
ATOM     78  O   UNL A   1      54.398  25.815  26.046  1.00  0.00    -0.237 OA
ATOM     79  O   UNL A   1      53.527  23.624  25.319  1.00  0.00    -0.744 OA
ENDBRANCH  75  76
ENDBRANCH  54  68
BRANCH  55  80
ATOM     80  C   UNL A   1      40.360  29.606  29.570  1.00  0.00     0.058 A 
ATOM     81  C   UNL A   1      39.303  29.870  28.684  1.00  0.00     0.135 A 
ATOM     82  C   UNL A   1      40.141  29.853  30.933  1.00  0.00     0.135 A 
ATOM     83  F   UNL A   1      39.461  29.651  27.369  1.00  0.00    -0.206 F 
ATOM     84  C   UNL A   1      38.096  30.404  29.124  1.00  0.00     0.059 A 
ATOM     85  C   UNL A   1      38.931  30.354  31.403  1.00  0.00     0.059 A 
ATOM     86  F   UNL A   1      41.108  29.598  31.828  1.00  0.00    -0.206 F 
ATOM     87  C   UNL A   1      37.922  30.648  30.487  1.00  0.00     0.060 A 
BRANCH  87  88
ATOM     88  S   UNL A   1      36.355  31.345  31.052  1.00  0.00     0.124 S 
ATOM     89  O   UNL A   1      35.567  31.323  29.825  1.00  0.00    -0.237 OA
ATOM     90  O   UNL A   1      35.954  30.398  32.088  1.00  0.00    -0.237 OA
ATOM     91  O   UNL A   1      36.734  32.669  31.537  1.00  0.00    -0.744 OA
ENDBRANCH  87  88
ENDBRANCH  55  80
BRANCH  67  92
ATOM     92  C   UNL A   1      46.528  32.707  28.665  1.00  0.00     0.058 A 
ATOM     93  C   UNL A   1      47.017  33.169  29.898  1.00  0.00     0.135 A 
ATOM     94  C   UNL A   1      46.469  33.621  27.601  1.00  0.00     0.135 A 
ATOM     95  F   UNL A   1      47.094  32.337  30.949  1.00  0.00    -0.206 F 
ATOM     96  C   UNL A   1      47.379  34.499  30.084  1.00  0.00     0.059 A 
ATOM     97  C   UNL A   1      46.860  34.947  27.754  1.00  0.00     0.059 A 
ATOM     98  F   UNL A   1      46.026  33.230  26.395  1.00  0.00    -0.206 F 
ATOM     99  C   UNL A   1      47.290  35.382  29.007  1.00  0.00     0.060 A 
BRANCH  99 100
ATOM    100  S   UNL A   1      47.747  37.109  29.266  1.00  0.00     0.124 S 
ATOM    101  O   UNL A   1      47.238  37.348  30.613  1.00  0.00    -0.237 OA
ATOM    102  O   UNL A   1      49.200  37.071  29.134  1.00  0.00    -0.237 OA
ATOM    103  O   UNL A   1      47.044  37.810  28.196  1.00  0.00    -0.744 OA
ENDBRANCH  99 100
ENDBRANCH  67  92
ENDBRANCH  41  42
ENDBRANCH  33  36
ENDBRANCH  31  32
ENDBRANCH   1  31
TORSDOF 17
ENDMDL
MODEL 3
REMARK VINA RESULT:     -12.3      6.664     12.093
REMARK SMILES CCSc1ccc(-c2cc(Cl)cc3c2O[C@H](C(F)(F)F)C(C(=O)NCCCNC(=O)c2ccc(-c4c5nc(c(-c6c(F)cc(S(=O)(=O)[O-])cc6F)c6ccc([nH]6)c(-c6c(F)cc(S(=O)(=O)[O-])cc6F)c6nc(c(-c7c(F)cc(S(=O)(=O)[O-])cc7F)c7ccc4[nH]7)C=C6)C=C5)cc2)=C3)cc1
REMARK SMILES IDX 26 1 25 2 24 3 22 4 23 5 21 7 8 8 9 9 14 10 10 11 13 12
REMARK SMILES IDX 15 13 11 14 12 15 97 16 16 17 7 18 4 19 5 20 99 21 6 22
REMARK SMILES IDX 98 23 3 24 2 25 1 26 17 27 18 28 19 29 20 30 27 31 28 32
REMARK SMILES IDX 29 33 30 35 31 36 32 37 96 38 33 39 95 40 34 41 35 42 36 43
REMARK SMILES IDX 89 44 37 45 94 46 88 47 90 48 38 49 93 50 87 51 86 52 39 54
REMARK SMILES IDX 73 55 52 56 72 57 53 58 56 59 71 60 91 61 54 62 55 63 70 65
REMARK SMILES IDX 92 66 57 67 40 68 41 69 50 70 42 71 43 72 49 73 51 74 44 75
REMARK SMILES IDX 45 76 46 77 47 78 48 79 74 80 75 81 84 82 76 83 77 84 83 85
REMARK SMILES IDX 85 86 78 87 79 88 80 89 81 90 82 91 58 92 59 93 68 94 60 95
REMARK SMILES IDX 61 96 67 97 69 98 62 99 63 100 64 101 65 102 66 103
REMARK H PARENT 24 6 28 34 90 53 56 64
REMARK Flexibility Score: inf
ROOT
ATOM      1  C   UNL A   1      38.261  22.460  26.355  1.00  0.00     0.042 C 
ENDROOT
BRANCH   1   2
ATOM      2  C   UNL A   1      36.765  22.450  26.024  1.00  0.00     0.118 C 
BRANCH   2   3
ATOM      3  N   UNL A   1      36.471  23.425  24.993  1.00  0.00    -0.352 N 
ATOM      4  C   UNL A   1      35.529  23.340  24.023  1.00  0.00     0.251 C 
ATOM      5  O   UNL A   1      35.784  23.753  22.896  1.00  0.00    -0.270 OA
ATOM      6  H   UNL A   1      37.019  24.243  24.998  1.00  0.00     0.163 HD
BRANCH   4   7
ATOM      7  C   UNL A   1      34.164  22.888  24.427  1.00  0.00     0.067 C 
ATOM      8  C   UNL A   1      32.109  26.361  23.834  1.00  0.00     0.026 A 
ATOM      9  C   UNL A   1      32.921  27.394  24.373  1.00  0.00     0.033 A 
ATOM     10  C   UNL A   1      32.479  25.043  24.172  1.00  0.00     0.135 A 
ATOM     11  C   UNL A   1      33.894  27.157  25.341  1.00  0.00     0.042 A 
ATOM     12  C   UNL A   1      33.386  24.837  25.244  1.00  0.00     0.019 A 
ATOM     13  O   UNL A   1      32.054  23.917  23.477  1.00  0.00    -0.475 OA
ATOM     14  Cl  UNL A   1      34.832  28.465  25.943  1.00  0.00    -0.084 Cl
ATOM     15  C   UNL A   1      34.075  25.885  25.844  1.00  0.00     0.032 A 
ATOM     16  C   UNL A   1      33.755  23.445  25.584  1.00  0.00     0.025 C 
ATOM     17  C   UNL A   1      33.121  22.872  23.317  1.00  0.00     0.314 C 
BRANCH   8  18
ATOM     18  C   UNL A   1      30.830  26.843  23.230  1.00  0.00    -0.015 A 
ATOM     19  C   UNL A   1      28.510  28.522  23.025  1.00  0.00     0.007 A 
ATOM     20  C   UNL A   1      29.668  28.821  22.310  1.00  0.00     0.015 A 
ATOM     21  C   UNL A   1      28.478  27.306  23.726  1.00  0.00     0.015 A 
ATOM     22  C   UNL A   1      30.801  27.985  22.398  1.00  0.00     0.010 A 
ATOM     23  C   UNL A   1      29.613  26.478  23.823  1.00  0.00     0.010 A 
BRANCH  19  24
ATOM     24  S   UNL A   1      27.030  29.531  23.058  1.00  0.00    -0.126 SA
BRANCH  24  25
ATOM     25  C   UNL A   1      27.568  31.207  23.579  1.00  0.00     0.071 C 
ATOM     26  C   UNL A   1      28.079  32.060  22.426  1.00  0.00     0.016 C 
ENDBRANCH  24  25
ENDBRANCH  19  24
ENDBRANCH   8  18
BRANCH  17  27
ATOM     27  C   UNL A   1      32.533  21.441  23.247  1.00  0.00     0.429 C 
ATOM     28  F   UNL A   1      31.672  21.180  24.254  1.00  0.00    -0.167 F 
ATOM     29  F   UNL A   1      31.877  21.235  22.080  1.00  0.00    -0.167 F 
ATOM     30  F   UNL A   1      33.495  20.480  23.311  1.00  0.00    -0.167 F 
ENDBRANCH  17  27
ENDBRANCH   4   7
ENDBRANCH   2   3
ENDBRANCH   1   2
BRANCH   1  31
ATOM     31  C   UNL A   1      38.884  23.849  26.504  1.00  0.00     0.118 C 
BRANCH  31  32
ATOM     32  N   UNL A   1      40.283  23.893  26.114  1.00  0.00    -0.352 N 
ATOM     33  C   UNL A   1      41.260  24.791  26.464  1.00  0.00     0.251 C 
ATOM     34  H   UNL A   1      40.574  23.172  25.509  1.00  0.00     0.163 HD
ATOM     35  O   UNL A   1      42.355  24.738  25.898  1.00  0.00    -0.269 OA
BRANCH  33  36
ATOM     36  C   UNL A   1      41.004  25.832  27.483  1.00  0.00     0.039 A 
ATOM     37  C   UNL A   1      39.987  25.619  28.415  1.00  0.00     0.014 A 
ATOM     38  C   UNL A   1      41.748  27.016  27.522  1.00  0.00     0.014 A 
ATOM     39  C   UNL A   1      39.759  26.559  29.421  1.00  0.00     0.010 A 
ATOM     40  C   UNL A   1      41.575  27.913  28.577  1.00  0.00     0.010 A 
ATOM     41  C   UNL A   1      40.579  27.696  29.540  1.00  0.00    -0.014 A 
BRANCH  41  42
ATOM     42  C   UNL A   1      40.406  28.635  30.681  1.00  0.00     0.031 A 
ATOM     43  C   UNL A   1      41.251  28.507  31.923  1.00  0.00     0.074 A 
ATOM     44  C   UNL A   1      39.466  29.600  30.602  1.00  0.00     0.049 A 
ATOM     45  N   UNL A   1      41.245  29.248  33.002  1.00  0.00    -0.248 NA
ATOM     46  C   UNL A   1      42.210  27.391  31.971  1.00  0.00     0.031 C 
ATOM     47  C   UNL A   1      38.538  29.786  29.482  1.00  0.00     0.029 A 
ATOM     48  N   UNL A   1      39.136  30.610  31.470  1.00  0.00    -0.354 N 
ATOM     49  C   UNL A   1      42.200  28.696  33.849  1.00  0.00     0.074 A 
ATOM     50  C   UNL A   1      42.717  27.518  33.190  1.00  0.00     0.031 C 
ATOM     51  C   UNL A   1      37.775  30.865  29.714  1.00  0.00     0.029 A 
ATOM     52  C   UNL A   1      38.127  31.427  31.013  1.00  0.00     0.049 A 
ATOM     53  H   UNL A   1      39.580  30.739  32.340  1.00  0.00     0.167 HD
ATOM     54  C   UNL A   1      42.633  29.150  35.050  1.00  0.00     0.037 A 
ATOM     55  C   UNL A   1      37.550  32.507  31.575  1.00  0.00     0.037 A 
ATOM     56  C   UNL A   1      42.126  30.333  35.698  1.00  0.00     0.049 A 
ATOM     57  C   UNL A   1      38.051  32.986  32.912  1.00  0.00     0.074 A 
ATOM     58  C   UNL A   1      42.523  30.894  36.900  1.00  0.00     0.029 A 
ATOM     59  N   UNL A   1      41.115  31.141  35.197  1.00  0.00    -0.354 N 
ATOM     60  N   UNL A   1      39.004  32.487  33.663  1.00  0.00    -0.248 NA
ATOM     61  C   UNL A   1      37.408  34.183  33.470  1.00  0.00     0.031 C 
ATOM     62  C   UNL A   1      41.723  32.016  37.147  1.00  0.00     0.029 A 
ATOM     63  C   UNL A   1      40.864  32.185  36.074  1.00  0.00     0.049 A 
ATOM     64  H   UNL A   1      40.643  30.993  34.346  1.00  0.00     0.167 HD
ATOM     65  C   UNL A   1      39.089  33.324  34.771  1.00  0.00     0.074 A 
ATOM     66  C   UNL A   1      38.116  34.378  34.573  1.00  0.00     0.031 C 
ATOM     67  C   UNL A   1      39.892  33.227  35.861  1.00  0.00     0.037 A 
BRANCH  54  68
ATOM     68  C   UNL A   1      43.735  28.387  35.738  1.00  0.00     0.058 A 
ATOM     69  C   UNL A   1      45.086  28.694  35.512  1.00  0.00     0.135 A 
ATOM     70  C   UNL A   1      43.440  27.396  36.689  1.00  0.00     0.135 A 
ATOM     71  F   UNL A   1      45.427  29.620  34.600  1.00  0.00    -0.206 F 
ATOM     72  C   UNL A   1      46.106  28.043  36.198  1.00  0.00     0.059 A 
ATOM     73  C   UNL A   1      44.444  26.751  37.407  1.00  0.00     0.059 A 
ATOM     74  F   UNL A   1      42.166  27.059  36.941  1.00  0.00    -0.206 F 
ATOM     75  C   UNL A   1      45.775  27.079  37.151  1.00  0.00     0.060 A 
BRANCH  75  76
ATOM     76  S   UNL A   1      47.111  26.282  38.066  1.00  0.00     0.124 S 
ATOM     77  O   UNL A   1      47.283  25.043  37.313  1.00  0.00    -0.237 OA
ATOM     78  O   UNL A   1      48.193  27.253  37.943  1.00  0.00    -0.237 OA
ATOM     79  O   UNL A   1      46.561  26.126  39.409  1.00  0.00    -0.744 OA
ENDBRANCH  75  76
ENDBRANCH  54  68
BRANCH  55  80
ATOM     80  C   UNL A   1      36.439  33.219  30.883  1.00  0.00     0.058 A 
ATOM     81  C   UNL A   1      36.672  34.000  29.740  1.00  0.00     0.135 A 
ATOM     82  C   UNL A   1      35.126  33.162  31.374  1.00  0.00     0.135 A 
ATOM     83  F   UNL A   1      37.910  34.088  29.230  1.00  0.00    -0.206 F 
ATOM     84  C   UNL A   1      35.657  34.737  29.138  1.00  0.00     0.059 A 
ATOM     85  C   UNL A   1      34.086  33.862  30.770  1.00  0.00     0.059 A 
ATOM     86  F   UNL A   1      34.840  32.412  32.450  1.00  0.00    -0.206 F 
ATOM     87  C   UNL A   1      34.366  34.665  29.666  1.00  0.00     0.060 A 
BRANCH  87  88
ATOM     88  S   UNL A   1      33.054  35.627  28.882  1.00  0.00     0.124 S 
ATOM     89  O   UNL A   1      33.820  36.645  28.175  1.00  0.00    -0.237 OA
ATOM     90  O   UNL A   1      32.395  34.626  28.049  1.00  0.00    -0.237 OA
ATOM     91  O   UNL A   1      32.266  36.102  30.017  1.00  0.00    -0.744 OA
ENDBRANCH  87  88
ENDBRANCH  55  80
BRANCH  67  92
ATOM     92  C   UNL A   1      39.768  34.309  36.900  1.00  0.00     0.058 A 
ATOM     93  C   UNL A   1      40.458  35.527  36.784  1.00  0.00     0.135 A 
ATOM     94  C   UNL A   1      38.951  34.125  38.027  1.00  0.00     0.135 A 
ATOM     95  F   UNL A   1      41.254  35.755  35.728  1.00  0.00    -0.206 F 
ATOM     96  C   UNL A   1      40.384  36.501  37.775  1.00  0.00     0.059 A 
ATOM     97  C   UNL A   1      38.833  35.101  39.012  1.00  0.00     0.059 A 
ATOM     98  F   UNL A   1      38.255  32.987  38.181  1.00  0.00    -0.206 F 
ATOM     99  C   UNL A   1      39.575  36.275  38.888  1.00  0.00     0.060 A 
BRANCH  99 100
ATOM    100  S   UNL A   1      39.501  37.539  40.174  1.00  0.00     0.124 S 
ATOM    101  O   UNL A   1      40.903  37.934  40.278  1.00  0.00    -0.237 OA
ATOM    102  O   UNL A   1      38.605  38.531  39.588  1.00  0.00    -0.237 OA
ATOM    103  O   UNL A   1      38.965  36.821  41.327  1.00  0.00    -0.744 OA
ENDBRANCH  99 100
ENDBRANCH  67  92
ENDBRANCH  41  42
ENDBRANCH  33  36
ENDBRANCH  31  32
ENDBRANCH   1  31
TORSDOF 17
ENDMDL
