MODEL 1
REMARK VINA RESULT:     -12.9      0.000      0.000
REMARK SMILES Cc1nn(C)c2c1nc(SCC(=O)NCCCNC(=O)c1ccc(-c3c4nc(c(-c5c(F)cc(S(=O)(=O)[O-])cc5F)c5ccc([nH]5)c(-c5c(F)cc(S(=O)(=O)[O-])cc5F)c5nc(c(-c6c(F)cc(S(=O)(=O)[O-])cc6F)c6ccc3[nH]6)C=C5)C=C4)cc1)n2[C@H]1CC[N@@H+](C)C1
REMARK SMILES IDX 16 1 15 2 14 3 12 4 13 5 11 7 10 8 9 9 1 10 2 11 3 12 7 13
REMARK SMILES IDX 4 14 6 15 8 16 5 17 87 18 88 19 89 20 93 21 90 22 91 23
REMARK SMILES IDX 92 24 17 26 18 27 19 28 20 30 21 31 22 32 86 33 23 34 85 35
REMARK SMILES IDX 24 36 25 37 26 38 79 39 27 40 84 41 78 42 80 43 28 44 83 45
REMARK SMILES IDX 77 46 76 47 29 49 63 50 42 51 62 52 43 53 46 54 61 55 81 56
REMARK SMILES IDX 44 57 45 58 60 60 82 61 47 62 30 63 31 64 40 65 32 66 33 67
REMARK SMILES IDX 39 68 41 69 34 70 35 71 36 72 37 73 38 74 64 75 65 76 74 77
REMARK SMILES IDX 66 78 67 79 73 80 75 81 68 82 69 83 70 84 71 85 72 86 48 87
REMARK SMILES IDX 49 88 58 89 50 90 51 91 57 92 59 93 52 94 53 95 54 96 55 97
REMARK SMILES IDX 56 98
REMARK H PARENT 14 6 91 25 18 29 80 48 46 59
REMARK Flexibility Score: inf
ROOT
ATOM      1  C   UNL A   1      36.447  22.760  24.317  1.00  0.00     0.042 C 
ENDROOT
BRANCH   1   2
ATOM      2  C   UNL A   1      34.926  22.922  24.432  1.00  0.00     0.117 C 
BRANCH   2   3
ATOM      3  N   UNL A   1      34.241  22.850  23.153  1.00  0.00    -0.355 N 
ATOM      4  C   UNL A   1      33.685  23.824  22.373  1.00  0.00     0.230 C 
ATOM      5  O   UNL A   1      33.287  23.480  21.256  1.00  0.00    -0.274 OA
ATOM      6  H   UNL A   1      34.162  21.941  22.784  1.00  0.00     0.163 HD
BRANCH   4   7
ATOM      7  C   UNL A   1      33.705  25.285  22.774  1.00  0.00     0.178 C 
BRANCH   7   8
ATOM      8  S   UNL A   1      32.183  26.182  22.434  1.00  0.00    -0.078 SA
BRANCH   8   9
ATOM      9  C   UNL A   1      32.176  27.474  23.591  1.00  0.00     0.171 A 
ATOM     10  C   UNL A   1      34.108  29.290  27.258  1.00  0.00     0.071 C 
ATOM     11  C   UNL A   1      32.994  29.482  26.306  1.00  0.00     0.087 A 
ATOM     12  N   UNL A   1      32.156  30.526  26.431  1.00  0.00    -0.174 NA
ATOM     13  C   UNL A   1      32.615  28.717  25.206  1.00  0.00     0.132 A 
ATOM     14  N   UNL A   1      31.322  30.434  25.365  1.00  0.00    -0.250 N 
ATOM     15  C   UNL A   1      31.541  29.308  24.627  1.00  0.00     0.159 A 
ATOM     16  N   UNL A   1      33.022  27.590  24.593  1.00  0.00    -0.219 NA
ATOM     17  C   UNL A   1      30.386  31.516  25.184  1.00  0.00     0.176 C 
ATOM     18  N   UNL A   1      31.211  28.492  23.576  1.00  0.00    -0.295 N 
BRANCH  18  19
ATOM     19  C   UNL A   1      30.144  28.599  22.593  1.00  0.00     0.152 C 
ATOM     20  C   UNL A   1      28.744  28.227  23.133  1.00  0.00     0.093 C 
ATOM     21  C   UNL A   1      29.907  29.968  21.957  1.00  0.00     0.288 C 
ATOM     22  C   UNL A   1      27.839  29.400  22.798  1.00  0.00     0.264 C 
ATOM     23  N   UNL A   1      28.478  29.982  21.618  1.00  0.00    -0.336 N 
ATOM     24  C   UNL A   1      28.004  31.339  21.364  1.00  0.00     0.332 C 
ATOM     25  H   UNL A   1      28.268  29.464  20.764  1.00  0.00     0.347 HD
ENDBRANCH  18  19
ENDBRANCH   8   9
ENDBRANCH   7   8
ENDBRANCH   4   7
ENDBRANCH   2   3
ENDBRANCH   1   2
BRANCH   1  26
ATOM     26  C   UNL A   1      37.208  23.213  25.557  1.00  0.00     0.118 C 
BRANCH  26  27
ATOM     27  N   UNL A   1      38.124  22.197  26.074  1.00  0.00    -0.352 N 
ATOM     28  C   UNL A   1      39.382  22.384  26.606  1.00  0.00     0.251 C 
ATOM     29  H   UNL A   1      37.805  21.266  26.039  1.00  0.00     0.163 HD
ATOM     30  O   UNL A   1      40.171  21.432  26.681  1.00  0.00    -0.269 OA
BRANCH  28  31
ATOM     31  C   UNL A   1      39.788  23.725  27.056  1.00  0.00     0.039 A 
ATOM     32  C   UNL A   1      38.927  24.821  26.938  1.00  0.00     0.014 A 
ATOM     33  C   UNL A   1      41.033  23.869  27.659  1.00  0.00     0.014 A 
ATOM     34  C   UNL A   1      39.291  26.039  27.516  1.00  0.00     0.010 A 
ATOM     35  C   UNL A   1      41.323  25.022  28.351  1.00  0.00     0.010 A 
ATOM     36  C   UNL A   1      40.484  26.132  28.247  1.00  0.00    -0.014 A 
BRANCH  36  37
ATOM     37  C   UNL A   1      40.822  27.356  28.983  1.00  0.00     0.031 A 
ATOM     38  C   UNL A   1      41.940  28.180  28.430  1.00  0.00     0.074 A 
ATOM     39  C   UNL A   1      40.016  27.881  29.933  1.00  0.00     0.049 A 
ATOM     40  N   UNL A   1      43.047  28.532  29.001  1.00  0.00    -0.248 NA
ATOM     41  C   UNL A   1      41.835  28.618  27.028  1.00  0.00     0.031 C 
ATOM     42  C   UNL A   1      38.696  27.398  30.362  1.00  0.00     0.029 A 
ATOM     43  N   UNL A   1      40.143  29.052  30.618  1.00  0.00    -0.354 N 
ATOM     44  C   UNL A   1      43.684  29.404  28.114  1.00  0.00     0.074 A 
ATOM     45  C   UNL A   1      42.975  29.292  26.866  1.00  0.00     0.031 C 
ATOM     46  C   UNL A   1      38.047  28.384  31.016  1.00  0.00     0.029 A 
ATOM     47  C   UNL A   1      38.970  29.481  31.223  1.00  0.00     0.049 A 
ATOM     48  H   UNL A   1      40.992  29.548  30.679  1.00  0.00     0.167 HD
ATOM     49  C   UNL A   1      44.610  30.315  28.529  1.00  0.00     0.037 A 
ATOM     50  C   UNL A   1      38.749  30.669  31.834  1.00  0.00     0.037 A 
ATOM     51  C   UNL A   1      45.093  30.015  29.851  1.00  0.00     0.049 A 
ATOM     52  C   UNL A   1      40.070  31.231  32.197  1.00  0.00     0.074 A 
ATOM     53  C   UNL A   1      45.749  28.953  30.441  1.00  0.00     0.029 A 
ATOM     54  N   UNL A   1      44.612  30.779  30.885  1.00  0.00    -0.354 N 
ATOM     55  N   UNL A   1      40.884  30.695  33.067  1.00  0.00    -0.248 NA
ATOM     56  C   UNL A   1      40.669  32.220  31.315  1.00  0.00     0.031 C 
ATOM     57  C   UNL A   1      45.233  28.887  31.770  1.00  0.00     0.029 A 
ATOM     58  C   UNL A   1      44.322  29.934  31.925  1.00  0.00     0.049 A 
ATOM     59  H   UNL A   1      44.495  31.756  30.880  1.00  0.00     0.167 HD
ATOM     60  C   UNL A   1      42.151  30.958  32.575  1.00  0.00     0.074 A 
ATOM     61  C   UNL A   1      41.959  32.012  31.585  1.00  0.00     0.031 C 
ATOM     62  C   UNL A   1      43.191  30.104  32.814  1.00  0.00     0.037 A 
BRANCH  49  63
ATOM     63  C   UNL A   1      44.829  31.677  27.897  1.00  0.00     0.058 A 
ATOM     64  C   UNL A   1      46.069  31.975  27.288  1.00  0.00     0.135 A 
ATOM     65  C   UNL A   1      43.984  32.788  28.118  1.00  0.00     0.135 A 
ATOM     66  F   UNL A   1      46.958  31.001  27.037  1.00  0.00    -0.206 F 
ATOM     67  C   UNL A   1      46.467  33.281  26.994  1.00  0.00     0.059 A 
ATOM     68  C   UNL A   1      44.339  34.091  27.781  1.00  0.00     0.059 A 
ATOM     69  F   UNL A   1      42.817  32.677  28.762  1.00  0.00    -0.206 F 
ATOM     70  C   UNL A   1      45.600  34.335  27.263  1.00  0.00     0.060 A 
BRANCH  70  71
ATOM     71  S   UNL A   1      46.151  36.031  27.002  1.00  0.00     0.124 S 
ATOM     72  O   UNL A   1      46.953  36.261  28.198  1.00  0.00    -0.237 OA
ATOM     73  O   UNL A   1      46.889  35.924  25.747  1.00  0.00    -0.237 OA
ATOM     74  O   UNL A   1      44.900  36.779  26.923  1.00  0.00    -0.744 OA
ENDBRANCH  70  71
ENDBRANCH  49  63
BRANCH  50  75
ATOM     75  C   UNL A   1      37.492  31.454  31.877  1.00  0.00     0.058 A 
ATOM     76  C   UNL A   1      36.925  31.852  33.098  1.00  0.00     0.135 A 
ATOM     77  C   UNL A   1      36.969  32.061  30.716  1.00  0.00     0.135 A 
ATOM     78  F   UNL A   1      37.377  31.337  34.251  1.00  0.00    -0.206 F 
ATOM     79  C   UNL A   1      35.932  32.833  33.170  1.00  0.00     0.059 A 
ATOM     80  C   UNL A   1      35.971  33.033  30.762  1.00  0.00     0.059 A 
ATOM     81  F   UNL A   1      37.482  31.791  29.505  1.00  0.00    -0.206 F 
ATOM     82  C   UNL A   1      35.476  33.434  31.997  1.00  0.00     0.060 A 
BRANCH  82  83
ATOM     83  S   UNL A   1      34.331  34.828  32.107  1.00  0.00     0.124 S 
ATOM     84  O   UNL A   1      34.093  35.134  30.700  1.00  0.00    -0.237 OA
ATOM     85  O   UNL A   1      33.205  34.244  32.829  1.00  0.00    -0.237 OA
ATOM     86  O   UNL A   1      35.088  35.833  32.846  1.00  0.00    -0.744 OA
ENDBRANCH  82  83
ENDBRANCH  50  75
BRANCH  62  87
ATOM     87  C   UNL A   1      43.046  29.099  33.929  1.00  0.00     0.058 A 
ATOM     88  C   UNL A   1      43.268  29.377  35.288  1.00  0.00     0.135 A 
ATOM     89  C   UNL A   1      42.518  27.838  33.612  1.00  0.00     0.135 A 
ATOM     90  F   UNL A   1      43.671  30.589  35.688  1.00  0.00    -0.206 F 
ATOM     91  C   UNL A   1      43.015  28.431  36.283  1.00  0.00     0.059 A 
ATOM     92  C   UNL A   1      42.230  26.889  34.591  1.00  0.00     0.059 A 
ATOM     93  F   UNL A   1      42.226  27.532  32.337  1.00  0.00    -0.206 F 
ATOM     94  C   UNL A   1      42.493  27.188  35.926  1.00  0.00     0.060 A 
BRANCH  94  95
ATOM     95  S   UNL A   1      42.082  25.998  37.220  1.00  0.00     0.124 S 
ATOM     96  O   UNL A   1      42.347  24.723  36.560  1.00  0.00    -0.237 OA
ATOM     97  O   UNL A   1      43.008  26.360  38.292  1.00  0.00    -0.237 OA
ATOM     98  O   UNL A   1      40.678  26.274  37.506  1.00  0.00    -0.744 OA
ENDBRANCH  94  95
ENDBRANCH  62  87
ENDBRANCH  36  37
ENDBRANCH  28  31
ENDBRANCH  26  27
ENDBRANCH   1  26
TORSDOF 16
ENDMDL
MODEL 2
REMARK VINA RESULT:     -12.8      1.589      2.489
REMARK SMILES Cc1nn(C)c2c1nc(SCC(=O)NCCCNC(=O)c1ccc(-c3c4nc(c(-c5c(F)cc(S(=O)(=O)[O-])cc5F)c5ccc([nH]5)c(-c5c(F)cc(S(=O)(=O)[O-])cc5F)c5nc(c(-c6c(F)cc(S(=O)(=O)[O-])cc6F)c6ccc3[nH]6)C=C5)C=C4)cc1)n2[C@H]1CC[N@@H+](C)C1
REMARK SMILES IDX 16 1 15 2 14 3 12 4 13 5 11 7 10 8 9 9 1 10 2 11 3 12 7 13
REMARK SMILES IDX 4 14 6 15 8 16 5 17 87 18 88 19 89 20 93 21 90 22 91 23
REMARK SMILES IDX 92 24 17 26 18 27 19 28 20 30 21 31 22 32 86 33 23 34 85 35
REMARK SMILES IDX 24 36 25 37 26 38 79 39 27 40 84 41 78 42 80 43 28 44 83 45
REMARK SMILES IDX 77 46 76 47 29 49 63 50 42 51 62 52 43 53 46 54 61 55 81 56
REMARK SMILES IDX 44 57 45 58 60 60 82 61 47 62 30 63 31 64 40 65 32 66 33 67
REMARK SMILES IDX 39 68 41 69 34 70 35 71 36 72 37 73 38 74 64 75 65 76 74 77
REMARK SMILES IDX 66 78 67 79 73 80 75 81 68 82 69 83 70 84 71 85 72 86 48 87
REMARK SMILES IDX 49 88 58 89 50 90 51 91 57 92 59 93 52 94 53 95 54 96 55 97
REMARK SMILES IDX 56 98
REMARK H PARENT 14 6 91 25 18 29 80 48 46 59
REMARK Flexibility Score: inf
ROOT
ATOM      1  C   UNL A   1      36.085  22.615  24.965  1.00  0.00     0.042 C 
ENDROOT
BRANCH   1   2
ATOM      2  C   UNL A   1      34.713  23.175  25.360  1.00  0.00     0.117 C 
BRANCH   2   3
ATOM      3  N   UNL A   1      33.634  22.213  25.211  1.00  0.00    -0.355 N 
ATOM      4  C   UNL A   1      32.390  22.160  25.775  1.00  0.00     0.230 C 
ATOM      5  O   UNL A   1      31.627  21.287  25.352  1.00  0.00    -0.274 OA
ATOM      6  H   UNL A   1      33.834  21.469  24.598  1.00  0.00     0.163 HD
BRANCH   4   7
ATOM      7  C   UNL A   1      31.901  23.215  26.746  1.00  0.00     0.178 C 
BRANCH   7   8
ATOM      8  S   UNL A   1      30.744  24.404  26.049  1.00  0.00    -0.078 SA
BRANCH   8   9
ATOM      9  C   UNL A   1      31.594  25.093  24.703  1.00  0.00     0.171 A 
ATOM     10  C   UNL A   1      32.857  24.638  20.382  1.00  0.00     0.071 C 
ATOM     11  C   UNL A   1      32.976  25.539  21.547  1.00  0.00     0.087 A 
ATOM     12  N   UNL A   1      33.678  26.683  21.461  1.00  0.00    -0.174 NA
ATOM     13  C   UNL A   1      32.451  25.417  22.830  1.00  0.00     0.132 A 
ATOM     14  N   UNL A   1      33.512  27.285  22.666  1.00  0.00    -0.250 N 
ATOM     15  C   UNL A   1      32.813  26.511  23.544  1.00  0.00     0.159 A 
ATOM     16  N   UNL A   1      31.706  24.531  23.518  1.00  0.00    -0.219 NA
ATOM     17  C   UNL A   1      34.068  28.608  22.806  1.00  0.00     0.176 C 
ATOM     18  N   UNL A   1      32.286  26.309  24.793  1.00  0.00    -0.295 N 
BRANCH  18  19
ATOM     19  C   UNL A   1      32.348  27.133  25.991  1.00  0.00     0.152 C 
ATOM     20  C   UNL A   1      33.779  27.549  26.402  1.00  0.00     0.093 C 
ATOM     21  C   UNL A   1      31.603  28.467  25.969  1.00  0.00     0.288 C 
ATOM     22  C   UNL A   1      33.752  29.061  26.551  1.00  0.00     0.264 C 
ATOM     23  N   UNL A   1      32.354  29.332  26.888  1.00  0.00    -0.336 N 
ATOM     24  C   UNL A   1      32.018  30.738  26.689  1.00  0.00     0.332 C 
ATOM     25  H   UNL A   1      32.144  29.145  27.868  1.00  0.00     0.347 HD
ENDBRANCH  18  19
ENDBRANCH   8   9
ENDBRANCH   7   8
ENDBRANCH   4   7
ENDBRANCH   2   3
ENDBRANCH   1   2
BRANCH   1  26
ATOM     26  C   UNL A   1      37.241  23.203  25.766  1.00  0.00     0.118 C 
BRANCH  26  27
ATOM     27  N   UNL A   1      38.222  22.201  26.182  1.00  0.00    -0.352 N 
ATOM     28  C   UNL A   1      39.514  22.411  26.612  1.00  0.00     0.251 C 
ATOM     29  H   UNL A   1      37.924  21.263  26.152  1.00  0.00     0.163 HD
ATOM     30  O   UNL A   1      40.330  21.480  26.599  1.00  0.00    -0.269 OA
BRANCH  28  31
ATOM     31  C   UNL A   1      39.922  23.753  27.058  1.00  0.00     0.039 A 
ATOM     32  C   UNL A   1      39.092  24.862  26.873  1.00  0.00     0.014 A 
ATOM     33  C   UNL A   1      41.137  23.885  27.724  1.00  0.00     0.014 A 
ATOM     34  C   UNL A   1      39.449  26.084  27.446  1.00  0.00     0.010 A 
ATOM     35  C   UNL A   1      41.412  25.046  28.408  1.00  0.00     0.010 A 
ATOM     36  C   UNL A   1      40.603  26.169  28.239  1.00  0.00    -0.014 A 
BRANCH  36  37
ATOM     37  C   UNL A   1      40.926  27.401  28.968  1.00  0.00     0.031 A 
ATOM     38  C   UNL A   1      42.049  28.224  28.425  1.00  0.00     0.074 A 
ATOM     39  C   UNL A   1      40.103  27.933  29.901  1.00  0.00     0.049 A 
ATOM     40  N   UNL A   1      43.146  28.585  29.011  1.00  0.00    -0.248 NA
ATOM     41  C   UNL A   1      41.965  28.649  27.018  1.00  0.00     0.031 C 
ATOM     42  C   UNL A   1      38.777  27.450  30.313  1.00  0.00     0.029 A 
ATOM     43  N   UNL A   1      40.216  29.110  30.577  1.00  0.00    -0.354 N 
ATOM     44  C   UNL A   1      43.794  29.450  28.126  1.00  0.00     0.074 A 
ATOM     45  C   UNL A   1      43.105  29.325  26.868  1.00  0.00     0.031 C 
ATOM     46  C   UNL A   1      38.115  28.439  30.948  1.00  0.00     0.029 A 
ATOM     47  C   UNL A   1      39.031  29.541  31.159  1.00  0.00     0.049 A 
ATOM     48  H   UNL A   1      41.062  29.609  30.646  1.00  0.00     0.167 HD
ATOM     49  C   UNL A   1      44.711  30.368  28.547  1.00  0.00     0.037 A 
ATOM     50  C   UNL A   1      38.798  30.734  31.756  1.00  0.00     0.037 A 
ATOM     51  C   UNL A   1      45.174  30.081  29.879  1.00  0.00     0.049 A 
ATOM     52  C   UNL A   1      40.112  31.303  32.134  1.00  0.00     0.074 A 
ATOM     53  C   UNL A   1      45.824  29.027  30.489  1.00  0.00     0.029 A 
ATOM     54  N   UNL A   1      44.675  30.853  30.898  1.00  0.00    -0.354 N 
ATOM     55  N   UNL A   1      40.913  30.778  33.021  1.00  0.00    -0.248 NA
ATOM     56  C   UNL A   1      40.722  32.286  31.252  1.00  0.00     0.031 C 
ATOM     57  C   UNL A   1      45.287  28.971  31.810  1.00  0.00     0.029 A 
ATOM     58  C   UNL A   1      44.371  30.017  31.942  1.00  0.00     0.049 A 
ATOM     59  H   UNL A   1      44.555  31.830  30.882  1.00  0.00     0.167 HD
ATOM     60  C   UNL A   1      42.187  31.040  32.547  1.00  0.00     0.074 A 
ATOM     61  C   UNL A   1      42.008  32.084  31.545  1.00  0.00     0.031 C 
ATOM     62  C   UNL A   1      43.226  30.192  32.811  1.00  0.00     0.037 A 
BRANCH  49  63
ATOM     63  C   UNL A   1      44.936  31.724  27.906  1.00  0.00     0.058 A 
ATOM     64  C   UNL A   1      46.197  32.035  27.350  1.00  0.00     0.135 A 
ATOM     65  C   UNL A   1      44.063  32.823  28.072  1.00  0.00     0.135 A 
ATOM     66  F   UNL A   1      47.113  31.074  27.154  1.00  0.00    -0.206 F 
ATOM     67  C   UNL A   1      46.587  33.344  27.055  1.00  0.00     0.059 A 
ATOM     68  C   UNL A   1      44.411  34.127  27.732  1.00  0.00     0.059 A 
ATOM     69  F   UNL A   1      42.870  32.701  28.663  1.00  0.00    -0.206 F 
ATOM     70  C   UNL A   1      45.690  34.387  27.269  1.00  0.00     0.060 A 
BRANCH  70  71
ATOM     71  S   UNL A   1      46.225  36.088  27.008  1.00  0.00     0.124 S 
ATOM     72  O   UNL A   1      47.198  36.252  28.082  1.00  0.00    -0.237 OA
ATOM     73  O   UNL A   1      46.768  36.035  25.655  1.00  0.00    -0.237 OA
ATOM     74  O   UNL A   1      44.987  36.851  27.150  1.00  0.00    -0.744 OA
ENDBRANCH  70  71
ENDBRANCH  49  63
BRANCH  50  75
ATOM     75  C   UNL A   1      37.538  31.516  31.772  1.00  0.00     0.058 A 
ATOM     76  C   UNL A   1      36.853  31.766  32.971  1.00  0.00     0.135 A 
ATOM     77  C   UNL A   1      37.126  32.262  30.647  1.00  0.00     0.135 A 
ATOM     78  F   UNL A   1      37.195  31.113  34.092  1.00  0.00    -0.206 F 
ATOM     79  C   UNL A   1      35.853  32.738  33.065  1.00  0.00     0.059 A 
ATOM     80  C   UNL A   1      36.123  33.226  30.713  1.00  0.00     0.059 A 
ATOM     81  F   UNL A   1      37.755  32.136  29.468  1.00  0.00    -0.206 F 
ATOM     82  C   UNL A   1      35.509  33.478  31.935  1.00  0.00     0.060 A 
BRANCH  82  83
ATOM     83  S   UNL A   1      34.350  34.856  32.101  1.00  0.00     0.124 S 
ATOM     84  O   UNL A   1      33.264  34.247  32.862  1.00  0.00    -0.237 OA
ATOM     85  O   UNL A   1      35.150  35.845  32.816  1.00  0.00    -0.237 OA
ATOM     86  O   UNL A   1      34.029  35.200  30.719  1.00  0.00    -0.744 OA
ENDBRANCH  82  83
ENDBRANCH  50  75
BRANCH  62  87
ATOM     87  C   UNL A   1      43.065  29.197  33.932  1.00  0.00     0.058 A 
ATOM     88  C   UNL A   1      43.271  29.487  35.292  1.00  0.00     0.135 A 
ATOM     89  C   UNL A   1      42.540  27.933  33.620  1.00  0.00     0.135 A 
ATOM     90  F   UNL A   1      43.672  30.702  35.686  1.00  0.00    -0.206 F 
ATOM     91  C   UNL A   1      43.006  28.549  36.292  1.00  0.00     0.059 A 
ATOM     92  C   UNL A   1      42.239  26.994  34.604  1.00  0.00     0.059 A 
ATOM     93  F   UNL A   1      42.263  27.616  32.345  1.00  0.00    -0.206 F 
ATOM     94  C   UNL A   1      42.486  27.304  35.939  1.00  0.00     0.060 A 
BRANCH  94  95
ATOM     95  S   UNL A   1      42.059  26.126  37.239  1.00  0.00     0.124 S 
ATOM     96  O   UNL A   1      42.187  24.846  36.548  1.00  0.00    -0.237 OA
ATOM     97  O   UNL A   1      43.069  26.396  38.261  1.00  0.00    -0.237 OA
ATOM     98  O   UNL A   1      40.699  26.502  37.609  1.00  0.00    -0.744 OA
ENDBRANCH  94  95
ENDBRANCH  62  87
ENDBRANCH  36  37
ENDBRANCH  28  31
ENDBRANCH  26  27
ENDBRANCH   1  26
TORSDOF 16
ENDMDL
MODEL 3
REMARK VINA RESULT:     -12.7      3.226      9.866
REMARK SMILES Cc1nn(C)c2c1nc(SCC(=O)NCCCNC(=O)c1ccc(-c3c4nc(c(-c5c(F)cc(S(=O)(=O)[O-])cc5F)c5ccc([nH]5)c(-c5c(F)cc(S(=O)(=O)[O-])cc5F)c5nc(c(-c6c(F)cc(S(=O)(=O)[O-])cc6F)c6ccc3[nH]6)C=C5)C=C4)cc1)n2[C@H]1CC[N@@H+](C)C1
REMARK SMILES IDX 16 1 15 2 14 3 12 4 13 5 11 7 10 8 9 9 1 10 2 11 3 12 7 13
REMARK SMILES IDX 4 14 6 15 8 16 5 17 87 18 88 19 89 20 93 21 90 22 91 23
REMARK SMILES IDX 92 24 17 26 18 27 19 28 20 30 21 31 22 32 86 33 23 34 85 35
REMARK SMILES IDX 24 36 25 37 26 38 79 39 27 40 84 41 78 42 80 43 28 44 83 45
REMARK SMILES IDX 77 46 76 47 29 49 63 50 42 51 62 52 43 53 46 54 61 55 81 56
REMARK SMILES IDX 44 57 45 58 60 60 82 61 47 62 30 63 31 64 40 65 32 66 33 67
REMARK SMILES IDX 39 68 41 69 34 70 35 71 36 72 37 73 38 74 64 75 65 76 74 77
REMARK SMILES IDX 66 78 67 79 73 80 75 81 68 82 69 83 70 84 71 85 72 86 48 87
REMARK SMILES IDX 49 88 58 89 50 90 51 91 57 92 59 93 52 94 53 95 54 96 55 97
REMARK SMILES IDX 56 98
REMARK H PARENT 14 6 91 25 18 29 80 48 46 59
REMARK Flexibility Score: inf
ROOT
ATOM      1  C   UNL A   1      32.963  28.318  26.429  1.00  0.00     0.042 C 
ENDROOT
BRANCH   1   2
ATOM      2  C   UNL A   1      33.147  26.840  26.063  1.00  0.00     0.117 C 
BRANCH   2   3
ATOM      3  N   UNL A   1      32.124  26.338  25.161  1.00  0.00    -0.355 N 
ATOM      4  C   UNL A   1      31.300  25.252  25.248  1.00  0.00     0.230 C 
ATOM      5  O   UNL A   1      30.424  25.150  24.385  1.00  0.00    -0.274 OA
ATOM      6  H   UNL A   1      32.005  26.874  24.344  1.00  0.00     0.163 HD
BRANCH   4   7
ATOM      7  C   UNL A   1      31.338  24.306  26.432  1.00  0.00     0.178 C 
BRANCH   7   8
ATOM      8  S   UNL A   1      31.334  22.559  26.002  1.00  0.00    -0.078 SA
BRANCH   8   9
ATOM      9  C   UNL A   1      33.010  22.163  25.791  1.00  0.00     0.171 A 
ATOM     10  C   UNL A   1      37.298  23.586  26.015  1.00  0.00     0.071 C 
ATOM     11  C   UNL A   1      36.472  22.413  25.662  1.00  0.00     0.087 A 
ATOM     12  N   UNL A   1      37.044  21.273  25.236  1.00  0.00    -0.174 NA
ATOM     13  C   UNL A   1      35.090  22.251  25.691  1.00  0.00     0.132 A 
ATOM     14  N   UNL A   1      36.015  20.403  25.082  1.00  0.00    -0.250 N 
ATOM     15  C   UNL A   1      34.802  20.986  25.299  1.00  0.00     0.159 A 
ATOM     16  N   UNL A   1      34.009  22.995  25.995  1.00  0.00    -0.219 NA
ATOM     17  C   UNL A   1      36.366  19.045  24.745  1.00  0.00     0.176 C 
ATOM     18  N   UNL A   1      33.433  20.909  25.326  1.00  0.00    -0.295 N 
BRANCH  18  19
ATOM     19  C   UNL A   1      32.540  19.808  25.001  1.00  0.00     0.152 C 
ATOM     20  C   UNL A   1      32.520  19.427  23.503  1.00  0.00     0.093 C 
ATOM     21  C   UNL A   1      32.798  18.466  25.686  1.00  0.00     0.288 C 
ATOM     22  C   UNL A   1      32.792  17.934  23.444  1.00  0.00     0.264 C 
ATOM     23  N   UNL A   1      32.301  17.460  24.738  1.00  0.00    -0.336 N 
ATOM     24  C   UNL A   1      32.817  16.131  25.054  1.00  0.00     0.332 C 
ATOM     25  H   UNL A   1      31.286  17.362  24.760  1.00  0.00     0.347 HD
ENDBRANCH  18  19
ENDBRANCH   8   9
ENDBRANCH   7   8
ENDBRANCH   4   7
ENDBRANCH   2   3
ENDBRANCH   1   2
BRANCH   1  26
ATOM     26  C   UNL A   1      34.262  29.113  26.445  1.00  0.00     0.118 C 
BRANCH  26  27
ATOM     27  N   UNL A   1      34.075  30.516  26.814  1.00  0.00    -0.352 N 
ATOM     28  C   UNL A   1      34.749  31.234  27.778  1.00  0.00     0.251 C 
ATOM     29  H   UNL A   1      33.385  31.008  26.313  1.00  0.00     0.163 HD
ATOM     30  O   UNL A   1      34.266  32.286  28.217  1.00  0.00    -0.269 OA
BRANCH  28  31
ATOM     31  C   UNL A   1      36.029  30.727  28.299  1.00  0.00     0.039 A 
ATOM     32  C   UNL A   1      36.260  29.356  28.447  1.00  0.00     0.014 A 
ATOM     33  C   UNL A   1      37.032  31.646  28.588  1.00  0.00     0.014 A 
ATOM     34  C   UNL A   1      37.537  28.913  28.796  1.00  0.00     0.010 A 
ATOM     35  C   UNL A   1      38.320  31.204  28.788  1.00  0.00     0.010 A 
ATOM     36  C   UNL A   1      38.578  29.842  28.943  1.00  0.00    -0.014 A 
BRANCH  36  37
ATOM     37  C   UNL A   1      39.958  29.396  29.171  1.00  0.00     0.031 A 
ATOM     38  C   UNL A   1      40.386  29.250  30.595  1.00  0.00     0.074 A 
ATOM     39  C   UNL A   1      40.725  28.871  28.189  1.00  0.00     0.049 A 
ATOM     40  N   UNL A   1      41.362  29.835  31.213  1.00  0.00    -0.248 NA
ATOM     41  C   UNL A   1      39.577  28.379  31.465  1.00  0.00     0.031 C 
ATOM     42  C   UNL A   1      40.346  28.606  26.794  1.00  0.00     0.029 A 
ATOM     43  N   UNL A   1      41.970  28.324  28.270  1.00  0.00    -0.354 N 
ATOM     44  C   UNL A   1      41.422  29.257  32.483  1.00  0.00     0.074 A 
ATOM     45  C   UNL A   1      40.212  28.492  32.632  1.00  0.00     0.031 C 
ATOM     46  C   UNL A   1      41.217  27.731  26.249  1.00  0.00     0.029 A 
ATOM     47  C   UNL A   1      42.311  27.535  27.179  1.00  0.00     0.049 A 
ATOM     48  H   UNL A   1      42.574  28.475  29.033  1.00  0.00     0.167 HD
ATOM     49  C   UNL A   1      42.560  29.273  33.236  1.00  0.00     0.037 A 
ATOM     50  C   UNL A   1      43.403  26.748  27.047  1.00  0.00     0.037 A 
ATOM     51  C   UNL A   1      43.509  30.234  32.741  1.00  0.00     0.049 A 
ATOM     52  C   UNL A   1      44.417  27.231  28.012  1.00  0.00     0.074 A 
ATOM     53  C   UNL A   1      43.516  31.602  32.551  1.00  0.00     0.029 A 
ATOM     54  N   UNL A   1      44.581  29.753  32.032  1.00  0.00    -0.354 N 
ATOM     55  N   UNL A   1      44.993  28.400  27.950  1.00  0.00    -0.248 NA
ATOM     56  C   UNL A   1      44.539  26.547  29.290  1.00  0.00     0.031 C 
ATOM     57  C   UNL A   1      44.300  31.812  31.378  1.00  0.00     0.029 A 
ATOM     58  C   UNL A   1      44.758  30.567  30.943  1.00  0.00     0.049 A 
ATOM     59  H   UNL A   1      45.125  28.965  32.264  1.00  0.00     0.167 HD
ATOM     60  C   UNL A   1      45.178  28.776  29.270  1.00  0.00     0.074 A 
ATOM     61  C   UNL A   1      45.014  27.545  30.036  1.00  0.00     0.031 C 
ATOM     62  C   UNL A   1      45.168  30.092  29.637  1.00  0.00     0.037 A 
BRANCH  49  63
ATOM     63  C   UNL A   1      42.972  28.180  34.204  1.00  0.00     0.058 A 
ATOM     64  C   UNL A   1      43.175  28.493  35.567  1.00  0.00     0.135 A 
ATOM     65  C   UNL A   1      43.452  26.914  33.799  1.00  0.00     0.135 A 
ATOM     66  F   UNL A   1      42.769  29.672  36.065  1.00  0.00    -0.206 F 
ATOM     67  C   UNL A   1      43.867  27.649  36.438  1.00  0.00     0.059 A 
ATOM     68  C   UNL A   1      44.095  26.033  34.664  1.00  0.00     0.059 A 
ATOM     69  F   UNL A   1      43.410  26.512  32.524  1.00  0.00    -0.206 F 
ATOM     70  C   UNL A   1      44.341  26.427  35.969  1.00  0.00     0.060 A 
BRANCH  70  71
ATOM     71  S   UNL A   1      45.340  25.386  37.049  1.00  0.00     0.124 S 
ATOM     72  O   UNL A   1      45.308  24.115  36.334  1.00  0.00    -0.237 OA
ATOM     73  O   UNL A   1      46.620  26.086  37.054  1.00  0.00    -0.237 OA
ATOM     74  O   UNL A   1      44.609  25.421  38.313  1.00  0.00    -0.744 OA
ENDBRANCH  70  71
ENDBRANCH  49  63
BRANCH  50  75
ATOM     75  C   UNL A   1      43.515  25.453  26.332  1.00  0.00     0.058 A 
ATOM     76  C   UNL A   1      44.510  25.240  25.365  1.00  0.00     0.135 A 
ATOM     77  C   UNL A   1      42.818  24.309  26.776  1.00  0.00     0.135 A 
ATOM     78  F   UNL A   1      45.232  26.271  24.902  1.00  0.00    -0.206 F 
ATOM     79  C   UNL A   1      44.833  23.961  24.903  1.00  0.00     0.059 A 
ATOM     80  C   UNL A   1      43.114  23.026  26.321  1.00  0.00     0.059 A 
ATOM     81  F   UNL A   1      41.887  24.400  27.739  1.00  0.00    -0.206 F 
ATOM     82  C   UNL A   1      44.144  22.857  25.403  1.00  0.00     0.060 A 
BRANCH  82  83
ATOM     83  S   UNL A   1      44.687  21.195  24.944  1.00  0.00     0.124 S 
ATOM     84  O   UNL A   1      43.733  20.357  25.665  1.00  0.00    -0.237 OA
ATOM     85  O   UNL A   1      44.544  21.215  23.492  1.00  0.00    -0.237 OA
ATOM     86  O   UNL A   1      46.061  21.139  25.432  1.00  0.00    -0.744 OA
ENDBRANCH  82  83
ENDBRANCH  50  75
BRANCH  62  87
ATOM     87  C   UNL A   1      45.348  31.133  28.562  1.00  0.00     0.058 A 
ATOM     88  C   UNL A   1      44.298  31.711  27.827  1.00  0.00     0.135 A 
ATOM     89  C   UNL A   1      46.631  31.668  28.372  1.00  0.00     0.135 A 
ATOM     90  F   UNL A   1      43.029  31.332  28.022  1.00  0.00    -0.206 F 
ATOM     91  C   UNL A   1      44.520  32.746  26.917  1.00  0.00     0.059 A 
ATOM     92  C   UNL A   1      46.871  32.721  27.492  1.00  0.00     0.059 A 
ATOM     93  F   UNL A   1      47.667  31.201  29.088  1.00  0.00    -0.206 F 
ATOM     94  C   UNL A   1      45.811  33.248  26.756  1.00  0.00     0.060 A 
BRANCH  94  95
ATOM     95  S   UNL A   1      46.083  34.645  25.646  1.00  0.00     0.124 S 
ATOM     96  O   UNL A   1      45.239  34.301  24.506  1.00  0.00    -0.237 OA
ATOM     97  O   UNL A   1      45.631  35.782  26.447  1.00  0.00    -0.237 OA
ATOM     98  O   UNL A   1      47.519  34.608  25.394  1.00  0.00    -0.744 OA
ENDBRANCH  94  95
ENDBRANCH  62  87
ENDBRANCH  36  37
ENDBRANCH  28  31
ENDBRANCH  26  27
ENDBRANCH   1  26
TORSDOF 16
ENDMDL
