MODEL 1
REMARK VINA RESULT:     -12.7      0.000      0.000
REMARK SMILES CCc1c(Cl)ccc2c1C=C(C(=O)NCCCNC(=O)c1ccc(-c3c4nc(c(-c5c(F)cc(S(=O)(=O)[O-])cc5F)c5ccc([nH]5)c(-c5c(F)cc(S(=O)(=O)[O-])cc5F)c5nc(c(-c6c(F)cc(S(=O)(=O)[O-])cc6F)c6ccc3[nH]6)C=C5)C=C4)cc1)[C@@H](C(F)(F)F)O2
REMARK SMILES IDX 17 1 16 2 15 3 14 4 12 5 13 6 11 8 3 9 4 10 9 11 5 12 6 13
REMARK SMILES IDX 8 14 10 15 7 16 92 17 87 18 2 19 1 20 88 21 89 22 90 23
REMARK SMILES IDX 91 24 18 25 19 26 20 28 21 29 22 30 86 31 23 32 85 33 24 34
REMARK SMILES IDX 25 35 26 36 79 37 27 38 84 39 78 40 80 41 28 42 83 43 77 44
REMARK SMILES IDX 76 45 29 47 63 48 42 49 62 50 43 51 46 52 61 53 81 54 44 55
REMARK SMILES IDX 45 56 60 58 82 59 47 60 30 61 31 62 40 63 32 64 33 65 39 66
REMARK SMILES IDX 41 67 34 68 35 69 36 70 37 71 38 72 64 73 65 74 74 75 66 76
REMARK SMILES IDX 67 77 73 78 75 79 68 80 69 81 70 82 71 83 72 84 48 85 49 86
REMARK SMILES IDX 58 87 50 88 51 89 57 90 59 91 52 92 53 93 54 94 55 95 56 96
REMARK H PARENT 14 7 18 27 80 46 46 57
REMARK Flexibility Score: inf
ROOT
ATOM      1  C   UNL A   1      35.313  30.930  27.975  1.00  0.00     0.118 C 
ENDROOT
BRANCH   1   2
ATOM      2  C   UNL A   1      34.525  29.750  27.416  1.00  0.00     0.042 C 
BRANCH   2   3
ATOM      3  C   UNL A   1      33.226  30.171  26.745  1.00  0.00     0.118 C 
BRANCH   3   4
ATOM      4  N   UNL A   1      33.182  29.791  25.339  1.00  0.00    -0.352 N 
ATOM      5  C   UNL A   1      32.882  28.692  24.607  1.00  0.00     0.251 C 
ATOM      6  O   UNL A   1      32.965  28.844  23.383  1.00  0.00    -0.270 OA
ATOM      7  H   UNL A   1      33.443  30.543  24.759  1.00  0.00     0.163 HD
BRANCH   5   8
ATOM      8  C   UNL A   1      32.469  27.366  25.159  1.00  0.00     0.067 C 
ATOM      9  C   UNL A   1      34.115  24.078  25.952  1.00  0.00    -0.019 A 
ATOM     10  C   UNL A   1      33.707  22.855  26.540  1.00  0.00     0.045 A 
ATOM     11  C   UNL A   1      33.167  25.135  25.877  1.00  0.00     0.022 A 
ATOM     12  Cl  UNL A   1      34.777  21.503  26.711  1.00  0.00    -0.084 Cl
ATOM     13  C   UNL A   1      32.413  22.681  27.036  1.00  0.00     0.024 A 
ATOM     14  C   UNL A   1      31.874  24.932  26.388  1.00  0.00     0.128 A 
ATOM     15  C   UNL A   1      33.460  26.470  25.342  1.00  0.00     0.026 C 
ATOM     16  C   UNL A   1      31.499  23.722  26.965  1.00  0.00     0.048 A 
ATOM     17  O   UNL A   1      30.910  25.899  26.413  1.00  0.00    -0.475 OA
ATOM     18  C   UNL A   1      31.054  27.000  25.482  1.00  0.00     0.314 C 
BRANCH   9  19
ATOM     19  C   UNL A   1      35.530  24.215  25.417  1.00  0.00     0.034 C 
ATOM     20  C   UNL A   1      35.667  23.721  23.983  1.00  0.00     0.009 C 
ENDBRANCH   9  19
BRANCH  18  21
ATOM     21  C   UNL A   1      30.214  26.711  24.224  1.00  0.00     0.429 C 
ATOM     22  F   UNL A   1      29.751  27.865  23.684  1.00  0.00    -0.167 F 
ATOM     23  F   UNL A   1      30.926  26.092  23.252  1.00  0.00    -0.167 F 
ATOM     24  F   UNL A   1      29.144  25.926  24.481  1.00  0.00    -0.167 F 
ENDBRANCH  18  21
ENDBRANCH   5   8
ENDBRANCH   3   4
ENDBRANCH   2   3
ENDBRANCH   1   2
BRANCH   1  25
ATOM     25  N   UNL A   1      35.368  30.921  29.435  1.00  0.00    -0.352 N 
ATOM     26  C   UNL A   1      36.291  30.370  30.292  1.00  0.00     0.251 C 
ATOM     27  H   UNL A   1      34.622  31.386  29.877  1.00  0.00     0.163 HD
ATOM     28  O   UNL A   1      36.031  30.293  31.490  1.00  0.00    -0.269 OA
BRANCH  26  29
ATOM     29  C   UNL A   1      37.579  29.857  29.778  1.00  0.00     0.039 A 
ATOM     30  C   UNL A   1      38.436  29.140  30.612  1.00  0.00     0.014 A 
ATOM     31  C   UNL A   1      37.932  30.087  28.445  1.00  0.00     0.014 A 
ATOM     32  C   UNL A   1      39.718  28.830  30.178  1.00  0.00     0.010 A 
ATOM     33  C   UNL A   1      39.186  29.679  27.977  1.00  0.00     0.010 A 
ATOM     34  C   UNL A   1      40.111  29.094  28.856  1.00  0.00    -0.014 A 
BRANCH  34  35
ATOM     35  C   UNL A   1      41.495  28.751  28.433  1.00  0.00     0.031 A 
ATOM     36  C   UNL A   1      42.607  29.762  28.545  1.00  0.00     0.074 A 
ATOM     37  C   UNL A   1      41.762  27.494  28.029  1.00  0.00     0.049 A 
ATOM     38  N   UNL A   1      43.876  29.622  28.256  1.00  0.00    -0.248 NA
ATOM     39  C   UNL A   1      42.253  31.101  29.040  1.00  0.00     0.031 C 
ATOM     40  C   UNL A   1      40.768  26.425  27.892  1.00  0.00     0.029 A 
ATOM     41  N   UNL A   1      42.946  26.886  27.698  1.00  0.00    -0.354 N 
ATOM     42  C   UNL A   1      44.466  30.855  28.511  1.00  0.00     0.074 A 
ATOM     43  C   UNL A   1      43.411  31.741  28.955  1.00  0.00     0.031 C 
ATOM     44  C   UNL A   1      41.392  25.279  27.584  1.00  0.00     0.029 A 
ATOM     45  C   UNL A   1      42.819  25.544  27.427  1.00  0.00     0.049 A 
ATOM     46  H   UNL A   1      43.806  27.365  27.657  1.00  0.00     0.167 HD
ATOM     47  C   UNL A   1      45.767  31.212  28.398  1.00  0.00     0.037 A 
ATOM     48  C   UNL A   1      43.742  24.626  27.081  1.00  0.00     0.037 A 
ATOM     49  C   UNL A   1      46.817  30.316  27.986  1.00  0.00     0.049 A 
ATOM     50  C   UNL A   1      45.172  25.054  26.937  1.00  0.00     0.074 A 
ATOM     51  C   UNL A   1      48.168  30.579  27.847  1.00  0.00     0.029 A 
ATOM     52  N   UNL A   1      46.635  28.980  27.657  1.00  0.00    -0.354 N 
ATOM     53  N   UNL A   1      45.704  26.232  27.159  1.00  0.00    -0.248 NA
ATOM     54  C   UNL A   1      46.126  24.036  26.477  1.00  0.00     0.031 C 
ATOM     55  C   UNL A   1      48.799  29.412  27.403  1.00  0.00     0.029 A 
ATOM     56  C   UNL A   1      47.847  28.410  27.302  1.00  0.00     0.049 A 
ATOM     57  H   UNL A   1      45.772  28.507  27.673  1.00  0.00     0.167 HD
ATOM     58  C   UNL A   1      47.055  26.100  26.863  1.00  0.00     0.074 A 
ATOM     59  C   UNL A   1      47.263  24.719  26.471  1.00  0.00     0.031 C 
ATOM     60  C   UNL A   1      48.032  27.037  26.905  1.00  0.00     0.037 A 
BRANCH  47  61
ATOM     61  C   UNL A   1      46.135  32.635  28.713  1.00  0.00     0.058 A 
ATOM     62  C   UNL A   1      45.964  33.665  27.774  1.00  0.00     0.135 A 
ATOM     63  C   UNL A   1      46.617  32.982  29.986  1.00  0.00     0.135 A 
ATOM     64  F   UNL A   1      45.524  33.385  26.536  1.00  0.00    -0.206 F 
ATOM     65  C   UNL A   1      46.275  34.986  28.080  1.00  0.00     0.059 A 
ATOM     66  C   UNL A   1      46.914  34.301  30.320  1.00  0.00     0.059 A 
ATOM     67  F   UNL A   1      46.801  32.036  30.920  1.00  0.00    -0.206 F 
ATOM     68  C   UNL A   1      46.749  35.294  29.356  1.00  0.00     0.060 A 
BRANCH  68  69
ATOM     69  S   UNL A   1      47.141  37.015  29.737  1.00  0.00     0.124 S 
ATOM     70  O   UNL A   1      47.999  37.374  28.612  1.00  0.00    -0.237 OA
ATOM     71  O   UNL A   1      45.821  37.640  29.752  1.00  0.00    -0.237 OA
ATOM     72  O   UNL A   1      47.808  36.934  31.033  1.00  0.00    -0.744 OA
ENDBRANCH  68  69
ENDBRANCH  47  61
BRANCH  48  73
ATOM     73  C   UNL A   1      43.327  23.220  26.846  1.00  0.00     0.058 A 
ATOM     74  C   UNL A   1      43.245  22.699  25.546  1.00  0.00     0.135 A 
ATOM     75  C   UNL A   1      43.056  22.354  27.917  1.00  0.00     0.135 A 
ATOM     76  F   UNL A   1      43.488  23.490  24.491  1.00  0.00    -0.206 F 
ATOM     77  C   UNL A   1      42.911  21.369  25.316  1.00  0.00     0.059 A 
ATOM     78  C   UNL A   1      42.745  21.014  27.713  1.00  0.00     0.059 A 
ATOM     79  F   UNL A   1      43.136  22.801  29.180  1.00  0.00    -0.206 F 
ATOM     80  C   UNL A   1      42.671  20.531  26.407  1.00  0.00     0.060 A 
BRANCH  80  81
ATOM     81  S   UNL A   1      42.318  18.787  26.101  1.00  0.00     0.124 S 
ATOM     82  O   UNL A   1      42.591  18.200  27.407  1.00  0.00    -0.237 OA
ATOM     83  O   UNL A   1      40.916  18.824  25.696  1.00  0.00    -0.237 OA
ATOM     84  O   UNL A   1      43.258  18.436  25.040  1.00  0.00    -0.744 OA
ENDBRANCH  80  81
ENDBRANCH  48  73
BRANCH  60  85
ATOM     85  C   UNL A   1      49.415  26.606  26.512  1.00  0.00     0.058 A 
ATOM     86  C   UNL A   1      50.251  25.933  27.415  1.00  0.00     0.135 A 
ATOM     87  C   UNL A   1      49.883  26.813  25.205  1.00  0.00     0.135 A 
ATOM     88  F   UNL A   1      49.849  25.720  28.679  1.00  0.00    -0.206 F 
ATOM     89  C   UNL A   1      51.515  25.492  27.040  1.00  0.00     0.059 A 
ATOM     90  C   UNL A   1      51.135  26.359  24.803  1.00  0.00     0.059 A 
ATOM     91  F   UNL A   1      49.116  27.444  24.303  1.00  0.00    -0.206 F 
ATOM     92  C   UNL A   1      51.947  25.707  25.731  1.00  0.00     0.060 A 
BRANCH  92  93
ATOM     93  S   UNL A   1      53.572  25.088  25.245  1.00  0.00     0.124 S 
ATOM     94  O   UNL A   1      53.671  25.572  23.871  1.00  0.00    -0.237 OA
ATOM     95  O   UNL A   1      54.454  25.736  26.211  1.00  0.00    -0.237 OA
ATOM     96  O   UNL A   1      53.444  23.641  25.394  1.00  0.00    -0.744 OA
ENDBRANCH  92  93
ENDBRANCH  60  85
ENDBRANCH  34  35
ENDBRANCH  26  29
ENDBRANCH   1  25
TORSDOF 15
ENDMDL
MODEL 2
REMARK VINA RESULT:     -12.6      6.607     11.895
REMARK SMILES CCc1c(Cl)ccc2c1C=C(C(=O)NCCCNC(=O)c1ccc(-c3c4nc(c(-c5c(F)cc(S(=O)(=O)[O-])cc5F)c5ccc([nH]5)c(-c5c(F)cc(S(=O)(=O)[O-])cc5F)c5nc(c(-c6c(F)cc(S(=O)(=O)[O-])cc6F)c6ccc3[nH]6)C=C5)C=C4)cc1)[C@@H](C(F)(F)F)O2
REMARK SMILES IDX 17 1 16 2 15 3 14 4 12 5 13 6 11 8 3 9 4 10 9 11 5 12 6 13
REMARK SMILES IDX 8 14 10 15 7 16 92 17 87 18 2 19 1 20 88 21 89 22 90 23
REMARK SMILES IDX 91 24 18 25 19 26 20 28 21 29 22 30 86 31 23 32 85 33 24 34
REMARK SMILES IDX 25 35 26 36 79 37 27 38 84 39 78 40 80 41 28 42 83 43 77 44
REMARK SMILES IDX 76 45 29 47 63 48 42 49 62 50 43 51 46 52 61 53 81 54 44 55
REMARK SMILES IDX 45 56 60 58 82 59 47 60 30 61 31 62 40 63 32 64 33 65 39 66
REMARK SMILES IDX 41 67 34 68 35 69 36 70 37 71 38 72 64 73 65 74 74 75 66 76
REMARK SMILES IDX 67 77 73 78 75 79 68 80 69 81 70 82 71 83 72 84 48 85 49 86
REMARK SMILES IDX 58 87 50 88 51 89 57 90 59 91 52 92 53 93 54 94 55 95 56 96
REMARK H PARENT 14 7 18 27 80 46 46 57
REMARK Flexibility Score: inf
ROOT
ATOM      1  C   UNL A   1      39.545  23.236  26.876  1.00  0.00     0.118 C 
ENDROOT
BRANCH   1   2
ATOM      2  C   UNL A   1      38.293  23.500  26.047  1.00  0.00     0.042 C 
BRANCH   2   3
ATOM      3  C   UNL A   1      37.668  22.225  25.498  1.00  0.00     0.118 C 
BRANCH   3   4
ATOM      4  N   UNL A   1      36.382  21.929  26.116  1.00  0.00    -0.352 N 
ATOM      5  C   UNL A   1      35.083  22.267  25.936  1.00  0.00     0.251 C 
ATOM      6  O   UNL A   1      34.294  21.731  26.722  1.00  0.00    -0.270 OA
ATOM      7  H   UNL A   1      36.487  21.313  26.877  1.00  0.00     0.163 HD
BRANCH   5   8
ATOM      8  C   UNL A   1      34.563  23.200  24.891  1.00  0.00     0.067 C 
ATOM      9  C   UNL A   1      33.641  26.839  24.658  1.00  0.00    -0.019 A 
ATOM     10  C   UNL A   1      33.212  27.713  23.628  1.00  0.00     0.045 A 
ATOM     11  C   UNL A   1      33.946  25.494  24.312  1.00  0.00     0.022 A 
ATOM     12  Cl  UNL A   1      32.833  29.379  23.921  1.00  0.00    -0.084 Cl
ATOM     13  C   UNL A   1      33.090  27.277  22.308  1.00  0.00     0.024 A 
ATOM     14  C   UNL A   1      33.818  25.086  22.974  1.00  0.00     0.128 A 
ATOM     15  C   UNL A   1      34.448  24.491  25.260  1.00  0.00     0.026 C 
ATOM     16  C   UNL A   1      33.399  25.966  21.979  1.00  0.00     0.048 A 
ATOM     17  O   UNL A   1      34.138  23.834  22.530  1.00  0.00    -0.475 OA
ATOM     18  C   UNL A   1      34.162  22.771  23.514  1.00  0.00     0.314 C 
BRANCH   9  19
ATOM     19  C   UNL A   1      33.747  27.356  26.082  1.00  0.00     0.034 C 
ATOM     20  C   UNL A   1      32.430  27.265  26.842  1.00  0.00     0.009 C 
ENDBRANCH   9  19
BRANCH  18  21
ATOM     21  C   UNL A   1      32.810  22.034  23.493  1.00  0.00     0.429 C 
ATOM     22  F   UNL A   1      32.965  20.741  23.873  1.00  0.00    -0.167 F 
ATOM     23  F   UNL A   1      31.907  22.576  24.345  1.00  0.00    -0.167 F 
ATOM     24  F   UNL A   1      32.237  22.031  22.269  1.00  0.00    -0.167 F 
ENDBRANCH  18  21
ENDBRANCH   5   8
ENDBRANCH   3   4
ENDBRANCH   2   3
ENDBRANCH   1   2
BRANCH   1  25
ATOM     25  N   UNL A   1      40.764  23.670  26.197  1.00  0.00    -0.352 N 
ATOM     26  C   UNL A   1      41.456  24.856  26.273  1.00  0.00     0.251 C 
ATOM     27  H   UNL A   1      41.153  23.006  25.585  1.00  0.00     0.163 HD
ATOM     28  O   UNL A   1      42.338  25.094  25.452  1.00  0.00    -0.269 OA
BRANCH  26  29
ATOM     29  C   UNL A   1      41.132  25.848  27.320  1.00  0.00     0.039 A 
ATOM     30  C   UNL A   1      41.807  27.067  27.371  1.00  0.00     0.014 A 
ATOM     31  C   UNL A   1      40.136  25.561  28.260  1.00  0.00     0.014 A 
ATOM     32  C   UNL A   1      41.632  27.906  28.464  1.00  0.00     0.010 A 
ATOM     33  C   UNL A   1      39.886  26.459  29.304  1.00  0.00     0.010 A 
ATOM     34  C   UNL A   1      40.670  27.615  29.445  1.00  0.00    -0.014 A 
BRANCH  34  35
ATOM     35  C   UNL A   1      40.518  28.536  30.601  1.00  0.00     0.031 A 
ATOM     36  C   UNL A   1      41.493  28.499  31.750  1.00  0.00     0.074 A 
ATOM     37  C   UNL A   1      39.545  29.469  30.571  1.00  0.00     0.049 A 
ATOM     38  N   UNL A   1      41.532  29.251  32.819  1.00  0.00    -0.248 NA
ATOM     39  C   UNL A   1      42.560  27.487  31.694  1.00  0.00     0.031 C 
ATOM     40  C   UNL A   1      38.548  29.610  29.506  1.00  0.00     0.029 A 
ATOM     41  N   UNL A   1      39.255  30.496  31.431  1.00  0.00    -0.354 N 
ATOM     42  C   UNL A   1      42.607  28.792  33.573  1.00  0.00     0.074 A 
ATOM     43  C   UNL A   1      43.180  27.677  32.850  1.00  0.00     0.031 C 
ATOM     44  C   UNL A   1      37.810  30.706  29.735  1.00  0.00     0.029 A 
ATOM     45  C   UNL A   1      38.228  31.303  30.999  1.00  0.00     0.049 A 
ATOM     46  H   UNL A   1      39.735  30.643  32.279  1.00  0.00     0.167 HD
ATOM     47  C   UNL A   1      43.078  29.264  34.752  1.00  0.00     0.037 A 
ATOM     48  C   UNL A   1      37.676  32.396  31.557  1.00  0.00     0.037 A 
ATOM     49  C   UNL A   1      42.521  30.393  35.450  1.00  0.00     0.049 A 
ATOM     50  C   UNL A   1      38.200  32.882  32.876  1.00  0.00     0.074 A 
ATOM     51  C   UNL A   1      42.933  30.953  36.647  1.00  0.00     0.029 A 
ATOM     52  N   UNL A   1      41.439  31.142  35.010  1.00  0.00    -0.354 N 
ATOM     53  N   UNL A   1      39.202  32.417  33.584  1.00  0.00    -0.248 NA
ATOM     54  C   UNL A   1      37.509  34.027  33.484  1.00  0.00     0.031 C 
ATOM     55  C   UNL A   1      42.080  32.021  36.947  1.00  0.00     0.029 A 
ATOM     56  C   UNL A   1      41.161  32.151  35.918  1.00  0.00     0.049 A 
ATOM     57  H   UNL A   1      40.944  30.981  34.175  1.00  0.00     0.167 HD
ATOM     58  C   UNL A   1      39.261  33.210  34.722  1.00  0.00     0.074 A 
ATOM     59  C   UNL A   1      38.210  34.201  34.597  1.00  0.00     0.031 C 
ATOM     60  C   UNL A   1      40.104  33.121  35.780  1.00  0.00     0.037 A 
BRANCH  47  61
ATOM     61  C   UNL A   1      44.250  28.555  35.372  1.00  0.00     0.058 A 
ATOM     62  C   UNL A   1      45.573  28.928  35.083  1.00  0.00     0.135 A 
ATOM     63  C   UNL A   1      44.049  27.525  36.305  1.00  0.00     0.135 A 
ATOM     64  F   UNL A   1      45.822  29.894  34.185  1.00  0.00    -0.206 F 
ATOM     65  C   UNL A   1      46.655  28.292  35.684  1.00  0.00     0.059 A 
ATOM     66  C   UNL A   1      45.116  26.889  36.934  1.00  0.00     0.059 A 
ATOM     67  F   UNL A   1      42.805  27.129  36.616  1.00  0.00    -0.206 F 
ATOM     68  C   UNL A   1      46.416  27.273  36.608  1.00  0.00     0.060 A 
BRANCH  68  69
ATOM     69  S   UNL A   1      47.832  26.464  37.383  1.00  0.00     0.124 S 
ATOM     70  O   UNL A   1      48.933  26.947  36.554  1.00  0.00    -0.237 OA
ATOM     71  O   UNL A   1      47.786  26.989  38.744  1.00  0.00    -0.237 OA
ATOM     72  O   UNL A   1      47.526  25.042  37.251  1.00  0.00    -0.744 OA
ENDBRANCH  68  69
ENDBRANCH  47  61
BRANCH  48  73
ATOM     73  C   UNL A   1      36.562  33.092  30.864  1.00  0.00     0.058 A 
ATOM     74  C   UNL A   1      35.241  32.968  31.316  1.00  0.00     0.135 A 
ATOM     75  C   UNL A   1      36.803  33.935  29.767  1.00  0.00     0.135 A 
ATOM     76  F   UNL A   1      34.960  32.169  32.356  1.00  0.00    -0.206 F 
ATOM     77  C   UNL A   1      34.196  33.659  30.709  1.00  0.00     0.059 A 
ATOM     78  C   UNL A   1      35.780  34.655  29.160  1.00  0.00     0.059 A 
ATOM     79  F   UNL A   1      38.053  34.098  29.307  1.00  0.00    -0.206 F 
ATOM     80  C   UNL A   1      34.478  34.506  29.636  1.00  0.00     0.060 A 
BRANCH  80  81
ATOM     81  S   UNL A   1      33.129  35.459  28.906  1.00  0.00     0.124 S 
ATOM     82  O   UNL A   1      32.435  35.941  30.094  1.00  0.00    -0.237 OA
ATOM     83  O   UNL A   1      33.848  36.467  28.133  1.00  0.00    -0.237 OA
ATOM     84  O   UNL A   1      32.410  34.468  28.111  1.00  0.00    -0.744 OA
ENDBRANCH  80  81
ENDBRANCH  48  73
BRANCH  60  85
ATOM     85  C   UNL A   1      39.923  34.117  36.888  1.00  0.00     0.058 A 
ATOM     86  C   UNL A   1      40.491  35.397  36.815  1.00  0.00     0.135 A 
ATOM     87  C   UNL A   1      39.126  33.809  38.002  1.00  0.00     0.135 A 
ATOM     88  F   UNL A   1      41.268  35.735  35.773  1.00  0.00    -0.206 F 
ATOM     89  C   UNL A   1      40.286  36.338  37.819  1.00  0.00     0.059 A 
ATOM     90  C   UNL A   1      38.891  34.743  39.006  1.00  0.00     0.059 A 
ATOM     91  F   UNL A   1      38.555  32.600  38.111  1.00  0.00    -0.206 F 
ATOM     92  C   UNL A   1      39.482  36.002  38.909  1.00  0.00     0.060 A 
BRANCH  92  93
ATOM     93  S   UNL A   1      39.189  37.248  40.182  1.00  0.00     0.124 S 
ATOM     94  O   UNL A   1      38.483  36.470  41.195  1.00  0.00    -0.237 OA
ATOM     95  O   UNL A   1      40.544  37.663  40.531  1.00  0.00    -0.237 OA
ATOM     96  O   UNL A   1      38.389  38.257  39.493  1.00  0.00    -0.744 OA
ENDBRANCH  92  93
ENDBRANCH  60  85
ENDBRANCH  34  35
ENDBRANCH  26  29
ENDBRANCH   1  25
TORSDOF 15
ENDMDL
MODEL 3
REMARK VINA RESULT:     -12.6      6.733     11.930
REMARK SMILES CCc1c(Cl)ccc2c1C=C(C(=O)NCCCNC(=O)c1ccc(-c3c4nc(c(-c5c(F)cc(S(=O)(=O)[O-])cc5F)c5ccc([nH]5)c(-c5c(F)cc(S(=O)(=O)[O-])cc5F)c5nc(c(-c6c(F)cc(S(=O)(=O)[O-])cc6F)c6ccc3[nH]6)C=C5)C=C4)cc1)[C@@H](C(F)(F)F)O2
REMARK SMILES IDX 17 1 16 2 15 3 14 4 12 5 13 6 11 8 3 9 4 10 9 11 5 12 6 13
REMARK SMILES IDX 8 14 10 15 7 16 92 17 87 18 2 19 1 20 88 21 89 22 90 23
REMARK SMILES IDX 91 24 18 25 19 26 20 28 21 29 22 30 86 31 23 32 85 33 24 34
REMARK SMILES IDX 25 35 26 36 79 37 27 38 84 39 78 40 80 41 28 42 83 43 77 44
REMARK SMILES IDX 76 45 29 47 63 48 42 49 62 50 43 51 46 52 61 53 81 54 44 55
REMARK SMILES IDX 45 56 60 58 82 59 47 60 30 61 31 62 40 63 32 64 33 65 39 66
REMARK SMILES IDX 41 67 34 68 35 69 36 70 37 71 38 72 64 73 65 74 74 75 66 76
REMARK SMILES IDX 67 77 73 78 75 79 68 80 69 81 70 82 71 83 72 84 48 85 49 86
REMARK SMILES IDX 58 87 50 88 51 89 57 90 59 91 52 92 53 93 54 94 55 95 56 96
REMARK H PARENT 14 7 18 27 80 46 46 57
REMARK Flexibility Score: inf
ROOT
ATOM      1  C   UNL A   1      40.230  23.149  26.959  1.00  0.00     0.118 C 
ENDROOT
BRANCH   1   2
ATOM      2  C   UNL A   1      39.291  22.168  26.265  1.00  0.00     0.042 C 
BRANCH   2   3
ATOM      3  C   UNL A   1      37.914  22.758  25.995  1.00  0.00     0.118 C 
BRANCH   3   4
ATOM      4  N   UNL A   1      37.619  22.844  24.570  1.00  0.00    -0.352 N 
ATOM      5  C   UNL A   1      36.530  22.999  23.781  1.00  0.00     0.251 C 
ATOM      6  O   UNL A   1      36.770  23.042  22.569  1.00  0.00    -0.270 OA
ATOM      7  H   UNL A   1      38.440  22.769  24.033  1.00  0.00     0.163 HD
BRANCH   5   8
ATOM      8  C   UNL A   1      35.120  23.121  24.258  1.00  0.00     0.067 C 
ATOM      9  C   UNL A   1      32.917  25.814  25.687  1.00  0.00    -0.019 A 
ATOM     10  C   UNL A   1      31.556  25.915  26.068  1.00  0.00     0.045 A 
ATOM     11  C   UNL A   1      33.365  24.589  25.121  1.00  0.00     0.022 A 
ATOM     12  Cl  UNL A   1      30.886  27.363  26.747  1.00  0.00    -0.084 Cl
ATOM     13  C   UNL A   1      30.670  24.850  25.897  1.00  0.00     0.024 A 
ATOM     14  C   UNL A   1      32.450  23.536  24.957  1.00  0.00     0.128 A 
ATOM     15  C   UNL A   1      34.730  24.356  24.634  1.00  0.00     0.026 C 
ATOM     16  C   UNL A   1      31.116  23.663  25.335  1.00  0.00     0.048 A 
ATOM     17  O   UNL A   1      32.767  22.342  24.374  1.00  0.00    -0.475 OA
ATOM     18  C   UNL A   1      34.167  21.970  24.350  1.00  0.00     0.314 C 
BRANCH   9  19
ATOM     19  C   UNL A   1      33.845  26.997  25.904  1.00  0.00     0.034 C 
ATOM     20  C   UNL A   1      33.785  28.008  24.766  1.00  0.00     0.009 C 
ENDBRANCH   9  19
BRANCH  18  21
ATOM     21  C   UNL A   1      34.465  21.048  25.547  1.00  0.00     0.429 C 
ATOM     22  F   UNL A   1      33.399  20.255  25.815  1.00  0.00    -0.167 F 
ATOM     23  F   UNL A   1      35.511  20.218  25.317  1.00  0.00    -0.167 F 
ATOM     24  F   UNL A   1      34.754  21.734  26.675  1.00  0.00    -0.167 F 
ENDBRANCH  18  21
ENDBRANCH   5   8
ENDBRANCH   3   4
ENDBRANCH   2   3
ENDBRANCH   1   2
BRANCH   1  25
ATOM     25  N   UNL A   1      40.989  23.959  26.009  1.00  0.00    -0.352 N 
ATOM     26  C   UNL A   1      41.397  25.271  26.078  1.00  0.00     0.251 C 
ATOM     27  H   UNL A   1      41.250  23.490  25.185  1.00  0.00     0.163 HD
ATOM     28  O   UNL A   1      41.840  25.819  25.072  1.00  0.00    -0.269 OA
BRANCH  26  29
ATOM     29  C   UNL A   1      41.289  26.024  27.346  1.00  0.00     0.039 A 
ATOM     30  C   UNL A   1      40.155  25.897  28.147  1.00  0.00     0.014 A 
ATOM     31  C   UNL A   1      42.336  26.861  27.744  1.00  0.00     0.014 A 
ATOM     32  C   UNL A   1      39.981  26.747  29.231  1.00  0.00     0.010 A 
ATOM     33  C   UNL A   1      42.203  27.641  28.898  1.00  0.00     0.010 A 
ATOM     34  C   UNL A   1      41.000  27.630  29.623  1.00  0.00    -0.014 A 
BRANCH  34  35
ATOM     35  C   UNL A   1      40.771  28.527  30.786  1.00  0.00     0.031 A 
ATOM     36  C   UNL A   1      41.692  28.495  31.978  1.00  0.00     0.074 A 
ATOM     37  C   UNL A   1      39.776  29.434  30.725  1.00  0.00     0.049 A 
ATOM     38  N   UNL A   1      41.662  29.230  33.060  1.00  0.00    -0.248 NA
ATOM     39  C   UNL A   1      42.787  27.512  31.956  1.00  0.00     0.031 C 
ATOM     40  C   UNL A   1      38.826  29.568  29.616  1.00  0.00     0.029 A 
ATOM     41  N   UNL A   1      39.419  30.439  31.586  1.00  0.00    -0.354 N 
ATOM     42  C   UNL A   1      42.712  28.786  33.855  1.00  0.00     0.074 A 
ATOM     43  C   UNL A   1      43.348  27.699  33.143  1.00  0.00     0.031 C 
ATOM     44  C   UNL A   1      38.049  30.640  29.828  1.00  0.00     0.029 A 
ATOM     45  C   UNL A   1      38.393  31.226  31.119  1.00  0.00     0.049 A 
ATOM     46  H   UNL A   1      39.855  30.584  32.458  1.00  0.00     0.167 HD
ATOM     47  C   UNL A   1      43.116  29.250  35.062  1.00  0.00     0.037 A 
ATOM     48  C   UNL A   1      37.786  32.295  31.669  1.00  0.00     0.037 A 
ATOM     49  C   UNL A   1      42.497  30.353  35.752  1.00  0.00     0.049 A 
ATOM     50  C   UNL A   1      38.235  32.772  33.018  1.00  0.00     0.074 A 
ATOM     51  C   UNL A   1      42.838  30.903  36.975  1.00  0.00     0.029 A 
ATOM     52  N   UNL A   1      41.418  31.081  35.273  1.00  0.00    -0.354 N 
ATOM     53  N   UNL A   1      39.216  32.322  33.764  1.00  0.00    -0.248 NA
ATOM     54  C   UNL A   1      37.487  33.888  33.611  1.00  0.00     0.031 C 
ATOM     55  C   UNL A   1      41.945  31.943  37.251  1.00  0.00     0.029 A 
ATOM     56  C   UNL A   1      41.070  32.066  36.183  1.00  0.00     0.049 A 
ATOM     57  H   UNL A   1      40.965  30.921  34.414  1.00  0.00     0.167 HD
ATOM     58  C   UNL A   1      39.201  33.096  34.917  1.00  0.00     0.074 A 
ATOM     59  C   UNL A   1      38.130  34.062  34.758  1.00  0.00     0.031 C 
ATOM     60  C   UNL A   1      39.995  33.011  36.010  1.00  0.00     0.037 A 
BRANCH  47  61
ATOM     61  C   UNL A   1      44.277  28.562  35.725  1.00  0.00     0.058 A 
ATOM     62  C   UNL A   1      44.089  27.480  36.600  1.00  0.00     0.135 A 
ATOM     63  C   UNL A   1      45.595  28.956  35.444  1.00  0.00     0.135 A 
ATOM     64  F   UNL A   1      42.849  27.075  36.918  1.00  0.00    -0.206 F 
ATOM     65  C   UNL A   1      45.167  26.825  37.188  1.00  0.00     0.059 A 
ATOM     66  C   UNL A   1      46.690  28.301  36.004  1.00  0.00     0.059 A 
ATOM     67  F   UNL A   1      45.830  29.986  34.616  1.00  0.00    -0.206 F 
ATOM     68  C   UNL A   1      46.464  27.243  36.883  1.00  0.00     0.060 A 
BRANCH  68  69
ATOM     69  S   UNL A   1      47.850  26.376  37.649  1.00  0.00     0.124 S 
ATOM     70  O   UNL A   1      47.534  26.518  39.067  1.00  0.00    -0.237 OA
ATOM     71  O   UNL A   1      47.718  25.029  37.101  1.00  0.00    -0.237 OA
ATOM     72  O   UNL A   1      49.016  27.126  37.189  1.00  0.00    -0.744 OA
ENDBRANCH  68  69
ENDBRANCH  47  61
BRANCH  48  73
ATOM     73  C   UNL A   1      36.687  32.974  30.935  1.00  0.00     0.058 A 
ATOM     74  C   UNL A   1      35.347  32.774  31.296  1.00  0.00     0.135 A 
ATOM     75  C   UNL A   1      36.958  33.875  29.893  1.00  0.00     0.135 A 
ATOM     76  F   UNL A   1      35.039  31.917  32.281  1.00  0.00    -0.206 F 
ATOM     77  C   UNL A   1      34.313  33.446  30.653  1.00  0.00     0.059 A 
ATOM     78  C   UNL A   1      35.943  34.577  29.252  1.00  0.00     0.059 A 
ATOM     79  F   UNL A   1      38.225  34.111  29.521  1.00  0.00    -0.206 F 
ATOM     80  C   UNL A   1      34.622  34.352  29.636  1.00  0.00     0.060 A 
BRANCH  80  81
ATOM     81  S   UNL A   1      33.279  35.279  28.862  1.00  0.00     0.124 S 
ATOM     82  O   UNL A   1      32.654  34.253  28.036  1.00  0.00    -0.237 OA
ATOM     83  O   UNL A   1      32.509  35.728  30.018  1.00  0.00    -0.237 OA
ATOM     84  O   UNL A   1      33.978  36.337  28.137  1.00  0.00    -0.744 OA
ENDBRANCH  80  81
ENDBRANCH  48  73
BRANCH  60  85
ATOM     85  C   UNL A   1      39.737  33.983  37.124  1.00  0.00     0.058 A 
ATOM     86  C   UNL A   1      38.910  33.647  38.206  1.00  0.00     0.135 A 
ATOM     87  C   UNL A   1      40.369  35.236  37.140  1.00  0.00     0.135 A 
ATOM     88  F   UNL A   1      38.277  32.463  38.231  1.00  0.00    -0.206 F 
ATOM     89  C   UNL A   1      38.706  34.528  39.262  1.00  0.00     0.059 A 
ATOM     90  C   UNL A   1      40.196  36.124  38.197  1.00  0.00     0.059 A 
ATOM     91  F   UNL A   1      41.176  35.599  36.130  1.00  0.00    -0.206 F 
ATOM     92  C   UNL A   1      39.356  35.763  39.250  1.00  0.00     0.060 A 
BRANCH  92  93
ATOM     93  S   UNL A   1      39.117  36.878  40.649  1.00  0.00     0.124 S 
ATOM     94  O   UNL A   1      38.448  36.005  41.608  1.00  0.00    -0.237 OA
ATOM     95  O   UNL A   1      40.486  37.258  40.984  1.00  0.00    -0.237 OA
ATOM     96  O   UNL A   1      38.294  37.949  40.094  1.00  0.00    -0.744 OA
ENDBRANCH  92  93
ENDBRANCH  60  85
ENDBRANCH  34  35
ENDBRANCH  26  29
ENDBRANCH   1  25
TORSDOF 15
ENDMDL
