MODEL 1
REMARK VINA RESULT:      -9.3      0.000      0.000
REMARK SMILES COc1cc(/C=C2\SC(=S)N(CC(=O)NCCCNC(=O)c3ccc(-c4c5nc(c(-c6c(F)cc(S(=O)(=O)[O-])cc6F)c6ccc([nH]6)c(-c6c(F)cc(S(=O)(=O)[O-])cc6F)c6nc(c(-c7c(F)cc(S(=O)(=O)[O-])cc7F)c7ccc4[nH]7)C=C6)C=C5)cc3)C2=O)cc2c1OCO2
REMARK SMILES IDX 17 1 16 2 15 3 13 4 14 5 12 7 11 8 6 9 7 10 8 11 88 12 9 13
REMARK SMILES IDX 89 14 10 15 5 16 3 17 4 18 92 19 91 20 93 21 90 22 95 23
REMARK SMILES IDX 94 24 2 25 1 26 18 27 19 28 20 29 21 31 22 32 23 33 87 34
REMARK SMILES IDX 24 35 86 36 25 37 26 38 27 39 80 40 28 41 85 42 79 43 81 44
REMARK SMILES IDX 29 45 84 46 78 47 77 48 30 50 64 51 43 52 63 53 44 54 47 55
REMARK SMILES IDX 62 56 82 57 45 58 46 59 61 61 83 62 48 63 31 64 32 65 41 66
REMARK SMILES IDX 33 67 34 68 40 69 42 70 35 71 36 72 37 73 38 74 39 75 65 76
REMARK SMILES IDX 66 77 75 78 67 79 68 80 74 81 76 82 69 83 70 84 71 85 72 86
REMARK SMILES IDX 73 87 49 88 50 89 59 90 51 91 52 92 58 93 60 94 53 95 54 96
REMARK SMILES IDX 55 97 56 98 57 99
REMARK H PARENT 15 6 19 30 81 49 47 60
REMARK Flexibility Score: inf
ROOT
ATOM      1  C   UNL A   1      34.332  33.422  29.939  1.00  0.00     0.042 C 
ENDROOT
BRANCH   1   2
ATOM      2  C   UNL A   1      35.213  33.395  31.181  1.00  0.00     0.117 C 
BRANCH   2   3
ATOM      3  N   UNL A   1      36.413  34.193  31.034  1.00  0.00    -0.354 N 
ATOM      4  C   UNL A   1      37.527  34.257  31.817  1.00  0.00     0.240 C 
ATOM      5  O   UNL A   1      38.533  34.773  31.320  1.00  0.00    -0.273 OA
ATOM      6  H   UNL A   1      36.426  34.782  30.244  1.00  0.00     0.163 HD
BRANCH   4   7
ATOM      7  C   UNL A   1      37.604  33.557  33.178  1.00  0.00     0.227 C 
BRANCH   7   8
ATOM      8  N   UNL A   1      38.760  32.680  33.352  1.00  0.00    -0.283 N 
ATOM      9  C   UNL A   1      39.942  29.265  33.122  1.00  0.00     0.029 C 
ATOM     10  C   UNL A   1      39.845  30.586  33.328  1.00  0.00     0.081 C 
ATOM     11  S   UNL A   1      41.051  31.661  33.913  1.00  0.00    -0.054 SA
ATOM     12  C   UNL A   1      38.592  31.337  33.050  1.00  0.00     0.266 C 
ATOM     13  C   UNL A   1      39.949  33.027  33.954  1.00  0.00     0.148 C 
ATOM     14  O   UNL A   1      37.567  30.818  32.644  1.00  0.00    -0.268 OA
ATOM     15  S   UNL A   1      40.372  34.474  34.671  1.00  0.00    -0.052 S 
BRANCH   9  16
ATOM     16  C   UNL A   1      41.142  28.452  33.358  1.00  0.00    -0.017 A 
ATOM     17  C   UNL A   1      42.503  27.147  34.922  1.00  0.00     0.165 A 
ATOM     18  C   UNL A   1      41.390  27.957  34.653  1.00  0.00     0.058 A 
ATOM     19  C   UNL A   1      43.324  26.812  33.862  1.00  0.00     0.207 A 
ATOM     20  C   UNL A   1      43.092  27.312  32.600  1.00  0.00     0.170 A 
ATOM     21  O   UNL A   1      44.396  25.972  33.871  1.00  0.00    -0.450 OA
ATOM     22  C   UNL A   1      42.038  28.157  32.323  1.00  0.00     0.059 A 
ATOM     23  O   UNL A   1      43.987  26.861  31.678  1.00  0.00    -0.453 OA
ATOM     24  C   UNL A   1      44.719  25.905  32.471  1.00  0.00     0.468 C 
BRANCH  17  25
ATOM     25  O   UNL A   1      42.617  26.715  36.210  1.00  0.00    -0.493 OA
ATOM     26  C   UNL A   1      41.958  25.482  36.487  1.00  0.00     0.278 C 
ENDBRANCH  17  25
ENDBRANCH   9  16
ENDBRANCH   7   8
ENDBRANCH   4   7
ENDBRANCH   2   3
ENDBRANCH   1   2
BRANCH   1  27
ATOM     27  C   UNL A   1      34.939  32.712  28.731  1.00  0.00     0.118 C 
BRANCH  27  28
ATOM     28  N   UNL A   1      34.242  31.477  28.397  1.00  0.00    -0.352 N 
ATOM     29  C   UNL A   1      34.725  30.222  28.126  1.00  0.00     0.251 C 
ATOM     30  H   UNL A   1      33.262  31.558  28.359  1.00  0.00     0.163 HD
ATOM     31  O   UNL A   1      33.952  29.377  27.682  1.00  0.00    -0.269 OA
BRANCH  29  32
ATOM     32  C   UNL A   1      36.148  29.879  28.349  1.00  0.00     0.039 A 
ATOM     33  C   UNL A   1      37.040  30.018  27.281  1.00  0.00     0.014 A 
ATOM     34  C   UNL A   1      36.604  29.373  29.569  1.00  0.00     0.014 A 
ATOM     35  C   UNL A   1      38.388  29.696  27.452  1.00  0.00     0.010 A 
ATOM     36  C   UNL A   1      37.963  29.133  29.763  1.00  0.00     0.010 A 
ATOM     37  C   UNL A   1      38.870  29.279  28.705  1.00  0.00    -0.014 A 
BRANCH  37  38
ATOM     38  C   UNL A   1      40.317  29.001  28.905  1.00  0.00     0.031 A 
ATOM     39  C   UNL A   1      40.897  27.656  28.557  1.00  0.00     0.074 A 
ATOM     40  C   UNL A   1      41.106  29.962  29.428  1.00  0.00     0.049 A 
ATOM     41  N   UNL A   1      42.137  27.244  28.648  1.00  0.00    -0.248 NA
ATOM     42  C   UNL A   1      39.963  26.631  28.066  1.00  0.00     0.031 C 
ATOM     43  C   UNL A   1      40.650  31.284  29.864  1.00  0.00     0.029 A 
ATOM     44  N   UNL A   1      42.455  29.979  29.679  1.00  0.00    -0.354 N 
ATOM     45  C   UNL A   1      42.130  25.917  28.232  1.00  0.00     0.074 A 
ATOM     46  C   UNL A   1      40.754  25.574  27.947  1.00  0.00     0.031 C 
ATOM     47  C   UNL A   1      41.704  31.995  30.291  1.00  0.00     0.029 A 
ATOM     48  C   UNL A   1      42.905  31.171  30.196  1.00  0.00     0.049 A 
ATOM     49  H   UNL A   1      43.045  29.209  29.506  1.00  0.00     0.167 HD
ATOM     50  C   UNL A   1      43.177  25.070  28.077  1.00  0.00     0.037 A 
ATOM     51  C   UNL A   1      44.145  31.560  30.550  1.00  0.00     0.037 A 
ATOM     52  C   UNL A   1      44.547  25.424  28.349  1.00  0.00     0.049 A 
ATOM     53  C   UNL A   1      45.292  30.606  30.355  1.00  0.00     0.074 A 
ATOM     54  C   UNL A   1      45.686  24.656  28.177  1.00  0.00     0.029 A 
ATOM     55  N   UNL A   1      44.966  26.646  28.856  1.00  0.00    -0.354 N 
ATOM     56  N   UNL A   1      45.276  29.377  29.894  1.00  0.00    -0.248 NA
ATOM     57  C   UNL A   1      46.628  31.097  30.714  1.00  0.00     0.031 C 
ATOM     58  C   UNL A   1      46.786  25.394  28.626  1.00  0.00     0.029 A 
ATOM     59  C   UNL A   1      46.343  26.645  29.021  1.00  0.00     0.049 A 
ATOM     60  H   UNL A   1      44.372  27.402  29.069  1.00  0.00     0.167 HD
ATOM     61  C   UNL A   1      46.602  28.959  29.880  1.00  0.00     0.074 A 
ATOM     62  C   UNL A   1      47.393  30.074  30.360  1.00  0.00     0.031 C 
ATOM     63  C   UNL A   1      47.118  27.762  29.504  1.00  0.00     0.037 A 
BRANCH  50  64
ATOM     64  C   UNL A   1      42.883  23.676  27.586  1.00  0.00     0.058 A 
ATOM     65  C   UNL A   1      42.782  23.381  26.216  1.00  0.00     0.135 A 
ATOM     66  C   UNL A   1      42.736  22.613  28.493  1.00  0.00     0.135 A 
ATOM     67  F   UNL A   1      42.898  24.358  25.302  1.00  0.00    -0.206 F 
ATOM     68  C   UNL A   1      42.516  22.091  25.765  1.00  0.00     0.059 A 
ATOM     69  C   UNL A   1      42.502  21.309  28.062  1.00  0.00     0.059 A 
ATOM     70  F   UNL A   1      42.823  22.834  29.813  1.00  0.00    -0.206 F 
ATOM     71  C   UNL A   1      42.379  21.061  26.697  1.00  0.00     0.060 A 
BRANCH  71  72
ATOM     72  S   UNL A   1      42.044  19.393  26.093  1.00  0.00     0.124 S 
ATOM     73  O   UNL A   1      42.484  18.580  27.223  1.00  0.00    -0.237 OA
ATOM     74  O   UNL A   1      40.603  19.429  25.861  1.00  0.00    -0.237 OA
ATOM     75  O   UNL A   1      42.866  19.294  24.891  1.00  0.00    -0.744 OA
ENDBRANCH  71  72
ENDBRANCH  50  64
BRANCH  51  76
ATOM     76  C   UNL A   1      44.369  32.927  31.092  1.00  0.00     0.058 A 
ATOM     77  C   UNL A   1      44.443  33.156  32.474  1.00  0.00     0.135 A 
ATOM     78  C   UNL A   1      44.525  34.031  30.239  1.00  0.00     0.135 A 
ATOM     79  F   UNL A   1      44.295  32.135  33.332  1.00  0.00    -0.206 F 
ATOM     80  C   UNL A   1      44.643  34.431  32.993  1.00  0.00     0.059 A 
ATOM     81  C   UNL A   1      44.756  35.311  30.733  1.00  0.00     0.059 A 
ATOM     82  F   UNL A   1      44.480  33.864  28.908  1.00  0.00    -0.206 F 
ATOM     83  C   UNL A   1      44.801  35.503  32.114  1.00  0.00     0.060 A 
BRANCH  83  84
ATOM     84  S   UNL A   1      45.103  37.148  32.796  1.00  0.00     0.124 S 
ATOM     85  O   UNL A   1      43.961  37.894  32.279  1.00  0.00    -0.237 OA
ATOM     86  O   UNL A   1      45.100  36.888  34.232  1.00  0.00    -0.237 OA
ATOM     87  O   UNL A   1      46.400  37.511  32.235  1.00  0.00    -0.744 OA
ENDBRANCH  83  84
ENDBRANCH  51  76
BRANCH  63  88
ATOM     88  C   UNL A   1      48.616  27.614  29.560  1.00  0.00     0.058 A 
ATOM     89  C   UNL A   1      49.274  27.131  30.702  1.00  0.00     0.135 A 
ATOM     90  C   UNL A   1      49.405  27.960  28.450  1.00  0.00     0.135 A 
ATOM     91  F   UNL A   1      48.570  26.786  31.793  1.00  0.00    -0.206 F 
ATOM     92  C   UNL A   1      50.661  27.045  30.761  1.00  0.00     0.059 A 
ATOM     93  C   UNL A   1      50.791  27.850  28.475  1.00  0.00     0.059 A 
ATOM     94  F   UNL A   1      48.828  28.412  27.325  1.00  0.00    -0.206 F 
ATOM     95  C   UNL A   1      51.412  27.414  29.643  1.00  0.00     0.060 A 
BRANCH  95  96
ATOM     96  S   UNL A   1      53.211  27.314  29.738  1.00  0.00     0.124 S 
ATOM     97  O   UNL A   1      53.540  28.571  30.405  1.00  0.00    -0.237 OA
ATOM     98  O   UNL A   1      53.418  26.105  30.527  1.00  0.00    -0.237 OA
ATOM     99  O   UNL A   1      53.621  27.221  28.339  1.00  0.00    -0.744 OA
ENDBRANCH  95  96
ENDBRANCH  63  88
ENDBRANCH  37  38
ENDBRANCH  29  32
ENDBRANCH  27  28
ENDBRANCH   1  27
TORSDOF 16
ENDMDL
MODEL 2
REMARK VINA RESULT:      -9.2      2.975      9.028
REMARK SMILES COc1cc(/C=C2\SC(=S)N(CC(=O)NCCCNC(=O)c3ccc(-c4c5nc(c(-c6c(F)cc(S(=O)(=O)[O-])cc6F)c6ccc([nH]6)c(-c6c(F)cc(S(=O)(=O)[O-])cc6F)c6nc(c(-c7c(F)cc(S(=O)(=O)[O-])cc7F)c7ccc4[nH]7)C=C6)C=C5)cc3)C2=O)cc2c1OCO2
REMARK SMILES IDX 17 1 16 2 15 3 13 4 14 5 12 7 11 8 6 9 7 10 8 11 88 12 9 13
REMARK SMILES IDX 89 14 10 15 5 16 3 17 4 18 92 19 91 20 93 21 90 22 95 23
REMARK SMILES IDX 94 24 2 25 1 26 18 27 19 28 20 29 21 31 22 32 23 33 87 34
REMARK SMILES IDX 24 35 86 36 25 37 26 38 27 39 80 40 28 41 85 42 79 43 81 44
REMARK SMILES IDX 29 45 84 46 78 47 77 48 30 50 64 51 43 52 63 53 44 54 47 55
REMARK SMILES IDX 62 56 82 57 45 58 46 59 61 61 83 62 48 63 31 64 32 65 41 66
REMARK SMILES IDX 33 67 34 68 40 69 42 70 35 71 36 72 37 73 38 74 39 75 65 76
REMARK SMILES IDX 66 77 75 78 67 79 68 80 74 81 76 82 69 83 70 84 71 85 72 86
REMARK SMILES IDX 73 87 49 88 50 89 59 90 51 91 52 92 58 93 60 94 53 95 54 96
REMARK SMILES IDX 55 97 56 98 57 99
REMARK H PARENT 15 6 19 30 81 49 47 60
REMARK Flexibility Score: inf
ROOT
ATOM      1  C   UNL A   1      35.437  32.951  28.005  1.00  0.00     0.042 C 
ENDROOT
BRANCH   1   2
ATOM      2  C   UNL A   1      33.970  33.349  28.107  1.00  0.00     0.117 C 
BRANCH   2   3
ATOM      3  N   UNL A   1      33.778  34.785  28.104  1.00  0.00    -0.354 N 
ATOM      4  C   UNL A   1      33.401  35.623  29.112  1.00  0.00     0.240 C 
ATOM      5  O   UNL A   1      33.608  36.828  28.945  1.00  0.00    -0.273 OA
ATOM      6  H   UNL A   1      33.945  35.224  27.239  1.00  0.00     0.163 HD
BRANCH   4   7
ATOM      7  C   UNL A   1      32.920  35.096  30.468  1.00  0.00     0.227 C 
BRANCH   7   8
ATOM      8  N   UNL A   1      33.965  34.965  31.482  1.00  0.00    -0.283 N 
ATOM      9  C   UNL A   1      36.087  32.630  33.257  1.00  0.00     0.029 C 
ATOM     10  C   UNL A   1      35.467  33.735  32.820  1.00  0.00     0.081 C 
ATOM     11  S   UNL A   1      35.678  35.354  33.356  1.00  0.00    -0.054 SA
ATOM     12  C   UNL A   1      34.450  33.692  31.736  1.00  0.00     0.266 C 
ATOM     13  C   UNL A   1      34.390  35.963  32.331  1.00  0.00     0.148 C 
ATOM     14  O   UNL A   1      34.090  32.666  31.186  1.00  0.00    -0.268 OA
ATOM     15  S   UNL A   1      33.820  37.525  32.474  1.00  0.00    -0.052 S 
BRANCH   9  16
ATOM     16  C   UNL A   1      37.109  32.587  34.311  1.00  0.00    -0.017 A 
ATOM     17  C   UNL A   1      39.361  31.921  35.006  1.00  0.00     0.165 A 
ATOM     18  C   UNL A   1      38.340  31.957  34.045  1.00  0.00     0.058 A 
ATOM     19  C   UNL A   1      39.134  32.564  36.209  1.00  0.00     0.207 A 
ATOM     20  C   UNL A   1      37.922  33.161  36.475  1.00  0.00     0.170 A 
ATOM     21  O   UNL A   1      40.007  32.734  37.240  1.00  0.00    -0.450 OA
ATOM     22  C   UNL A   1      36.883  33.161  35.568  1.00  0.00     0.059 A 
ATOM     23  O   UNL A   1      37.885  33.762  37.697  1.00  0.00    -0.453 OA
ATOM     24  C   UNL A   1      39.257  33.603  38.108  1.00  0.00     0.468 C 
BRANCH  17  25
ATOM     25  O   UNL A   1      40.512  31.302  34.617  1.00  0.00    -0.493 OA
ATOM     26  C   UNL A   1      40.730  30.022  35.202  1.00  0.00     0.278 C 
ENDBRANCH  17  25
ENDBRANCH   9  16
ENDBRANCH   7   8
ENDBRANCH   4   7
ENDBRANCH   2   3
ENDBRANCH   1   2
BRANCH   1  27
ATOM     27  C   UNL A   1      35.684  31.450  28.142  1.00  0.00     0.118 C 
BRANCH  27  28
ATOM     28  N   UNL A   1      35.605  30.993  29.522  1.00  0.00    -0.352 N 
ATOM     29  C   UNL A   1      36.478  30.241  30.267  1.00  0.00     0.251 C 
ATOM     30  H   UNL A   1      34.789  31.269  29.999  1.00  0.00     0.163 HD
ATOM     31  O   UNL A   1      36.108  29.817  31.359  1.00  0.00    -0.269 OA
BRANCH  29  32
ATOM     32  C   UNL A   1      37.839  29.927  29.776  1.00  0.00     0.039 A 
ATOM     33  C   UNL A   1      38.849  29.701  30.716  1.00  0.00     0.014 A 
ATOM     34  C   UNL A   1      38.146  29.908  28.413  1.00  0.00     0.014 A 
ATOM     35  C   UNL A   1      40.146  29.411  30.289  1.00  0.00     0.010 A 
ATOM     36  C   UNL A   1      39.420  29.534  27.987  1.00  0.00     0.010 A 
ATOM     37  C   UNL A   1      40.439  29.294  28.918  1.00  0.00    -0.014 A 
BRANCH  37  38
ATOM     38  C   UNL A   1      41.804  28.918  28.465  1.00  0.00     0.031 A 
ATOM     39  C   UNL A   1      42.900  29.948  28.389  1.00  0.00     0.074 A 
ATOM     40  C   UNL A   1      42.048  27.644  28.096  1.00  0.00     0.049 A 
ATOM     41  N   UNL A   1      44.152  29.796  28.035  1.00  0.00    -0.248 NA
ATOM     42  C   UNL A   1      42.542  31.333  28.730  1.00  0.00     0.031 C 
ATOM     43  C   UNL A   1      41.054  26.569  28.066  1.00  0.00     0.029 A 
ATOM     44  N   UNL A   1      43.206  27.035  27.680  1.00  0.00    -0.354 N 
ATOM     45  C   UNL A   1      44.725  31.061  28.105  1.00  0.00     0.074 A 
ATOM     46  C   UNL A   1      43.671  31.979  28.477  1.00  0.00     0.031 C 
ATOM     47  C   UNL A   1      41.651  25.427  27.691  1.00  0.00     0.029 A 
ATOM     48  C   UNL A   1      43.060  25.693  27.419  1.00  0.00     0.049 A 
ATOM     49  H   UNL A   1      44.060  27.514  27.577  1.00  0.00     0.167 HD
ATOM     50  C   UNL A   1      46.017  31.420  27.905  1.00  0.00     0.037 A 
ATOM     51  C   UNL A   1      43.959  24.777  27.011  1.00  0.00     0.037 A 
ATOM     52  C   UNL A   1      47.064  30.497  27.550  1.00  0.00     0.049 A 
ATOM     53  C   UNL A   1      45.389  25.198  26.809  1.00  0.00     0.074 A 
ATOM     54  C   UNL A   1      48.414  30.751  27.373  1.00  0.00     0.029 A 
ATOM     55  N   UNL A   1      46.881  29.143  27.310  1.00  0.00    -0.354 N 
ATOM     56  N   UNL A   1      45.928  26.387  26.949  1.00  0.00    -0.248 NA
ATOM     57  C   UNL A   1      46.336  24.150  26.408  1.00  0.00     0.031 C 
ATOM     58  C   UNL A   1      49.037  29.563  26.979  1.00  0.00     0.029 A 
ATOM     59  C   UNL A   1      48.089  28.553  26.968  1.00  0.00     0.049 A 
ATOM     60  H   UNL A   1      46.020  28.669  27.372  1.00  0.00     0.167 HD
ATOM     61  C   UNL A   1      47.283  26.223  26.682  1.00  0.00     0.074 A 
ATOM     62  C   UNL A   1      47.482  24.818  26.393  1.00  0.00     0.031 C 
ATOM     63  C   UNL A   1      48.273  27.152  26.678  1.00  0.00     0.037 A 
BRANCH  50  64
ATOM     64  C   UNL A   1      46.372  32.876  28.071  1.00  0.00     0.058 A 
ATOM     65  C   UNL A   1      46.246  33.792  27.013  1.00  0.00     0.135 A 
ATOM     66  C   UNL A   1      46.808  33.370  29.311  1.00  0.00     0.135 A 
ATOM     67  F   UNL A   1      45.848  33.376  25.800  1.00  0.00    -0.206 F 
ATOM     68  C   UNL A   1      46.568  35.137  27.171  1.00  0.00     0.059 A 
ATOM     69  C   UNL A   1      47.104  34.717  29.500  1.00  0.00     0.059 A 
ATOM     70  F   UNL A   1      46.947  32.542  30.358  1.00  0.00    -0.206 F 
ATOM     71  C   UNL A   1      46.996  35.591  28.420  1.00  0.00     0.060 A 
BRANCH  71  72
ATOM     72  S   UNL A   1      47.400  37.340  28.608  1.00  0.00     0.124 S 
ATOM     73  O   UNL A   1      46.092  37.910  28.915  1.00  0.00    -0.237 OA
ATOM     74  O   UNL A   1      48.359  37.322  29.708  1.00  0.00    -0.237 OA
ATOM     75  O   UNL A   1      47.953  37.704  27.306  1.00  0.00    -0.744 OA
ENDBRANCH  71  72
ENDBRANCH  50  64
BRANCH  51  76
ATOM     76  C   UNL A   1      43.539  23.366  26.799  1.00  0.00     0.058 A 
ATOM     77  C   UNL A   1      43.234  22.529  27.883  1.00  0.00     0.135 A 
ATOM     78  C   UNL A   1      43.422  22.827  25.507  1.00  0.00     0.135 A 
ATOM     79  F   UNL A   1      43.335  22.994  29.138  1.00  0.00    -0.206 F 
ATOM     80  C   UNL A   1      42.850  21.205  27.698  1.00  0.00     0.059 A 
ATOM     81  C   UNL A   1      43.010  21.516  25.295  1.00  0.00     0.059 A 
ATOM     82  F   UNL A   1      43.685  23.590  24.435  1.00  0.00    -0.206 F 
ATOM     83  C   UNL A   1      42.738  20.708  26.399  1.00  0.00     0.060 A 
BRANCH  83  84
ATOM     84  S   UNL A   1      42.196  19.001  26.166  1.00  0.00     0.124 S 
ATOM     85  O   UNL A   1      42.422  18.437  27.492  1.00  0.00    -0.237 OA
ATOM     86  O   UNL A   1      40.800  19.173  25.774  1.00  0.00    -0.237 OA
ATOM     87  O   UNL A   1      43.078  18.508  25.113  1.00  0.00    -0.744 OA
ENDBRANCH  83  84
ENDBRANCH  51  76
BRANCH  63  88
ATOM     88  C   UNL A   1      49.668  26.663  26.388  1.00  0.00     0.058 A 
ATOM     89  C   UNL A   1      50.228  26.733  25.103  1.00  0.00     0.135 A 
ATOM     90  C   UNL A   1      50.456  26.120  27.417  1.00  0.00     0.135 A 
ATOM     91  F   UNL A   1      49.519  27.243  24.083  1.00  0.00    -0.206 F 
ATOM     92  C   UNL A   1      51.499  26.235  24.836  1.00  0.00     0.059 A 
ATOM     93  C   UNL A   1      51.742  25.647  27.179  1.00  0.00     0.059 A 
ATOM     94  F   UNL A   1      49.978  26.044  28.668  1.00  0.00    -0.206 F 
ATOM     95  C   UNL A   1      52.246  25.686  25.881  1.00  0.00     0.060 A 
BRANCH  95  96
ATOM     96  S   UNL A   1      53.887  25.027  25.519  1.00  0.00     0.124 S 
ATOM     97  O   UNL A   1      53.607  23.601  25.384  1.00  0.00    -0.237 OA
ATOM     98  O   UNL A   1      54.240  25.721  24.285  1.00  0.00    -0.237 OA
ATOM     99  O   UNL A   1      54.672  25.405  26.690  1.00  0.00    -0.744 OA
ENDBRANCH  95  96
ENDBRANCH  63  88
ENDBRANCH  37  38
ENDBRANCH  29  32
ENDBRANCH  27  28
ENDBRANCH   1  27
TORSDOF 16
ENDMDL
MODEL 3
REMARK VINA RESULT:      -9.1      4.852     11.985
REMARK SMILES COc1cc(/C=C2\SC(=S)N(CC(=O)NCCCNC(=O)c3ccc(-c4c5nc(c(-c6c(F)cc(S(=O)(=O)[O-])cc6F)c6ccc([nH]6)c(-c6c(F)cc(S(=O)(=O)[O-])cc6F)c6nc(c(-c7c(F)cc(S(=O)(=O)[O-])cc7F)c7ccc4[nH]7)C=C6)C=C5)cc3)C2=O)cc2c1OCO2
REMARK SMILES IDX 17 1 16 2 15 3 13 4 14 5 12 7 11 8 6 9 7 10 8 11 88 12 9 13
REMARK SMILES IDX 89 14 10 15 5 16 3 17 4 18 92 19 91 20 93 21 90 22 95 23
REMARK SMILES IDX 94 24 2 25 1 26 18 27 19 28 20 29 21 31 22 32 23 33 87 34
REMARK SMILES IDX 24 35 86 36 25 37 26 38 27 39 80 40 28 41 85 42 79 43 81 44
REMARK SMILES IDX 29 45 84 46 78 47 77 48 30 50 64 51 43 52 63 53 44 54 47 55
REMARK SMILES IDX 62 56 82 57 45 58 46 59 61 61 83 62 48 63 31 64 32 65 41 66
REMARK SMILES IDX 33 67 34 68 40 69 42 70 35 71 36 72 37 73 38 74 39 75 65 76
REMARK SMILES IDX 66 77 75 78 67 79 68 80 74 81 76 82 69 83 70 84 71 85 72 86
REMARK SMILES IDX 73 87 49 88 50 89 59 90 51 91 52 92 58 93 60 94 53 95 54 96
REMARK SMILES IDX 55 97 56 98 57 99
REMARK H PARENT 15 6 19 30 81 49 47 60
REMARK Flexibility Score: inf
ROOT
ATOM      1  C   UNL A   1      46.250  24.218  26.986  1.00  0.00     0.042 C 
ENDROOT
BRANCH   1   2
ATOM      2  C   UNL A   1      45.164  23.263  27.468  1.00  0.00     0.117 C 
BRANCH   2   3
ATOM      3  N   UNL A   1      44.631  22.439  26.403  1.00  0.00    -0.354 N 
ATOM      4  C   UNL A   1      43.342  22.101  26.116  1.00  0.00     0.240 C 
ATOM      5  O   UNL A   1      43.118  21.650  24.988  1.00  0.00    -0.273 OA
ATOM      6  H   UNL A   1      45.304  22.065  25.790  1.00  0.00     0.163 HD
BRANCH   4   7
ATOM      7  C   UNL A   1      42.184  22.434  27.064  1.00  0.00     0.227 C 
BRANCH   7   8
ATOM      8  N   UNL A   1      40.859  22.079  26.563  1.00  0.00    -0.283 N 
ATOM      9  C   UNL A   1      37.534  23.324  25.851  1.00  0.00     0.029 C 
ATOM     10  C   UNL A   1      38.615  22.547  26.006  1.00  0.00     0.081 C 
ATOM     11  S   UNL A   1      38.765  20.862  25.705  1.00  0.00    -0.054 SA
ATOM     12  C   UNL A   1      39.913  23.090  26.489  1.00  0.00     0.266 C 
ATOM     13  C   UNL A   1      40.407  20.800  26.322  1.00  0.00     0.148 C 
ATOM     14  O   UNL A   1      40.086  24.256  26.798  1.00  0.00    -0.268 OA
ATOM     15  S   UNL A   1      41.195  19.350  26.572  1.00  0.00    -0.052 S 
BRANCH   9  16
ATOM     16  C   UNL A   1      36.222  22.872  25.369  1.00  0.00    -0.017 A 
ATOM     17  C   UNL A   1      34.530  22.893  23.599  1.00  0.00     0.165 A 
ATOM     18  C   UNL A   1      35.759  23.324  24.118  1.00  0.00     0.058 A 
ATOM     19  C   UNL A   1      33.808  21.974  24.336  1.00  0.00     0.207 A 
ATOM     20  C   UNL A   1      34.252  21.548  25.568  1.00  0.00     0.170 A 
ATOM     21  O   UNL A   1      32.646  21.354  23.988  1.00  0.00    -0.450 OA
ATOM     22  C   UNL A   1      35.429  22.000  26.126  1.00  0.00     0.059 A 
ATOM     23  O   UNL A   1      33.426  20.629  26.140  1.00  0.00    -0.453 OA
ATOM     24  C   UNL A   1      32.490  20.414  25.065  1.00  0.00     0.468 C 
BRANCH  17  25
ATOM     25  O   UNL A   1      34.208  23.386  22.369  1.00  0.00    -0.493 OA
ATOM     26  C   UNL A   1      33.213  24.406  22.375  1.00  0.00     0.278 C 
ENDBRANCH  17  25
ENDBRANCH   9  16
ENDBRANCH   7   8
ENDBRANCH   4   7
ENDBRANCH   2   3
ENDBRANCH   1   2
BRANCH   1  27
ATOM     27  C   UNL A   1      45.742  25.619  26.656  1.00  0.00     0.118 C 
BRANCH  27  28
ATOM     28  N   UNL A   1      44.626  25.605  25.721  1.00  0.00    -0.352 N 
ATOM     29  C   UNL A   1      43.333  26.041  25.864  1.00  0.00     0.251 C 
ATOM     30  H   UNL A   1      44.835  25.218  24.840  1.00  0.00     0.163 HD
ATOM     31  O   UNL A   1      42.514  25.751  24.996  1.00  0.00    -0.269 OA
BRANCH  29  32
ATOM     32  C   UNL A   1      42.914  26.838  27.039  1.00  0.00     0.039 A 
ATOM     33  C   UNL A   1      42.202  26.196  28.057  1.00  0.00     0.014 A 
ATOM     34  C   UNL A   1      43.161  28.210  27.128  1.00  0.00     0.014 A 
ATOM     35  C   UNL A   1      41.784  26.918  29.177  1.00  0.00     0.010 A 
ATOM     36  C   UNL A   1      42.818  28.910  28.283  1.00  0.00     0.010 A 
ATOM     37  C   UNL A   1      42.114  28.277  29.316  1.00  0.00    -0.014 A 
BRANCH  37  38
ATOM     38  C   UNL A   1      41.727  29.028  30.539  1.00  0.00     0.031 A 
ATOM     39  C   UNL A   1      42.514  28.881  31.814  1.00  0.00     0.074 A 
ATOM     40  C   UNL A   1      40.642  29.829  30.505  1.00  0.00     0.049 A 
ATOM     41  N   UNL A   1      42.332  29.472  32.969  1.00  0.00    -0.248 NA
ATOM     42  C   UNL A   1      43.637  27.931  31.801  1.00  0.00     0.031 C 
ATOM     43  C   UNL A   1      39.760  30.006  29.348  1.00  0.00     0.029 A 
ATOM     44  N   UNL A   1      40.096  30.645  31.464  1.00  0.00    -0.354 N 
ATOM     45  C   UNL A   1      43.310  28.962  33.817  1.00  0.00     0.074 A 
ATOM     46  C   UNL A   1      44.044  27.970  33.062  1.00  0.00     0.031 C 
ATOM     47  C   UNL A   1      38.809  30.903  29.652  1.00  0.00     0.029 A 
ATOM     48  C   UNL A   1      38.989  31.338  31.033  1.00  0.00     0.049 A 
ATOM     49  H   UNL A   1      40.463  30.726  32.374  1.00  0.00     0.167 HD
ATOM     50  C   UNL A   1      43.588  29.308  35.098  1.00  0.00     0.037 A 
ATOM     51  C   UNL A   1      38.208  32.227  31.676  1.00  0.00     0.037 A 
ATOM     52  C   UNL A   1      42.861  30.308  35.838  1.00  0.00     0.049 A 
ATOM     53  C   UNL A   1      38.545  32.604  33.093  1.00  0.00     0.074 A 
ATOM     54  C   UNL A   1      43.094  30.768  37.123  1.00  0.00     0.029 A 
ATOM     55  N   UNL A   1      41.756  31.001  35.363  1.00  0.00    -0.354 N 
ATOM     56  N   UNL A   1      39.517  32.163  33.857  1.00  0.00    -0.248 NA
ATOM     57  C   UNL A   1      37.688  33.612  33.731  1.00  0.00     0.031 C 
ATOM     58  C   UNL A   1      42.102  31.700  37.443  1.00  0.00     0.029 A 
ATOM     59  C   UNL A   1      41.285  31.869  36.337  1.00  0.00     0.049 A 
ATOM     60  H   UNL A   1      41.363  30.891  34.467  1.00  0.00     0.167 HD
ATOM     61  C   UNL A   1      39.407  32.861  35.054  1.00  0.00     0.074 A 
ATOM     62  C   UNL A   1      38.285  33.767  34.904  1.00  0.00     0.031 C 
ATOM     63  C   UNL A   1      40.165  32.762  36.175  1.00  0.00     0.037 A 
BRANCH  50  64
ATOM     64  C   UNL A   1      44.730  28.602  35.781  1.00  0.00     0.058 A 
ATOM     65  C   UNL A   1      46.044  29.098  35.727  1.00  0.00     0.135 A 
ATOM     66  C   UNL A   1      44.505  27.436  36.531  1.00  0.00     0.135 A 
ATOM     67  F   UNL A   1      46.323  30.201  35.014  1.00  0.00    -0.206 F 
ATOM     68  C   UNL A   1      47.096  28.447  36.365  1.00  0.00     0.059 A 
ATOM     69  C   UNL A   1      45.537  26.786  37.204  1.00  0.00     0.059 A 
ATOM     70  F   UNL A   1      43.271  26.916  36.619  1.00  0.00    -0.206 F 
ATOM     71  C   UNL A   1      46.832  27.291  37.103  1.00  0.00     0.060 A 
BRANCH  71  72
ATOM     72  S   UNL A   1      48.208  26.466  37.930  1.00  0.00     0.124 S 
ATOM     73  O   UNL A   1      48.822  25.741  36.822  1.00  0.00    -0.237 OA
ATOM     74  O   UNL A   1      48.976  27.590  38.455  1.00  0.00    -0.237 OA
ATOM     75  O   UNL A   1      47.552  25.636  38.936  1.00  0.00    -0.744 OA
ENDBRANCH  71  72
ENDBRANCH  50  64
BRANCH  51  76
ATOM     76  C   UNL A   1      37.051  32.845  30.974  1.00  0.00     0.058 A 
ATOM     77  C   UNL A   1      35.736  32.437  31.242  1.00  0.00     0.135 A 
ATOM     78  C   UNL A   1      37.236  33.866  30.027  1.00  0.00     0.135 A 
ATOM     79  F   UNL A   1      35.506  31.462  32.135  1.00  0.00    -0.206 F 
ATOM     80  C   UNL A   1      34.648  33.001  30.585  1.00  0.00     0.059 A 
ATOM     81  C   UNL A   1      36.162  34.466  29.378  1.00  0.00     0.059 A 
ATOM     82  F   UNL A   1      38.473  34.305  29.746  1.00  0.00    -0.206 F 
ATOM     83  C   UNL A   1      34.871  34.018  29.655  1.00  0.00     0.060 A 
BRANCH  83  84
ATOM     84  S   UNL A   1      33.449  34.774  28.838  1.00  0.00     0.124 S 
ATOM     85  O   UNL A   1      32.529  34.954  29.955  1.00  0.00    -0.237 OA
ATOM     86  O   UNL A   1      34.028  35.994  28.284  1.00  0.00    -0.237 OA
ATOM     87  O   UNL A   1      33.056  33.772  27.852  1.00  0.00    -0.744 OA
ENDBRANCH  83  84
ENDBRANCH  51  76
BRANCH  63  88
ATOM     88  C   UNL A   1      39.825  33.689  37.314  1.00  0.00     0.058 A 
ATOM     89  C   UNL A   1      40.435  34.945  37.459  1.00  0.00     0.135 A 
ATOM     90  C   UNL A   1      38.870  33.312  38.273  1.00  0.00     0.135 A 
ATOM     91  F   UNL A   1      41.356  35.356  36.571  1.00  0.00    -0.206 F 
ATOM     92  C   UNL A   1      40.151  35.772  38.540  1.00  0.00     0.059 A 
ATOM     93  C   UNL A   1      38.545  34.138  39.344  1.00  0.00     0.059 A 
ATOM     94  F   UNL A   1      38.243  32.130  38.176  1.00  0.00    -0.206 F 
ATOM     95  C   UNL A   1      39.208  35.356  39.483  1.00  0.00     0.060 A 
BRANCH  95  96
ATOM     96  S   UNL A   1      38.860  36.429  40.891  1.00  0.00     0.124 S 
ATOM     97  O   UNL A   1      38.475  37.670  40.226  1.00  0.00    -0.237 OA
ATOM     98  O   UNL A   1      37.784  35.716  41.571  1.00  0.00    -0.237 OA
ATOM     99  O   UNL A   1      40.130  36.470  41.610  1.00  0.00    -0.744 OA
ENDBRANCH  95  96
ENDBRANCH  63  88
ENDBRANCH  37  38
ENDBRANCH  29  32
ENDBRANCH  27  28
ENDBRANCH   1  27
TORSDOF 16
ENDMDL
