MODEL 1
REMARK VINA RESULT:     -13.1      0.000      0.000
REMARK SMILES CC(C)c1cccc2c1N[C@H](c1ccc(C(=O)NCCCNC(=O)c3ccc(-c4c5nc(c(-c6c(F)cc(S(=O)(=O)[O-])cc6F)c6ccc([nH]6)c(-c6c(F)cc(S(=O)(=O)[O-])cc6F)c6nc(c(-c7c(F)cc(S(=O)(=O)[O-])cc7F)c7ccc4[nH]7)C=C6)C=C5)cc3)cc1)[C@H]1CC=C[C@H]21
REMARK SMILES IDX 20 1 19 2 18 3 16 4 17 5 15 7 12 8 13 9 92 10 14 11 91 12
REMARK SMILES IDX 11 13 4 14 5 15 9 16 6 17 8 18 10 19 7 20 97 21 93 23 96 24
REMARK SMILES IDX 94 25 95 26 2 27 1 28 3 29 21 30 22 31 23 32 24 34 25 35
REMARK SMILES IDX 26 36 90 37 27 38 89 39 28 40 29 41 30 42 83 43 31 44 88 45
REMARK SMILES IDX 82 46 84 47 32 48 87 49 81 50 80 51 33 53 67 54 46 55 66 56
REMARK SMILES IDX 47 57 50 58 65 59 85 60 48 61 49 62 64 64 86 65 51 66 34 67
REMARK SMILES IDX 35 68 44 69 36 70 37 71 43 72 45 73 38 74 39 75 40 76 41 77
REMARK SMILES IDX 42 78 68 79 69 80 78 81 70 82 71 83 77 84 79 85 72 86 73 87
REMARK SMILES IDX 74 88 75 89 76 90 52 91 53 92 62 93 54 94 55 95 61 96 63 97
REMARK SMILES IDX 56 98 57 99 58 100 59 101 60 102
REMARK H PARENT 18 6 10 22 22 33 84 52 50 63
REMARK Flexibility Score: inf
ROOT
ATOM      1  C   UNL A   1      40.388  22.197  27.293  1.00  0.00     0.042 C 
ENDROOT
BRANCH   1   2
ATOM      2  C   UNL A   1      39.202  22.671  26.469  1.00  0.00     0.118 C 
BRANCH   2   3
ATOM      3  N   UNL A   1      38.555  21.619  25.689  1.00  0.00    -0.352 N 
ATOM      4  C   UNL A   1      37.233  21.473  25.324  1.00  0.00     0.251 C 
ATOM      5  O   UNL A   1      36.878  20.479  24.696  1.00  0.00    -0.269 OA
ATOM      6  H   UNL A   1      39.154  20.905  25.376  1.00  0.00     0.163 HD
BRANCH   4   7
ATOM      7  C   UNL A   1      36.231  22.483  25.733  1.00  0.00     0.039 A 
ATOM      8  C   UNL A   1      34.041  24.250  26.071  1.00  0.00    -0.025 A 
ATOM      9  C   UNL A   1      35.190  24.629  25.353  1.00  0.00     0.006 A 
ATOM     10  C   UNL A   1      34.156  23.063  26.814  1.00  0.00     0.006 A 
ATOM     11  C   UNL A   1      36.266  23.751  25.161  1.00  0.00     0.014 A 
ATOM     12  C   UNL A   1      35.237  22.190  26.656  1.00  0.00     0.014 A 
BRANCH   8  13
ATOM     13  C   UNL A   1      32.746  25.093  26.081  1.00  0.00     0.114 C 
ATOM     14  C   UNL A   1      32.937  28.947  26.319  1.00  0.00    -0.022 A 
ATOM     15  C   UNL A   1      32.269  30.053  25.735  1.00  0.00     0.006 A 
ATOM     16  C   UNL A   1      32.448  27.643  26.016  1.00  0.00     0.042 A 
ATOM     17  C   UNL A   1      31.188  29.905  24.872  1.00  0.00     0.001 A 
ATOM     18  C   UNL A   1      31.366  27.516  25.103  1.00  0.00    -0.017 A 
ATOM     19  N   UNL A   1      33.030  26.482  26.540  1.00  0.00    -0.377 N 
ATOM     20  C   UNL A   1      30.737  28.640  24.555  1.00  0.00     0.006 A 
ATOM     21  C   UNL A   1      30.840  26.136  24.857  1.00  0.00     0.049 C 
ATOM     22  H   UNL A   1      33.680  26.592  27.272  1.00  0.00     0.161 HD
ATOM     23  C   UNL A   1      32.030  25.178  24.711  1.00  0.00     0.031 C 
ATOM     24  C   UNL A   1      30.053  25.819  23.621  1.00  0.00    -0.023 C 
ATOM     25  C   UNL A   1      31.374  23.947  24.070  1.00  0.00     0.034 C 
ATOM     26  C   UNL A   1      30.317  24.572  23.214  1.00  0.00    -0.030 C 
BRANCH  14  27
ATOM     27  C   UNL A   1      34.112  29.223  27.275  1.00  0.00     0.015 C 
ATOM     28  C   UNL A   1      35.487  28.899  26.679  1.00  0.00     0.012 C 
ATOM     29  C   UNL A   1      34.202  30.671  27.807  1.00  0.00     0.012 C 
ENDBRANCH  14  27
ENDBRANCH   8  13
ENDBRANCH   4   7
ENDBRANCH   2   3
ENDBRANCH   1   2
BRANCH   1  30
ATOM     30  C   UNL A   1      41.709  22.869  26.953  1.00  0.00     0.118 C 
BRANCH  30  31
ATOM     31  N   UNL A   1      41.594  23.916  25.943  1.00  0.00    -0.352 N 
ATOM     32  C   UNL A   1      41.372  25.275  26.040  1.00  0.00     0.251 C 
ATOM     33  H   UNL A   1      41.694  23.592  25.019  1.00  0.00     0.163 HD
ATOM     34  O   UNL A   1      41.204  25.921  25.013  1.00  0.00    -0.269 OA
BRANCH  32  35
ATOM     35  C   UNL A   1      41.282  25.952  27.358  1.00  0.00     0.039 A 
ATOM     36  C   UNL A   1      40.189  25.771  28.198  1.00  0.00     0.014 A 
ATOM     37  C   UNL A   1      42.326  26.791  27.767  1.00  0.00     0.014 A 
ATOM     38  C   UNL A   1      40.011  26.609  29.295  1.00  0.00     0.010 A 
ATOM     39  C   UNL A   1      42.206  27.540  28.946  1.00  0.00     0.010 A 
ATOM     40  C   UNL A   1      41.013  27.513  29.682  1.00  0.00    -0.014 A 
BRANCH  40  41
ATOM     41  C   UNL A   1      40.764  28.430  30.831  1.00  0.00     0.031 A 
ATOM     42  C   UNL A   1      41.667  28.409  32.043  1.00  0.00     0.074 A 
ATOM     43  C   UNL A   1      39.779  29.348  30.750  1.00  0.00     0.049 A 
ATOM     44  N   UNL A   1      41.614  29.149  33.122  1.00  0.00    -0.248 NA
ATOM     45  C   UNL A   1      42.766  27.429  32.049  1.00  0.00     0.031 C 
ATOM     46  C   UNL A   1      38.845  29.486  29.629  1.00  0.00     0.029 A 
ATOM     47  N   UNL A   1      39.422  30.365  31.600  1.00  0.00    -0.354 N 
ATOM     48  C   UNL A   1      42.649  28.709  33.941  1.00  0.00     0.074 A 
ATOM     49  C   UNL A   1      43.297  27.618  33.249  1.00  0.00     0.031 C 
ATOM     50  C   UNL A   1      38.077  30.568  29.823  1.00  0.00     0.029 A 
ATOM     51  C   UNL A   1      38.407  31.157  31.116  1.00  0.00     0.049 A 
ATOM     52  H   UNL A   1      39.851  30.513  32.473  1.00  0.00     0.167 HD
ATOM     53  C   UNL A   1      43.036  29.181  35.150  1.00  0.00     0.037 A 
ATOM     54  C   UNL A   1      37.796  32.231  31.654  1.00  0.00     0.037 A 
ATOM     55  C   UNL A   1      42.419  30.297  35.820  1.00  0.00     0.049 A 
ATOM     56  C   UNL A   1      38.219  32.712  33.011  1.00  0.00     0.074 A 
ATOM     57  C   UNL A   1      42.757  30.863  37.038  1.00  0.00     0.029 A 
ATOM     58  N   UNL A   1      41.346  31.024  35.326  1.00  0.00    -0.354 N 
ATOM     59  N   UNL A   1      39.189  32.268  33.774  1.00  0.00    -0.248 NA
ATOM     60  C   UNL A   1      37.453  33.823  33.591  1.00  0.00     0.031 C 
ATOM     61  C   UNL A   1      41.866  31.909  37.297  1.00  0.00     0.029 A 
ATOM     62  C   UNL A   1      40.996  32.019  36.224  1.00  0.00     0.049 A 
ATOM     63  H   UNL A   1      40.900  30.857  34.465  1.00  0.00     0.167 HD
ATOM     64  C   UNL A   1      39.148  33.043  34.926  1.00  0.00     0.074 A 
ATOM     65  C   UNL A   1      38.076  34.002  34.749  1.00  0.00     0.031 C 
ATOM     66  C   UNL A   1      39.921  32.960  36.036  1.00  0.00     0.037 A 
BRANCH  53  67
ATOM     67  C   UNL A   1      44.183  28.494  35.841  1.00  0.00     0.058 A 
ATOM     68  C   UNL A   1      43.977  27.414  36.713  1.00  0.00     0.135 A 
ATOM     69  C   UNL A   1      45.508  28.881  35.580  1.00  0.00     0.135 A 
ATOM     70  F   UNL A   1      42.731  27.012  37.009  1.00  0.00    -0.206 F 
ATOM     71  C   UNL A   1      45.043  26.751  37.315  1.00  0.00     0.059 A 
ATOM     72  C   UNL A   1      46.590  28.219  36.154  1.00  0.00     0.059 A 
ATOM     73  F   UNL A   1      45.761  29.908  34.754  1.00  0.00    -0.206 F 
ATOM     74  C   UNL A   1      46.347  27.160  37.028  1.00  0.00     0.060 A 
BRANCH  74  75
ATOM     75  S   UNL A   1      47.719  26.280  37.806  1.00  0.00     0.124 S 
ATOM     76  O   UNL A   1      47.297  24.891  37.654  1.00  0.00    -0.237 OA
ATOM     77  O   UNL A   1      48.855  26.689  36.987  1.00  0.00    -0.237 OA
ATOM     78  O   UNL A   1      47.719  26.789  39.173  1.00  0.00    -0.744 OA
ENDBRANCH  74  75
ENDBRANCH  53  67
BRANCH  54  79
ATOM     79  C   UNL A   1      36.703  32.909  30.907  1.00  0.00     0.058 A 
ATOM     80  C   UNL A   1      35.357  32.626  31.181  1.00  0.00     0.135 A 
ATOM     81  C   UNL A   1      36.982  33.877  29.929  1.00  0.00     0.135 A 
ATOM     82  F   UNL A   1      35.039  31.703  32.101  1.00  0.00    -0.206 F 
ATOM     83  C   UNL A   1      34.326  33.279  30.513  1.00  0.00     0.059 A 
ATOM     84  C   UNL A   1      35.970  34.560  29.266  1.00  0.00     0.059 A 
ATOM     85  F   UNL A   1      38.255  34.191  29.640  1.00  0.00    -0.206 F 
ATOM     86  C   UNL A   1      34.643  34.250  29.561  1.00  0.00     0.060 A 
BRANCH  86  87
ATOM     87  S   UNL A   1      33.298  35.139  28.747  1.00  0.00     0.124 S 
ATOM     88  O   UNL A   1      32.667  34.075  27.976  1.00  0.00    -0.237 OA
ATOM     89  O   UNL A   1      32.535  35.645  29.883  1.00  0.00    -0.237 OA
ATOM     90  O   UNL A   1      33.995  36.157  27.966  1.00  0.00    -0.744 OA
ENDBRANCH  86  87
ENDBRANCH  54  79
BRANCH  66  91
ATOM     91  C   UNL A   1      39.634  33.924  37.151  1.00  0.00     0.058 A 
ATOM     92  C   UNL A   1      38.900  33.531  38.280  1.00  0.00     0.135 A 
ATOM     93  C   UNL A   1      40.151  35.229  37.122  1.00  0.00     0.135 A 
ATOM     94  F   UNL A   1      38.377  32.297  38.350  1.00  0.00    -0.206 F 
ATOM     95  C   UNL A   1      38.677  34.403  39.340  1.00  0.00     0.059 A 
ATOM     96  C   UNL A   1      39.961  36.111  38.181  1.00  0.00     0.059 A 
ATOM     97  F   UNL A   1      40.867  35.649  36.067  1.00  0.00    -0.206 F 
ATOM     98  C   UNL A   1      39.217  35.690  39.283  1.00  0.00     0.060 A 
BRANCH  98  99
ATOM     99  S   UNL A   1      38.961  36.795  40.688  1.00  0.00     0.124 S 
ATOM    100  O   UNL A   1      40.325  36.967  41.178  1.00  0.00    -0.237 OA
ATOM    101  O   UNL A   1      38.361  37.967  40.057  1.00  0.00    -0.237 OA
ATOM    102  O   UNL A   1      38.071  36.035  41.561  1.00  0.00    -0.744 OA
ENDBRANCH  98  99
ENDBRANCH  66  91
ENDBRANCH  40  41
ENDBRANCH  32  35
ENDBRANCH  30  31
ENDBRANCH   1  30
TORSDOF 15
ENDMDL
MODEL 2
REMARK VINA RESULT:     -12.8      4.884     10.233
REMARK SMILES CC(C)c1cccc2c1N[C@H](c1ccc(C(=O)NCCCNC(=O)c3ccc(-c4c5nc(c(-c6c(F)cc(S(=O)(=O)[O-])cc6F)c6ccc([nH]6)c(-c6c(F)cc(S(=O)(=O)[O-])cc6F)c6nc(c(-c7c(F)cc(S(=O)(=O)[O-])cc7F)c7ccc4[nH]7)C=C6)C=C5)cc3)cc1)[C@H]1CC=C[C@H]21
REMARK SMILES IDX 20 1 19 2 18 3 16 4 17 5 15 7 12 8 13 9 92 10 14 11 91 12
REMARK SMILES IDX 11 13 4 14 5 15 9 16 6 17 8 18 10 19 7 20 97 21 93 23 96 24
REMARK SMILES IDX 94 25 95 26 2 27 1 28 3 29 21 30 22 31 23 32 24 34 25 35
REMARK SMILES IDX 26 36 90 37 27 38 89 39 28 40 29 41 30 42 83 43 31 44 88 45
REMARK SMILES IDX 82 46 84 47 32 48 87 49 81 50 80 51 33 53 67 54 46 55 66 56
REMARK SMILES IDX 47 57 50 58 65 59 85 60 48 61 49 62 64 64 86 65 51 66 34 67
REMARK SMILES IDX 35 68 44 69 36 70 37 71 43 72 45 73 38 74 39 75 40 76 41 77
REMARK SMILES IDX 42 78 68 79 69 80 78 81 70 82 71 83 77 84 79 85 72 86 73 87
REMARK SMILES IDX 74 88 75 89 76 90 52 91 53 92 62 93 54 94 55 95 61 96 63 97
REMARK SMILES IDX 56 98 57 99 58 100 59 101 60 102
REMARK H PARENT 18 6 10 22 22 33 84 52 50 63
REMARK Flexibility Score: inf
ROOT
ATOM      1  C   UNL A   1      31.928  28.238  26.499  1.00  0.00     0.042 C 
ENDROOT
BRANCH   1   2
ATOM      2  C   UNL A   1      31.868  28.497  25.002  1.00  0.00     0.118 C 
BRANCH   2   3
ATOM      3  N   UNL A   1      30.600  28.126  24.380  1.00  0.00    -0.352 N 
ATOM      4  C   UNL A   1      30.078  26.879  24.108  1.00  0.00     0.251 C 
ATOM      5  O   UNL A   1      28.999  26.779  23.530  1.00  0.00    -0.269 OA
ATOM      6  H   UNL A   1      30.030  28.883  24.114  1.00  0.00     0.163 HD
BRANCH   4   7
ATOM      7  C   UNL A   1      30.840  25.660  24.461  1.00  0.00     0.039 A 
ATOM      8  C   UNL A   1      32.669  23.678  25.332  1.00  0.00    -0.025 A 
ATOM      9  C   UNL A   1      32.714  24.199  24.026  1.00  0.00     0.006 A 
ATOM     10  C   UNL A   1      31.522  24.005  26.075  1.00  0.00     0.006 A 
ATOM     11  C   UNL A   1      31.827  25.197  23.597  1.00  0.00     0.014 A 
ATOM     12  C   UNL A   1      30.614  24.978  25.648  1.00  0.00     0.014 A 
BRANCH   8  13
ATOM     13  C   UNL A   1      33.782  22.774  25.909  1.00  0.00     0.114 C 
ATOM     14  C   UNL A   1      34.129  19.113  24.717  1.00  0.00    -0.022 A 
ATOM     15  C   UNL A   1      35.188  18.228  24.394  1.00  0.00     0.006 A 
ATOM     16  C   UNL A   1      34.473  20.392  25.242  1.00  0.00     0.042 A 
ATOM     17  C   UNL A   1      36.527  18.572  24.547  1.00  0.00     0.001 A 
ATOM     18  C   UNL A   1      35.848  20.736  25.355  1.00  0.00    -0.017 A 
ATOM     19  N   UNL A   1      33.507  21.343  25.598  1.00  0.00    -0.377 N 
ATOM     20  C   UNL A   1      36.857  19.824  25.025  1.00  0.00     0.006 A 
ATOM     21  C   UNL A   1      36.171  22.063  25.968  1.00  0.00     0.049 C 
ATOM     22  H   UNL A   1      32.571  21.041  25.647  1.00  0.00     0.161 HD
ATOM     23  C   UNL A   1      35.204  23.112  25.402  1.00  0.00     0.031 C 
ATOM     24  C   UNL A   1      37.496  22.722  25.728  1.00  0.00    -0.023 C 
ATOM     25  C   UNL A   1      35.901  24.427  25.779  1.00  0.00     0.034 C 
ATOM     26  C   UNL A   1      37.346  24.051  25.674  1.00  0.00    -0.030 C 
BRANCH  14  27
ATOM     27  C   UNL A   1      32.681  18.624  24.526  1.00  0.00     0.015 C 
ATOM     28  C   UNL A   1      32.273  18.449  23.058  1.00  0.00     0.012 C 
ATOM     29  C   UNL A   1      32.336  17.294  25.232  1.00  0.00     0.012 C 
ENDBRANCH  14  27
ENDBRANCH   8  13
ENDBRANCH   4   7
ENDBRANCH   2   3
ENDBRANCH   1   2
BRANCH   1  30
ATOM     30  C   UNL A   1      33.257  28.584  27.152  1.00  0.00     0.118 C 
BRANCH  30  31
ATOM     31  N   UNL A   1      33.341  29.962  27.622  1.00  0.00    -0.352 N 
ATOM     32  C   UNL A   1      34.367  30.680  28.204  1.00  0.00     0.251 C 
ATOM     33  H   UNL A   1      32.511  30.477  27.503  1.00  0.00     0.163 HD
ATOM     34  O   UNL A   1      34.138  31.810  28.617  1.00  0.00    -0.269 OA
BRANCH  32  35
ATOM     35  C   UNL A   1      35.718  30.091  28.383  1.00  0.00     0.039 A 
ATOM     36  C   UNL A   1      36.129  29.564  29.603  1.00  0.00     0.014 A 
ATOM     37  C   UNL A   1      36.600  30.064  27.296  1.00  0.00     0.014 A 
ATOM     38  C   UNL A   1      37.470  29.262  29.811  1.00  0.00     0.010 A 
ATOM     39  C   UNL A   1      37.922  29.631  27.473  1.00  0.00     0.010 A 
ATOM     40  C   UNL A   1      38.391  29.299  28.752  1.00  0.00    -0.014 A 
BRANCH  40  41
ATOM     41  C   UNL A   1      39.830  29.018  29.026  1.00  0.00     0.031 A 
ATOM     42  C   UNL A   1      40.442  27.691  28.642  1.00  0.00     0.074 A 
ATOM     43  C   UNL A   1      40.613  29.990  29.538  1.00  0.00     0.049 A 
ATOM     44  N   UNL A   1      41.678  27.283  28.784  1.00  0.00    -0.248 NA
ATOM     45  C   UNL A   1      39.555  26.690  28.027  1.00  0.00     0.031 C 
ATOM     46  C   UNL A   1      40.151  31.322  29.938  1.00  0.00     0.029 A 
ATOM     47  N   UNL A   1      41.965  30.029  29.772  1.00  0.00    -0.354 N 
ATOM     48  C   UNL A   1      41.711  25.978  28.302  1.00  0.00     0.074 A 
ATOM     49  C   UNL A   1      40.364  25.648  27.891  1.00  0.00     0.031 C 
ATOM     50  C   UNL A   1      41.206  32.069  30.293  1.00  0.00     0.029 A 
ATOM     51  C   UNL A   1      42.411  31.249  30.222  1.00  0.00     0.049 A 
ATOM     52  H   UNL A   1      42.558  29.256  29.632  1.00  0.00     0.167 HD
ATOM     53  C   UNL A   1      42.767  25.136  28.196  1.00  0.00     0.037 A 
ATOM     54  C   UNL A   1      43.648  31.666  30.556  1.00  0.00     0.037 A 
ATOM     55  C   UNL A   1      44.116  25.478  28.564  1.00  0.00     0.049 A 
ATOM     56  C   UNL A   1      44.796  30.703  30.464  1.00  0.00     0.074 A 
ATOM     57  C   UNL A   1      45.257  24.699  28.470  1.00  0.00     0.029 A 
ATOM     58  N   UNL A   1      44.510  26.703  29.084  1.00  0.00    -0.354 N 
ATOM     59  N   UNL A   1      44.797  29.468  30.023  1.00  0.00    -0.248 NA
ATOM     60  C   UNL A   1      46.104  31.179  30.934  1.00  0.00     0.031 C 
ATOM     61  C   UNL A   1      46.335  25.439  28.967  1.00  0.00     0.029 A 
ATOM     62  C   UNL A   1      45.873  26.692  29.335  1.00  0.00     0.049 A 
ATOM     63  H   UNL A   1      43.911  27.464  29.250  1.00  0.00     0.167 HD
ATOM     64  C   UNL A   1      46.104  29.017  30.165  1.00  0.00     0.074 A 
ATOM     65  C   UNL A   1      46.871  30.121  30.707  1.00  0.00     0.031 C 
ATOM     66  C   UNL A   1      46.619  27.796  29.884  1.00  0.00     0.037 A 
BRANCH  53  67
ATOM     67  C   UNL A   1      42.513  23.752  27.662  1.00  0.00     0.058 A 
ATOM     68  C   UNL A   1      42.468  23.491  26.283  1.00  0.00     0.135 A 
ATOM     69  C   UNL A   1      42.374  22.664  28.539  1.00  0.00     0.135 A 
ATOM     70  F   UNL A   1      42.579  24.496  25.401  1.00  0.00    -0.206 F 
ATOM     71  C   UNL A   1      42.277  22.202  25.793  1.00  0.00     0.059 A 
ATOM     72  C   UNL A   1      42.205  21.364  28.071  1.00  0.00     0.059 A 
ATOM     73  F   UNL A   1      42.409  22.858  29.867  1.00  0.00    -0.206 F 
ATOM     74  C   UNL A   1      42.149  21.144  26.695  1.00  0.00     0.060 A 
BRANCH  74  75
ATOM     75  S   UNL A   1      41.918  19.476  26.041  1.00  0.00     0.124 S 
ATOM     76  O   UNL A   1      42.297  18.659  27.189  1.00  0.00    -0.237 OA
ATOM     77  O   UNL A   1      40.499  19.469  25.701  1.00  0.00    -0.237 OA
ATOM     78  O   UNL A   1      42.833  19.425  24.906  1.00  0.00    -0.744 OA
ENDBRANCH  74  75
ENDBRANCH  53  67
BRANCH  54  79
ATOM     79  C   UNL A   1      43.855  33.061  31.028  1.00  0.00     0.058 A 
ATOM     80  C   UNL A   1      44.099  34.101  30.121  1.00  0.00     0.135 A 
ATOM     81  C   UNL A   1      43.779  33.386  32.392  1.00  0.00     0.135 A 
ATOM     82  F   UNL A   1      44.189  33.840  28.808  1.00  0.00    -0.206 F 
ATOM     83  C   UNL A   1      44.261  35.416  30.548  1.00  0.00     0.059 A 
ATOM     84  C   UNL A   1      43.912  34.694  32.841  1.00  0.00     0.059 A 
ATOM     85  F   UNL A   1      43.535  32.426  33.299  1.00  0.00    -0.206 F 
ATOM     86  C   UNL A   1      44.159  35.703  31.911  1.00  0.00     0.060 A 
BRANCH  86  87
ATOM     87  S   UNL A   1      44.304  37.421  32.448  1.00  0.00     0.124 S 
ATOM     88  O   UNL A   1      43.229  37.513  33.428  1.00  0.00    -0.237 OA
ATOM     89  O   UNL A   1      45.662  37.461  32.982  1.00  0.00    -0.237 OA
ATOM     90  O   UNL A   1      44.102  38.175  31.215  1.00  0.00    -0.744 OA
ENDBRANCH  86  87
ENDBRANCH  54  79
BRANCH  66  91
ATOM     91  C   UNL A   1      48.079  27.582  30.163  1.00  0.00     0.058 A 
ATOM     92  C   UNL A   1      49.055  27.889  29.204  1.00  0.00     0.135 A 
ATOM     93  C   UNL A   1      48.510  27.131  31.421  1.00  0.00     0.135 A 
ATOM     94  F   UNL A   1      48.692  28.315  27.983  1.00  0.00    -0.206 F 
ATOM     95  C   UNL A   1      50.410  27.745  29.476  1.00  0.00     0.059 A 
ATOM     96  C   UNL A   1      49.862  27.001  31.723  1.00  0.00     0.059 A 
ATOM     97  F   UNL A   1      47.614  26.832  32.375  1.00  0.00    -0.206 F 
ATOM     98  C   UNL A   1      50.805  27.305  30.741  1.00  0.00     0.060 A 
BRANCH  98  99
ATOM     99  S   UNL A   1      52.569  27.170  31.096  1.00  0.00     0.124 S 
ATOM    100  O   UNL A   1      52.892  28.533  31.508  1.00  0.00    -0.237 OA
ATOM    101  O   UNL A   1      52.598  26.164  32.155  1.00  0.00    -0.237 OA
ATOM    102  O   UNL A   1      53.142  26.747  29.822  1.00  0.00    -0.744 OA
ENDBRANCH  98  99
ENDBRANCH  66  91
ENDBRANCH  40  41
ENDBRANCH  32  35
ENDBRANCH  30  31
ENDBRANCH   1  30
TORSDOF 15
ENDMDL
MODEL 3
REMARK VINA RESULT:     -12.8      0.331      7.995
REMARK SMILES CC(C)c1cccc2c1N[C@H](c1ccc(C(=O)NCCCNC(=O)c3ccc(-c4c5nc(c(-c6c(F)cc(S(=O)(=O)[O-])cc6F)c6ccc([nH]6)c(-c6c(F)cc(S(=O)(=O)[O-])cc6F)c6nc(c(-c7c(F)cc(S(=O)(=O)[O-])cc7F)c7ccc4[nH]7)C=C6)C=C5)cc3)cc1)[C@H]1CC=C[C@H]21
REMARK SMILES IDX 20 1 19 2 18 3 16 4 17 5 15 7 12 8 13 9 92 10 14 11 91 12
REMARK SMILES IDX 11 13 4 14 5 15 9 16 6 17 8 18 10 19 7 20 97 21 93 23 96 24
REMARK SMILES IDX 94 25 95 26 2 27 1 28 3 29 21 30 22 31 23 32 24 34 25 35
REMARK SMILES IDX 26 36 90 37 27 38 89 39 28 40 29 41 30 42 83 43 31 44 88 45
REMARK SMILES IDX 82 46 84 47 32 48 87 49 81 50 80 51 33 53 67 54 46 55 66 56
REMARK SMILES IDX 47 57 50 58 65 59 85 60 48 61 49 62 64 64 86 65 51 66 34 67
REMARK SMILES IDX 35 68 44 69 36 70 37 71 43 72 45 73 38 74 39 75 40 76 41 77
REMARK SMILES IDX 42 78 68 79 69 80 78 81 70 82 71 83 77 84 79 85 72 86 73 87
REMARK SMILES IDX 74 88 75 89 76 90 52 91 53 92 62 93 54 94 55 95 61 96 63 97
REMARK SMILES IDX 56 98 57 99 58 100 59 101 60 102
REMARK H PARENT 18 6 10 22 22 33 84 52 50 63
REMARK Flexibility Score: inf
ROOT
ATOM      1  C   UNL A   1      40.448  22.249  27.388  1.00  0.00     0.042 C 
ENDROOT
BRANCH   1   2
ATOM      2  C   UNL A   1      39.237  22.714  26.595  1.00  0.00     0.118 C 
BRANCH   2   3
ATOM      3  N   UNL A   1      38.628  21.677  25.767  1.00  0.00    -0.352 N 
ATOM      4  C   UNL A   1      37.322  21.529  25.351  1.00  0.00     0.251 C 
ATOM      5  O   UNL A   1      36.998  20.548  24.687  1.00  0.00    -0.269 OA
ATOM      6  H   UNL A   1      39.244  20.974  25.460  1.00  0.00     0.163 HD
BRANCH   4   7
ATOM      7  C   UNL A   1      36.297  22.522  25.746  1.00  0.00     0.039 A 
ATOM      8  C   UNL A   1      34.069  24.244  26.060  1.00  0.00    -0.025 A 
ATOM      9  C   UNL A   1      35.210  24.641  25.339  1.00  0.00     0.006 A 
ATOM     10  C   UNL A   1      34.208  23.069  26.817  1.00  0.00     0.006 A 
ATOM     11  C   UNL A   1      36.305  23.783  25.160  1.00  0.00     0.014 A 
ATOM     12  C   UNL A   1      35.307  22.218  26.670  1.00  0.00     0.014 A 
BRANCH   8  13
ATOM     13  C   UNL A   1      32.756  25.059  26.058  1.00  0.00     0.114 C 
ATOM     14  C   UNL A   1      32.861  28.918  26.281  1.00  0.00    -0.022 A 
ATOM     15  C   UNL A   1      32.173  30.006  25.688  1.00  0.00     0.006 A 
ATOM     16  C   UNL A   1      32.403  27.602  25.981  1.00  0.00     0.042 A 
ATOM     17  C   UNL A   1      31.101  29.832  24.819  1.00  0.00     0.001 A 
ATOM     18  C   UNL A   1      31.330  27.448  25.060  1.00  0.00    -0.017 A 
ATOM     19  N   UNL A   1      33.007  26.456  26.513  1.00  0.00    -0.377 N 
ATOM     20  C   UNL A   1      30.680  28.556  24.504  1.00  0.00     0.006 A 
ATOM     21  C   UNL A   1      30.836  26.056  24.817  1.00  0.00     0.049 C 
ATOM     22  H   UNL A   1      33.648  26.583  27.249  1.00  0.00     0.161 HD
ATOM     23  C   UNL A   1      32.047  25.123  24.683  1.00  0.00     0.031 C 
ATOM     24  C   UNL A   1      30.064  25.717  23.577  1.00  0.00    -0.023 C 
ATOM     25  C   UNL A   1      31.423  23.876  24.042  1.00  0.00     0.034 C 
ATOM     26  C   UNL A   1      30.358  24.474  23.177  1.00  0.00    -0.030 C 
BRANCH  14  27
ATOM     27  C   UNL A   1      34.024  29.223  27.244  1.00  0.00     0.015 C 
ATOM     28  C   UNL A   1      35.405  28.866  26.683  1.00  0.00     0.012 C 
ATOM     29  C   UNL A   1      34.117  30.690  27.720  1.00  0.00     0.012 C 
ENDBRANCH  14  27
ENDBRANCH   8  13
ENDBRANCH   4   7
ENDBRANCH   2   3
ENDBRANCH   1   2
BRANCH   1  30
ATOM     30  C   UNL A   1      41.734  23.002  27.087  1.00  0.00     0.118 C 
BRANCH  30  31
ATOM     31  N   UNL A   1      41.594  24.014  26.045  1.00  0.00    -0.352 N 
ATOM     32  C   UNL A   1      41.410  25.381  26.101  1.00  0.00     0.251 C 
ATOM     33  H   UNL A   1      41.640  23.654  25.130  1.00  0.00     0.163 HD
ATOM     34  O   UNL A   1      41.205  25.993  25.060  1.00  0.00    -0.269 OA
BRANCH  32  35
ATOM     35  C   UNL A   1      41.402  26.107  27.396  1.00  0.00     0.039 A 
ATOM     36  C   UNL A   1      40.347  25.987  28.295  1.00  0.00     0.014 A 
ATOM     37  C   UNL A   1      42.486  26.932  27.722  1.00  0.00     0.014 A 
ATOM     38  C   UNL A   1      40.246  26.869  29.366  1.00  0.00     0.010 A 
ATOM     39  C   UNL A   1      42.444  27.726  28.877  1.00  0.00     0.010 A 
ATOM     40  C   UNL A   1      41.288  27.759  29.670  1.00  0.00    -0.014 A 
BRANCH  40  41
ATOM     41  C   UNL A   1      41.120  28.724  30.794  1.00  0.00     0.031 A 
ATOM     42  C   UNL A   1      40.004  29.743  30.774  1.00  0.00     0.074 A 
ATOM     43  C   UNL A   1      41.914  28.627  31.879  1.00  0.00     0.049 A 
ATOM     44  N   UNL A   1      39.695  30.643  31.674  1.00  0.00    -0.248 NA
ATOM     45  C   UNL A   1      39.126  29.760  29.593  1.00  0.00     0.031 C 
ATOM     46  C   UNL A   1      43.020  27.678  32.033  1.00  0.00     0.029 A 
ATOM     47  N   UNL A   1      41.895  29.302  33.075  1.00  0.00    -0.354 N 
ATOM     48  C   UNL A   1      38.610  31.346  31.158  1.00  0.00     0.074 A 
ATOM     49  C   UNL A   1      38.331  30.789  29.854  1.00  0.00     0.031 C 
ATOM     50  C   UNL A   1      43.520  27.777  33.273  1.00  0.00     0.029 A 
ATOM     51  C   UNL A   1      42.826  28.848  33.979  1.00  0.00     0.049 A 
ATOM     52  H   UNL A   1      41.274  30.042  33.265  1.00  0.00     0.167 HD
ATOM     53  C   UNL A   1      37.900  32.351  31.725  1.00  0.00     0.037 A 
ATOM     54  C   UNL A   1      43.105  29.253  35.234  1.00  0.00     0.037 A 
ATOM     55  C   UNL A   1      38.150  32.876  33.043  1.00  0.00     0.049 A 
ATOM     56  C   UNL A   1      42.328  30.393  35.826  1.00  0.00     0.074 A 
ATOM     57  C   UNL A   1      37.468  33.878  33.712  1.00  0.00     0.029 A 
ATOM     58  N   UNL A   1      39.150  32.434  33.896  1.00  0.00    -0.354 N 
ATOM     59  N   UNL A   1      41.319  31.053  35.311  1.00  0.00    -0.248 NA
ATOM     60  C   UNL A   1      42.739  30.858  37.157  1.00  0.00     0.031 C 
ATOM     61  C   UNL A   1      38.079  34.068  34.956  1.00  0.00     0.029 A 
ATOM     62  C   UNL A   1      39.118  33.158  35.077  1.00  0.00     0.049 A 
ATOM     63  H   UNL A   1      39.789  31.714  33.693  1.00  0.00     0.167 HD
ATOM     64  C   UNL A   1      40.977  32.015  36.254  1.00  0.00     0.074 A 
ATOM     65  C   UNL A   1      41.868  31.832  37.382  1.00  0.00     0.031 C 
ATOM     66  C   UNL A   1      40.018  32.971  36.186  1.00  0.00     0.037 A 
BRANCH  53  67
ATOM     67  C   UNL A   1      36.781  32.961  30.926  1.00  0.00     0.058 A 
ATOM     68  C   UNL A   1      35.436  32.660  31.192  1.00  0.00     0.135 A 
ATOM     69  C   UNL A   1      37.054  33.903  29.921  1.00  0.00     0.135 A 
ATOM     70  F   UNL A   1      35.120  31.754  32.132  1.00  0.00    -0.206 F 
ATOM     71  C   UNL A   1      34.401  33.259  30.480  1.00  0.00     0.059 A 
ATOM     72  C   UNL A   1      36.034  34.532  29.211  1.00  0.00     0.059 A 
ATOM     73  F   UNL A   1      38.323  34.227  29.625  1.00  0.00    -0.206 F 
ATOM     74  C   UNL A   1      34.711  34.196  29.492  1.00  0.00     0.060 A 
BRANCH  74  75
ATOM     75  S   UNL A   1      33.355  34.977  28.589  1.00  0.00     0.124 S 
ATOM     76  O   UNL A   1      34.072  35.954  27.776  1.00  0.00    -0.237 OA
ATOM     77  O   UNL A   1      32.778  33.851  27.862  1.00  0.00    -0.237 OA
ATOM     78  O   UNL A   1      32.517  35.534  29.645  1.00  0.00    -0.744 OA
ENDBRANCH  74  75
ENDBRANCH  53  67
BRANCH  54  79
ATOM     79  C   UNL A   1      44.186  28.582  36.003  1.00  0.00     0.058 A 
ATOM     80  C   UNL A   1      43.916  27.464  36.804  1.00  0.00     0.135 A 
ATOM     81  C   UNL A   1      45.517  29.025  35.924  1.00  0.00     0.135 A 
ATOM     82  F   UNL A   1      42.659  27.008  36.918  1.00  0.00    -0.206 F 
ATOM     83  C   UNL A   1      44.925  26.807  37.501  1.00  0.00     0.059 A 
ATOM     84  C   UNL A   1      46.546  28.370  36.591  1.00  0.00     0.059 A 
ATOM     85  F   UNL A   1      45.828  30.084  35.160  1.00  0.00    -0.206 F 
ATOM     86  C   UNL A   1      46.239  27.265  37.384  1.00  0.00     0.060 A 
BRANCH  86  87
ATOM     87  S   UNL A   1      47.551  26.366  38.239  1.00  0.00     0.124 S 
ATOM     88  O   UNL A   1      46.792  25.611  39.228  1.00  0.00    -0.237 OA
ATOM     89  O   UNL A   1      48.144  25.587  37.156  1.00  0.00    -0.237 OA
ATOM     90  O   UNL A   1      48.396  27.432  38.768  1.00  0.00    -0.744 OA
ENDBRANCH  86  87
ENDBRANCH  54  79
BRANCH  66  91
ATOM     91  C   UNL A   1      39.886  33.899  37.358  1.00  0.00     0.058 A 
ATOM     92  C   UNL A   1      40.550  35.134  37.386  1.00  0.00     0.135 A 
ATOM     93  C   UNL A   1      39.037  33.583  38.432  1.00  0.00     0.135 A 
ATOM     94  F   UNL A   1      41.380  35.477  36.387  1.00  0.00    -0.206 F 
ATOM     95  C   UNL A   1      40.389  36.022  38.443  1.00  0.00     0.059 A 
ATOM     96  C   UNL A   1      38.842  34.466  39.490  1.00  0.00     0.059 A 
ATOM     97  F   UNL A   1      38.372  32.417  38.447  1.00  0.00    -0.206 F 
ATOM     98  C   UNL A   1      39.528  35.681  39.489  1.00  0.00     0.060 A 
BRANCH  98  99
ATOM     99  S   UNL A   1      39.290  36.864  40.831  1.00  0.00     0.124 S 
ATOM    100  O   UNL A   1      40.669  37.199  41.176  1.00  0.00    -0.237 OA
ATOM    101  O   UNL A   1      38.524  37.923  40.180  1.00  0.00    -0.237 OA
ATOM    102  O   UNL A   1      38.561  36.097  41.836  1.00  0.00    -0.744 OA
ENDBRANCH  98  99
ENDBRANCH  66  91
ENDBRANCH  40  41
ENDBRANCH  32  35
ENDBRANCH  30  31
ENDBRANCH   1  30
TORSDOF 15
ENDMDL
