MODEL 1
REMARK VINA RESULT:     -11.6      0.000      0.000
REMARK SMILES O=C(CNC(=O)CN1C(=O)S/C(=C\c2cccc(F)c2)C1=O)NCCCNC(=O)c1ccc(-c2c3nc(c(-c4c(F)cc(S(=O)(=O)[O-])cc4F)c4ccc([nH]4)c(-c4c(F)cc(S(=O)(=O)[O-])cc4F)c4nc(c(-c5c(F)cc(S(=O)(=O)[O-])cc5F)c5ccc2[nH]5)C=C4)C=C3)cc1
REMARK SMILES IDX 24 1 23 2 1 3 2 4 3 6 4 7 5 8 6 10 7 11 8 12 9 13 21 14
REMARK SMILES IDX 10 15 11 16 12 17 22 18 13 19 14 20 15 21 20 22 16 23 18 24
REMARK SMILES IDX 17 25 19 26 25 27 26 28 27 29 28 30 29 32 30 33 31 34 95 35
REMARK SMILES IDX 32 36 94 37 33 38 34 39 35 40 88 41 36 42 93 43 87 44 89 45
REMARK SMILES IDX 37 46 92 47 86 48 85 49 38 51 72 52 51 53 71 54 52 55 55 56
REMARK SMILES IDX 70 57 90 58 53 59 54 60 69 62 91 63 56 64 39 65 40 66 49 67
REMARK SMILES IDX 41 68 42 69 48 70 50 71 43 72 44 73 45 74 46 75 47 76 73 77
REMARK SMILES IDX 74 78 83 79 75 80 76 81 82 82 84 83 77 84 78 85 79 86 80 87
REMARK SMILES IDX 81 88 57 89 58 90 67 91 59 92 60 93 66 94 68 95 61 96 62 97
REMARK SMILES IDX 63 98 64 99 65 100
REMARK H PARENT 23 5 4 9 27 31 89 50 55 61
REMARK Flexibility Score: inf
ROOT
ATOM      1  C   UNL A   1      33.122  28.003  22.385  1.00  0.00     0.117 C 
ENDROOT
BRANCH   1   2
ATOM      2  N   UNL A   1      32.006  27.316  23.023  1.00  0.00    -0.355 N 
ATOM      3  O   UNL A   1      30.303  28.455  21.977  1.00  0.00    -0.273 OA
ATOM      4  C   UNL A   1      30.679  27.565  22.734  1.00  0.00     0.239 C 
ATOM      5  H   UNL A   1      32.211  26.633  23.702  1.00  0.00     0.163 HD
BRANCH   4   6
ATOM      6  C   UNL A   1      29.679  26.722  23.545  1.00  0.00     0.216 C 
BRANCH   6   7
ATOM      7  N   UNL A   1      29.980  26.734  24.971  1.00  0.00    -0.345 N 
ATOM      8  C   UNL A   1      30.591  25.831  25.777  1.00  0.00     0.240 C 
ATOM      9  H   UNL A   1      29.686  27.551  25.435  1.00  0.00     0.164 HD
ATOM     10  O   UNL A   1      30.906  26.238  26.902  1.00  0.00    -0.273 OA
BRANCH   8  11
ATOM     11  C   UNL A   1      31.069  24.456  25.300  1.00  0.00     0.229 C 
BRANCH  11  12
ATOM     12  N   UNL A   1      32.398  24.030  25.701  1.00  0.00    -0.259 N 
ATOM     13  C   UNL A   1      32.596  23.293  26.840  1.00  0.00     0.294 C 
ATOM     14  C   UNL A   1      33.472  24.151  24.857  1.00  0.00     0.268 C 
ATOM     15  O   UNL A   1      31.748  22.955  27.642  1.00  0.00    -0.261 OA
ATOM     16  S   UNL A   1      34.289  22.867  27.004  1.00  0.00    -0.022 SA
ATOM     17  C   UNL A   1      34.685  23.545  25.486  1.00  0.00     0.083 C 
ATOM     18  O   UNL A   1      33.462  24.723  23.777  1.00  0.00    -0.268 OA
ATOM     19  C   UNL A   1      35.886  23.636  24.910  1.00  0.00     0.029 C 
BRANCH  19  20
ATOM     20  C   UNL A   1      37.209  23.257  25.437  1.00  0.00    -0.021 A 
ATOM     21  C   UNL A   1      37.950  24.143  26.221  1.00  0.00     0.008 A 
ATOM     22  C   UNL A   1      37.704  21.951  25.268  1.00  0.00     0.047 A 
ATOM     23  C   UNL A   1      39.160  23.734  26.800  1.00  0.00     0.004 A 
ATOM     24  C   UNL A   1      38.897  21.553  25.852  1.00  0.00     0.123 A 
ATOM     25  C   UNL A   1      39.640  22.439  26.607  1.00  0.00     0.039 A 
ATOM     26  F   UNL A   1      39.300  20.282  25.705  1.00  0.00    -0.207 F 
ENDBRANCH  19  20
ENDBRANCH  11  12
ENDBRANCH   8  11
ENDBRANCH   6   7
ENDBRANCH   4   6
ENDBRANCH   1   2
BRANCH   1  27
ATOM     27  C   UNL A   1      34.047  28.726  23.376  1.00  0.00     0.042 C 
BRANCH  27  28
ATOM     28  C   UNL A   1      33.977  28.213  24.829  1.00  0.00     0.118 C 
BRANCH  28  29
ATOM     29  N   UNL A   1      33.471  29.129  25.841  1.00  0.00    -0.352 N 
ATOM     30  C   UNL A   1      34.045  29.906  26.840  1.00  0.00     0.251 C 
ATOM     31  H   UNL A   1      32.491  29.220  25.811  1.00  0.00     0.163 HD
ATOM     32  O   UNL A   1      33.330  30.796  27.309  1.00  0.00    -0.269 OA
BRANCH  30  33
ATOM     33  C   UNL A   1      35.390  29.726  27.483  1.00  0.00     0.039 A 
ATOM     34  C   UNL A   1      35.427  29.466  28.856  1.00  0.00     0.014 A 
ATOM     35  C   UNL A   1      36.614  30.066  26.913  1.00  0.00     0.014 A 
ATOM     36  C   UNL A   1      36.649  29.415  29.582  1.00  0.00     0.010 A 
ATOM     37  C   UNL A   1      37.849  29.863  27.614  1.00  0.00     0.010 A 
ATOM     38  C   UNL A   1      37.918  29.484  28.970  1.00  0.00    -0.014 A 
BRANCH  38  39
ATOM     39  C   UNL A   1      39.209  29.119  29.749  1.00  0.00     0.031 A 
ATOM     40  C   UNL A   1      39.678  29.796  31.055  1.00  0.00     0.074 A 
ATOM     41  C   UNL A   1      40.082  28.190  29.261  1.00  0.00     0.049 A 
ATOM     42  N   UNL A   1      40.745  29.534  31.793  1.00  0.00    -0.248 NA
ATOM     43  C   UNL A   1      38.897  30.922  31.581  1.00  0.00     0.031 C 
ATOM     44  C   UNL A   1      39.969  27.500  27.973  1.00  0.00     0.029 A 
ATOM     45  N   UNL A   1      41.261  27.666  29.778  1.00  0.00    -0.354 N 
ATOM     46  C   UNL A   1      40.754  30.456  32.843  1.00  0.00     0.074 A 
ATOM     47  C   UNL A   1      39.649  31.354  32.586  1.00  0.00     0.031 C 
ATOM     48  C   UNL A   1      40.973  26.624  27.827  1.00  0.00     0.029 A 
ATOM     49  C   UNL A   1      41.848  26.692  28.990  1.00  0.00     0.049 A 
ATOM     50  H   UNL A   1      41.646  27.963  30.634  1.00  0.00     0.167 HD
ATOM     51  C   UNL A   1      41.538  30.538  33.956  1.00  0.00     0.037 A 
ATOM     52  C   UNL A   1      42.944  25.914  29.142  1.00  0.00     0.037 A 
ATOM     53  C   UNL A   1      42.624  29.643  34.295  1.00  0.00     0.049 A 
ATOM     54  C   UNL A   1      43.785  25.986  30.388  1.00  0.00     0.074 A 
ATOM     55  C   UNL A   1      43.367  29.601  35.467  1.00  0.00     0.029 A 
ATOM     56  N   UNL A   1      43.129  28.647  33.480  1.00  0.00    -0.354 N 
ATOM     57  N   UNL A   1      43.655  26.773  31.426  1.00  0.00    -0.248 NA
ATOM     58  C   UNL A   1      44.912  25.044  30.492  1.00  0.00     0.031 C 
ATOM     59  C   UNL A   1      44.353  28.616  35.339  1.00  0.00     0.029 A 
ATOM     60  C   UNL A   1      44.188  28.004  34.112  1.00  0.00     0.049 A 
ATOM     61  H   UNL A   1      42.789  28.425  32.583  1.00  0.00     0.167 HD
ATOM     62  C   UNL A   1      44.653  26.391  32.319  1.00  0.00     0.074 A 
ATOM     63  C   UNL A   1      45.373  25.296  31.709  1.00  0.00     0.031 C 
ATOM     64  C   UNL A   1      44.933  26.911  33.539  1.00  0.00     0.037 A 
BRANCH  51  65
ATOM     65  C   UNL A   1      41.206  31.606  34.981  1.00  0.00     0.058 A 
ATOM     66  C   UNL A   1      40.155  31.442  35.901  1.00  0.00     0.135 A 
ATOM     67  C   UNL A   1      41.869  32.845  34.974  1.00  0.00     0.135 A 
ATOM     68  F   UNL A   1      39.463  30.292  35.944  1.00  0.00    -0.206 F 
ATOM     69  C   UNL A   1      39.780  32.462  36.775  1.00  0.00     0.059 A 
ATOM     70  C   UNL A   1      41.536  33.865  35.862  1.00  0.00     0.059 A 
ATOM     71  F   UNL A   1      42.876  33.065  34.114  1.00  0.00    -0.206 F 
ATOM     72  C   UNL A   1      40.483  33.669  36.752  1.00  0.00     0.060 A 
BRANCH  72  73
ATOM     73  S   UNL A   1      40.028  34.963  37.927  1.00  0.00     0.124 S 
ATOM     74  O   UNL A   1      40.926  34.689  39.043  1.00  0.00    -0.237 OA
ATOM     75  O   UNL A   1      40.310  36.177  37.166  1.00  0.00    -0.237 OA
ATOM     76  O   UNL A   1      38.613  34.709  38.180  1.00  0.00    -0.744 OA
ENDBRANCH  72  73
ENDBRANCH  51  65
BRANCH  52  77
ATOM     77  C   UNL A   1      43.282  24.902  28.095  1.00  0.00     0.058 A 
ATOM     78  C   UNL A   1      42.853  23.570  28.189  1.00  0.00     0.135 A 
ATOM     79  C   UNL A   1      44.054  25.261  26.977  1.00  0.00     0.135 A 
ATOM     80  F   UNL A   1      42.117  23.171  29.238  1.00  0.00    -0.206 F 
ATOM     81  C   UNL A   1      43.196  22.624  27.225  1.00  0.00     0.059 A 
ATOM     82  C   UNL A   1      44.384  24.341  25.986  1.00  0.00     0.059 A 
ATOM     83  F   UNL A   1      44.467  26.529  26.831  1.00  0.00    -0.206 F 
ATOM     84  C   UNL A   1      43.965  23.020  26.129  1.00  0.00     0.060 A 
BRANCH  84  85
ATOM     85  S   UNL A   1      44.418  21.776  24.899  1.00  0.00     0.124 S 
ATOM     86  O   UNL A   1      43.436  20.729  25.170  1.00  0.00    -0.237 OA
ATOM     87  O   UNL A   1      44.241  22.505  23.648  1.00  0.00    -0.237 OA
ATOM     88  O   UNL A   1      45.797  21.445  25.243  1.00  0.00    -0.744 OA
ENDBRANCH  84  85
ENDBRANCH  52  77
BRANCH  64  89
ATOM     89  C   UNL A   1      46.052  26.291  34.340  1.00  0.00     0.058 A 
ATOM     90  C   UNL A   1      47.370  26.763  34.213  1.00  0.00     0.135 A 
ATOM     91  C   UNL A   1      45.834  25.211  35.213  1.00  0.00     0.135 A 
ATOM     92  F   UNL A   1      47.647  27.788  33.392  1.00  0.00    -0.206 F 
ATOM     93  C   UNL A   1      48.425  26.190  34.919  1.00  0.00     0.059 A 
ATOM     94  C   UNL A   1      46.871  24.643  35.953  1.00  0.00     0.059 A 
ATOM     95  F   UNL A   1      44.596  24.720  35.381  1.00  0.00    -0.206 F 
ATOM     96  C   UNL A   1      48.165  25.134  35.791  1.00  0.00     0.060 A 
BRANCH  96  97
ATOM     97  S   UNL A   1      49.538  24.442  36.743  1.00  0.00     0.124 S 
ATOM     98  O   UNL A   1      49.919  25.571  37.584  1.00  0.00    -0.237 OA
ATOM     99  O   UNL A   1      48.904  23.321  37.431  1.00  0.00    -0.237 OA
ATOM    100  O   UNL A   1      50.508  24.069  35.717  1.00  0.00    -0.744 OA
ENDBRANCH  96  97
ENDBRANCH  64  89
ENDBRANCH  38  39
ENDBRANCH  30  33
ENDBRANCH  28  29
ENDBRANCH  27  28
ENDBRANCH   1  27
TORSDOF 17
ENDMDL
MODEL 2
REMARK VINA RESULT:     -11.5      5.398      7.028
REMARK SMILES O=C(CNC(=O)CN1C(=O)S/C(=C\c2cccc(F)c2)C1=O)NCCCNC(=O)c1ccc(-c2c3nc(c(-c4c(F)cc(S(=O)(=O)[O-])cc4F)c4ccc([nH]4)c(-c4c(F)cc(S(=O)(=O)[O-])cc4F)c4nc(c(-c5c(F)cc(S(=O)(=O)[O-])cc5F)c5ccc2[nH]5)C=C4)C=C3)cc1
REMARK SMILES IDX 24 1 23 2 1 3 2 4 3 6 4 7 5 8 6 10 7 11 8 12 9 13 21 14
REMARK SMILES IDX 10 15 11 16 12 17 22 18 13 19 14 20 15 21 20 22 16 23 18 24
REMARK SMILES IDX 17 25 19 26 25 27 26 28 27 29 28 30 29 32 30 33 31 34 95 35
REMARK SMILES IDX 32 36 94 37 33 38 34 39 35 40 88 41 36 42 93 43 87 44 89 45
REMARK SMILES IDX 37 46 92 47 86 48 85 49 38 51 72 52 51 53 71 54 52 55 55 56
REMARK SMILES IDX 70 57 90 58 53 59 54 60 69 62 91 63 56 64 39 65 40 66 49 67
REMARK SMILES IDX 41 68 42 69 48 70 50 71 43 72 44 73 45 74 46 75 47 76 73 77
REMARK SMILES IDX 74 78 83 79 75 80 76 81 82 82 84 83 77 84 78 85 79 86 80 87
REMARK SMILES IDX 81 88 57 89 58 90 67 91 59 92 60 93 66 94 68 95 61 96 62 97
REMARK SMILES IDX 63 98 64 99 65 100
REMARK H PARENT 23 5 4 9 27 31 89 50 55 61
REMARK Flexibility Score: inf
ROOT
ATOM      1  C   UNL A   1      33.874  31.167  27.582  1.00  0.00     0.117 C 
ENDROOT
BRANCH   1   2
ATOM      2  N   UNL A   1      33.995  30.194  26.504  1.00  0.00    -0.355 N 
ATOM      3  O   UNL A   1      33.148  28.376  27.632  1.00  0.00    -0.273 OA
ATOM      4  C   UNL A   1      33.579  28.880  26.599  1.00  0.00     0.239 C 
ATOM      5  H   UNL A   1      34.399  30.490  25.656  1.00  0.00     0.163 HD
BRANCH   4   6
ATOM      6  C   UNL A   1      33.822  28.040  25.333  1.00  0.00     0.216 C 
BRANCH   6   7
ATOM      7  N   UNL A   1      32.580  27.528  24.767  1.00  0.00    -0.345 N 
ATOM      8  C   UNL A   1      31.843  26.423  25.043  1.00  0.00     0.240 C 
ATOM      9  H   UNL A   1      32.205  28.090  24.050  1.00  0.00     0.164 HD
ATOM     10  O   UNL A   1      30.711  26.392  24.546  1.00  0.00    -0.273 OA
BRANCH   8  11
ATOM     11  C   UNL A   1      32.260  25.361  26.066  1.00  0.00     0.229 C 
BRANCH  11  12
ATOM     12  N   UNL A   1      32.742  24.090  25.556  1.00  0.00    -0.259 N 
ATOM     13  C   UNL A   1      34.062  23.906  25.236  1.00  0.00     0.294 C 
ATOM     14  C   UNL A   1      31.957  22.966  25.582  1.00  0.00     0.268 C 
ATOM     15  O   UNL A   1      34.945  24.739  25.287  1.00  0.00    -0.261 OA
ATOM     16  S   UNL A   1      34.341  22.250  24.731  1.00  0.00    -0.022 SA
ATOM     17  C   UNL A   1      32.735  21.789  25.093  1.00  0.00     0.083 C 
ATOM     18  O   UNL A   1      30.776  22.935  25.899  1.00  0.00    -0.268 OA
ATOM     19  C   UNL A   1      32.159  20.597  24.917  1.00  0.00     0.029 C 
BRANCH  19  20
ATOM     20  C   UNL A   1      32.703  19.375  24.299  1.00  0.00    -0.021 A 
ATOM     21  C   UNL A   1      32.213  18.910  23.077  1.00  0.00     0.008 A 
ATOM     22  C   UNL A   1      33.811  18.716  24.861  1.00  0.00     0.047 A 
ATOM     23  C   UNL A   1      32.807  17.806  22.451  1.00  0.00     0.004 A 
ATOM     24  C   UNL A   1      34.397  17.629  24.229  1.00  0.00     0.123 A 
ATOM     25  C   UNL A   1      33.896  17.157  23.033  1.00  0.00     0.039 A 
ATOM     26  F   UNL A   1      35.484  17.068  24.779  1.00  0.00    -0.207 F 
ENDBRANCH  19  20
ENDBRANCH  11  12
ENDBRANCH   8  11
ENDBRANCH   6   7
ENDBRANCH   4   6
ENDBRANCH   1   2
BRANCH   1  27
ATOM     27  C   UNL A   1      35.225  31.654  28.127  1.00  0.00     0.042 C 
BRANCH  27  28
ATOM     28  C   UNL A   1      35.202  32.142  29.590  1.00  0.00     0.118 C 
BRANCH  28  29
ATOM     29  N   UNL A   1      35.402  31.147  30.633  1.00  0.00    -0.352 N 
ATOM     30  C   UNL A   1      36.495  30.444  31.126  1.00  0.00     0.251 C 
ATOM     31  H   UNL A   1      34.566  30.917  31.100  1.00  0.00     0.163 HD
ATOM     32  O   UNL A   1      36.338  29.906  32.225  1.00  0.00    -0.269 OA
BRANCH  30  33
ATOM     33  C   UNL A   1      37.801  30.178  30.435  1.00  0.00     0.039 A 
ATOM     34  C   UNL A   1      38.955  30.121  31.223  1.00  0.00     0.014 A 
ATOM     35  C   UNL A   1      38.025  30.259  29.064  1.00  0.00     0.014 A 
ATOM     36  C   UNL A   1      40.253  30.010  30.652  1.00  0.00     0.010 A 
ATOM     37  C   UNL A   1      39.318  29.994  28.499  1.00  0.00     0.010 A 
ATOM     38  C   UNL A   1      40.480  29.814  29.274  1.00  0.00    -0.014 A 
BRANCH  38  39
ATOM     39  C   UNL A   1      41.875  29.394  28.739  1.00  0.00     0.031 A 
ATOM     40  C   UNL A   1      43.079  30.344  28.559  1.00  0.00     0.074 A 
ATOM     41  C   UNL A   1      42.104  28.119  28.305  1.00  0.00     0.049 A 
ATOM     42  N   UNL A   1      44.302  30.069  28.135  1.00  0.00    -0.248 NA
ATOM     43  C   UNL A   1      42.894  31.772  28.841  1.00  0.00     0.031 C 
ATOM     44  C   UNL A   1      41.105  27.051  28.219  1.00  0.00     0.029 A 
ATOM     45  N   UNL A   1      43.252  27.495  27.832  1.00  0.00    -0.354 N 
ATOM     46  C   UNL A   1      45.005  31.276  28.099  1.00  0.00     0.074 A 
ATOM     47  C   UNL A   1      44.042  32.300  28.438  1.00  0.00     0.031 C 
ATOM     48  C   UNL A   1      41.677  25.916  27.792  1.00  0.00     0.029 A 
ATOM     49  C   UNL A   1      43.090  26.155  27.527  1.00  0.00     0.049 A 
ATOM     50  H   UNL A   1      44.109  27.967  27.723  1.00  0.00     0.167 HD
ATOM     51  C   UNL A   1      46.326  31.536  27.880  1.00  0.00     0.037 A 
ATOM     52  C   UNL A   1      43.938  25.195  27.097  1.00  0.00     0.037 A 
ATOM     53  C   UNL A   1      47.346  30.553  27.587  1.00  0.00     0.049 A 
ATOM     54  C   UNL A   1      45.401  25.482  26.890  1.00  0.00     0.074 A 
ATOM     55  C   UNL A   1      48.718  30.744  27.483  1.00  0.00     0.029 A 
ATOM     56  N   UNL A   1      47.122  29.210  27.347  1.00  0.00    -0.354 N 
ATOM     57  N   UNL A   1      46.046  26.613  27.024  1.00  0.00    -0.248 NA
ATOM     58  C   UNL A   1      46.258  24.349  26.495  1.00  0.00     0.031 C 
ATOM     59  C   UNL A   1      49.315  29.529  27.128  1.00  0.00     0.029 A 
ATOM     60  C   UNL A   1      48.325  28.567  27.069  1.00  0.00     0.049 A 
ATOM     61  H   UNL A   1      46.241  28.771  27.368  1.00  0.00     0.167 HD
ATOM     62  C   UNL A   1      47.385  26.318  26.771  1.00  0.00     0.074 A 
ATOM     63  C   UNL A   1      47.462  24.903  26.490  1.00  0.00     0.031 C 
ATOM     64  C   UNL A   1      48.446  27.160  26.782  1.00  0.00     0.037 A 
BRANCH  51  65
ATOM     65  C   UNL A   1      46.801  32.969  28.033  1.00  0.00     0.058 A 
ATOM     66  C   UNL A   1      46.776  33.872  26.955  1.00  0.00     0.135 A 
ATOM     67  C   UNL A   1      47.388  33.411  29.230  1.00  0.00     0.135 A 
ATOM     68  F   UNL A   1      46.252  33.505  25.774  1.00  0.00    -0.206 F 
ATOM     69  C   UNL A   1      47.306  35.157  27.063  1.00  0.00     0.059 A 
ATOM     70  C   UNL A   1      47.892  34.702  29.372  1.00  0.00     0.059 A 
ATOM     71  F   UNL A   1      47.450  32.593  30.293  1.00  0.00    -0.206 F 
ATOM     72  C   UNL A   1      47.856  35.565  28.280  1.00  0.00     0.060 A 
BRANCH  72  73
ATOM     73  S   UNL A   1      48.489  37.250  28.428  1.00  0.00     0.124 S 
ATOM     74  O   UNL A   1      49.454  37.118  29.514  1.00  0.00    -0.237 OA
ATOM     75  O   UNL A   1      49.052  37.482  27.100  1.00  0.00    -0.237 OA
ATOM     76  O   UNL A   1      47.297  38.034  28.738  1.00  0.00    -0.744 OA
ENDBRANCH  72  73
ENDBRANCH  51  65
BRANCH  52  77
ATOM     77  C   UNL A   1      43.438  23.799  26.904  1.00  0.00     0.058 A 
ATOM     78  C   UNL A   1      43.174  23.278  25.629  1.00  0.00     0.135 A 
ATOM     79  C   UNL A   1      43.210  22.963  28.010  1.00  0.00     0.135 A 
ATOM     80  F   UNL A   1      43.369  24.036  24.538  1.00  0.00    -0.206 F 
ATOM     81  C   UNL A   1      42.680  21.988  25.457  1.00  0.00     0.059 A 
ATOM     82  C   UNL A   1      42.745  21.659  27.862  1.00  0.00     0.059 A 
ATOM     83  F   UNL A   1      43.471  23.408  29.248  1.00  0.00    -0.206 F 
ATOM     84  C   UNL A   1      42.465  21.187  26.581  1.00  0.00     0.060 A 
BRANCH  84  85
ATOM     85  S   UNL A   1      41.804  19.522  26.340  1.00  0.00     0.124 S 
ATOM     86  O   UNL A   1      42.488  19.112  25.117  1.00  0.00    -0.237 OA
ATOM     87  O   UNL A   1      42.227  18.847  27.562  1.00  0.00    -0.237 OA
ATOM     88  O   UNL A   1      40.368  19.743  26.210  1.00  0.00    -0.744 OA
ENDBRANCH  84  85
ENDBRANCH  52  77
BRANCH  64  89
ATOM     89  C   UNL A   1      49.816  26.586  26.512  1.00  0.00     0.058 A 
ATOM     90  C   UNL A   1      50.315  26.508  25.200  1.00  0.00     0.135 A 
ATOM     91  C   UNL A   1      50.629  26.083  27.543  1.00  0.00     0.135 A 
ATOM     92  F   UNL A   1      49.586  26.966  24.170  1.00  0.00    -0.206 F 
ATOM     93  C   UNL A   1      51.563  25.957  24.921  1.00  0.00     0.059 A 
ATOM     94  C   UNL A   1      51.895  25.555  27.290  1.00  0.00     0.059 A 
ATOM     95  F   UNL A   1      50.210  26.134  28.817  1.00  0.00    -0.206 F 
ATOM     96  C   UNL A   1      52.349  25.488  25.973  1.00  0.00     0.060 A 
BRANCH  96  97
ATOM     97  S   UNL A   1      53.990  24.830  25.598  1.00  0.00     0.124 S 
ATOM     98  O   UNL A   1      53.680  23.464  25.190  1.00  0.00    -0.237 OA
ATOM     99  O   UNL A   1      54.446  25.722  24.537  1.00  0.00    -0.237 OA
ATOM    100  O   UNL A   1      54.705  24.959  26.865  1.00  0.00    -0.744 OA
ENDBRANCH  96  97
ENDBRANCH  64  89
ENDBRANCH  38  39
ENDBRANCH  30  33
ENDBRANCH  28  29
ENDBRANCH  27  28
ENDBRANCH   1  27
TORSDOF 17
ENDMDL
MODEL 3
REMARK VINA RESULT:     -11.4      3.927     10.193
REMARK SMILES O=C(CNC(=O)CN1C(=O)S/C(=C\c2cccc(F)c2)C1=O)NCCCNC(=O)c1ccc(-c2c3nc(c(-c4c(F)cc(S(=O)(=O)[O-])cc4F)c4ccc([nH]4)c(-c4c(F)cc(S(=O)(=O)[O-])cc4F)c4nc(c(-c5c(F)cc(S(=O)(=O)[O-])cc5F)c5ccc2[nH]5)C=C4)C=C3)cc1
REMARK SMILES IDX 24 1 23 2 1 3 2 4 3 6 4 7 5 8 6 10 7 11 8 12 9 13 21 14
REMARK SMILES IDX 10 15 11 16 12 17 22 18 13 19 14 20 15 21 20 22 16 23 18 24
REMARK SMILES IDX 17 25 19 26 25 27 26 28 27 29 28 30 29 32 30 33 31 34 95 35
REMARK SMILES IDX 32 36 94 37 33 38 34 39 35 40 88 41 36 42 93 43 87 44 89 45
REMARK SMILES IDX 37 46 92 47 86 48 85 49 38 51 72 52 51 53 71 54 52 55 55 56
REMARK SMILES IDX 70 57 90 58 53 59 54 60 69 62 91 63 56 64 39 65 40 66 49 67
REMARK SMILES IDX 41 68 42 69 48 70 50 71 43 72 44 73 45 74 46 75 47 76 73 77
REMARK SMILES IDX 74 78 83 79 75 80 76 81 82 82 84 83 77 84 78 85 79 86 80 87
REMARK SMILES IDX 81 88 57 89 58 90 67 91 59 92 60 93 66 94 68 95 61 96 62 97
REMARK SMILES IDX 63 98 64 99 65 100
REMARK H PARENT 23 5 4 9 27 31 89 50 55 61
REMARK Flexibility Score: inf
ROOT
ATOM      1  C   UNL A   1      45.444  21.257  25.485  1.00  0.00     0.117 C 
ENDROOT
BRANCH   1   2
ATOM      2  N   UNL A   1      44.178  20.578  25.729  1.00  0.00    -0.355 N 
ATOM      3  O   UNL A   1      44.771  18.513  24.904  1.00  0.00    -0.273 OA
ATOM      4  C   UNL A   1      43.954  19.241  25.461  1.00  0.00     0.239 C 
ATOM      5  H   UNL A   1      43.436  21.102  26.109  1.00  0.00     0.163 HD
BRANCH   4   6
ATOM      6  C   UNL A   1      42.534  18.752  25.792  1.00  0.00     0.216 C 
BRANCH   6   7
ATOM      7  N   UNL A   1      42.023  19.340  27.024  1.00  0.00    -0.345 N 
ATOM      8  C   UNL A   1      41.245  20.426  27.258  1.00  0.00     0.240 C 
ATOM      9  H   UNL A   1      42.294  18.859  27.840  1.00  0.00     0.164 HD
ATOM     10  O   UNL A   1      40.790  20.527  28.404  1.00  0.00    -0.273 OA
BRANCH   8  11
ATOM     11  C   UNL A   1      40.760  21.374  26.155  1.00  0.00     0.229 C 
BRANCH  11  12
ATOM     12  N   UNL A   1      39.376  21.260  25.733  1.00  0.00    -0.259 N 
ATOM     13  C   UNL A   1      38.830  20.047  25.402  1.00  0.00     0.294 C 
ATOM     14  C   UNL A   1      38.503  22.309  25.859  1.00  0.00     0.268 C 
ATOM     15  O   UNL A   1      39.404  18.976  25.373  1.00  0.00    -0.261 OA
ATOM     16  S   UNL A   1      37.129  20.229  25.018  1.00  0.00    -0.022 SA
ATOM     17  C   UNL A   1      37.132  21.884  25.445  1.00  0.00     0.083 C 
ATOM     18  O   UNL A   1      38.804  23.444  26.200  1.00  0.00    -0.268 OA
ATOM     19  C   UNL A   1      36.125  22.758  25.371  1.00  0.00     0.029 C 
BRANCH  19  20
ATOM     20  C   UNL A   1      34.763  22.575  24.836  1.00  0.00    -0.021 A 
ATOM     21  C   UNL A   1      33.705  22.221  25.674  1.00  0.00     0.008 A 
ATOM     22  C   UNL A   1      34.471  22.875  23.493  1.00  0.00     0.047 A 
ATOM     23  C   UNL A   1      32.398  22.150  25.172  1.00  0.00     0.004 A 
ATOM     24  C   UNL A   1      33.174  22.810  23.008  1.00  0.00     0.123 A 
ATOM     25  C   UNL A   1      32.133  22.436  23.833  1.00  0.00     0.039 A 
ATOM     26  F   UNL A   1      32.940  23.156  21.733  1.00  0.00    -0.207 F 
ENDBRANCH  19  20
ENDBRANCH  11  12
ENDBRANCH   8  11
ENDBRANCH   6   7
ENDBRANCH   4   6
ENDBRANCH   1   2
BRANCH   1  27
ATOM     27  C   UNL A   1      45.402  22.764  25.785  1.00  0.00     0.042 C 
BRANCH  27  28
ATOM     28  C   UNL A   1      44.069  23.275  26.369  1.00  0.00     0.118 C 
BRANCH  28  29
ATOM     29  N   UNL A   1      43.261  24.150  25.532  1.00  0.00    -0.352 N 
ATOM     30  C   UNL A   1      42.665  25.394  25.697  1.00  0.00     0.251 C 
ATOM     31  H   UNL A   1      43.099  23.771  24.638  1.00  0.00     0.163 HD
ATOM     32  O   UNL A   1      42.312  25.964  24.661  1.00  0.00    -0.269 OA
BRANCH  30  33
ATOM     33  C   UNL A   1      42.309  26.078  26.986  1.00  0.00     0.039 A 
ATOM     34  C   UNL A   1      43.079  27.178  27.375  1.00  0.00     0.014 A 
ATOM     35  C   UNL A   1      41.473  25.563  27.973  1.00  0.00     0.014 A 
ATOM     36  C   UNL A   1      42.910  27.808  28.639  1.00  0.00     0.010 A 
ATOM     37  C   UNL A   1      41.201  26.292  29.179  1.00  0.00     0.010 A 
ATOM     38  C   UNL A   1      41.879  27.472  29.541  1.00  0.00    -0.014 A 
BRANCH  38  39
ATOM     39  C   UNL A   1      41.546  28.378  30.756  1.00  0.00     0.031 A 
ATOM     40  C   UNL A   1      42.275  28.342  32.116  1.00  0.00     0.074 A 
ATOM     41  C   UNL A   1      40.490  29.243  30.715  1.00  0.00     0.049 A 
ATOM     42  N   UNL A   1      42.073  29.088  33.191  1.00  0.00    -0.248 NA
ATOM     43  C   UNL A   1      43.321  27.334  32.325  1.00  0.00     0.031 C 
ATOM     44  C   UNL A   1      39.535  29.379  29.612  1.00  0.00     0.029 A 
ATOM     45  N   UNL A   1      40.019  30.173  31.635  1.00  0.00    -0.354 N 
ATOM     46  C   UNL A   1      42.952  28.633  34.178  1.00  0.00     0.074 A 
ATOM     47  C   UNL A   1      43.610  27.476  33.613  1.00  0.00     0.031 C 
ATOM     48  C   UNL A   1      38.651  30.349  29.882  1.00  0.00     0.029 A 
ATOM     49  C   UNL A   1      38.929  30.905  31.199  1.00  0.00     0.049 A 
ATOM     50  H   UNL A   1      40.427  30.300  32.521  1.00  0.00     0.167 HD
ATOM     51  C   UNL A   1      43.256  29.139  35.408  1.00  0.00     0.037 A 
ATOM     52  C   UNL A   1      38.214  31.915  31.746  1.00  0.00     0.037 A 
ATOM     53  C   UNL A   1      42.670  30.318  36.007  1.00  0.00     0.049 A 
ATOM     54  C   UNL A   1      38.577  32.489  33.089  1.00  0.00     0.074 A 
ATOM     55  C   UNL A   1      43.030  30.948  37.191  1.00  0.00     0.029 A 
ATOM     56  N   UNL A   1      41.613  31.042  35.489  1.00  0.00    -0.354 N 
ATOM     57  N   UNL A   1      39.523  32.121  33.915  1.00  0.00    -0.248 NA
ATOM     58  C   UNL A   1      37.785  33.638  33.563  1.00  0.00     0.031 C 
ATOM     59  C   UNL A   1      42.157  32.019  37.415  1.00  0.00     0.029 A 
ATOM     60  C   UNL A   1      41.291  32.094  36.342  1.00  0.00     0.049 A 
ATOM     61  H   UNL A   1      41.153  30.843  34.641  1.00  0.00     0.167 HD
ATOM     62  C   UNL A   1      39.466  33.016  34.981  1.00  0.00     0.074 A 
ATOM     63  C   UNL A   1      38.403  33.952  34.693  1.00  0.00     0.031 C 
ATOM     64  C   UNL A   1      40.239  33.048  36.093  1.00  0.00     0.037 A 
BRANCH  51  65
ATOM     65  C   UNL A   1      44.361  28.465  36.198  1.00  0.00     0.058 A 
ATOM     66  C   UNL A   1      45.700  28.884  36.097  1.00  0.00     0.135 A 
ATOM     67  C   UNL A   1      44.101  27.323  36.975  1.00  0.00     0.135 A 
ATOM     68  F   UNL A   1      46.022  29.953  35.350  1.00  0.00    -0.206 F 
ATOM     69  C   UNL A   1      46.732  28.203  36.741  1.00  0.00     0.059 A 
ATOM     70  C   UNL A   1      45.111  26.648  37.656  1.00  0.00     0.059 A 
ATOM     71  F   UNL A   1      42.844  26.868  37.104  1.00  0.00    -0.206 F 
ATOM     72  C   UNL A   1      46.425  27.089  37.525  1.00  0.00     0.060 A 
BRANCH  72  73
ATOM     73  S   UNL A   1      47.762  26.247  38.401  1.00  0.00     0.124 S 
ATOM     74  O   UNL A   1      47.026  25.414  39.347  1.00  0.00    -0.237 OA
ATOM     75  O   UNL A   1      48.437  25.537  37.318  1.00  0.00    -0.237 OA
ATOM     76  O   UNL A   1      48.524  27.343  38.990  1.00  0.00    -0.744 OA
ENDBRANCH  72  73
ENDBRANCH  51  65
BRANCH  52  77
ATOM     77  C   UNL A   1      37.095  32.532  30.970  1.00  0.00     0.058 A 
ATOM     78  C   UNL A   1      37.322  33.536  30.018  1.00  0.00     0.135 A 
ATOM     79  C   UNL A   1      35.768  32.120  31.180  1.00  0.00     0.135 A 
ATOM     80  F   UNL A   1      38.569  33.971  29.781  1.00  0.00    -0.206 F 
ATOM     81  C   UNL A   1      36.272  34.129  29.320  1.00  0.00     0.059 A 
ATOM     82  C   UNL A   1      34.706  32.675  30.473  1.00  0.00     0.059 A 
ATOM     83  F   UNL A   1      35.503  31.145  32.063  1.00  0.00    -0.206 F 
ATOM     84  C   UNL A   1      34.967  33.693  29.557  1.00  0.00     0.060 A 
BRANCH  84  85
ATOM     85  S   UNL A   1      33.616  34.486  28.656  1.00  0.00     0.124 S 
ATOM     86  O   UNL A   1      33.193  33.413  27.761  1.00  0.00    -0.237 OA
ATOM     87  O   UNL A   1      32.688  34.821  29.730  1.00  0.00    -0.237 OA
ATOM     88  O   UNL A   1      34.262  35.623  28.009  1.00  0.00    -0.744 OA
ENDBRANCH  84  85
ENDBRANCH  52  77
BRANCH  64  89
ATOM     89  C   UNL A   1      40.004  34.152  37.095  1.00  0.00     0.058 A 
ATOM     90  C   UNL A   1      40.671  35.384  36.973  1.00  0.00     0.135 A 
ATOM     91  C   UNL A   1      39.144  33.990  38.195  1.00  0.00     0.135 A 
ATOM     92  F   UNL A   1      41.511  35.601  35.950  1.00  0.00    -0.206 F 
ATOM     93  C   UNL A   1      40.493  36.408  37.900  1.00  0.00     0.059 A 
ATOM     94  C   UNL A   1      38.927  35.013  39.117  1.00  0.00     0.059 A 
ATOM     95  F   UNL A   1      38.474  32.838  38.362  1.00  0.00    -0.206 F 
ATOM     96  C   UNL A   1      39.615  36.217  38.965  1.00  0.00     0.060 A 
BRANCH  96  97
ATOM     97  S   UNL A   1      39.353  37.579  40.124  1.00  0.00     0.124 S 
ATOM     98  O   UNL A   1      40.651  38.242  40.107  1.00  0.00    -0.237 OA
ATOM     99  O   UNL A   1      38.256  38.311  39.498  1.00  0.00    -0.237 OA
ATOM    100  O   UNL A   1      39.011  36.901  41.372  1.00  0.00    -0.744 OA
ENDBRANCH  96  97
ENDBRANCH  64  89
ENDBRANCH  38  39
ENDBRANCH  30  33
ENDBRANCH  28  29
ENDBRANCH  27  28
ENDBRANCH   1  27
TORSDOF 17
ENDMDL
