MODEL 1
REMARK VINA RESULT:     -10.7      0.000      0.000
REMARK SMILES Nc1ccc(S[C@@H](C(=O)NCCCNC(=O)c2ccc(-c3c4nc(c(-c5c(F)cc(S(=O)(=O)[O-])cc5F)c5ccc([nH]5)c(-c5c(F)cc(S(=O)(=O)[O-])cc5F)c5nc(c(-c6c(F)cc(S(=O)(=O)[O-])cc6F)c6ccc3[nH]6)C=C5)C=C4)cc2)C2CC2)cc1F
REMARK SMILES IDX 12 1 11 2 10 3 8 4 9 5 7 7 6 8 5 9 2 10 3 11 87 12 4 13
REMARK SMILES IDX 86 14 88 15 1 16 83 19 84 20 85 21 13 22 14 23 15 24 16 26
REMARK SMILES IDX 17 27 18 28 82 29 19 30 81 31 20 32 21 33 22 34 75 35 23 36
REMARK SMILES IDX 80 37 74 38 76 39 24 40 79 41 73 42 72 43 25 45 59 46 38 47
REMARK SMILES IDX 58 48 39 49 42 50 57 51 77 52 40 53 41 54 56 56 78 57 43 58
REMARK SMILES IDX 26 59 27 60 36 61 28 62 29 63 35 64 37 65 30 66 31 67 32 68
REMARK SMILES IDX 33 69 34 70 60 71 61 72 70 73 62 74 63 75 69 76 71 77 64 78
REMARK SMILES IDX 65 79 66 80 67 81 68 82 44 83 45 84 54 85 46 86 47 87 53 88
REMARK SMILES IDX 55 89 48 90 49 91 50 92 51 93 52 94
REMARK H PARENT 10 6 1 17 1 18 14 25 76 44 42 55
REMARK Flexibility Score: inf
ROOT
ATOM      1  C   UNL A   1      33.981  28.313  25.704  1.00  0.00     0.042 C 
ENDROOT
BRANCH   1   2
ATOM      2  C   UNL A   1      33.445  26.987  25.168  1.00  0.00     0.117 C 
BRANCH   2   3
ATOM      3  N   UNL A   1      33.617  26.867  23.729  1.00  0.00    -0.355 N 
ATOM      4  C   UNL A   1      33.581  25.766  22.915  1.00  0.00     0.233 C 
ATOM      5  O   UNL A   1      33.790  25.975  21.717  1.00  0.00    -0.274 OA
ATOM      6  H   UNL A   1      33.787  27.717  23.263  1.00  0.00     0.163 HD
BRANCH   4   7
ATOM      7  C   UNL A   1      33.214  24.391  23.485  1.00  0.00     0.144 C 
BRANCH   7   8
ATOM      8  S   UNL A   1      34.372  23.057  22.957  1.00  0.00    -0.112 SA
BRANCH   8   9
ATOM      9  C   UNL A   1      35.695  22.951  24.147  1.00  0.00     0.011 A 
ATOM     10  C   UNL A   1      37.907  22.580  25.894  1.00  0.00     0.068 A 
ATOM     11  C   UNL A   1      37.218  23.787  25.860  1.00  0.00     0.030 A 
ATOM     12  C   UNL A   1      37.474  21.562  25.039  1.00  0.00     0.147 A 
ATOM     13  C   UNL A   1      36.111  23.959  25.016  1.00  0.00     0.017 A 
ATOM     14  C   UNL A   1      36.384  21.733  24.188  1.00  0.00     0.056 A 
ATOM     15  F   UNL A   1      38.125  20.387  25.028  1.00  0.00    -0.205 F 
BRANCH  10  16
ATOM     16  N   UNL A   1      39.067  22.450  26.647  1.00  0.00    -0.396 N 
ATOM     17  H   UNL A   1      39.010  22.210  27.601  1.00  0.00     0.156 HD
ATOM     18  H   UNL A   1      39.946  22.599  26.229  1.00  0.00     0.156 HD
ENDBRANCH  10  16
ENDBRANCH   8   9
ENDBRANCH   7   8
BRANCH   7  19
ATOM     19  C   UNL A   1      31.790  23.875  23.397  1.00  0.00     0.012 C 
ATOM     20  C   UNL A   1      30.878  23.870  24.604  1.00  0.00     0.005 C 
ATOM     21  C   UNL A   1      30.526  24.705  23.407  1.00  0.00     0.005 C 
ENDBRANCH   7  19
ENDBRANCH   4   7
ENDBRANCH   2   3
ENDBRANCH   1   2
BRANCH   1  22
ATOM     22  C   UNL A   1      33.804  28.502  27.207  1.00  0.00     0.118 C 
BRANCH  22  23
ATOM     23  N   UNL A   1      33.755  29.904  27.599  1.00  0.00    -0.352 N 
ATOM     24  C   UNL A   1      34.684  30.669  28.259  1.00  0.00     0.251 C 
ATOM     25  H   UNL A   1      32.927  30.376  27.353  1.00  0.00     0.163 HD
ATOM     26  O   UNL A   1      34.368  31.792  28.651  1.00  0.00    -0.269 OA
BRANCH  24  27
ATOM     27  C   UNL A   1      36.045  30.151  28.519  1.00  0.00     0.039 A 
ATOM     28  C   UNL A   1      36.998  30.217  27.498  1.00  0.00     0.014 A 
ATOM     29  C   UNL A   1      36.381  29.580  29.749  1.00  0.00     0.014 A 
ATOM     30  C   UNL A   1      38.302  29.775  27.735  1.00  0.00     0.010 A 
ATOM     31  C   UNL A   1      37.701  29.211  30.008  1.00  0.00     0.010 A 
ATOM     32  C   UNL A   1      38.675  29.304  29.005  1.00  0.00    -0.014 A 
BRANCH  32  33
ATOM     33  C   UNL A   1      40.081  28.916  29.302  1.00  0.00     0.031 A 
ATOM     34  C   UNL A   1      41.014  29.890  29.973  1.00  0.00     0.074 A 
ATOM     35  C   UNL A   1      40.535  27.709  28.909  1.00  0.00     0.049 A 
ATOM     36  N   UNL A   1      42.285  29.757  30.252  1.00  0.00    -0.248 NA
ATOM     37  C   UNL A   1      40.450  31.194  30.362  1.00  0.00     0.031 C 
ATOM     38  C   UNL A   1      39.741  26.691  28.213  1.00  0.00     0.029 A 
ATOM     39  N   UNL A   1      41.776  27.132  29.026  1.00  0.00    -0.354 N 
ATOM     40  C   UNL A   1      42.678  30.961  30.826  1.00  0.00     0.074 A 
ATOM     41  C   UNL A   1      41.521  31.828  30.819  1.00  0.00     0.031 C 
ATOM     42  C   UNL A   1      40.506  25.609  27.992  1.00  0.00     0.029 A 
ATOM     43  C   UNL A   1      41.854  25.870  28.484  1.00  0.00     0.049 A 
ATOM     44  H   UNL A   1      42.538  27.580  29.458  1.00  0.00     0.167 HD
ATOM     45  C   UNL A   1      43.888  31.304  31.327  1.00  0.00     0.037 A 
ATOM     46  C   UNL A   1      42.898  25.021  28.384  1.00  0.00     0.037 A 
ATOM     47  C   UNL A   1      45.027  30.422  31.360  1.00  0.00     0.049 A 
ATOM     48  C   UNL A   1      44.235  25.436  28.939  1.00  0.00     0.074 A 
ATOM     49  C   UNL A   1      46.273  30.651  31.919  1.00  0.00     0.029 A 
ATOM     50  N   UNL A   1      45.064  29.149  30.809  1.00  0.00    -0.354 N 
ATOM     51  N   UNL A   1      44.565  26.549  29.550  1.00  0.00    -0.248 NA
ATOM     52  C   UNL A   1      45.340  24.480  28.794  1.00  0.00     0.031 C 
ATOM     53  C   UNL A   1      47.082  29.542  31.653  1.00  0.00     0.029 A 
ATOM     54  C   UNL A   1      46.321  28.596  30.985  1.00  0.00     0.049 A 
ATOM     55  H   UNL A   1      44.309  28.706  30.360  1.00  0.00     0.167 HD
ATOM     56  C   UNL A   1      45.906  26.409  29.896  1.00  0.00     0.074 A 
ATOM     57  C   UNL A   1      46.321  25.100  29.435  1.00  0.00     0.031 C 
ATOM     58  C   UNL A   1      46.719  27.283  30.538  1.00  0.00     0.037 A 
BRANCH  45  59
ATOM     59  C   UNL A   1      44.060  32.693  31.881  1.00  0.00     0.058 A 
ATOM     60  C   UNL A   1      44.419  33.777  31.065  1.00  0.00     0.135 A 
ATOM     61  C   UNL A   1      43.787  32.955  33.234  1.00  0.00     0.135 A 
ATOM     62  F   UNL A   1      44.707  33.583  29.768  1.00  0.00    -0.206 F 
ATOM     63  C   UNL A   1      44.518  35.069  31.574  1.00  0.00     0.059 A 
ATOM     64  C   UNL A   1      43.851  34.243  33.757  1.00  0.00     0.059 A 
ATOM     65  F   UNL A   1      43.441  31.956  34.060  1.00  0.00    -0.206 F 
ATOM     66  C   UNL A   1      44.225  35.293  32.920  1.00  0.00     0.060 A 
BRANCH  66  67
ATOM     67  S   UNL A   1      44.324  36.980  33.554  1.00  0.00     0.124 S 
ATOM     68  O   UNL A   1      45.428  37.523  32.767  1.00  0.00    -0.237 OA
ATOM     69  O   UNL A   1      43.000  37.509  33.238  1.00  0.00    -0.237 OA
ATOM     70  O   UNL A   1      44.601  36.796  34.975  1.00  0.00    -0.744 OA
ENDBRANCH  66  67
ENDBRANCH  45  59
BRANCH  46  71
ATOM     71  C   UNL A   1      42.726  23.686  27.747  1.00  0.00     0.058 A 
ATOM     72  C   UNL A   1      42.470  22.546  28.523  1.00  0.00     0.135 A 
ATOM     73  C   UNL A   1      42.837  23.517  26.358  1.00  0.00     0.135 A 
ATOM     74  F   UNL A   1      42.360  22.653  29.856  1.00  0.00    -0.206 F 
ATOM     75  C   UNL A   1      42.364  21.282  27.952  1.00  0.00     0.059 A 
ATOM     76  C   UNL A   1      42.704  22.268  25.759  1.00  0.00     0.059 A 
ATOM     77  F   UNL A   1      43.065  24.577  25.566  1.00  0.00    -0.206 F 
ATOM     78  C   UNL A   1      42.485  21.154  26.567  1.00  0.00     0.060 A 
BRANCH  78  79
ATOM     79  S   UNL A   1      42.330  19.510  25.835  1.00  0.00     0.124 S 
ATOM     80  O   UNL A   1      43.281  19.589  24.733  1.00  0.00    -0.237 OA
ATOM     81  O   UNL A   1      42.710  18.643  26.946  1.00  0.00    -0.237 OA
ATOM     82  O   UNL A   1      40.923  19.444  25.453  1.00  0.00    -0.744 OA
ENDBRANCH  78  79
ENDBRANCH  46  71
BRANCH  58  83
ATOM     83  C   UNL A   1      48.127  26.841  30.832  1.00  0.00     0.058 A 
ATOM     84  C   UNL A   1      49.188  27.109  29.954  1.00  0.00     0.135 A 
ATOM     85  C   UNL A   1      48.424  26.186  32.039  1.00  0.00     0.135 A 
ATOM     86  F   UNL A   1      48.958  27.725  28.784  1.00  0.00    -0.206 F 
ATOM     87  C   UNL A   1      50.491  26.722  30.250  1.00  0.00     0.059 A 
ATOM     88  C   UNL A   1      49.725  25.820  32.370  1.00  0.00     0.059 A 
ATOM     89  F   UNL A   1      47.449  25.915  32.921  1.00  0.00    -0.206 F 
ATOM     90  C   UNL A   1      50.750  26.082  31.463  1.00  0.00     0.060 A 
BRANCH  90  91
ATOM     91  S   UNL A   1      52.452  25.620  31.852  1.00  0.00     0.124 S 
ATOM     92  O   UNL A   1      52.316  24.192  32.120  1.00  0.00    -0.237 OA
ATOM     93  O   UNL A   1      53.158  25.969  30.623  1.00  0.00    -0.237 OA
ATOM     94  O   UNL A   1      52.774  26.448  33.010  1.00  0.00    -0.744 OA
ENDBRANCH  90  91
ENDBRANCH  58  83
ENDBRANCH  32  33
ENDBRANCH  24  27
ENDBRANCH  22  23
ENDBRANCH   1  22
TORSDOF 17
ENDMDL
MODEL 2
REMARK VINA RESULT:     -10.5      1.245      1.991
REMARK SMILES Nc1ccc(S[C@@H](C(=O)NCCCNC(=O)c2ccc(-c3c4nc(c(-c5c(F)cc(S(=O)(=O)[O-])cc5F)c5ccc([nH]5)c(-c5c(F)cc(S(=O)(=O)[O-])cc5F)c5nc(c(-c6c(F)cc(S(=O)(=O)[O-])cc6F)c6ccc3[nH]6)C=C5)C=C4)cc2)C2CC2)cc1F
REMARK SMILES IDX 12 1 11 2 10 3 8 4 9 5 7 7 6 8 5 9 2 10 3 11 87 12 4 13
REMARK SMILES IDX 86 14 88 15 1 16 83 19 84 20 85 21 13 22 14 23 15 24 16 26
REMARK SMILES IDX 17 27 18 28 82 29 19 30 81 31 20 32 21 33 22 34 75 35 23 36
REMARK SMILES IDX 80 37 74 38 76 39 24 40 79 41 73 42 72 43 25 45 59 46 38 47
REMARK SMILES IDX 58 48 39 49 42 50 57 51 77 52 40 53 41 54 56 56 78 57 43 58
REMARK SMILES IDX 26 59 27 60 36 61 28 62 29 63 35 64 37 65 30 66 31 67 32 68
REMARK SMILES IDX 33 69 34 70 60 71 61 72 70 73 62 74 63 75 69 76 71 77 64 78
REMARK SMILES IDX 65 79 66 80 67 81 68 82 44 83 45 84 54 85 46 86 47 87 53 88
REMARK SMILES IDX 55 89 48 90 49 91 50 92 51 93 52 94
REMARK H PARENT 10 6 1 17 1 18 14 25 76 44 42 55
REMARK Flexibility Score: inf
ROOT
ATOM      1  C   UNL A   1      33.081  28.116  25.805  1.00  0.00     0.042 C 
ENDROOT
BRANCH   1   2
ATOM      2  C   UNL A   1      33.083  29.323  24.868  1.00  0.00     0.117 C 
BRANCH   2   3
ATOM      3  N   UNL A   1      33.730  29.031  23.599  1.00  0.00    -0.355 N 
ATOM      4  C   UNL A   1      33.487  28.046  22.680  1.00  0.00     0.233 C 
ATOM      5  O   UNL A   1      34.228  28.035  21.693  1.00  0.00    -0.274 OA
ATOM      6  H   UNL A   1      34.463  29.643  23.361  1.00  0.00     0.163 HD
BRANCH   4   7
ATOM      7  C   UNL A   1      32.303  27.090  22.860  1.00  0.00     0.144 C 
BRANCH   7   8
ATOM      8  S   UNL A   1      32.687  25.358  22.356  1.00  0.00    -0.112 SA
BRANCH   8   9
ATOM      9  C   UNL A   1      33.251  24.462  23.790  1.00  0.00     0.011 A 
ATOM     10  C   UNL A   1      34.327  23.237  26.119  1.00  0.00     0.068 A 
ATOM     11  C   UNL A   1      33.056  22.908  25.661  1.00  0.00     0.030 A 
ATOM     12  C   UNL A   1      35.051  24.189  25.396  1.00  0.00     0.147 A 
ATOM     13  C   UNL A   1      32.538  23.495  24.497  1.00  0.00     0.017 A 
ATOM     14  C   UNL A   1      34.534  24.785  24.247  1.00  0.00     0.056 A 
ATOM     15  F   UNL A   1      36.275  24.548  25.816  1.00  0.00    -0.205 F 
BRANCH  10  16
ATOM     16  N   UNL A   1      34.791  22.738  27.330  1.00  0.00    -0.396 N 
ATOM     17  H   UNL A   1      35.731  22.456  27.417  1.00  0.00     0.156 HD
ATOM     18  H   UNL A   1      34.182  22.666  28.099  1.00  0.00     0.156 HD
ENDBRANCH  10  16
ENDBRANCH   8   9
ENDBRANCH   7   8
BRANCH   7  19
ATOM     19  C   UNL A   1      30.925  27.462  22.346  1.00  0.00     0.012 C 
ATOM     20  C   UNL A   1      29.802  27.826  23.292  1.00  0.00     0.005 C 
ATOM     21  C   UNL A   1      30.315  28.845  22.316  1.00  0.00     0.005 C 
ENDBRANCH   7  19
ENDBRANCH   4   7
ENDBRANCH   2   3
ENDBRANCH   1   2
BRANCH   1  22
ATOM     22  C   UNL A   1      33.554  28.419  27.223  1.00  0.00     0.118 C 
BRANCH  22  23
ATOM     23  N   UNL A   1      33.508  29.840  27.543  1.00  0.00    -0.352 N 
ATOM     24  C   UNL A   1      34.451  30.641  28.137  1.00  0.00     0.251 C 
ATOM     25  H   UNL A   1      32.671  30.295  27.297  1.00  0.00     0.163 HD
ATOM     26  O   UNL A   1      34.140  31.781  28.480  1.00  0.00    -0.269 OA
BRANCH  24  27
ATOM     27  C   UNL A   1      35.821  30.142  28.385  1.00  0.00     0.039 A 
ATOM     28  C   UNL A   1      36.768  30.234  27.361  1.00  0.00     0.014 A 
ATOM     29  C   UNL A   1      36.173  29.563  29.607  1.00  0.00     0.014 A 
ATOM     30  C   UNL A   1      38.080  29.811  27.587  1.00  0.00     0.010 A 
ATOM     31  C   UNL A   1      37.499  29.212  29.856  1.00  0.00     0.010 A 
ATOM     32  C   UNL A   1      38.467  29.332  28.849  1.00  0.00    -0.014 A 
BRANCH  32  33
ATOM     33  C   UNL A   1      39.880  28.964  29.135  1.00  0.00     0.031 A 
ATOM     34  C   UNL A   1      40.819  29.968  29.750  1.00  0.00     0.074 A 
ATOM     35  C   UNL A   1      40.335  27.744  28.782  1.00  0.00     0.049 A 
ATOM     36  N   UNL A   1      42.096  29.852  30.011  1.00  0.00    -0.248 NA
ATOM     37  C   UNL A   1      40.256  31.283  30.097  1.00  0.00     0.031 C 
ATOM     38  C   UNL A   1      39.534  26.695  28.142  1.00  0.00     0.029 A 
ATOM     39  N   UNL A   1      41.580  27.179  28.899  1.00  0.00    -0.354 N 
ATOM     40  C   UNL A   1      42.492  31.081  30.529  1.00  0.00     0.074 A 
ATOM     41  C   UNL A   1      41.330  31.941  30.509  1.00  0.00     0.031 C 
ATOM     42  C   UNL A   1      40.301  25.609  27.949  1.00  0.00     0.029 A 
ATOM     43  C   UNL A   1      41.656  25.896  28.406  1.00  0.00     0.049 A 
ATOM     44  H   UNL A   1      42.348  27.648  29.299  1.00  0.00     0.167 HD
ATOM     45  C   UNL A   1      43.710  31.450  30.994  1.00  0.00     0.037 A 
ATOM     46  C   UNL A   1      42.703  25.050  28.321  1.00  0.00     0.037 A 
ATOM     47  C   UNL A   1      44.855  30.575  31.041  1.00  0.00     0.049 A 
ATOM     48  C   UNL A   1      44.047  25.493  28.834  1.00  0.00     0.074 A 
ATOM     49  C   UNL A   1      46.109  30.832  31.567  1.00  0.00     0.029 A 
ATOM     50  N   UNL A   1      44.889  29.282  30.540  1.00  0.00    -0.354 N 
ATOM     51  N   UNL A   1      44.383  26.631  29.394  1.00  0.00    -0.248 NA
ATOM     52  C   UNL A   1      45.156  24.538  28.707  1.00  0.00     0.031 C 
ATOM     53  C   UNL A   1      46.919  29.719  31.330  1.00  0.00     0.029 A 
ATOM     54  C   UNL A   1      46.152  28.742  30.715  1.00  0.00     0.049 A 
ATOM     55  H   UNL A   1      44.128  28.818  30.122  1.00  0.00     0.167 HD
ATOM     56  C   UNL A   1      45.730  26.512  29.720  1.00  0.00     0.074 A 
ATOM     57  C   UNL A   1      46.145  25.188  29.304  1.00  0.00     0.031 C 
ATOM     58  C   UNL A   1      46.549  27.415  30.312  1.00  0.00     0.037 A 
BRANCH  45  59
ATOM     59  C   UNL A   1      43.883  32.861  31.489  1.00  0.00     0.058 A 
ATOM     60  C   UNL A   1      43.671  33.205  32.833  1.00  0.00     0.135 A 
ATOM     61  C   UNL A   1      44.342  33.865  30.621  1.00  0.00     0.135 A 
ATOM     62  F   UNL A   1      43.218  32.289  33.705  1.00  0.00    -0.206 F 
ATOM     63  C   UNL A   1      43.891  34.499  33.295  1.00  0.00     0.059 A 
ATOM     64  C   UNL A   1      44.596  35.158  31.068  1.00  0.00     0.059 A 
ATOM     65  F   UNL A   1      44.560  33.592  29.326  1.00  0.00    -0.206 F 
ATOM     66  C   UNL A   1      44.361  35.468  32.407  1.00  0.00     0.060 A 
BRANCH  66  67
ATOM     67  S   UNL A   1      44.674  37.131  33.032  1.00  0.00     0.124 S 
ATOM     68  O   UNL A   1      43.406  37.440  33.687  1.00  0.00    -0.237 OA
ATOM     69  O   UNL A   1      45.812  36.920  33.921  1.00  0.00    -0.237 OA
ATOM     70  O   UNL A   1      44.957  37.902  31.825  1.00  0.00    -0.744 OA
ENDBRANCH  66  67
ENDBRANCH  45  59
BRANCH  46  71
ATOM     71  C   UNL A   1      42.528  23.690  27.740  1.00  0.00     0.058 A 
ATOM     72  C   UNL A   1      42.383  22.567  28.568  1.00  0.00     0.135 A 
ATOM     73  C   UNL A   1      42.525  23.480  26.352  1.00  0.00     0.135 A 
ATOM     74  F   UNL A   1      42.383  22.713  29.902  1.00  0.00    -0.206 F 
ATOM     75  C   UNL A   1      42.275  21.282  28.045  1.00  0.00     0.059 A 
ATOM     76  C   UNL A   1      42.388  22.208  25.804  1.00  0.00     0.059 A 
ATOM     77  F   UNL A   1      42.644  24.521  25.513  1.00  0.00    -0.206 F 
ATOM     78  C   UNL A   1      42.282  21.113  26.660  1.00  0.00     0.060 A 
BRANCH  78  79
ATOM     79  S   UNL A   1      42.127  19.442  25.992  1.00  0.00     0.124 S 
ATOM     80  O   UNL A   1      40.691  19.351  25.759  1.00  0.00    -0.237 OA
ATOM     81  O   UNL A   1      42.965  19.510  24.800  1.00  0.00    -0.237 OA
ATOM     82  O   UNL A   1      42.647  18.602  27.068  1.00  0.00    -0.744 OA
ENDBRANCH  78  79
ENDBRANCH  46  71
BRANCH  58  83
ATOM     83  C   UNL A   1      47.965  26.992  30.598  1.00  0.00     0.058 A 
ATOM     84  C   UNL A   1      49.003  27.204  29.677  1.00  0.00     0.135 A 
ATOM     85  C   UNL A   1      48.294  26.415  31.836  1.00  0.00     0.135 A 
ATOM     86  F   UNL A   1      48.742  27.744  28.476  1.00  0.00    -0.206 F 
ATOM     87  C   UNL A   1      50.314  26.836  29.963  1.00  0.00     0.059 A 
ATOM     88  C   UNL A   1      49.604  26.071  32.156  1.00  0.00     0.059 A 
ATOM     89  F   UNL A   1      47.343  26.201  32.758  1.00  0.00    -0.206 F 
ATOM     90  C   UNL A   1      50.605  26.274  31.208  1.00  0.00     0.060 A 
BRANCH  90  91
ATOM     91  S   UNL A   1      52.317  25.837  31.581  1.00  0.00     0.124 S 
ATOM     92  O   UNL A   1      52.671  26.852  32.569  1.00  0.00    -0.237 OA
ATOM     93  O   UNL A   1      52.188  24.475  32.089  1.00  0.00    -0.237 OA
ATOM     94  O   UNL A   1      52.988  25.958  30.290  1.00  0.00    -0.744 OA
ENDBRANCH  90  91
ENDBRANCH  58  83
ENDBRANCH  32  33
ENDBRANCH  24  27
ENDBRANCH  22  23
ENDBRANCH   1  22
TORSDOF 17
ENDMDL
MODEL 3
REMARK VINA RESULT:     -10.4      1.927      2.524
REMARK SMILES Nc1ccc(S[C@@H](C(=O)NCCCNC(=O)c2ccc(-c3c4nc(c(-c5c(F)cc(S(=O)(=O)[O-])cc5F)c5ccc([nH]5)c(-c5c(F)cc(S(=O)(=O)[O-])cc5F)c5nc(c(-c6c(F)cc(S(=O)(=O)[O-])cc6F)c6ccc3[nH]6)C=C5)C=C4)cc2)C2CC2)cc1F
REMARK SMILES IDX 12 1 11 2 10 3 8 4 9 5 7 7 6 8 5 9 2 10 3 11 87 12 4 13
REMARK SMILES IDX 86 14 88 15 1 16 83 19 84 20 85 21 13 22 14 23 15 24 16 26
REMARK SMILES IDX 17 27 18 28 82 29 19 30 81 31 20 32 21 33 22 34 75 35 23 36
REMARK SMILES IDX 80 37 74 38 76 39 24 40 79 41 73 42 72 43 25 45 59 46 38 47
REMARK SMILES IDX 58 48 39 49 42 50 57 51 77 52 40 53 41 54 56 56 78 57 43 58
REMARK SMILES IDX 26 59 27 60 36 61 28 62 29 63 35 64 37 65 30 66 31 67 32 68
REMARK SMILES IDX 33 69 34 70 60 71 61 72 70 73 62 74 63 75 69 76 71 77 64 78
REMARK SMILES IDX 65 79 66 80 67 81 68 82 44 83 45 84 54 85 46 86 47 87 53 88
REMARK SMILES IDX 55 89 48 90 49 91 50 92 51 93 52 94
REMARK H PARENT 10 6 1 17 1 18 14 25 76 44 42 55
REMARK Flexibility Score: inf
ROOT
ATOM      1  C   UNL A   1      33.554  27.415  25.142  1.00  0.00     0.042 C 
ENDROOT
BRANCH   1   2
ATOM      2  C   UNL A   1      32.790  26.094  25.082  1.00  0.00     0.117 C 
BRANCH   2   3
ATOM      3  N   UNL A   1      33.314  25.113  26.018  1.00  0.00    -0.355 N 
ATOM      4  C   UNL A   1      33.856  23.874  25.802  1.00  0.00     0.233 C 
ATOM      5  O   UNL A   1      34.197  23.252  26.811  1.00  0.00    -0.274 OA
ATOM      6  H   UNL A   1      33.274  25.385  26.964  1.00  0.00     0.163 HD
BRANCH   4   7
ATOM      7  C   UNL A   1      34.088  23.366  24.374  1.00  0.00     0.144 C 
BRANCH   7   8
ATOM      8  S   UNL A   1      32.577  22.629  23.615  1.00  0.00    -0.112 SA
BRANCH   8   9
ATOM      9  C   UNL A   1      32.547  20.887  23.987  1.00  0.00     0.011 A 
ATOM     10  C   UNL A   1      32.541  18.063  24.316  1.00  0.00     0.068 A 
ATOM     11  C   UNL A   1      32.821  18.906  25.385  1.00  0.00     0.030 A 
ATOM     12  C   UNL A   1      32.267  18.654  23.079  1.00  0.00     0.147 A 
ATOM     13  C   UNL A   1      32.797  20.300  25.226  1.00  0.00     0.017 A 
ATOM     14  C   UNL A   1      32.257  20.037  22.913  1.00  0.00     0.056 A 
ATOM     15  F   UNL A   1      32.011  17.874  22.016  1.00  0.00    -0.205 F 
BRANCH  10  16
ATOM     16  N   UNL A   1      32.673  16.686  24.449  1.00  0.00    -0.396 N 
ATOM     17  H   UNL A   1      31.875  16.111  24.419  1.00  0.00     0.156 HD
ATOM     18  H   UNL A   1      33.564  16.287  24.574  1.00  0.00     0.156 HD
ENDBRANCH  10  16
ENDBRANCH   8   9
ENDBRANCH   7   8
BRANCH   7  19
ATOM     19  C   UNL A   1      35.283  22.490  24.052  1.00  0.00     0.012 C 
ATOM     20  C   UNL A   1      36.385  22.967  23.131  1.00  0.00     0.005 C 
ATOM     21  C   UNL A   1      36.694  22.660  24.568  1.00  0.00     0.005 C 
ENDBRANCH   7  19
ENDBRANCH   4   7
ENDBRANCH   2   3
ENDBRANCH   1   2
BRANCH   1  22
ATOM     22  C   UNL A   1      34.033  27.802  26.537  1.00  0.00     0.118 C 
BRANCH  22  23
ATOM     23  N   UNL A   1      33.676  29.167  26.900  1.00  0.00    -0.352 N 
ATOM     24  C   UNL A   1      34.383  30.105  27.609  1.00  0.00     0.251 C 
ATOM     25  H   UNL A   1      32.790  29.461  26.589  1.00  0.00     0.163 HD
ATOM     26  O   UNL A   1      33.821  31.143  27.959  1.00  0.00    -0.269 OA
BRANCH  24  27
ATOM     27  C   UNL A   1      35.798  29.872  27.972  1.00  0.00     0.039 A 
ATOM     28  C   UNL A   1      36.099  29.440  29.267  1.00  0.00     0.014 A 
ATOM     29  C   UNL A   1      36.829  30.097  27.056  1.00  0.00     0.014 A 
ATOM     30  C   UNL A   1      37.424  29.171  29.619  1.00  0.00     0.010 A 
ATOM     31  C   UNL A   1      38.140  29.755  27.385  1.00  0.00     0.010 A 
ATOM     32  C   UNL A   1      38.452  29.289  28.669  1.00  0.00    -0.014 A 
BRANCH  32  33
ATOM     33  C   UNL A   1      39.855  28.917  28.999  1.00  0.00     0.031 A 
ATOM     34  C   UNL A   1      40.777  29.920  29.642  1.00  0.00     0.074 A 
ATOM     35  C   UNL A   1      40.317  27.696  28.661  1.00  0.00     0.049 A 
ATOM     36  N   UNL A   1      42.045  29.801  29.941  1.00  0.00    -0.248 NA
ATOM     37  C   UNL A   1      40.206  31.236  29.970  1.00  0.00     0.031 C 
ATOM     38  C   UNL A   1      39.533  26.649  27.998  1.00  0.00     0.029 A 
ATOM     39  N   UNL A   1      41.557  27.128  28.816  1.00  0.00    -0.354 N 
ATOM     40  C   UNL A   1      42.428  31.029  30.471  1.00  0.00     0.074 A 
ATOM     41  C   UNL A   1      41.270  31.892  30.415  1.00  0.00     0.031 C 
ATOM     42  C   UNL A   1      40.303  25.561  27.829  1.00  0.00     0.029 A 
ATOM     43  C   UNL A   1      41.645  25.845  28.327  1.00  0.00     0.049 A 
ATOM     44  H   UNL A   1      42.313  27.595  29.239  1.00  0.00     0.167 HD
ATOM     45  C   UNL A   1      43.632  31.395  30.973  1.00  0.00     0.037 A 
ATOM     46  C   UNL A   1      42.691  24.995  28.274  1.00  0.00     0.037 A 
ATOM     47  C   UNL A   1      44.773  30.517  31.055  1.00  0.00     0.049 A 
ATOM     48  C   UNL A   1      44.020  25.436  28.828  1.00  0.00     0.074 A 
ATOM     49  C   UNL A   1      46.011  30.772  31.619  1.00  0.00     0.029 A 
ATOM     50  N   UNL A   1      44.819  29.224  30.557  1.00  0.00    -0.354 N 
ATOM     51  N   UNL A   1      44.341  26.574  29.398  1.00  0.00    -0.248 NA
ATOM     52  C   UNL A   1      45.130  24.477  28.735  1.00  0.00     0.031 C 
ATOM     53  C   UNL A   1      46.826  29.656  31.408  1.00  0.00     0.029 A 
ATOM     54  C   UNL A   1      46.075  28.681  30.770  1.00  0.00     0.049 A 
ATOM     55  H   UNL A   1      44.070  28.761  30.116  1.00  0.00     0.167 HD
ATOM     56  C   UNL A   1      45.678  26.451  29.765  1.00  0.00     0.074 A 
ATOM     57  C   UNL A   1      46.101  25.126  29.363  1.00  0.00     0.031 C 
ATOM     58  C   UNL A   1      46.481  27.353  30.381  1.00  0.00     0.037 A 
BRANCH  45  59
ATOM     59  C   UNL A   1      43.794  32.806  31.472  1.00  0.00     0.058 A 
ATOM     60  C   UNL A   1      44.239  33.841  30.636  1.00  0.00     0.135 A 
ATOM     61  C   UNL A   1      43.426  33.138  32.786  1.00  0.00     0.135 A 
ATOM     62  F   UNL A   1      44.619  33.579  29.375  1.00  0.00    -0.206 F 
ATOM     63  C   UNL A   1      44.329  35.154  31.089  1.00  0.00     0.059 A 
ATOM     64  C   UNL A   1      43.481  34.449  33.252  1.00  0.00     0.059 A 
ATOM     65  F   UNL A   1      42.995  32.188  33.629  1.00  0.00    -0.206 F 
ATOM     66  C   UNL A   1      43.941  35.449  32.397  1.00  0.00     0.060 A 
BRANCH  66  67
ATOM     67  S   UNL A   1      44.031  37.163  32.956  1.00  0.00     0.124 S 
ATOM     68  O   UNL A   1      42.906  37.227  33.884  1.00  0.00    -0.237 OA
ATOM     69  O   UNL A   1      45.358  37.223  33.562  1.00  0.00    -0.237 OA
ATOM     70  O   UNL A   1      43.870  37.932  31.726  1.00  0.00    -0.744 OA
ENDBRANCH  66  67
ENDBRANCH  45  59
BRANCH  46  71
ATOM     71  C   UNL A   1      42.530  23.635  27.689  1.00  0.00     0.058 A 
ATOM     72  C   UNL A   1      42.336  22.517  28.513  1.00  0.00     0.135 A 
ATOM     73  C   UNL A   1      42.591  23.422  26.304  1.00  0.00     0.135 A 
ATOM     74  F   UNL A   1      42.276  22.667  29.845  1.00  0.00    -0.206 F 
ATOM     75  C   UNL A   1      42.241  21.231  27.989  1.00  0.00     0.059 A 
ATOM     76  C   UNL A   1      42.467  22.149  25.752  1.00  0.00     0.059 A 
ATOM     77  F   UNL A   1      42.758  24.459  25.468  1.00  0.00    -0.206 F 
ATOM     78  C   UNL A   1      42.310  21.058  26.606  1.00  0.00     0.060 A 
BRANCH  78  79
ATOM     79  S   UNL A   1      42.171  19.387  25.936  1.00  0.00     0.124 S 
ATOM     80  O   UNL A   1      43.030  19.468  24.761  1.00  0.00    -0.237 OA
ATOM     81  O   UNL A   1      42.671  18.572  27.038  1.00  0.00    -0.237 OA
ATOM     82  O   UNL A   1      40.742  19.252  25.665  1.00  0.00    -0.744 OA
ENDBRANCH  78  79
ENDBRANCH  46  71
BRANCH  58  83
ATOM     83  C   UNL A   1      47.886  26.926  30.710  1.00  0.00     0.058 A 
ATOM     84  C   UNL A   1      48.954  27.146  29.827  1.00  0.00     0.135 A 
ATOM     85  C   UNL A   1      48.173  26.337  31.953  1.00  0.00     0.135 A 
ATOM     86  F   UNL A   1      48.734  27.698  28.623  1.00  0.00    -0.206 F 
ATOM     87  C   UNL A   1      50.255  26.775  30.154  1.00  0.00     0.059 A 
ATOM     88  C   UNL A   1      49.471  25.989  32.314  1.00  0.00     0.059 A 
ATOM     89  F   UNL A   1      47.191  26.115  32.840  1.00  0.00    -0.206 F 
ATOM     90  C   UNL A   1      50.503  26.201  31.402  1.00  0.00     0.060 A 
BRANCH  90  91
ATOM     91  S   UNL A   1      52.202  25.760  31.828  1.00  0.00     0.124 S 
ATOM     92  O   UNL A   1      52.896  26.011  30.569  1.00  0.00    -0.237 OA
ATOM     93  O   UNL A   1      52.502  26.688  32.914  1.00  0.00    -0.237 OA
ATOM     94  O   UNL A   1      52.101  24.357  32.221  1.00  0.00    -0.744 OA
ENDBRANCH  90  91
ENDBRANCH  58  83
ENDBRANCH  32  33
ENDBRANCH  24  27
ENDBRANCH  22  23
ENDBRANCH   1  22
TORSDOF 17
ENDMDL
