MODEL 1
REMARK VINA RESULT:     -13.5      0.000      0.000
REMARK SMILES O=C(NCCCNC(=O)c1cc([C@@H]2C=NN=C2c2ccc(F)cc2)c2c(ccc3ccccc32)n1)c1ccc(-c2c3nc(c(-c4c(F)cc(S(=O)(=O)[O-])cc4F)c4ccc([nH]4)c(-c4c(F)cc(S(=O)(=O)[O-])cc4F)c4nc(c(-c5c(F)cc(S(=O)(=O)[O-])cc5F)c5ccc2[nH]5)C=C4)C=C3)cc1
REMARK SMILES IDX 4 1 3 2 1 3 2 4 36 6 37 7 101 8 38 9 100 10 39 11 40 12
REMARK SMILES IDX 41 13 94 14 42 15 99 16 93 17 95 18 43 19 98 20 92 21 91 22
REMARK SMILES IDX 44 24 78 25 57 26 77 27 58 28 61 29 76 30 96 31 59 32 60 33
REMARK SMILES IDX 75 35 97 36 62 37 45 38 46 39 55 40 47 41 48 42 54 43 56 44
REMARK SMILES IDX 49 45 50 46 51 47 52 48 53 49 79 50 80 51 89 52 81 53 82 54
REMARK SMILES IDX 88 55 90 56 83 57 84 58 85 59 86 60 87 61 63 62 64 63 73 64
REMARK SMILES IDX 65 65 66 66 72 67 74 68 67 69 68 70 69 71 70 72 71 73 5 74
REMARK SMILES IDX 6 75 7 76 8 77 9 79 10 80 11 81 35 82 12 83 26 84 25 85
REMARK SMILES IDX 27 86 34 87 28 88 29 89 33 90 30 91 32 92 31 93 13 94 14 95
REMARK SMILES IDX 17 96 15 97 16 98 18 99 19 100 24 101 20 102 23 103 21 104
REMARK SMILES IDX 22 105
REMARK H PARENT 3 5 95 23 61 34 7 78
REMARK Flexibility Score: inf
ROOT
ATOM      1  C   UNL A   1      40.114  21.641  26.160  1.00  0.00     0.118 C 
ENDROOT
BRANCH   1   2
ATOM      2  N   UNL A   1      41.272  22.015  25.374  1.00  0.00    -0.352 N 
ATOM      3  O   UNL A   1      43.157  22.893  24.658  1.00  0.00    -0.269 OA
ATOM      4  C   UNL A   1      42.193  23.024  25.420  1.00  0.00     0.251 C 
ATOM      5  H   UNL A   1      41.435  21.392  24.629  1.00  0.00     0.163 HD
BRANCH   4   6
ATOM      6  C   UNL A   1      42.091  24.265  26.239  1.00  0.00     0.039 A 
ATOM      7  C   UNL A   1      42.593  24.451  27.527  1.00  0.00     0.014 A 
ATOM      8  C   UNL A   1      41.392  25.330  25.634  1.00  0.00     0.014 A 
ATOM      9  C   UNL A   1      42.336  25.640  28.219  1.00  0.00     0.010 A 
ATOM     10  C   UNL A   1      41.140  26.516  26.316  1.00  0.00     0.010 A 
ATOM     11  C   UNL A   1      41.584  26.660  27.625  1.00  0.00    -0.014 A 
BRANCH  11  12
ATOM     12  C   UNL A   1      41.409  27.926  28.344  1.00  0.00     0.031 A 
ATOM     13  C   UNL A   1      42.498  28.930  28.120  1.00  0.00     0.074 A 
ATOM     14  C   UNL A   1      40.286  28.260  29.016  1.00  0.00     0.049 A 
ATOM     15  N   UNL A   1      43.280  29.485  28.990  1.00  0.00    -0.248 NA
ATOM     16  C   UNL A   1      42.815  29.290  26.727  1.00  0.00     0.031 C 
ATOM     17  C   UNL A   1      39.011  27.541  29.076  1.00  0.00     0.029 A 
ATOM     18  N   UNL A   1      40.024  29.392  29.731  1.00  0.00    -0.354 N 
ATOM     19  C   UNL A   1      44.075  30.389  28.283  1.00  0.00     0.074 A 
ATOM     20  C   UNL A   1      43.829  30.139  26.886  1.00  0.00     0.031 C 
ATOM     21  C   UNL A   1      38.060  28.351  29.601  1.00  0.00     0.029 A 
ATOM     22  C   UNL A   1      38.682  29.588  30.043  1.00  0.00     0.049 A 
ATOM     23  H   UNL A   1      40.729  30.021  30.007  1.00  0.00     0.167 HD
ATOM     24  C   UNL A   1      44.773  31.391  28.890  1.00  0.00     0.037 A 
ATOM     25  C   UNL A   1      38.124  30.707  30.580  1.00  0.00     0.037 A 
ATOM     26  C   UNL A   1      44.918  31.158  30.301  1.00  0.00     0.049 A 
ATOM     27  C   UNL A   1      39.220  31.474  31.225  1.00  0.00     0.074 A 
ATOM     28  C   UNL A   1      45.554  30.195  31.058  1.00  0.00     0.029 A 
ATOM     29  N   UNL A   1      44.047  31.785  31.155  1.00  0.00    -0.354 N 
ATOM     30  N   UNL A   1      39.889  31.060  32.266  1.00  0.00    -0.248 NA
ATOM     31  C   UNL A   1      39.871  32.504  30.431  1.00  0.00     0.031 C 
ATOM     32  C   UNL A   1      44.680  29.959  32.159  1.00  0.00     0.029 A 
ATOM     33  C   UNL A   1      43.600  30.834  32.039  1.00  0.00     0.049 A 
ATOM     34  H   UNL A   1      43.791  32.736  31.138  1.00  0.00     0.167 HD
ATOM     35  C   UNL A   1      41.195  31.458  32.029  1.00  0.00     0.074 A 
ATOM     36  C   UNL A   1      41.109  32.403  30.918  1.00  0.00     0.031 C 
ATOM     37  C   UNL A   1      42.255  30.789  32.572  1.00  0.00     0.037 A 
BRANCH  24  38
ATOM     38  C   UNL A   1      45.112  32.711  28.244  1.00  0.00     0.058 A 
ATOM     39  C   UNL A   1      44.196  33.783  28.167  1.00  0.00     0.135 A 
ATOM     40  C   UNL A   1      46.445  33.025  27.906  1.00  0.00     0.135 A 
ATOM     41  F   UNL A   1      42.924  33.655  28.568  1.00  0.00    -0.206 F 
ATOM     42  C   UNL A   1      44.562  35.062  27.761  1.00  0.00     0.059 A 
ATOM     43  C   UNL A   1      46.845  34.315  27.544  1.00  0.00     0.059 A 
ATOM     44  F   UNL A   1      47.405  32.089  27.977  1.00  0.00    -0.206 F 
ATOM     45  C   UNL A   1      45.894  35.327  27.472  1.00  0.00     0.060 A 
BRANCH  45  46
ATOM     46  S   UNL A   1      46.349  37.029  27.089  1.00  0.00     0.124 S 
ATOM     47  O   UNL A   1      47.086  36.860  25.840  1.00  0.00    -0.237 OA
ATOM     48  O   UNL A   1      45.046  37.673  26.978  1.00  0.00    -0.237 OA
ATOM     49  O   UNL A   1      47.150  37.430  28.242  1.00  0.00    -0.744 OA
ENDBRANCH  45  46
ENDBRANCH  24  38
BRANCH  25  50
ATOM     50  C   UNL A   1      36.821  31.349  30.235  1.00  0.00     0.058 A 
ATOM     51  C   UNL A   1      36.489  31.656  28.901  1.00  0.00     0.135 A 
ATOM     52  C   UNL A   1      36.022  31.958  31.225  1.00  0.00     0.135 A 
ATOM     53  F   UNL A   1      37.211  31.169  27.881  1.00  0.00    -0.206 F 
ATOM     54  C   UNL A   1      35.475  32.553  28.568  1.00  0.00     0.059 A 
ATOM     55  C   UNL A   1      34.999  32.864  30.916  1.00  0.00     0.059 A 
ATOM     56  F   UNL A   1      36.276  31.737  32.525  1.00  0.00    -0.206 F 
ATOM     57  C   UNL A   1      34.756  33.179  29.581  1.00  0.00     0.060 A 
BRANCH  57  58
ATOM     58  S   UNL A   1      33.578  34.468  29.109  1.00  0.00     0.124 S 
ATOM     59  O   UNL A   1      34.457  35.480  28.535  1.00  0.00    -0.237 OA
ATOM     60  O   UNL A   1      32.720  33.765  28.162  1.00  0.00    -0.237 OA
ATOM     61  O   UNL A   1      32.943  34.833  30.374  1.00  0.00    -0.744 OA
ENDBRANCH  57  58
ENDBRANCH  25  50
BRANCH  37  62
ATOM     62  C   UNL A   1      41.985  29.753  33.637  1.00  0.00     0.058 A 
ATOM     63  C   UNL A   1      42.315  30.066  34.964  1.00  0.00     0.135 A 
ATOM     64  C   UNL A   1      41.586  28.428  33.375  1.00  0.00     0.135 A 
ATOM     65  F   UNL A   1      42.752  31.299  35.274  1.00  0.00    -0.206 F 
ATOM     66  C   UNL A   1      42.270  29.117  35.981  1.00  0.00     0.059 A 
ATOM     67  C   UNL A   1      41.499  27.467  34.386  1.00  0.00     0.059 A 
ATOM     68  F   UNL A   1      41.343  28.014  32.124  1.00  0.00    -0.206 F 
ATOM     69  C   UNL A   1      41.862  27.817  35.684  1.00  0.00     0.060 A 
BRANCH  69  70
ATOM     70  S   UNL A   1      41.860  26.600  37.016  1.00  0.00     0.124 S 
ATOM     71  O   UNL A   1      42.043  25.350  36.283  1.00  0.00    -0.237 OA
ATOM     72  O   UNL A   1      42.996  27.024  37.829  1.00  0.00    -0.237 OA
ATOM     73  O   UNL A   1      40.550  26.766  37.639  1.00  0.00    -0.744 OA
ENDBRANCH  69  70
ENDBRANCH  37  62
ENDBRANCH  11  12
ENDBRANCH   4   6
ENDBRANCH   1   2
BRANCH   1  74
ATOM     74  C   UNL A   1      39.295  22.816  26.683  1.00  0.00     0.042 C 
BRANCH  74  75
ATOM     75  C   UNL A   1      37.883  22.917  26.113  1.00  0.00     0.118 C 
BRANCH  75  76
ATOM     76  N   UNL A   1      37.828  22.757  24.664  1.00  0.00    -0.351 N 
ATOM     77  C   UNL A   1      36.775  22.859  23.776  1.00  0.00     0.269 C 
ATOM     78  H   UNL A   1      38.691  22.538  24.245  1.00  0.00     0.163 HD
ATOM     79  O   UNL A   1      36.976  22.576  22.595  1.00  0.00    -0.268 OA
BRANCH  77  80
ATOM     80  C   UNL A   1      35.433  23.351  24.215  1.00  0.00     0.129 A 
ATOM     81  C   UNL A   1      34.766  24.308  23.492  1.00  0.00     0.039 A 
ATOM     82  N   UNL A   1      34.869  22.746  25.267  1.00  0.00    -0.243 NA
ATOM     83  C   UNL A   1      33.490  24.768  23.897  1.00  0.00    -0.021 A 
ATOM     84  C   UNL A   1      33.633  23.107  25.637  1.00  0.00     0.072 A 
ATOM     85  C   UNL A   1      32.835  24.126  25.025  1.00  0.00     0.012 A 
ATOM     86  C   UNL A   1      33.155  22.360  26.691  1.00  0.00     0.029 A 
ATOM     87  C   UNL A   1      31.481  24.318  25.596  1.00  0.00    -0.009 A 
ATOM     88  C   UNL A   1      31.887  22.546  27.216  1.00  0.00     0.011 A 
ATOM     89  C   UNL A   1      31.046  23.512  26.687  1.00  0.00    -0.018 A 
ATOM     90  C   UNL A   1      30.504  25.243  25.160  1.00  0.00     0.009 A 
ATOM     91  C   UNL A   1      29.767  23.647  27.261  1.00  0.00     0.009 A 
ATOM     92  C   UNL A   1      29.233  25.385  25.732  1.00  0.00     0.001 A 
ATOM     93  C   UNL A   1      28.860  24.583  26.788  1.00  0.00     0.001 A 
BRANCH  83  94
ATOM     94  C   UNL A   1      32.989  25.855  22.972  1.00  0.00     0.115 C 
ATOM     95  C   UNL A   1      33.180  25.710  21.507  1.00  0.00     0.123 C 
ATOM     96  C   UNL A   1      33.445  27.271  23.121  1.00  0.00     0.083 C 
ATOM     97  N   UNL A   1      33.495  26.831  20.940  1.00  0.00    -0.162 NA
ATOM     98  N   UNL A   1      33.657  27.829  21.963  1.00  0.00    -0.154 NA
BRANCH  96  99
ATOM     99  C   UNL A   1      33.476  28.011  24.401  1.00  0.00    -0.001 A 
ATOM    100  C   UNL A   1      32.828  29.253  24.452  1.00  0.00     0.013 A 
ATOM    101  C   UNL A   1      34.108  27.520  25.550  1.00  0.00     0.013 A 
ATOM    102  C   UNL A   1      32.778  29.970  25.649  1.00  0.00     0.040 A 
ATOM    103  C   UNL A   1      34.053  28.237  26.747  1.00  0.00     0.040 A 
ATOM    104  C   UNL A   1      33.383  29.451  26.788  1.00  0.00     0.123 A 
ATOM    105  F   UNL A   1      33.325  30.134  27.938  1.00  0.00    -0.207 F 
ENDBRANCH  96  99
ENDBRANCH  83  94
ENDBRANCH  77  80
ENDBRANCH  75  76
ENDBRANCH  74  75
ENDBRANCH   1  74
TORSDOF 15
ENDMDL
MODEL 2
REMARK VINA RESULT:     -13.4      1.839      3.087
REMARK SMILES O=C(NCCCNC(=O)c1cc([C@@H]2C=NN=C2c2ccc(F)cc2)c2c(ccc3ccccc32)n1)c1ccc(-c2c3nc(c(-c4c(F)cc(S(=O)(=O)[O-])cc4F)c4ccc([nH]4)c(-c4c(F)cc(S(=O)(=O)[O-])cc4F)c4nc(c(-c5c(F)cc(S(=O)(=O)[O-])cc5F)c5ccc2[nH]5)C=C4)C=C3)cc1
REMARK SMILES IDX 4 1 3 2 1 3 2 4 36 6 37 7 101 8 38 9 100 10 39 11 40 12
REMARK SMILES IDX 41 13 94 14 42 15 99 16 93 17 95 18 43 19 98 20 92 21 91 22
REMARK SMILES IDX 44 24 78 25 57 26 77 27 58 28 61 29 76 30 96 31 59 32 60 33
REMARK SMILES IDX 75 35 97 36 62 37 45 38 46 39 55 40 47 41 48 42 54 43 56 44
REMARK SMILES IDX 49 45 50 46 51 47 52 48 53 49 79 50 80 51 89 52 81 53 82 54
REMARK SMILES IDX 88 55 90 56 83 57 84 58 85 59 86 60 87 61 63 62 64 63 73 64
REMARK SMILES IDX 65 65 66 66 72 67 74 68 67 69 68 70 69 71 70 72 71 73 5 74
REMARK SMILES IDX 6 75 7 76 8 77 9 79 10 80 11 81 35 82 12 83 26 84 25 85
REMARK SMILES IDX 27 86 34 87 28 88 29 89 33 90 30 91 32 92 31 93 13 94 14 95
REMARK SMILES IDX 17 96 15 97 16 98 18 99 19 100 24 101 20 102 23 103 21 104
REMARK SMILES IDX 22 105
REMARK H PARENT 3 5 95 23 61 34 7 78
REMARK Flexibility Score: inf
ROOT
ATOM      1  C   UNL A   1      42.407  21.177  26.508  1.00  0.00     0.118 C 
ENDROOT
BRANCH   1   2
ATOM      2  N   UNL A   1      43.010  21.874  25.390  1.00  0.00    -0.352 N 
ATOM      3  O   UNL A   1      44.083  23.306  24.112  1.00  0.00    -0.269 OA
ATOM      4  C   UNL A   1      43.458  23.145  25.165  1.00  0.00     0.251 C 
ATOM      5  H   UNL A   1      43.124  21.292  24.604  1.00  0.00     0.163 HD
BRANCH   4   6
ATOM      6  C   UNL A   1      43.196  24.331  26.031  1.00  0.00     0.039 A 
ATOM      7  C   UNL A   1      43.590  24.489  27.360  1.00  0.00     0.014 A 
ATOM      8  C   UNL A   1      42.457  25.367  25.426  1.00  0.00     0.014 A 
ATOM      9  C   UNL A   1      43.189  25.616  28.085  1.00  0.00     0.010 A 
ATOM     10  C   UNL A   1      42.060  26.493  26.141  1.00  0.00     0.010 A 
ATOM     11  C   UNL A   1      42.398  26.604  27.485  1.00  0.00    -0.014 A 
BRANCH  11  12
ATOM     12  C   UNL A   1      42.070  27.813  28.246  1.00  0.00     0.031 A 
ATOM     13  C   UNL A   1      43.100  28.898  28.175  1.00  0.00     0.074 A 
ATOM     14  C   UNL A   1      40.870  28.034  28.826  1.00  0.00     0.049 A 
ATOM     15  N   UNL A   1      43.759  29.454  29.141  1.00  0.00    -0.248 NA
ATOM     16  C   UNL A   1      43.515  29.355  26.838  1.00  0.00     0.031 C 
ATOM     17  C   UNL A   1      39.649  27.229  28.730  1.00  0.00     0.029 A 
ATOM     18  N   UNL A   1      40.465  29.104  29.569  1.00  0.00    -0.354 N 
ATOM     19  C   UNL A   1      44.549  30.447  28.557  1.00  0.00     0.074 A 
ATOM     20  C   UNL A   1      44.448  30.260  27.133  1.00  0.00     0.031 C 
ATOM     21  C   UNL A   1      38.599  27.944  29.204  1.00  0.00     0.029 A 
ATOM     22  C   UNL A   1      39.089  29.193  29.763  1.00  0.00     0.049 A 
ATOM     23  H   UNL A   1      41.096  29.761  29.940  1.00  0.00     0.167 HD
ATOM     24  C   UNL A   1      45.117  31.457  29.276  1.00  0.00     0.037 A 
ATOM     25  C   UNL A   1      38.408  30.241  30.300  1.00  0.00     0.037 A 
ATOM     26  C   UNL A   1      45.150  31.155  30.681  1.00  0.00     0.049 A 
ATOM     27  C   UNL A   1      39.384  31.041  31.082  1.00  0.00     0.074 A 
ATOM     28  C   UNL A   1      45.782  30.196  31.446  1.00  0.00     0.029 A 
ATOM     29  N   UNL A   1      44.163  31.675  31.480  1.00  0.00    -0.354 N 
ATOM     30  N   UNL A   1      39.984  30.615  32.160  1.00  0.00    -0.248 NA
ATOM     31  C   UNL A   1      40.029  32.155  30.405  1.00  0.00     0.031 C 
ATOM     32  C   UNL A   1      44.832  29.841  32.447  1.00  0.00     0.029 A 
ATOM     33  C   UNL A   1      43.708  30.648  32.270  1.00  0.00     0.049 A 
ATOM     34  H   UNL A   1      43.843  32.606  31.486  1.00  0.00     0.167 HD
ATOM     35  C   UNL A   1      41.275  31.111  32.066  1.00  0.00     0.074 A 
ATOM     36  C   UNL A   1      41.222  32.109  31.000  1.00  0.00     0.031 C 
ATOM     37  C   UNL A   1      42.327  30.484  32.671  1.00  0.00     0.037 A 
BRANCH  24  38
ATOM     38  C   UNL A   1      45.417  32.831  28.731  1.00  0.00     0.058 A 
ATOM     39  C   UNL A   1      44.415  33.799  28.499  1.00  0.00     0.135 A 
ATOM     40  C   UNL A   1      46.745  33.302  28.661  1.00  0.00     0.135 A 
ATOM     41  F   UNL A   1      43.114  33.516  28.646  1.00  0.00    -0.206 F 
ATOM     42  C   UNL A   1      44.702  35.125  28.193  1.00  0.00     0.059 A 
ATOM     43  C   UNL A   1      47.056  34.641  28.406  1.00  0.00     0.059 A 
ATOM     44  F   UNL A   1      47.776  32.474  28.898  1.00  0.00    -0.206 F 
ATOM     45  C   UNL A   1      46.025  35.545  28.170  1.00  0.00     0.060 A 
BRANCH  45  46
ATOM     46  S   UNL A   1      46.346  37.300  27.914  1.00  0.00     0.124 S 
ATOM     47  O   UNL A   1      46.106  37.434  26.480  1.00  0.00    -0.237 OA
ATOM     48  O   UNL A   1      45.355  37.919  28.785  1.00  0.00    -0.237 OA
ATOM     49  O   UNL A   1      47.735  37.454  28.335  1.00  0.00    -0.744 OA
ENDBRANCH  45  46
ENDBRANCH  24  38
BRANCH  25  50
ATOM     50  C   UNL A   1      37.099  30.813  29.867  1.00  0.00     0.058 A 
ATOM     51  C   UNL A   1      36.829  31.072  28.510  1.00  0.00     0.135 A 
ATOM     52  C   UNL A   1      36.219  31.408  30.795  1.00  0.00     0.135 A 
ATOM     53  F   UNL A   1      37.628  30.595  27.543  1.00  0.00    -0.206 F 
ATOM     54  C   UNL A   1      35.795  31.913  28.098  1.00  0.00     0.059 A 
ATOM     55  C   UNL A   1      35.175  32.258  30.406  1.00  0.00     0.059 A 
ATOM     56  F   UNL A   1      36.409  31.230  32.112  1.00  0.00    -0.206 F 
ATOM     57  C   UNL A   1      34.993  32.529  29.053  1.00  0.00     0.060 A 
BRANCH  57  58
ATOM     58  S   UNL A   1      33.787  33.750  28.482  1.00  0.00     0.124 S 
ATOM     59  O   UNL A   1      34.629  34.672  27.728  1.00  0.00    -0.237 OA
ATOM     60  O   UNL A   1      32.878  32.933  27.688  1.00  0.00    -0.237 OA
ATOM     61  O   UNL A   1      33.226  34.284  29.722  1.00  0.00    -0.744 OA
ENDBRANCH  57  58
ENDBRANCH  25  50
BRANCH  37  62
ATOM     62  C   UNL A   1      42.036  29.375  33.654  1.00  0.00     0.058 A 
ATOM     63  C   UNL A   1      42.022  29.688  35.021  1.00  0.00     0.135 A 
ATOM     64  C   UNL A   1      41.949  28.011  33.312  1.00  0.00     0.135 A 
ATOM     65  F   UNL A   1      42.152  30.965  35.419  1.00  0.00    -0.206 F 
ATOM     66  C   UNL A   1      41.942  28.705  36.004  1.00  0.00     0.059 A 
ATOM     67  C   UNL A   1      41.832  27.010  34.280  1.00  0.00     0.059 A 
ATOM     68  F   UNL A   1      42.050  27.612  32.037  1.00  0.00    -0.206 F 
ATOM     69  C   UNL A   1      41.849  27.367  35.625  1.00  0.00     0.060 A 
BRANCH  69  70
ATOM     70  S   UNL A   1      41.794  26.116  36.925  1.00  0.00     0.124 S 
ATOM     71  O   UNL A   1      42.068  24.892  36.177  1.00  0.00    -0.237 OA
ATOM     72  O   UNL A   1      42.857  26.554  37.825  1.00  0.00    -0.237 OA
ATOM     73  O   UNL A   1      40.440  26.226  37.458  1.00  0.00    -0.744 OA
ENDBRANCH  69  70
ENDBRANCH  37  62
ENDBRANCH  11  12
ENDBRANCH   4   6
ENDBRANCH   1   2
BRANCH   1  74
ATOM     74  C   UNL A   1      40.886  21.266  26.568  1.00  0.00     0.042 C 
BRANCH  74  75
ATOM     75  C   UNL A   1      40.341  22.212  27.636  1.00  0.00     0.118 C 
BRANCH  75  76
ATOM     76  N   UNL A   1      39.958  23.519  27.114  1.00  0.00    -0.351 N 
ATOM     77  C   UNL A   1      38.832  23.931  26.430  1.00  0.00     0.269 C 
ATOM     78  H   UNL A   1      40.616  24.232  27.278  1.00  0.00     0.163 HD
ATOM     79  O   UNL A   1      38.794  25.087  26.008  1.00  0.00    -0.268 OA
BRANCH  77  80
ATOM     80  C   UNL A   1      37.658  23.024  26.246  1.00  0.00     0.129 A 
ATOM     81  C   UNL A   1      36.387  23.454  26.533  1.00  0.00     0.039 A 
ATOM     82  N   UNL A   1      37.886  21.828  25.689  1.00  0.00    -0.243 NA
ATOM     83  C   UNL A   1      35.272  22.601  26.349  1.00  0.00    -0.021 A 
ATOM     84  C   UNL A   1      36.846  21.022  25.436  1.00  0.00     0.072 A 
ATOM     85  C   UNL A   1      35.473  21.300  25.733  1.00  0.00     0.012 A 
ATOM     86  C   UNL A   1      37.220  19.855  24.807  1.00  0.00     0.029 A 
ATOM     87  C   UNL A   1      34.499  20.261  25.324  1.00  0.00    -0.009 A 
ATOM     88  C   UNL A   1      36.301  18.891  24.427  1.00  0.00     0.011 A 
ATOM     89  C   UNL A   1      34.951  19.075  24.676  1.00  0.00    -0.018 A 
ATOM     90  C   UNL A   1      33.096  20.308  25.490  1.00  0.00     0.009 A 
ATOM     91  C   UNL A   1      34.067  18.061  24.259  1.00  0.00     0.009 A 
ATOM     92  C   UNL A   1      32.213  19.299  25.082  1.00  0.00     0.001 A 
ATOM     93  C   UNL A   1      32.700  18.169  24.463  1.00  0.00     0.001 A 
BRANCH  83  94
ATOM     94  C   UNL A   1      33.993  23.283  26.786  1.00  0.00     0.115 C 
ATOM     95  C   UNL A   1      33.215  22.716  27.915  1.00  0.00     0.123 C 
ATOM     96  C   UNL A   1      32.869  23.509  25.826  1.00  0.00     0.083 C 
ATOM     97  N   UNL A   1      31.938  22.777  27.712  1.00  0.00    -0.162 NA
ATOM     98  N   UNL A   1      31.713  23.288  26.386  1.00  0.00    -0.154 NA
BRANCH  96  99
ATOM     99  C   UNL A   1      33.024  24.087  24.474  1.00  0.00    -0.001 A 
ATOM    100  C   UNL A   1      32.826  23.238  23.377  1.00  0.00     0.013 A 
ATOM    101  C   UNL A   1      33.343  25.431  24.253  1.00  0.00     0.013 A 
ATOM    102  C   UNL A   1      32.905  23.742  22.076  1.00  0.00     0.040 A 
ATOM    103  C   UNL A   1      33.417  25.935  22.952  1.00  0.00     0.040 A 
ATOM    104  C   UNL A   1      33.190  25.087  21.877  1.00  0.00     0.123 A 
ATOM    105  F   UNL A   1      33.255  25.573  20.630  1.00  0.00    -0.207 F 
ENDBRANCH  96  99
ENDBRANCH  83  94
ENDBRANCH  77  80
ENDBRANCH  75  76
ENDBRANCH  74  75
ENDBRANCH   1  74
TORSDOF 15
ENDMDL
MODEL 3
REMARK VINA RESULT:     -13.1      1.924      3.533
REMARK SMILES O=C(NCCCNC(=O)c1cc([C@@H]2C=NN=C2c2ccc(F)cc2)c2c(ccc3ccccc32)n1)c1ccc(-c2c3nc(c(-c4c(F)cc(S(=O)(=O)[O-])cc4F)c4ccc([nH]4)c(-c4c(F)cc(S(=O)(=O)[O-])cc4F)c4nc(c(-c5c(F)cc(S(=O)(=O)[O-])cc5F)c5ccc2[nH]5)C=C4)C=C3)cc1
REMARK SMILES IDX 4 1 3 2 1 3 2 4 36 6 37 7 101 8 38 9 100 10 39 11 40 12
REMARK SMILES IDX 41 13 94 14 42 15 99 16 93 17 95 18 43 19 98 20 92 21 91 22
REMARK SMILES IDX 44 24 78 25 57 26 77 27 58 28 61 29 76 30 96 31 59 32 60 33
REMARK SMILES IDX 75 35 97 36 62 37 45 38 46 39 55 40 47 41 48 42 54 43 56 44
REMARK SMILES IDX 49 45 50 46 51 47 52 48 53 49 79 50 80 51 89 52 81 53 82 54
REMARK SMILES IDX 88 55 90 56 83 57 84 58 85 59 86 60 87 61 63 62 64 63 73 64
REMARK SMILES IDX 65 65 66 66 72 67 74 68 67 69 68 70 69 71 70 72 71 73 5 74
REMARK SMILES IDX 6 75 7 76 8 77 9 79 10 80 11 81 35 82 12 83 26 84 25 85
REMARK SMILES IDX 27 86 34 87 28 88 29 89 33 90 30 91 32 92 31 93 13 94 14 95
REMARK SMILES IDX 17 96 15 97 16 98 18 99 19 100 24 101 20 102 23 103 21 104
REMARK SMILES IDX 22 105
REMARK H PARENT 3 5 95 23 61 34 7 78
REMARK Flexibility Score: inf
ROOT
ATOM      1  C   UNL A   1      39.504  21.645  26.137  1.00  0.00     0.118 C 
ENDROOT
BRANCH   1   2
ATOM      2  N   UNL A   1      40.769  21.893  25.475  1.00  0.00    -0.352 N 
ATOM      3  O   UNL A   1      42.800  22.562  24.963  1.00  0.00    -0.269 OA
ATOM      4  C   UNL A   1      41.786  22.793  25.629  1.00  0.00     0.251 C 
ATOM      5  H   UNL A   1      40.935  21.261  24.738  1.00  0.00     0.163 HD
BRANCH   4   6
ATOM      6  C   UNL A   1      41.740  24.032  26.457  1.00  0.00     0.039 A 
ATOM      7  C   UNL A   1      42.130  24.151  27.791  1.00  0.00     0.014 A 
ATOM      8  C   UNL A   1      41.225  25.172  25.807  1.00  0.00     0.014 A 
ATOM      9  C   UNL A   1      41.938  25.356  28.476  1.00  0.00     0.010 A 
ATOM     10  C   UNL A   1      41.038  26.374  26.483  1.00  0.00     0.010 A 
ATOM     11  C   UNL A   1      41.364  26.458  27.832  1.00  0.00    -0.014 A 
BRANCH  11  12
ATOM     12  C   UNL A   1      41.259  27.730  28.553  1.00  0.00     0.031 A 
ATOM     13  C   UNL A   1      42.379  28.690  28.297  1.00  0.00     0.074 A 
ATOM     14  C   UNL A   1      40.169  28.108  29.256  1.00  0.00     0.049 A 
ATOM     15  N   UNL A   1      43.206  29.215  29.144  1.00  0.00    -0.248 NA
ATOM     16  C   UNL A   1      42.670  29.037  26.896  1.00  0.00     0.031 C 
ATOM     17  C   UNL A   1      38.869  27.439  29.353  1.00  0.00     0.029 A 
ATOM     18  N   UNL A   1      39.971  29.249  29.977  1.00  0.00    -0.354 N 
ATOM     19  C   UNL A   1      44.016  30.087  28.413  1.00  0.00     0.074 A 
ATOM     20  C   UNL A   1      43.721  29.847  27.025  1.00  0.00     0.031 C 
ATOM     21  C   UNL A   1      37.965  28.285  29.903  1.00  0.00     0.029 A 
ATOM     22  C   UNL A   1      38.647  29.497  30.326  1.00  0.00     0.049 A 
ATOM     23  H   UNL A   1      40.707  29.850  30.231  1.00  0.00     0.167 HD
ATOM     24  C   UNL A   1      44.769  31.061  29.000  1.00  0.00     0.037 A 
ATOM     25  C   UNL A   1      38.148  30.638  30.876  1.00  0.00     0.037 A 
ATOM     26  C   UNL A   1      44.944  30.823  30.406  1.00  0.00     0.049 A 
ATOM     27  C   UNL A   1      39.291  31.361  31.489  1.00  0.00     0.074 A 
ATOM     28  C   UNL A   1      45.563  29.837  31.146  1.00  0.00     0.029 A 
ATOM     29  N   UNL A   1      44.123  31.484  31.283  1.00  0.00    -0.354 N 
ATOM     30  N   UNL A   1      39.972  30.922  32.512  1.00  0.00    -0.248 NA
ATOM     31  C   UNL A   1      39.959  32.365  30.676  1.00  0.00     0.031 C 
ATOM     32  C   UNL A   1      44.713  29.635  32.272  1.00  0.00     0.029 A 
ATOM     33  C   UNL A   1      43.664  30.552  32.181  1.00  0.00     0.049 A 
ATOM     34  H   UNL A   1      43.903  32.444  31.272  1.00  0.00     0.167 HD
ATOM     35  C   UNL A   1      41.286  31.269  32.238  1.00  0.00     0.074 A 
ATOM     36  C   UNL A   1      41.205  32.216  31.128  1.00  0.00     0.031 C 
ATOM     37  C   UNL A   1      42.334  30.559  32.751  1.00  0.00     0.037 A 
BRANCH  24  38
ATOM     38  C   UNL A   1      45.140  32.368  28.342  1.00  0.00     0.058 A 
ATOM     39  C   UNL A   1      44.245  33.455  28.240  1.00  0.00     0.135 A 
ATOM     40  C   UNL A   1      46.483  32.653  28.019  1.00  0.00     0.135 A 
ATOM     41  F   UNL A   1      42.966  33.355  28.625  1.00  0.00    -0.206 F 
ATOM     42  C   UNL A   1      44.640  34.722  27.823  1.00  0.00     0.059 A 
ATOM     43  C   UNL A   1      46.912  33.931  27.647  1.00  0.00     0.059 A 
ATOM     44  F   UNL A   1      47.426  31.701  28.114  1.00  0.00    -0.206 F 
ATOM     45  C   UNL A   1      45.980  34.959  27.549  1.00  0.00     0.060 A 
BRANCH  45  46
ATOM     46  S   UNL A   1      46.472  36.647  27.153  1.00  0.00     0.124 S 
ATOM     47  O   UNL A   1      47.593  36.847  28.067  1.00  0.00    -0.237 OA
ATOM     48  O   UNL A   1      46.814  36.538  25.740  1.00  0.00    -0.237 OA
ATOM     49  O   UNL A   1      45.273  37.426  27.449  1.00  0.00    -0.744 OA
ENDBRANCH  45  46
ENDBRANCH  24  38
BRANCH  25  50
ATOM     50  C   UNL A   1      36.862  31.330  30.567  1.00  0.00     0.058 A 
ATOM     51  C   UNL A   1      36.537  31.711  29.252  1.00  0.00     0.135 A 
ATOM     52  C   UNL A   1      36.080  31.908  31.589  1.00  0.00     0.135 A 
ATOM     53  F   UNL A   1      37.244  31.258  28.206  1.00  0.00    -0.206 F 
ATOM     54  C   UNL A   1      35.546  32.650  28.966  1.00  0.00     0.059 A 
ATOM     55  C   UNL A   1      35.081  32.855  31.327  1.00  0.00     0.059 A 
ATOM     56  F   UNL A   1      36.330  31.616  32.875  1.00  0.00    -0.206 F 
ATOM     57  C   UNL A   1      34.844  33.243  30.011  1.00  0.00     0.060 A 
BRANCH  57  58
ATOM     58  S   UNL A   1      33.700  34.584  29.607  1.00  0.00     0.124 S 
ATOM     59  O   UNL A   1      32.731  33.903  28.755  1.00  0.00    -0.237 OA
ATOM     60  O   UNL A   1      33.215  34.979  30.923  1.00  0.00    -0.237 OA
ATOM     61  O   UNL A   1      34.547  35.566  28.932  1.00  0.00    -0.744 OA
ENDBRANCH  57  58
ENDBRANCH  25  50
BRANCH  37  62
ATOM     62  C   UNL A   1      42.054  29.535  33.825  1.00  0.00     0.058 A 
ATOM     63  C   UNL A   1      42.485  29.810  35.131  1.00  0.00     0.135 A 
ATOM     64  C   UNL A   1      41.544  28.245  33.581  1.00  0.00     0.135 A 
ATOM     65  F   UNL A   1      43.028  31.005  35.421  1.00  0.00    -0.206 F 
ATOM     66  C   UNL A   1      42.432  28.856  36.144  1.00  0.00     0.059 A 
ATOM     67  C   UNL A   1      41.449  27.282  34.590  1.00  0.00     0.059 A 
ATOM     68  F   UNL A   1      41.197  27.862  32.345  1.00  0.00    -0.206 F 
ATOM     69  C   UNL A   1      41.914  27.593  35.865  1.00  0.00     0.060 A 
BRANCH  69  70
ATOM     70  S   UNL A   1      41.903  26.365  37.188  1.00  0.00     0.124 S 
ATOM     71  O   UNL A   1      40.565  26.536  37.747  1.00  0.00    -0.237 OA
ATOM     72  O   UNL A   1      42.126  25.119  36.459  1.00  0.00    -0.237 OA
ATOM     73  O   UNL A   1      42.997  26.781  38.060  1.00  0.00    -0.744 OA
ENDBRANCH  69  70
ENDBRANCH  37  62
ENDBRANCH  11  12
ENDBRANCH   4   6
ENDBRANCH   1   2
BRANCH   1  74
ATOM     74  C   UNL A   1      38.722  22.901  26.504  1.00  0.00     0.042 C 
BRANCH  74  75
ATOM     75  C   UNL A   1      37.425  23.098  25.724  1.00  0.00     0.118 C 
BRANCH  75  76
ATOM     76  N   UNL A   1      37.576  22.909  24.286  1.00  0.00    -0.351 N 
ATOM     77  C   UNL A   1      36.660  22.986  23.256  1.00  0.00     0.269 C 
ATOM     78  H   UNL A   1      38.491  22.689  23.998  1.00  0.00     0.163 HD
ATOM     79  O   UNL A   1      37.027  22.681  22.121  1.00  0.00    -0.268 OA
BRANCH  77  80
ATOM     80  C   UNL A   1      35.267  23.476  23.490  1.00  0.00     0.129 A 
ATOM     81  C   UNL A   1      34.514  22.981  24.524  1.00  0.00     0.039 A 
ATOM     82  N   UNL A   1      34.833  24.487  22.727  1.00  0.00    -0.243 NA
ATOM     83  C   UNL A   1      33.198  23.452  24.757  1.00  0.00    -0.021 A 
ATOM     84  C   UNL A   1      33.620  25.004  22.963  1.00  0.00     0.072 A 
ATOM     85  C   UNL A   1      32.695  24.558  23.960  1.00  0.00     0.012 A 
ATOM     86  C   UNL A   1      33.332  26.075  22.146  1.00  0.00     0.029 A 
ATOM     87  C   UNL A   1      31.425  25.316  24.050  1.00  0.00    -0.009 A 
ATOM     88  C   UNL A   1      32.142  26.778  22.240  1.00  0.00     0.011 A 
ATOM     89  C   UNL A   1      31.187  26.415  23.175  1.00  0.00    -0.018 A 
ATOM     90  C   UNL A   1      30.365  25.084  24.956  1.00  0.00     0.009 A 
ATOM     91  C   UNL A   1      30.001  27.175  23.224  1.00  0.00     0.009 A 
ATOM     92  C   UNL A   1      29.181  25.833  25.005  1.00  0.00     0.001 A 
ATOM     93  C   UNL A   1      28.997  26.884  24.135  1.00  0.00     0.001 A 
BRANCH  83  94
ATOM     94  C   UNL A   1      32.558  22.716  25.914  1.00  0.00     0.115 C 
ATOM     95  C   UNL A   1      32.567  23.335  27.263  1.00  0.00     0.123 C 
ATOM     96  C   UNL A   1      32.995  21.338  26.294  1.00  0.00     0.083 C 
ATOM     97  N   UNL A   1      32.780  22.467  28.200  1.00  0.00    -0.162 NA
ATOM     98  N   UNL A   1      33.046  21.193  27.587  1.00  0.00    -0.154 NA
BRANCH  96  99
ATOM     99  C   UNL A   1      33.170  20.222  25.340  1.00  0.00    -0.001 A 
ATOM    100  C   UNL A   1      32.201  20.060  24.341  1.00  0.00     0.013 A 
ATOM    101  C   UNL A   1      34.257  19.341  25.389  1.00  0.00     0.013 A 
ATOM    102  C   UNL A   1      32.343  19.057  23.380  1.00  0.00     0.040 A 
ATOM    103  C   UNL A   1      34.401  18.342  24.424  1.00  0.00     0.040 A 
ATOM    104  C   UNL A   1      33.447  18.214  23.425  1.00  0.00     0.123 A 
ATOM    105  F   UNL A   1      33.589  17.259  22.497  1.00  0.00    -0.207 F 
ENDBRANCH  96  99
ENDBRANCH  83  94
ENDBRANCH  77  80
ENDBRANCH  75  76
ENDBRANCH  74  75
ENDBRANCH   1  74
TORSDOF 15
ENDMDL
