MODEL 1
REMARK VINA RESULT:     -11.2      0.000      0.000
REMARK SMILES C[C@H]1C[C@@H]1C(=O)NC[C@@H]1CC[C@H](C(=O)NCCCNC(=O)c2ccc(-c3c4nc(c(-c5c(F)cc(S(=O)(=O)[O-])cc5F)c5ccc([nH]5)c(-c5c(F)cc(S(=O)(=O)[O-])cc5F)c5nc(c(-c6c(F)cc(S(=O)(=O)[O-])cc6F)c6ccc3[nH]6)C=C5)C=C4)cc2)O1
REMARK SMILES IDX 17 1 16 2 15 3 13 4 14 5 12 7 9 8 10 9 88 10 11 11 8 12 7 13
REMARK SMILES IDX 5 14 6 15 4 17 1 18 2 19 3 20 18 21 19 22 20 23 21 25 22 26
REMARK SMILES IDX 23 27 87 28 24 29 86 30 25 31 26 32 27 33 80 34 28 35 85 36
REMARK SMILES IDX 79 37 81 38 29 39 84 40 78 41 77 42 30 44 64 45 43 46 63 47
REMARK SMILES IDX 44 48 47 49 62 50 82 51 45 52 46 53 61 55 83 56 48 57 31 58
REMARK SMILES IDX 32 59 41 60 33 61 34 62 40 63 42 64 35 65 36 66 37 67 38 68
REMARK SMILES IDX 39 69 65 70 66 71 75 72 67 73 68 74 74 75 76 76 69 77 70 78
REMARK SMILES IDX 71 79 72 80 73 81 49 82 50 83 59 84 51 85 52 86 58 87 60 88
REMARK SMILES IDX 53 89 54 90 55 91 56 92 57 93
REMARK H PARENT 15 6 7 16 19 24 81 43 47 54
REMARK Flexibility Score: inf
ROOT
ATOM      1  C   UNL A   1      44.368  22.475  26.703  1.00  0.00     0.042 C 
ENDROOT
BRANCH   1   2
ATOM      2  C   UNL A   1      43.722  21.674  25.583  1.00  0.00     0.117 C 
BRANCH   2   3
ATOM      3  N   UNL A   1      44.295  20.359  25.416  1.00  0.00    -0.354 N 
ATOM      4  C   UNL A   1      43.692  19.145  25.568  1.00  0.00     0.249 C 
ATOM      5  O   UNL A   1      44.337  18.138  25.262  1.00  0.00    -0.272 OA
ATOM      6  H   UNL A   1      45.245  20.336  25.158  1.00  0.00     0.163 HD
BRANCH   4   7
ATOM      7  C   UNL A   1      42.274  19.020  26.172  1.00  0.00     0.207 C 
ATOM      8  C   UNL A   1      40.230  20.118  26.266  1.00  0.00     0.138 C 
ATOM      9  C   UNL A   1      41.035  20.653  27.436  1.00  0.00     0.037 C 
ATOM     10  O   UNL A   1      41.190  19.520  25.378  1.00  0.00    -0.363 OA
ATOM     11  C   UNL A   1      42.173  19.663  27.553  1.00  0.00     0.045 C 
BRANCH   8  12
ATOM     12  C   UNL A   1      39.329  21.130  25.529  1.00  0.00     0.147 C 
BRANCH  12  13
ATOM     13  N   UNL A   1      39.286  22.466  26.108  1.00  0.00    -0.353 N 
ATOM     14  C   UNL A   1      38.242  23.331  26.266  1.00  0.00     0.223 C 
ATOM     15  O   UNL A   1      38.432  24.395  26.847  1.00  0.00    -0.275 OA
ATOM     16  H   UNL A   1      40.151  22.799  26.440  1.00  0.00     0.163 HD
BRANCH  14  17
ATOM     17  C   UNL A   1      36.903  22.997  25.710  1.00  0.00     0.081 C 
ATOM     18  C   UNL A   1      35.698  22.843  23.379  1.00  0.00     0.008 C 
ATOM     19  C   UNL A   1      36.470  23.625  24.388  1.00  0.00    -0.001 C 
ATOM     20  C   UNL A   1      35.818  24.044  25.678  1.00  0.00     0.018 C 
ENDBRANCH  14  17
ENDBRANCH  12  13
ENDBRANCH   8  12
ENDBRANCH   4   7
ENDBRANCH   2   3
ENDBRANCH   1   2
BRANCH   1  21
ATOM     21  C   UNL A   1      43.542  23.686  27.102  1.00  0.00     0.118 C 
BRANCH  21  22
ATOM     22  N   UNL A   1      42.735  24.206  26.004  1.00  0.00    -0.352 N 
ATOM     23  C   UNL A   1      41.930  25.317  25.952  1.00  0.00     0.251 C 
ATOM     24  H   UNL A   1      42.774  23.681  25.172  1.00  0.00     0.163 HD
ATOM     25  O   UNL A   1      41.292  25.570  24.933  1.00  0.00    -0.269 OA
BRANCH  23  26
ATOM     26  C   UNL A   1      41.803  26.189  27.136  1.00  0.00     0.039 A 
ATOM     27  C   UNL A   1      42.573  27.354  27.196  1.00  0.00     0.014 A 
ATOM     28  C   UNL A   1      40.918  25.875  28.168  1.00  0.00     0.014 A 
ATOM     29  C   UNL A   1      42.416  28.230  28.269  1.00  0.00     0.010 A 
ATOM     30  C   UNL A   1      40.695  26.792  29.186  1.00  0.00     0.010 A 
ATOM     31  C   UNL A   1      41.453  27.970  29.256  1.00  0.00    -0.014 A 
BRANCH  31  32
ATOM     32  C   UNL A   1      41.238  28.894  30.397  1.00  0.00     0.031 A 
ATOM     33  C   UNL A   1      42.091  28.758  31.629  1.00  0.00     0.074 A 
ATOM     34  C   UNL A   1      40.227  29.784  30.358  1.00  0.00     0.049 A 
ATOM     35  N   UNL A   1      41.989  29.373  32.777  1.00  0.00    -0.248 NA
ATOM     36  C   UNL A   1      43.181  27.768  31.574  1.00  0.00     0.031 C 
ATOM     37  C   UNL A   1      39.300  29.965  29.239  1.00  0.00     0.029 A 
ATOM     38  N   UNL A   1      39.798  30.689  31.294  1.00  0.00    -0.354 N 
ATOM     39  C   UNL A   1      42.975  28.822  33.589  1.00  0.00     0.074 A 
ATOM     40  C   UNL A   1      43.630  27.789  32.819  1.00  0.00     0.031 C 
ATOM     41  C   UNL A   1      38.422  30.933  29.548  1.00  0.00     0.029 A 
ATOM     42  C   UNL A   1      38.698  31.413  30.898  1.00  0.00     0.049 A 
ATOM     43  H   UNL A   1      40.237  30.811  32.167  1.00  0.00     0.167 HD
ATOM     44  C   UNL A   1      43.317  29.164  34.854  1.00  0.00     0.037 A 
ATOM     45  C   UNL A   1      37.985  32.348  31.556  1.00  0.00     0.037 A 
ATOM     46  C   UNL A   1      42.687  30.227  35.590  1.00  0.00     0.049 A 
ATOM     47  C   UNL A   1      38.408  32.739  32.945  1.00  0.00     0.074 A 
ATOM     48  C   UNL A   1      43.007  30.711  36.846  1.00  0.00     0.029 A 
ATOM     49  N   UNL A   1      41.609  30.972  35.136  1.00  0.00    -0.354 N 
ATOM     50  N   UNL A   1      39.384  32.255  33.676  1.00  0.00    -0.248 NA
ATOM     51  C   UNL A   1      37.640  33.809  33.598  1.00  0.00     0.031 C 
ATOM     52  C   UNL A   1      42.097  31.723  37.167  1.00  0.00     0.029 A 
ATOM     53  C   UNL A   1      41.239  31.902  36.092  1.00  0.00     0.049 A 
ATOM     54  H   UNL A   1      41.171  30.857  34.262  1.00  0.00     0.167 HD
ATOM     55  C   UNL A   1      39.362  32.975  34.866  1.00  0.00     0.074 A 
ATOM     56  C   UNL A   1      38.284  33.935  34.751  1.00  0.00     0.031 C 
ATOM     57  C   UNL A   1      40.163  32.852  35.954  1.00  0.00     0.037 A 
BRANCH  44  58
ATOM     58  C   UNL A   1      44.421  28.382  35.511  1.00  0.00     0.058 A 
ATOM     59  C   UNL A   1      45.769  28.755  35.387  1.00  0.00     0.135 A 
ATOM     60  C   UNL A   1      44.126  27.251  36.289  1.00  0.00     0.135 A 
ATOM     61  F   UNL A   1      46.111  29.819  34.642  1.00  0.00    -0.206 F 
ATOM     62  C   UNL A   1      46.788  28.015  35.978  1.00  0.00     0.059 A 
ATOM     63  C   UNL A   1      45.127  26.512  36.915  1.00  0.00     0.059 A 
ATOM     64  F   UNL A   1      42.855  26.847  36.442  1.00  0.00    -0.206 F 
ATOM     65  C   UNL A   1      46.457  26.893  36.738  1.00  0.00     0.060 A 
BRANCH  65  66
ATOM     66  S   UNL A   1      47.789  25.939  37.496  1.00  0.00     0.124 S 
ATOM     67  O   UNL A   1      48.932  26.336  36.679  1.00  0.00    -0.237 OA
ATOM     68  O   UNL A   1      47.789  26.437  38.868  1.00  0.00    -0.237 OA
ATOM     69  O   UNL A   1      47.352  24.556  37.335  1.00  0.00    -0.744 OA
ENDBRANCH  65  66
ENDBRANCH  44  58
BRANCH  45  70
ATOM     70  C   UNL A   1      36.820  32.991  30.893  1.00  0.00     0.058 A 
ATOM     71  C   UNL A   1      35.508  32.678  31.278  1.00  0.00     0.135 A 
ATOM     72  C   UNL A   1      36.994  33.957  29.891  1.00  0.00     0.135 A 
ATOM     73  F   UNL A   1      35.290  31.756  32.228  1.00  0.00    -0.206 F 
ATOM     74  C   UNL A   1      34.408  33.293  30.688  1.00  0.00     0.059 A 
ATOM     75  C   UNL A   1      35.912  34.603  29.301  1.00  0.00     0.059 A 
ATOM     76  F   UNL A   1      38.229  34.305  29.499  1.00  0.00    -0.206 F 
ATOM     77  C   UNL A   1      34.621  34.259  29.704  1.00  0.00     0.060 A 
BRANCH  77  78
ATOM     78  S   UNL A   1      33.190  35.102  28.992  1.00  0.00     0.124 S 
ATOM     79  O   UNL A   1      32.353  35.304  30.168  1.00  0.00    -0.237 OA
ATOM     80  O   UNL A   1      33.793  36.303  28.422  1.00  0.00    -0.237 OA
ATOM     81  O   UNL A   1      32.687  34.141  28.015  1.00  0.00    -0.744 OA
ENDBRANCH  77  78
ENDBRANCH  45  70
BRANCH  57  82
ATOM     82  C   UNL A   1      39.921  33.798  37.097  1.00  0.00     0.058 A 
ATOM     83  C   UNL A   1      40.486  35.082  37.122  1.00  0.00     0.135 A 
ATOM     84  C   UNL A   1      39.065  33.434  38.149  1.00  0.00     0.135 A 
ATOM     85  F   UNL A   1      41.316  35.474  36.142  1.00  0.00    -0.206 F 
ATOM     86  C   UNL A   1      40.227  35.966  38.163  1.00  0.00     0.059 A 
ATOM     87  C   UNL A   1      38.771  34.312  39.186  1.00  0.00     0.059 A 
ATOM     88  F   UNL A   1      38.490  32.221  38.165  1.00  0.00    -0.206 F 
ATOM     89  C   UNL A   1      39.367  35.573  39.190  1.00  0.00     0.060 A 
BRANCH  89  90
ATOM     90  S   UNL A   1      39.011  36.744  40.517  1.00  0.00     0.124 S 
ATOM     91  O   UNL A   1      40.327  36.908  41.124  1.00  0.00    -0.237 OA
ATOM     92  O   UNL A   1      38.499  37.899  39.786  1.00  0.00    -0.237 OA
ATOM     93  O   UNL A   1      38.026  36.041  41.335  1.00  0.00    -0.744 OA
ENDBRANCH  89  90
ENDBRANCH  57  82
ENDBRANCH  31  32
ENDBRANCH  23  26
ENDBRANCH  21  22
ENDBRANCH   1  21
TORSDOF 16
ENDMDL
MODEL 2
REMARK VINA RESULT:     -11.1      4.789     12.429
REMARK SMILES C[C@H]1C[C@@H]1C(=O)NC[C@@H]1CC[C@H](C(=O)NCCCNC(=O)c2ccc(-c3c4nc(c(-c5c(F)cc(S(=O)(=O)[O-])cc5F)c5ccc([nH]5)c(-c5c(F)cc(S(=O)(=O)[O-])cc5F)c5nc(c(-c6c(F)cc(S(=O)(=O)[O-])cc6F)c6ccc3[nH]6)C=C5)C=C4)cc2)O1
REMARK SMILES IDX 17 1 16 2 15 3 13 4 14 5 12 7 9 8 10 9 88 10 11 11 8 12 7 13
REMARK SMILES IDX 5 14 6 15 4 17 1 18 2 19 3 20 18 21 19 22 20 23 21 25 22 26
REMARK SMILES IDX 23 27 87 28 24 29 86 30 25 31 26 32 27 33 80 34 28 35 85 36
REMARK SMILES IDX 79 37 81 38 29 39 84 40 78 41 77 42 30 44 64 45 43 46 63 47
REMARK SMILES IDX 44 48 47 49 62 50 82 51 45 52 46 53 61 55 83 56 48 57 31 58
REMARK SMILES IDX 32 59 41 60 33 61 34 62 40 63 42 64 35 65 36 66 37 67 38 68
REMARK SMILES IDX 39 69 65 70 66 71 75 72 67 73 68 74 74 75 76 76 69 77 70 78
REMARK SMILES IDX 71 79 72 80 73 81 49 82 50 83 59 84 51 85 52 86 58 87 60 88
REMARK SMILES IDX 53 89 54 90 55 91 56 92 57 93
REMARK H PARENT 15 6 7 16 19 24 81 43 47 54
REMARK Flexibility Score: inf
ROOT
ATOM      1  C   UNL A   1      35.732  33.455  28.846  1.00  0.00     0.042 C 
ENDROOT
BRANCH   1   2
ATOM      2  C   UNL A   1      37.220  33.143  28.794  1.00  0.00     0.117 C 
BRANCH   2   3
ATOM      3  N   UNL A   1      38.055  34.295  29.041  1.00  0.00    -0.354 N 
ATOM      4  C   UNL A   1      38.767  34.601  30.164  1.00  0.00     0.249 C 
ATOM      5  O   UNL A   1      39.514  35.584  30.123  1.00  0.00    -0.272 OA
ATOM      6  H   UNL A   1      38.120  34.942  28.303  1.00  0.00     0.163 HD
BRANCH   4   7
ATOM      7  C   UNL A   1      38.597  33.793  31.471  1.00  0.00     0.207 C 
ATOM      8  C   UNL A   1      37.517  33.857  33.525  1.00  0.00     0.138 C 
ATOM      9  C   UNL A   1      38.849  34.550  33.744  1.00  0.00     0.037 C 
ATOM     10  O   UNL A   1      37.311  33.853  32.102  1.00  0.00    -0.363 OA
ATOM     11  C   UNL A   1      39.646  34.158  32.519  1.00  0.00     0.045 C 
BRANCH   8  12
ATOM     12  C   UNL A   1      36.303  34.446  34.272  1.00  0.00     0.147 C 
BRANCH  12  13
ATOM     13  N   UNL A   1      35.054  33.714  34.112  1.00  0.00    -0.353 N 
ATOM     14  C   UNL A   1      34.019  33.907  33.242  1.00  0.00     0.223 C 
ATOM     15  O   UNL A   1      33.082  33.114  33.247  1.00  0.00    -0.275 OA
ATOM     16  H   UNL A   1      34.938  32.957  34.730  1.00  0.00     0.163 HD
BRANCH  14  17
ATOM     17  C   UNL A   1      34.017  35.080  32.328  1.00  0.00     0.081 C 
ATOM     18  C   UNL A   1      33.904  37.703  32.458  1.00  0.00     0.008 C 
ATOM     19  C   UNL A   1      33.323  36.365  32.772  1.00  0.00    -0.001 C 
ATOM     20  C   UNL A   1      32.733  35.523  31.673  1.00  0.00     0.018 C 
ENDBRANCH  14  17
ENDBRANCH  12  13
ENDBRANCH   8  12
ENDBRANCH   4   7
ENDBRANCH   2   3
ENDBRANCH   1   2
BRANCH   1  21
ATOM     21  C   UNL A   1      34.944  32.404  29.608  1.00  0.00     0.118 C 
BRANCH  21  22
ATOM     22  N   UNL A   1      34.244  31.474  28.729  1.00  0.00    -0.352 N 
ATOM     23  C   UNL A   1      34.690  30.320  28.134  1.00  0.00     0.251 C 
ATOM     24  H   UNL A   1      33.309  31.710  28.532  1.00  0.00     0.163 HD
ATOM     25  O   UNL A   1      33.951  29.687  27.385  1.00  0.00    -0.269 OA
BRANCH  23  26
ATOM     26  C   UNL A   1      36.073  29.860  28.368  1.00  0.00     0.039 A 
ATOM     27  C   UNL A   1      37.003  29.978  27.331  1.00  0.00     0.014 A 
ATOM     28  C   UNL A   1      36.457  29.337  29.603  1.00  0.00     0.014 A 
ATOM     29  C   UNL A   1      38.332  29.619  27.552  1.00  0.00     0.010 A 
ATOM     30  C   UNL A   1      37.797  29.069  29.850  1.00  0.00     0.010 A 
ATOM     31  C   UNL A   1      38.744  29.191  28.823  1.00  0.00    -0.014 A 
BRANCH  31  32
ATOM     32  C   UNL A   1      40.155  28.828  29.103  1.00  0.00     0.031 A 
ATOM     33  C   UNL A   1      41.079  29.856  29.696  1.00  0.00     0.074 A 
ATOM     34  C   UNL A   1      40.620  27.616  28.743  1.00  0.00     0.049 A 
ATOM     35  N   UNL A   1      42.368  29.790  29.902  1.00  0.00    -0.248 NA
ATOM     36  C   UNL A   1      40.479  31.148  30.071  1.00  0.00     0.031 C 
ATOM     37  C   UNL A   1      39.829  26.559  28.108  1.00  0.00     0.029 A 
ATOM     38  N   UNL A   1      41.876  27.075  28.842  1.00  0.00    -0.354 N 
ATOM     39  C   UNL A   1      42.736  31.036  30.397  1.00  0.00     0.074 A 
ATOM     40  C   UNL A   1      41.545  31.855  30.411  1.00  0.00     0.031 C 
ATOM     41  C   UNL A   1      40.615  25.493  27.889  1.00  0.00     0.029 A 
ATOM     42  C   UNL A   1      41.971  25.803  28.330  1.00  0.00     0.049 A 
ATOM     43  H   UNL A   1      42.638  27.553  29.242  1.00  0.00     0.167 HD
ATOM     44  C   UNL A   1      43.953  31.452  30.821  1.00  0.00     0.037 A 
ATOM     45  C   UNL A   1      43.036  24.984  28.218  1.00  0.00     0.037 A 
ATOM     46  C   UNL A   1      45.119  30.609  30.845  1.00  0.00     0.049 A 
ATOM     47  C   UNL A   1      44.369  25.452  28.732  1.00  0.00     0.074 A 
ATOM     48  C   UNL A   1      46.382  30.901  31.329  1.00  0.00     0.029 A 
ATOM     49  N   UNL A   1      45.164  29.308  30.365  1.00  0.00    -0.354 N 
ATOM     50  N   UNL A   1      44.688  26.611  29.258  1.00  0.00    -0.248 NA
ATOM     51  C   UNL A   1      45.486  24.501  28.647  1.00  0.00     0.031 C 
ATOM     52  C   UNL A   1      47.201  29.789  31.106  1.00  0.00     0.029 A 
ATOM     53  C   UNL A   1      46.436  28.788  30.525  1.00  0.00     0.049 A 
ATOM     54  H   UNL A   1      44.403  28.825  29.969  1.00  0.00     0.167 HD
ATOM     55  C   UNL A   1      46.036  26.522  29.586  1.00  0.00     0.074 A 
ATOM     56  C   UNL A   1      46.468  25.191  29.211  1.00  0.00     0.031 C 
ATOM     57  C   UNL A   1      46.843  27.457  30.148  1.00  0.00     0.037 A 
BRANCH  44  58
ATOM     58  C   UNL A   1      44.077  32.873  31.294  1.00  0.00     0.058 A 
ATOM     59  C   UNL A   1      43.794  33.241  32.619  1.00  0.00     0.135 A 
ATOM     60  C   UNL A   1      44.499  33.882  30.412  1.00  0.00     0.135 A 
ATOM     61  F   UNL A   1      43.371  32.321  33.501  1.00  0.00    -0.206 F 
ATOM     62  C   UNL A   1      43.888  34.562  33.045  1.00  0.00     0.059 A 
ATOM     63  C   UNL A   1      44.629  35.206  30.825  1.00  0.00     0.059 A 
ATOM     64  F   UNL A   1      44.783  33.589  29.134  1.00  0.00    -0.206 F 
ATOM     65  C   UNL A   1      44.303  35.538  32.139  1.00  0.00     0.060 A 
BRANCH  65  66
ATOM     66  S   UNL A   1      44.417  37.249  32.705  1.00  0.00     0.124 S 
ATOM     67  O   UNL A   1      44.607  37.959  31.443  1.00  0.00    -0.237 OA
ATOM     68  O   UNL A   1      43.126  37.450  33.355  1.00  0.00    -0.237 OA
ATOM     69  O   UNL A   1      45.570  37.237  33.599  1.00  0.00    -0.744 OA
ENDBRANCH  65  66
ENDBRANCH  44  58
BRANCH  45  70
ATOM     70  C   UNL A   1      42.869  23.634  27.617  1.00  0.00     0.058 A 
ATOM     71  C   UNL A   1      43.075  23.424  26.246  1.00  0.00     0.135 A 
ATOM     72  C   UNL A   1      42.539  22.522  28.407  1.00  0.00     0.135 A 
ATOM     73  F   UNL A   1      43.387  24.457  25.449  1.00  0.00    -0.206 F 
ATOM     74  C   UNL A   1      42.953  22.161  25.675  1.00  0.00     0.059 A 
ATOM     75  C   UNL A   1      42.434  21.245  27.864  1.00  0.00     0.059 A 
ATOM     76  F   UNL A   1      42.349  22.666  29.727  1.00  0.00    -0.206 F 
ATOM     77  C   UNL A   1      42.637  21.076  26.495  1.00  0.00     0.060 A 
BRANCH  77  78
ATOM     78  S   UNL A   1      42.548  19.429  25.756  1.00  0.00     0.124 S 
ATOM     79  O   UNL A   1      43.496  19.549  24.655  1.00  0.00    -0.237 OA
ATOM     80  O   UNL A   1      42.960  18.573  26.864  1.00  0.00    -0.237 OA
ATOM     81  O   UNL A   1      41.145  19.309  25.373  1.00  0.00    -0.744 OA
ENDBRANCH  77  78
ENDBRANCH  45  70
BRANCH  57  82
ATOM     82  C   UNL A   1      48.269  27.063  30.418  1.00  0.00     0.058 A 
ATOM     83  C   UNL A   1      49.298  27.359  29.512  1.00  0.00     0.135 A 
ATOM     84  C   UNL A   1      48.615  26.437  31.626  1.00  0.00     0.135 A 
ATOM     85  F   UNL A   1      49.017  27.953  28.340  1.00  0.00    -0.206 F 
ATOM     86  C   UNL A   1      50.620  27.028  29.785  1.00  0.00     0.059 A 
ATOM     87  C   UNL A   1      49.933  26.120  31.931  1.00  0.00     0.059 A 
ATOM     88  F   UNL A   1      47.667  26.142  32.531  1.00  0.00    -0.206 F 
ATOM     89  C   UNL A   1      50.929  26.409  30.998  1.00  0.00     0.060 A 
BRANCH  89  90
ATOM     90  S   UNL A   1      52.654  26.017  31.355  1.00  0.00     0.124 S 
ATOM     91  O   UNL A   1      53.042  27.144  32.198  1.00  0.00    -0.237 OA
ATOM     92  O   UNL A   1      52.549  24.726  32.028  1.00  0.00    -0.237 OA
ATOM     93  O   UNL A   1      53.274  25.980  30.034  1.00  0.00    -0.744 OA
ENDBRANCH  89  90
ENDBRANCH  57  82
ENDBRANCH  31  32
ENDBRANCH  23  26
ENDBRANCH  21  22
ENDBRANCH   1  21
TORSDOF 16
ENDMDL
MODEL 3
REMARK VINA RESULT:     -11.0      4.828     12.403
REMARK SMILES C[C@H]1C[C@@H]1C(=O)NC[C@@H]1CC[C@H](C(=O)NCCCNC(=O)c2ccc(-c3c4nc(c(-c5c(F)cc(S(=O)(=O)[O-])cc5F)c5ccc([nH]5)c(-c5c(F)cc(S(=O)(=O)[O-])cc5F)c5nc(c(-c6c(F)cc(S(=O)(=O)[O-])cc6F)c6ccc3[nH]6)C=C5)C=C4)cc2)O1
REMARK SMILES IDX 17 1 16 2 15 3 13 4 14 5 12 7 9 8 10 9 88 10 11 11 8 12 7 13
REMARK SMILES IDX 5 14 6 15 4 17 1 18 2 19 3 20 18 21 19 22 20 23 21 25 22 26
REMARK SMILES IDX 23 27 87 28 24 29 86 30 25 31 26 32 27 33 80 34 28 35 85 36
REMARK SMILES IDX 79 37 81 38 29 39 84 40 78 41 77 42 30 44 64 45 43 46 63 47
REMARK SMILES IDX 44 48 47 49 62 50 82 51 45 52 46 53 61 55 83 56 48 57 31 58
REMARK SMILES IDX 32 59 41 60 33 61 34 62 40 63 42 64 35 65 36 66 37 67 38 68
REMARK SMILES IDX 39 69 65 70 66 71 75 72 67 73 68 74 74 75 76 76 69 77 70 78
REMARK SMILES IDX 71 79 72 80 73 81 49 82 50 83 59 84 51 85 52 86 58 87 60 88
REMARK SMILES IDX 53 89 54 90 55 91 56 92 57 93
REMARK H PARENT 15 6 7 16 19 24 81 43 47 54
REMARK Flexibility Score: inf
ROOT
ATOM      1  C   UNL A   1      34.130  33.647  28.442  1.00  0.00     0.042 C 
ENDROOT
BRANCH   1   2
ATOM      2  C   UNL A   1      34.296  34.806  29.412  1.00  0.00     0.117 C 
BRANCH   2   3
ATOM      3  N   UNL A   1      33.318  34.807  30.475  1.00  0.00    -0.354 N 
ATOM      4  C   UNL A   1      33.517  35.000  31.811  1.00  0.00     0.249 C 
ATOM      5  O   UNL A   1      32.521  35.077  32.537  1.00  0.00    -0.272 OA
ATOM      6  H   UNL A   1      32.387  34.649  30.200  1.00  0.00     0.163 HD
BRANCH   4   7
ATOM      7  C   UNL A   1      34.940  35.050  32.415  1.00  0.00     0.207 C 
ATOM      8  C   UNL A   1      36.681  33.671  33.092  1.00  0.00     0.138 C 
ATOM      9  C   UNL A   1      35.803  33.851  34.317  1.00  0.00     0.037 C 
ATOM     10  O   UNL A   1      35.863  34.046  31.971  1.00  0.00    -0.363 OA
ATOM     11  C   UNL A   1      34.924  35.024  33.941  1.00  0.00     0.045 C 
BRANCH   8  12
ATOM     12  C   UNL A   1      37.310  32.277  32.895  1.00  0.00     0.147 C 
BRANCH  12  13
ATOM     13  N   UNL A   1      37.429  31.468  34.100  1.00  0.00    -0.353 N 
ATOM     14  C   UNL A   1      38.393  30.579  34.479  1.00  0.00     0.223 C 
ATOM     15  O   UNL A   1      38.316  30.052  35.585  1.00  0.00    -0.275 OA
ATOM     16  H   UNL A   1      36.696  31.582  34.746  1.00  0.00     0.163 HD
BRANCH  14  17
ATOM     17  C   UNL A   1      39.500  30.232  33.547  1.00  0.00     0.081 C 
ATOM     18  C   UNL A   1      41.372  28.409  33.274  1.00  0.00     0.008 C 
ATOM     19  C   UNL A   1      40.710  29.472  34.083  1.00  0.00    -0.001 C 
ATOM     20  C   UNL A   1      40.837  30.916  33.679  1.00  0.00     0.018 C 
ENDBRANCH  14  17
ENDBRANCH  12  13
ENDBRANCH   8  12
ENDBRANCH   4   7
ENDBRANCH   2   3
ENDBRANCH   1   2
BRANCH   1  21
ATOM     21  C   UNL A   1      34.527  32.315  29.055  1.00  0.00     0.118 C 
BRANCH  21  22
ATOM     22  N   UNL A   1      33.980  31.174  28.330  1.00  0.00    -0.352 N 
ATOM     23  C   UNL A   1      34.589  30.009  27.931  1.00  0.00     0.251 C 
ATOM     24  H   UNL A   1      33.028  31.249  28.090  1.00  0.00     0.163 HD
ATOM     25  O   UNL A   1      33.961  29.174  27.286  1.00  0.00    -0.269 OA
BRANCH  23  26
ATOM     26  C   UNL A   1      36.012  29.779  28.246  1.00  0.00     0.039 A 
ATOM     27  C   UNL A   1      36.350  29.320  29.522  1.00  0.00     0.014 A 
ATOM     28  C   UNL A   1      37.005  29.992  27.288  1.00  0.00     0.014 A 
ATOM     29  C   UNL A   1      37.680  29.025  29.819  1.00  0.00     0.010 A 
ATOM     30  C   UNL A   1      38.312  29.610  27.555  1.00  0.00     0.010 A 
ATOM     31  C   UNL A   1      38.666  29.139  28.828  1.00  0.00    -0.014 A 
BRANCH  31  32
ATOM     32  C   UNL A   1      40.087  28.807  29.099  1.00  0.00     0.031 A 
ATOM     33  C   UNL A   1      40.999  29.865  29.658  1.00  0.00     0.074 A 
ATOM     34  C   UNL A   1      40.568  27.595  28.763  1.00  0.00     0.049 A 
ATOM     35  N   UNL A   1      42.291  29.826  29.850  1.00  0.00    -0.248 NA
ATOM     36  C   UNL A   1      40.380  31.155  30.010  1.00  0.00     0.031 C 
ATOM     37  C   UNL A   1      39.789  26.510  28.163  1.00  0.00     0.029 A 
ATOM     38  N   UNL A   1      41.835  27.078  28.860  1.00  0.00    -0.354 N 
ATOM     39  C   UNL A   1      42.642  31.089  30.311  1.00  0.00     0.074 A 
ATOM     40  C   UNL A   1      41.438  31.888  30.320  1.00  0.00     0.031 C 
ATOM     41  C   UNL A   1      40.591  25.453  27.959  1.00  0.00     0.029 A 
ATOM     42  C   UNL A   1      41.946  25.796  28.377  1.00  0.00     0.049 A 
ATOM     43  H   UNL A   1      42.593  27.578  29.240  1.00  0.00     0.167 HD
ATOM     44  C   UNL A   1      43.856  31.535  30.711  1.00  0.00     0.037 A 
ATOM     45  C   UNL A   1      43.024  24.994  28.271  1.00  0.00     0.037 A 
ATOM     46  C   UNL A   1      45.038  30.714  30.741  1.00  0.00     0.049 A 
ATOM     47  C   UNL A   1      44.354  25.496  28.759  1.00  0.00     0.074 A 
ATOM     48  C   UNL A   1      46.300  31.039  31.203  1.00  0.00     0.029 A 
ATOM     49  N   UNL A   1      45.100  29.403  30.292  1.00  0.00    -0.354 N 
ATOM     50  N   UNL A   1      44.659  26.673  29.253  1.00  0.00    -0.248 NA
ATOM     51  C   UNL A   1      45.487  24.563  28.683  1.00  0.00     0.031 C 
ATOM     52  C   UNL A   1      47.136  29.937  30.997  1.00  0.00     0.029 A 
ATOM     53  C   UNL A   1      46.383  28.909  30.450  1.00  0.00     0.049 A 
ATOM     54  H   UNL A   1      44.343  28.898  29.917  1.00  0.00     0.167 HD
ATOM     55  C   UNL A   1      46.012  26.615  29.568  1.00  0.00     0.074 A 
ATOM     56  C   UNL A   1      46.463  25.283  29.220  1.00  0.00     0.031 C 
ATOM     57  C   UNL A   1      46.809  27.576  30.099  1.00  0.00     0.037 A 
BRANCH  44  58
ATOM     58  C   UNL A   1      43.961  32.970  31.149  1.00  0.00     0.058 A 
ATOM     59  C   UNL A   1      44.077  34.021  30.225  1.00  0.00     0.135 A 
ATOM     60  C   UNL A   1      43.931  33.302  32.513  1.00  0.00     0.135 A 
ATOM     61  F   UNL A   1      44.128  33.761  28.908  1.00  0.00    -0.206 F 
ATOM     62  C   UNL A   1      44.197  35.344  30.636  1.00  0.00     0.059 A 
ATOM     63  C   UNL A   1      44.020  34.623  32.947  1.00  0.00     0.059 A 
ATOM     64  F   UNL A   1      43.822  32.339  33.442  1.00  0.00    -0.206 F 
ATOM     65  C   UNL A   1      44.171  35.635  32.000  1.00  0.00     0.060 A 
BRANCH  65  66
ATOM     66  S   UNL A   1      44.332  37.356  32.520  1.00  0.00     0.124 S 
ATOM     67  O   UNL A   1      45.684  37.368  33.069  1.00  0.00    -0.237 OA
ATOM     68  O   UNL A   1      44.152  38.080  31.266  1.00  0.00    -0.237 OA
ATOM     69  O   UNL A   1      43.257  37.520  33.494  1.00  0.00    -0.744 OA
ENDBRANCH  65  66
ENDBRANCH  44  58
BRANCH  45  70
ATOM     70  C   UNL A   1      42.874  23.627  27.705  1.00  0.00     0.058 A 
ATOM     71  C   UNL A   1      42.592  22.530  28.533  1.00  0.00     0.135 A 
ATOM     72  C   UNL A   1      42.968  23.397  26.324  1.00  0.00     0.135 A 
ATOM     73  F   UNL A   1      42.498  22.699  29.861  1.00  0.00    -0.206 F 
ATOM     74  C   UNL A   1      42.419  21.251  28.015  1.00  0.00     0.059 A 
ATOM     75  C   UNL A   1      42.776  22.130  25.779  1.00  0.00     0.059 A 
ATOM     76  F   UNL A   1      43.217  24.415  25.487  1.00  0.00    -0.206 F 
ATOM     77  C   UNL A   1      42.507  21.062  26.634  1.00  0.00     0.060 A 
BRANCH  77  78
ATOM     78  S   UNL A   1      42.213  19.410  25.964  1.00  0.00     0.124 S 
ATOM     79  O   UNL A   1      40.764  19.412  25.803  1.00  0.00    -0.237 OA
ATOM     80  O   UNL A   1      42.993  19.435  24.731  1.00  0.00    -0.237 OA
ATOM     81  O   UNL A   1      42.732  18.529  27.006  1.00  0.00    -0.744 OA
ENDBRANCH  77  78
ENDBRANCH  45  70
BRANCH  57  82
ATOM     82  C   UNL A   1      48.244  27.214  30.361  1.00  0.00     0.058 A 
ATOM     83  C   UNL A   1      49.255  27.493  29.430  1.00  0.00     0.135 A 
ATOM     84  C   UNL A   1      48.617  26.637  31.585  1.00  0.00     0.135 A 
ATOM     85  F   UNL A   1      48.948  28.040  28.242  1.00  0.00    -0.206 F 
ATOM     86  C   UNL A   1      50.586  27.191  29.694  1.00  0.00     0.059 A 
ATOM     87  C   UNL A   1      49.944  26.350  31.882  1.00  0.00     0.059 A 
ATOM     88  F   UNL A   1      47.687  26.361  32.514  1.00  0.00    -0.206 F 
ATOM     89  C   UNL A   1      50.922  26.621  30.924  1.00  0.00     0.060 A 
BRANCH  89  90
ATOM     90  S   UNL A   1      52.658  26.268  31.270  1.00  0.00     0.124 S 
ATOM     91  O   UNL A   1      53.229  26.265  29.927  1.00  0.00    -0.237 OA
ATOM     92  O   UNL A   1      53.042  27.388  32.122  1.00  0.00    -0.237 OA
ATOM     93  O   UNL A   1      52.614  24.968  31.935  1.00  0.00    -0.744 OA
ENDBRANCH  89  90
ENDBRANCH  57  82
ENDBRANCH  31  32
ENDBRANCH  23  26
ENDBRANCH  21  22
ENDBRANCH   1  21
TORSDOF 16
ENDMDL
