MODEL 1
REMARK VINA RESULT:     -12.4      0.000      0.000
REMARK SMILES CS(=O)(=O)Nc1cc(C(=O)NCCCNC(=O)c2ccc(-c3c4nc(c(-c5c(F)cc(S(=O)(=O)[O-])cc5F)c5ccc([nH]5)c(-c5c(F)cc(S(=O)(=O)[O-])cc5F)c5nc(c(-c6c(F)cc(S(=O)(=O)[O-])cc6F)c6ccc3[nH]6)C=C5)C=C4)cc2)ccc1N1CC[NH+](CC(=O)N2CCCC2)CC1
REMARK SMILES IDX 13 1 12 2 11 3 9 4 10 5 8 7 6 8 7 9 86 10 85 11 84 12 5 13
REMARK SMILES IDX 2 15 1 16 3 17 4 18 87 19 88 20 100 21 89 22 99 23 90 24
REMARK SMILES IDX 91 26 92 27 93 28 94 29 95 30 98 31 96 32 97 33 14 34 15 35
REMARK SMILES IDX 16 36 17 38 18 39 19 40 83 41 20 42 82 43 21 44 22 45 23 46
REMARK SMILES IDX 76 47 24 48 81 49 75 50 77 51 25 52 80 53 74 54 73 55 26 57
REMARK SMILES IDX 60 58 39 59 59 60 40 61 43 62 58 63 78 64 41 65 42 66 57 68
REMARK SMILES IDX 79 69 44 70 27 71 28 72 37 73 29 74 30 75 36 76 38 77 31 78
REMARK SMILES IDX 32 79 33 80 34 81 35 82 61 83 62 84 71 85 63 86 64 87 70 88
REMARK SMILES IDX 72 89 65 90 66 91 67 92 68 93 69 94 45 95 46 96 55 97 47 98
REMARK SMILES IDX 48 99 54 100 56 101 49 102 50 103 51 104 52 105 53 106
REMARK H PARENT 11 6 5 14 90 25 15 37 77 56 43 67
REMARK Flexibility Score: inf
ROOT
ATOM      1  C   UNL A   1      35.778  32.457  28.013  1.00  0.00     0.042 C 
ENDROOT
BRANCH   1   2
ATOM      2  C   UNL A   1      34.646  31.451  27.873  1.00  0.00     0.118 C 
BRANCH   2   3
ATOM      3  N   UNL A   1      33.345  32.068  27.657  1.00  0.00    -0.352 N 
ATOM      4  C   UNL A   1      32.174  31.599  27.121  1.00  0.00     0.251 C 
ATOM      5  O   UNL A   1      31.242  32.393  26.997  1.00  0.00    -0.269 OA
ATOM      6  H   UNL A   1      33.297  33.005  27.953  1.00  0.00     0.163 HD
BRANCH   4   7
ATOM      7  C   UNL A   1      31.993  30.200  26.652  1.00  0.00     0.042 A 
ATOM      8  C   UNL A   1      31.754  28.692  24.746  1.00  0.00     0.073 A 
ATOM      9  C   UNL A   1      31.881  29.985  25.277  1.00  0.00     0.042 A 
ATOM     10  C   UNL A   1      31.893  27.553  25.585  1.00  0.00     0.062 A 
ATOM     11  C   UNL A   1      31.870  27.807  26.970  1.00  0.00     0.029 A 
ATOM     12  C   UNL A   1      31.879  29.105  27.496  1.00  0.00     0.016 A 
BRANCH   8  13
ATOM     13  N   UNL A   1      31.697  28.669  23.319  1.00  0.00    -0.282 N 
ATOM     14  H   UNL A   1      32.488  28.994  22.831  1.00  0.00     0.180 HD
BRANCH  13  15
ATOM     15  S   UNL A   1      30.411  28.142  22.413  1.00  0.00     0.229 S 
ATOM     16  C   UNL A   1      29.094  27.606  23.489  1.00  0.00     0.183 C 
ATOM     17  O   UNL A   1      30.901  26.986  21.681  1.00  0.00    -0.207 OA
ATOM     18  O   UNL A   1      29.927  29.290  21.676  1.00  0.00    -0.207 OA
ENDBRANCH  13  15
ENDBRANCH   8  13
BRANCH  10  19
ATOM     19  N   UNL A   1      32.074  26.240  25.107  1.00  0.00    -0.359 N 
ATOM     20  C   UNL A   1      31.299  25.112  25.715  1.00  0.00     0.178 C 
ATOM     21  C   UNL A   1      33.468  25.840  24.888  1.00  0.00     0.178 C 
ATOM     22  C   UNL A   1      31.549  23.745  25.005  1.00  0.00     0.284 C 
ATOM     23  C   UNL A   1      33.556  24.608  23.984  1.00  0.00     0.284 C 
ATOM     24  N   UNL A   1      32.919  23.428  24.562  1.00  0.00    -0.324 N 
ATOM     25  H   UNL A   1      32.797  22.726  23.833  1.00  0.00     0.348 HD
BRANCH  24  26
ATOM     26  C   UNL A   1      33.780  22.689  25.503  1.00  0.00     0.363 C 
BRANCH  26  27
ATOM     27  C   UNL A   1      34.606  21.522  24.950  1.00  0.00     0.277 C 
ATOM     28  O   UNL A   1      35.797  21.700  24.676  1.00  0.00    -0.268 OA
ATOM     29  N   UNL A   1      34.025  20.270  24.838  1.00  0.00    -0.338 N 
ATOM     30  C   UNL A   1      32.614  19.890  24.804  1.00  0.00     0.119 C 
ATOM     31  C   UNL A   1      34.871  19.096  24.683  1.00  0.00     0.119 C 
ATOM     32  C   UNL A   1      32.604  18.377  24.937  1.00  0.00     0.023 C 
ATOM     33  C   UNL A   1      33.926  17.965  24.302  1.00  0.00     0.023 C 
ENDBRANCH  26  27
ENDBRANCH  24  26
ENDBRANCH  10  19
ENDBRANCH   4   7
ENDBRANCH   2   3
ENDBRANCH   1   2
BRANCH   1  34
ATOM     34  C   UNL A   1      36.278  32.675  29.432  1.00  0.00     0.118 C 
BRANCH  34  35
ATOM     35  N   UNL A   1      35.911  31.601  30.345  1.00  0.00    -0.352 N 
ATOM     36  C   UNL A   1      36.573  30.441  30.679  1.00  0.00     0.251 C 
ATOM     37  H   UNL A   1      35.046  31.726  30.798  1.00  0.00     0.163 HD
ATOM     38  O   UNL A   1      35.992  29.589  31.346  1.00  0.00    -0.269 OA
BRANCH  36  39
ATOM     39  C   UNL A   1      37.958  30.201  30.215  1.00  0.00     0.039 A 
ATOM     40  C   UNL A   1      38.995  30.149  31.152  1.00  0.00     0.014 A 
ATOM     41  C   UNL A   1      38.242  30.033  28.860  1.00  0.00     0.014 A 
ATOM     42  C   UNL A   1      40.294  29.841  30.735  1.00  0.00     0.010 A 
ATOM     43  C   UNL A   1      39.506  29.611  28.463  1.00  0.00     0.010 A 
ATOM     44  C   UNL A   1      40.552  29.521  29.392  1.00  0.00    -0.014 A 
BRANCH  44  45
ATOM     45  C   UNL A   1      41.902  29.115  28.922  1.00  0.00     0.031 A 
ATOM     46  C   UNL A   1      43.009  30.136  28.849  1.00  0.00     0.074 A 
ATOM     47  C   UNL A   1      42.111  27.862  28.474  1.00  0.00     0.049 A 
ATOM     48  N   UNL A   1      44.218  30.014  28.366  1.00  0.00    -0.248 NA
ATOM     49  C   UNL A   1      42.699  31.484  29.354  1.00  0.00     0.031 C 
ATOM     50  C   UNL A   1      41.112  26.791  28.452  1.00  0.00     0.029 A 
ATOM     51  N   UNL A   1      43.233  27.276  27.943  1.00  0.00    -0.354 N 
ATOM     52  C   UNL A   1      44.799  31.274  28.480  1.00  0.00     0.074 A 
ATOM     53  C   UNL A   1      43.788  32.157  29.017  1.00  0.00     0.031 C 
ATOM     54  C   UNL A   1      41.677  25.670  27.972  1.00  0.00     0.029 A 
ATOM     55  C   UNL A   1      43.061  25.953  27.607  1.00  0.00     0.049 A 
ATOM     56  H   UNL A   1      44.082  27.757  27.815  1.00  0.00     0.167 HD
ATOM     57  C   UNL A   1      46.066  31.655  28.188  1.00  0.00     0.037 A 
ATOM     58  C   UNL A   1      43.920  25.070  27.062  1.00  0.00     0.037 A 
ATOM     59  C   UNL A   1      47.075  30.761  27.684  1.00  0.00     0.049 A 
ATOM     60  C   UNL A   1      45.319  25.516  26.734  1.00  0.00     0.074 A 
ATOM     61  C   UNL A   1      48.407  31.026  27.422  1.00  0.00     0.029 A 
ATOM     62  N   UNL A   1      46.860  29.428  27.363  1.00  0.00    -0.354 N 
ATOM     63  N   UNL A   1      45.871  26.693  26.906  1.00  0.00    -0.248 NA
ATOM     64  C   UNL A   1      46.212  24.513  26.137  1.00  0.00     0.031 C 
ATOM     65  C   UNL A   1      48.986  29.867  26.892  1.00  0.00     0.029 A 
ATOM     66  C   UNL A   1      48.029  28.863  26.880  1.00  0.00     0.049 A 
ATOM     67  H   UNL A   1      46.004  28.954  27.464  1.00  0.00     0.167 HD
ATOM     68  C   UNL A   1      47.187  26.564  26.475  1.00  0.00     0.074 A 
ATOM     69  C   UNL A   1      47.347  25.192  26.034  1.00  0.00     0.031 C 
ATOM     70  C   UNL A   1      48.174  27.493  26.454  1.00  0.00     0.037 A 
BRANCH  57  71
ATOM     71  C   UNL A   1      46.418  33.105  28.399  1.00  0.00     0.058 A 
ATOM     72  C   UNL A   1      46.941  33.573  29.617  1.00  0.00     0.135 A 
ATOM     73  C   UNL A   1      46.216  34.043  27.374  1.00  0.00     0.135 A 
ATOM     74  F   UNL A   1      47.145  32.723  30.637  1.00  0.00    -0.206 F 
ATOM     75  C   UNL A   1      47.195  34.923  29.830  1.00  0.00     0.059 A 
ATOM     76  C   UNL A   1      46.497  35.394  27.553  1.00  0.00     0.059 A 
ATOM     77  F   UNL A   1      45.724  33.654  26.188  1.00  0.00    -0.206 F 
ATOM     78  C   UNL A   1      46.961  35.829  28.794  1.00  0.00     0.060 A 
BRANCH  78  79
ATOM     79  S   UNL A   1      47.256  37.583  29.099  1.00  0.00     0.124 S 
ATOM     80  O   UNL A   1      47.667  37.567  30.501  1.00  0.00    -0.237 OA
ATOM     81  O   UNL A   1      48.304  37.897  28.135  1.00  0.00    -0.237 OA
ATOM     82  O   UNL A   1      45.959  38.197  28.834  1.00  0.00    -0.744 OA
ENDBRANCH  78  79
ENDBRANCH  57  71
BRANCH  58  83
ATOM     83  C   UNL A   1      43.495  23.660  26.846  1.00  0.00     0.058 A 
ATOM     84  C   UNL A   1      43.482  22.749  27.913  1.00  0.00     0.135 A 
ATOM     85  C   UNL A   1      43.066  23.203  25.590  1.00  0.00     0.135 A 
ATOM     86  F   UNL A   1      43.890  23.138  29.130  1.00  0.00    -0.206 F 
ATOM     87  C   UNL A   1      43.062  21.434  27.744  1.00  0.00     0.059 A 
ATOM     88  C   UNL A   1      42.619  21.897  25.403  1.00  0.00     0.059 A 
ATOM     89  F   UNL A   1      43.045  24.038  24.541  1.00  0.00    -0.206 F 
ATOM     90  C   UNL A   1      42.626  21.019  26.485  1.00  0.00     0.060 A 
BRANCH  90  91
ATOM     91  S   UNL A   1      42.021  19.328  26.296  1.00  0.00     0.124 S 
ATOM     92  O   UNL A   1      42.942  18.796  25.299  1.00  0.00    -0.237 OA
ATOM     93  O   UNL A   1      42.168  18.799  27.649  1.00  0.00    -0.237 OA
ATOM     94  O   UNL A   1      40.643  19.513  25.849  1.00  0.00    -0.744 OA
ENDBRANCH  90  91
ENDBRANCH  58  83
BRANCH  70  95
ATOM     95  C   UNL A   1      49.533  27.053  25.981  1.00  0.00     0.058 A 
ATOM     96  C   UNL A   1      50.490  26.526  26.862  1.00  0.00     0.135 A 
ATOM     97  C   UNL A   1      49.853  27.100  24.614  1.00  0.00     0.135 A 
ATOM     98  F   UNL A   1      50.238  26.467  28.178  1.00  0.00    -0.206 F 
ATOM     99  C   UNL A   1      51.725  26.075  26.405  1.00  0.00     0.059 A 
ATOM    100  C   UNL A   1      51.070  26.628  24.132  1.00  0.00     0.059 A 
ATOM    101  F   UNL A   1      48.970  27.587  23.729  1.00  0.00    -0.206 F 
ATOM    102  C   UNL A   1      52.004  26.125  25.038  1.00  0.00     0.060 A 
BRANCH 102 103
ATOM    103  S   UNL A   1      53.590  25.492  24.455  1.00  0.00     0.124 S 
ATOM    104  O   UNL A   1      53.461  24.067  24.739  1.00  0.00    -0.237 OA
ATOM    105  O   UNL A   1      53.573  25.862  23.043  1.00  0.00    -0.237 OA
ATOM    106  O   UNL A   1      54.564  26.210  25.272  1.00  0.00    -0.744 OA
ENDBRANCH 102 103
ENDBRANCH  70  95
ENDBRANCH  44  45
ENDBRANCH  36  39
ENDBRANCH  34  35
ENDBRANCH   1  34
TORSDOF 18
ENDMDL
MODEL 2
REMARK VINA RESULT:     -12.1      6.069     11.895
REMARK SMILES CS(=O)(=O)Nc1cc(C(=O)NCCCNC(=O)c2ccc(-c3c4nc(c(-c5c(F)cc(S(=O)(=O)[O-])cc5F)c5ccc([nH]5)c(-c5c(F)cc(S(=O)(=O)[O-])cc5F)c5nc(c(-c6c(F)cc(S(=O)(=O)[O-])cc6F)c6ccc3[nH]6)C=C5)C=C4)cc2)ccc1N1CC[NH+](CC(=O)N2CCCC2)CC1
REMARK SMILES IDX 13 1 12 2 11 3 9 4 10 5 8 7 6 8 7 9 86 10 85 11 84 12 5 13
REMARK SMILES IDX 2 15 1 16 3 17 4 18 87 19 88 20 100 21 89 22 99 23 90 24
REMARK SMILES IDX 91 26 92 27 93 28 94 29 95 30 98 31 96 32 97 33 14 34 15 35
REMARK SMILES IDX 16 36 17 38 18 39 19 40 83 41 20 42 82 43 21 44 22 45 23 46
REMARK SMILES IDX 76 47 24 48 81 49 75 50 77 51 25 52 80 53 74 54 73 55 26 57
REMARK SMILES IDX 60 58 39 59 59 60 40 61 43 62 58 63 78 64 41 65 42 66 57 68
REMARK SMILES IDX 79 69 44 70 27 71 28 72 37 73 29 74 30 75 36 76 38 77 31 78
REMARK SMILES IDX 32 79 33 80 34 81 35 82 61 83 62 84 71 85 63 86 64 87 70 88
REMARK SMILES IDX 72 89 65 90 66 91 67 92 68 93 69 94 45 95 46 96 55 97 47 98
REMARK SMILES IDX 48 99 54 100 56 101 49 102 50 103 51 104 52 105 53 106
REMARK H PARENT 11 6 5 14 90 25 15 37 77 56 43 67
REMARK Flexibility Score: inf
ROOT
ATOM      1  C   UNL A   1      40.191  24.314  27.081  1.00  0.00     0.042 C 
ENDROOT
BRANCH   1   2
ATOM      2  C   UNL A   1      38.899  23.660  26.613  1.00  0.00     0.118 C 
BRANCH   2   3
ATOM      3  N   UNL A   1      39.091  22.328  26.058  1.00  0.00    -0.352 N 
ATOM      4  C   UNL A   1      38.255  21.474  25.387  1.00  0.00     0.251 C 
ATOM      5  O   UNL A   1      38.687  20.357  25.101  1.00  0.00    -0.269 OA
ATOM      6  H   UNL A   1      39.999  21.971  26.191  1.00  0.00     0.163 HD
BRANCH   4   7
ATOM      7  C   UNL A   1      36.855  21.817  25.027  1.00  0.00     0.042 A 
ATOM      8  C   UNL A   1      34.498  21.185  25.131  1.00  0.00     0.073 A 
ATOM      9  C   UNL A   1      35.851  20.918  25.391  1.00  0.00     0.042 A 
ATOM     10  C   UNL A   1      34.100  22.453  24.628  1.00  0.00     0.062 A 
ATOM     11  C   UNL A   1      35.138  23.275  24.151  1.00  0.00     0.029 A 
ATOM     12  C   UNL A   1      36.490  22.947  24.310  1.00  0.00     0.016 A 
BRANCH   8  13
ATOM     13  N   UNL A   1      33.617  20.170  25.616  1.00  0.00    -0.282 N 
ATOM     14  H   UNL A   1      33.366  20.209  26.567  1.00  0.00     0.180 HD
BRANCH  13  15
ATOM     15  S   UNL A   1      32.981  18.933  24.713  1.00  0.00     0.229 S 
ATOM     16  C   UNL A   1      34.285  17.836  24.187  1.00  0.00     0.183 C 
ATOM     17  O   UNL A   1      32.413  19.566  23.535  1.00  0.00    -0.207 OA
ATOM     18  O   UNL A   1      32.114  18.181  25.596  1.00  0.00    -0.207 OA
ENDBRANCH  13  15
ENDBRANCH   8  13
BRANCH  10  19
ATOM     19  N   UNL A   1      32.767  22.912  24.614  1.00  0.00    -0.359 N 
ATOM     20  C   UNL A   1      32.243  23.643  23.418  1.00  0.00     0.178 C 
ATOM     21  C   UNL A   1      32.318  23.565  25.849  1.00  0.00     0.178 C 
ATOM     22  C   UNL A   1      30.727  23.995  23.531  1.00  0.00     0.284 C 
ATOM     23  C   UNL A   1      30.790  23.634  25.915  1.00  0.00     0.284 C 
ATOM     24  N   UNL A   1      30.206  24.432  24.840  1.00  0.00    -0.324 N 
ATOM     25  H   UNL A   1      29.205  24.244  24.794  1.00  0.00     0.348 HD
BRANCH  24  26
ATOM     26  C   UNL A   1      30.194  25.880  25.114  1.00  0.00     0.363 C 
BRANCH  26  27
ATOM     27  C   UNL A   1      30.470  26.831  23.943  1.00  0.00     0.277 C 
ATOM     28  O   UNL A   1      29.560  27.096  23.151  1.00  0.00    -0.268 OA
ATOM     29  N   UNL A   1      31.711  27.435  23.835  1.00  0.00    -0.338 N 
ATOM     30  C   UNL A   1      32.991  27.064  24.437  1.00  0.00     0.119 C 
ATOM     31  C   UNL A   1      31.871  28.601  22.980  1.00  0.00     0.119 C 
ATOM     32  C   UNL A   1      33.914  28.242  24.172  1.00  0.00     0.023 C 
ATOM     33  C   UNL A   1      33.373  28.817  22.869  1.00  0.00     0.023 C 
ENDBRANCH  26  27
ENDBRANCH  24  26
ENDBRANCH  10  19
ENDBRANCH   4   7
ENDBRANCH   2   3
ENDBRANCH   1   2
BRANCH   1  34
ATOM     34  C   UNL A   1      40.910  25.149  26.034  1.00  0.00     0.118 C 
BRANCH  34  35
ATOM     35  N   UNL A   1      42.334  24.857  25.939  1.00  0.00    -0.352 N 
ATOM     36  C   UNL A   1      43.411  25.422  26.584  1.00  0.00     0.251 C 
ATOM     37  H   UNL A   1      42.564  24.137  25.309  1.00  0.00     0.163 HD
ATOM     38  O   UNL A   1      44.548  25.136  26.219  1.00  0.00    -0.269 OA
BRANCH  36  39
ATOM     39  C   UNL A   1      43.209  26.392  27.685  1.00  0.00     0.039 A 
ATOM     40  C   UNL A   1      43.490  27.744  27.465  1.00  0.00     0.014 A 
ATOM     41  C   UNL A   1      42.751  25.975  28.934  1.00  0.00     0.014 A 
ATOM     42  C   UNL A   1      43.226  28.682  28.470  1.00  0.00     0.010 A 
ATOM     43  C   UNL A   1      42.377  26.917  29.885  1.00  0.00     0.010 A 
ATOM     44  C   UNL A   1      42.621  28.281  29.673  1.00  0.00    -0.014 A 
BRANCH  44  45
ATOM     45  C   UNL A   1      42.254  29.254  30.735  1.00  0.00     0.031 A 
ATOM     46  C   UNL A   1      43.097  29.356  31.981  1.00  0.00     0.074 A 
ATOM     47  C   UNL A   1      41.121  29.976  30.626  1.00  0.00     0.049 A 
ATOM     48  N   UNL A   1      42.889  30.055  33.066  1.00  0.00    -0.248 NA
ATOM     49  C   UNL A   1      44.316  28.532  32.023  1.00  0.00     0.031 C 
ATOM     50  C   UNL A   1      40.197  29.938  29.490  1.00  0.00     0.029 A 
ATOM     51  N   UNL A   1      40.548  30.878  31.487  1.00  0.00    -0.354 N 
ATOM     52  C   UNL A   1      43.930  29.731  33.930  1.00  0.00     0.074 A 
ATOM     53  C   UNL A   1      44.730  28.726  33.266  1.00  0.00     0.031 C 
ATOM     54  C   UNL A   1      39.196  30.808  29.707  1.00  0.00     0.029 A 
ATOM     55  C   UNL A   1      39.379  31.427  31.015  1.00  0.00     0.049 A 
ATOM     56  H   UNL A   1      40.937  31.111  32.360  1.00  0.00     0.167 HD
ATOM     57  C   UNL A   1      44.211  30.241  35.153  1.00  0.00     0.037 A 
ATOM     58  C   UNL A   1      38.546  32.327  31.575  1.00  0.00     0.037 A 
ATOM     59  C   UNL A   1      43.427  31.265  35.792  1.00  0.00     0.049 A 
ATOM     60  C   UNL A   1      38.868  32.873  32.940  1.00  0.00     0.074 A 
ATOM     61  C   UNL A   1      43.661  31.903  36.997  1.00  0.00     0.029 A 
ATOM     62  N   UNL A   1      42.254  31.799  35.277  1.00  0.00    -0.354 N 
ATOM     63  N   UNL A   1      39.891  32.602  33.716  1.00  0.00    -0.248 NA
ATOM     64  C   UNL A   1      37.924  33.846  33.505  1.00  0.00     0.031 C 
ATOM     65  C   UNL A   1      42.602  32.785  37.237  1.00  0.00     0.029 A 
ATOM     66  C   UNL A   1      41.737  32.739  36.153  1.00  0.00     0.049 A 
ATOM     67  H   UNL A   1      41.848  31.546  34.417  1.00  0.00     0.167 HD
ATOM     68  C   UNL A   1      39.734  33.399  34.844  1.00  0.00     0.074 A 
ATOM     69  C   UNL A   1      38.517  34.162  34.648  1.00  0.00     0.031 C 
ATOM     70  C   UNL A   1      40.529  33.497  35.939  1.00  0.00     0.037 A 
BRANCH  57  71
ATOM     71  C   UNL A   1      45.410  29.685  35.876  1.00  0.00     0.058 A 
ATOM     72  C   UNL A   1      46.698  30.220  35.699  1.00  0.00     0.135 A 
ATOM     73  C   UNL A   1      45.273  28.594  36.749  1.00  0.00     0.135 A 
ATOM     74  F   UNL A   1      46.892  31.257  34.868  1.00  0.00    -0.206 F 
ATOM     75  C   UNL A   1      47.811  29.655  36.313  1.00  0.00     0.059 A 
ATOM     76  C   UNL A   1      46.368  28.036  37.401  1.00  0.00     0.059 A 
ATOM     77  F   UNL A   1      44.067  28.045  36.962  1.00  0.00    -0.206 F 
ATOM     78  C   UNL A   1      47.638  28.557  37.155  1.00  0.00     0.060 A 
BRANCH  78  79
ATOM     79  S   UNL A   1      49.097  27.810  37.911  1.00  0.00     0.124 S 
ATOM     80  O   UNL A   1      48.713  26.401  37.948  1.00  0.00    -0.237 OA
ATOM     81  O   UNL A   1      50.151  28.154  36.964  1.00  0.00    -0.237 OA
ATOM     82  O   UNL A   1      49.183  28.471  39.209  1.00  0.00    -0.744 OA
ENDBRANCH  78  79
ENDBRANCH  57  71
BRANCH  58  83
ATOM     83  C   UNL A   1      37.357  32.806  30.820  1.00  0.00     0.058 A 
ATOM     84  C   UNL A   1      36.075  32.330  31.134  1.00  0.00     0.135 A 
ATOM     85  C   UNL A   1      37.466  33.766  29.801  1.00  0.00     0.135 A 
ATOM     86  F   UNL A   1      35.920  31.408  32.096  1.00  0.00    -0.206 F 
ATOM     87  C   UNL A   1      34.944  32.783  30.463  1.00  0.00     0.059 A 
ATOM     88  C   UNL A   1      36.346  34.251  29.133  1.00  0.00     0.059 A 
ATOM     89  F   UNL A   1      38.668  34.265  29.473  1.00  0.00    -0.206 F 
ATOM     90  C   UNL A   1      35.089  33.750  29.468  1.00  0.00     0.060 A 
BRANCH  90  91
ATOM     91  S   UNL A   1      33.605  34.378  28.652  1.00  0.00     0.124 S 
ATOM     92  O   UNL A   1      34.136  35.514  27.909  1.00  0.00    -0.237 OA
ATOM     93  O   UNL A   1      33.188  33.230  27.853  1.00  0.00    -0.237 OA
ATOM     94  O   UNL A   1      32.724  34.708  29.769  1.00  0.00    -0.744 OA
ENDBRANCH  90  91
ENDBRANCH  58  83
BRANCH  70  95
ATOM     95  C   UNL A   1      40.139  34.496  36.994  1.00  0.00     0.058 A 
ATOM     96  C   UNL A   1      39.357  34.136  38.102  1.00  0.00     0.135 A 
ATOM     97  C   UNL A   1      40.615  35.816  36.927  1.00  0.00     0.135 A 
ATOM     98  F   UNL A   1      38.871  32.890  38.211  1.00  0.00    -0.206 F 
ATOM     99  C   UNL A   1      39.045  35.056  39.099  1.00  0.00     0.059 A 
ATOM    100  C   UNL A   1      40.340  36.744  37.926  1.00  0.00     0.059 A 
ATOM    101  F   UNL A   1      41.375  36.208  35.893  1.00  0.00    -0.206 F 
ATOM    102  C   UNL A   1      39.546  36.356  39.005  1.00  0.00     0.060 A 
BRANCH 102 103
ATOM    103  S   UNL A   1      39.174  37.525  40.329  1.00  0.00     0.124 S 
ATOM    104  O   UNL A   1      40.496  38.064  40.626  1.00  0.00    -0.237 OA
ATOM    105  O   UNL A   1      38.244  38.444  39.681  1.00  0.00    -0.237 OA
ATOM    106  O   UNL A   1      38.591  36.683  41.370  1.00  0.00    -0.744 OA
ENDBRANCH 102 103
ENDBRANCH  70  95
ENDBRANCH  44  45
ENDBRANCH  36  39
ENDBRANCH  34  35
ENDBRANCH   1  34
TORSDOF 18
ENDMDL
MODEL 3
REMARK VINA RESULT:     -12.1      1.277      8.148
REMARK SMILES CS(=O)(=O)Nc1cc(C(=O)NCCCNC(=O)c2ccc(-c3c4nc(c(-c5c(F)cc(S(=O)(=O)[O-])cc5F)c5ccc([nH]5)c(-c5c(F)cc(S(=O)(=O)[O-])cc5F)c5nc(c(-c6c(F)cc(S(=O)(=O)[O-])cc6F)c6ccc3[nH]6)C=C5)C=C4)cc2)ccc1N1CC[NH+](CC(=O)N2CCCC2)CC1
REMARK SMILES IDX 13 1 12 2 11 3 9 4 10 5 8 7 6 8 7 9 86 10 85 11 84 12 5 13
REMARK SMILES IDX 2 15 1 16 3 17 4 18 87 19 88 20 100 21 89 22 99 23 90 24
REMARK SMILES IDX 91 26 92 27 93 28 94 29 95 30 98 31 96 32 97 33 14 34 15 35
REMARK SMILES IDX 16 36 17 38 18 39 19 40 83 41 20 42 82 43 21 44 22 45 23 46
REMARK SMILES IDX 76 47 24 48 81 49 75 50 77 51 25 52 80 53 74 54 73 55 26 57
REMARK SMILES IDX 60 58 39 59 59 60 40 61 43 62 58 63 78 64 41 65 42 66 57 68
REMARK SMILES IDX 79 69 44 70 27 71 28 72 37 73 29 74 30 75 36 76 38 77 31 78
REMARK SMILES IDX 32 79 33 80 34 81 35 82 61 83 62 84 71 85 63 86 64 87 70 88
REMARK SMILES IDX 72 89 65 90 66 91 67 92 68 93 69 94 45 95 46 96 55 97 47 98
REMARK SMILES IDX 48 99 54 100 56 101 49 102 50 103 51 104 52 105 53 106
REMARK H PARENT 11 6 5 14 90 25 15 37 77 56 43 67
REMARK Flexibility Score: inf
ROOT
ATOM      1  C   UNL A   1      35.492  32.517  28.003  1.00  0.00     0.042 C 
ENDROOT
BRANCH   1   2
ATOM      2  C   UNL A   1      34.603  31.283  28.011  1.00  0.00     0.118 C 
BRANCH   2   3
ATOM      3  N   UNL A   1      33.292  31.508  27.419  1.00  0.00    -0.352 N 
ATOM      4  C   UNL A   1      32.428  30.690  26.740  1.00  0.00     0.251 C 
ATOM      5  O   UNL A   1      31.401  31.193  26.283  1.00  0.00    -0.269 OA
ATOM      6  H   UNL A   1      32.962  32.429  27.528  1.00  0.00     0.163 HD
BRANCH   4   7
ATOM      7  C   UNL A   1      32.689  29.246  26.500  1.00  0.00     0.042 A 
ATOM      8  C   UNL A   1      31.765  27.072  25.879  1.00  0.00     0.073 A 
ATOM      9  C   UNL A   1      31.602  28.436  26.166  1.00  0.00     0.042 A 
ATOM     10  C   UNL A   1      33.067  26.513  25.766  1.00  0.00     0.062 A 
ATOM     11  C   UNL A   1      34.122  27.318  26.236  1.00  0.00     0.029 A 
ATOM     12  C   UNL A   1      33.933  28.647  26.634  1.00  0.00     0.016 A 
BRANCH   8  13
ATOM     13  N   UNL A   1      30.547  26.420  25.517  1.00  0.00    -0.282 N 
ATOM     14  H   UNL A   1      29.999  26.052  26.248  1.00  0.00     0.180 HD
BRANCH  13  15
ATOM     15  S   UNL A   1      29.976  26.230  23.972  1.00  0.00     0.229 S 
ATOM     16  C   UNL A   1      30.272  24.560  23.420  1.00  0.00     0.183 C 
ATOM     17  O   UNL A   1      30.771  27.128  23.152  1.00  0.00    -0.207 OA
ATOM     18  O   UNL A   1      28.542  26.417  24.035  1.00  0.00    -0.207 OA
ENDBRANCH  13  15
ENDBRANCH   8  13
BRANCH  10  19
ATOM     19  N   UNL A   1      33.335  25.249  25.201  1.00  0.00    -0.359 N 
ATOM     20  C   UNL A   1      33.964  24.178  26.036  1.00  0.00     0.178 C 
ATOM     21  C   UNL A   1      33.943  25.278  23.867  1.00  0.00     0.178 C 
ATOM     22  C   UNL A   1      34.102  22.818  25.283  1.00  0.00     0.284 C 
ATOM     23  C   UNL A   1      33.799  23.926  23.163  1.00  0.00     0.284 C 
ATOM     24  N   UNL A   1      34.488  22.843  23.860  1.00  0.00    -0.324 N 
ATOM     25  H   UNL A   1      34.162  21.950  23.491  1.00  0.00     0.348 HD
BRANCH  24  26
ATOM     26  C   UNL A   1      35.925  22.753  23.547  1.00  0.00     0.363 C 
BRANCH  26  27
ATOM     27  C   UNL A   1      36.823  21.988  24.526  1.00  0.00     0.277 C 
ATOM     28  O   UNL A   1      36.813  20.752  24.517  1.00  0.00    -0.268 OA
ATOM     29  N   UNL A   1      37.684  22.691  25.351  1.00  0.00    -0.338 N 
ATOM     30  C   UNL A   1      37.661  24.096  25.752  1.00  0.00     0.119 C 
ATOM     31  C   UNL A   1      38.789  21.997  25.996  1.00  0.00     0.119 C 
ATOM     32  C   UNL A   1      38.995  24.339  26.438  1.00  0.00     0.023 C 
ATOM     33  C   UNL A   1      39.332  22.974  27.028  1.00  0.00     0.023 C 
ENDBRANCH  26  27
ENDBRANCH  24  26
ENDBRANCH  10  19
ENDBRANCH   4   7
ENDBRANCH   2   3
ENDBRANCH   1   2
BRANCH   1  34
ATOM     34  C   UNL A   1      36.511  32.587  29.128  1.00  0.00     0.118 C 
BRANCH  34  35
ATOM     35  N   UNL A   1      36.172  31.746  30.268  1.00  0.00    -0.352 N 
ATOM     36  C   UNL A   1      36.778  30.611  30.758  1.00  0.00     0.251 C 
ATOM     37  H   UNL A   1      35.377  32.037  30.771  1.00  0.00     0.163 HD
ATOM     38  O   UNL A   1      36.215  29.961  31.636  1.00  0.00    -0.269 OA
BRANCH  36  39
ATOM     39  C   UNL A   1      38.078  30.154  30.216  1.00  0.00     0.039 A 
ATOM     40  C   UNL A   1      38.224  29.992  28.835  1.00  0.00     0.014 A 
ATOM     41  C   UNL A   1      39.151  29.878  31.062  1.00  0.00     0.014 A 
ATOM     42  C   UNL A   1      39.470  29.640  28.304  1.00  0.00     0.010 A 
ATOM     43  C   UNL A   1      40.413  29.646  30.528  1.00  0.00     0.010 A 
ATOM     44  C   UNL A   1      40.588  29.511  29.143  1.00  0.00    -0.014 A 
BRANCH  44  45
ATOM     45  C   UNL A   1      41.944  29.214  28.613  1.00  0.00     0.031 A 
ATOM     46  C   UNL A   1      42.288  27.811  28.179  1.00  0.00     0.074 A 
ATOM     47  C   UNL A   1      42.891  30.173  28.606  1.00  0.00     0.049 A 
ATOM     48  N   UNL A   1      43.438  27.322  27.795  1.00  0.00    -0.248 NA
ATOM     49  C   UNL A   1      41.199  26.822  28.220  1.00  0.00     0.031 C 
ATOM     50  C   UNL A   1      42.698  31.559  29.039  1.00  0.00     0.029 A 
ATOM     51  N   UNL A   1      44.210  30.126  28.229  1.00  0.00    -0.354 N 
ATOM     52  C   UNL A   1      43.218  25.965  27.581  1.00  0.00     0.074 A 
ATOM     53  C   UNL A   1      41.843  25.699  27.939  1.00  0.00     0.031 C 
ATOM     54  C   UNL A   1      43.843  32.239  28.865  1.00  0.00     0.029 A 
ATOM     55  C   UNL A   1      44.864  31.329  28.356  1.00  0.00     0.049 A 
ATOM     56  H   UNL A   1      44.646  29.309  27.898  1.00  0.00     0.167 HD
ATOM     57  C   UNL A   1      44.075  25.029  27.104  1.00  0.00     0.037 A 
ATOM     58  C   UNL A   1      46.144  31.661  28.095  1.00  0.00     0.037 A 
ATOM     59  C   UNL A   1      45.433  25.310  26.719  1.00  0.00     0.049 A 
ATOM     60  C   UNL A   1      47.084  30.605  27.578  1.00  0.00     0.074 A 
ATOM     61  C   UNL A   1      46.364  24.454  26.159  1.00  0.00     0.029 A 
ATOM     62  N   UNL A   1      46.055  26.543  26.858  1.00  0.00    -0.354 N 
ATOM     63  N   UNL A   1      46.843  29.341  27.322  1.00  0.00    -0.248 NA
ATOM     64  C   UNL A   1      48.469  31.020  27.316  1.00  0.00     0.031 C 
ATOM     65  C   UNL A   1      47.565  25.154  26.008  1.00  0.00     0.029 A 
ATOM     66  C   UNL A   1      47.367  26.464  26.419  1.00  0.00     0.049 A 
ATOM     67  H   UNL A   1      45.627  27.354  27.215  1.00  0.00     0.167 HD
ATOM     68  C   UNL A   1      48.035  28.818  26.831  1.00  0.00     0.074 A 
ATOM     69  C   UNL A   1      48.995  29.905  26.828  1.00  0.00     0.031 C 
ATOM     70  C   UNL A   1      48.307  27.557  26.414  1.00  0.00     0.037 A 
BRANCH  57  71
ATOM     71  C   UNL A   1      43.562  23.617  26.987  1.00  0.00     0.058 A 
ATOM     72  C   UNL A   1      43.116  23.088  25.764  1.00  0.00     0.135 A 
ATOM     73  C   UNL A   1      43.503  22.785  28.117  1.00  0.00     0.135 A 
ATOM     74  F   UNL A   1      43.139  23.840  24.652  1.00  0.00    -0.206 F 
ATOM     75  C   UNL A   1      42.577  21.808  25.678  1.00  0.00     0.059 A 
ATOM     76  C   UNL A   1      43.000  21.490  28.047  1.00  0.00     0.059 A 
ATOM     77  F   UNL A   1      43.920  23.235  29.311  1.00  0.00    -0.206 F 
ATOM     78  C   UNL A   1      42.513  21.020  26.828  1.00  0.00     0.060 A 
BRANCH  78  79
ATOM     79  S   UNL A   1      41.772  19.379  26.708  1.00  0.00     0.124 S 
ATOM     80  O   UNL A   1      40.432  19.629  27.233  1.00  0.00    -0.237 OA
ATOM     81  O   UNL A   1      41.850  19.103  25.278  1.00  0.00    -0.237 OA
ATOM     82  O   UNL A   1      42.632  18.555  27.552  1.00  0.00    -0.744 OA
ENDBRANCH  78  79
ENDBRANCH  57  71
BRANCH  58  83
ATOM     83  C   UNL A   1      46.595  33.068  28.268  1.00  0.00     0.058 A 
ATOM     84  C   UNL A   1      46.424  34.001  27.234  1.00  0.00     0.135 A 
ATOM     85  C   UNL A   1      47.169  33.519  29.467  1.00  0.00     0.135 A 
ATOM     86  F   UNL A   1      45.886  33.618  26.067  1.00  0.00    -0.206 F 
ATOM     87  C   UNL A   1      46.811  35.330  27.379  1.00  0.00     0.059 A 
ATOM     88  C   UNL A   1      47.542  34.848  29.643  1.00  0.00     0.059 A 
ATOM     89  F   UNL A   1      47.340  32.670  30.492  1.00  0.00    -0.206 F 
ATOM     90  C   UNL A   1      47.363  35.745  28.591  1.00  0.00     0.060 A 
BRANCH  90  91
ATOM     91  S   UNL A   1      47.798  37.487  28.789  1.00  0.00     0.124 S 
ATOM     92  O   UNL A   1      46.659  38.147  28.163  1.00  0.00    -0.237 OA
ATOM     93  O   UNL A   1      47.894  37.615  30.240  1.00  0.00    -0.237 OA
ATOM     94  O   UNL A   1      49.066  37.599  28.072  1.00  0.00    -0.744 OA
ENDBRANCH  90  91
ENDBRANCH  58  83
BRANCH  70  95
ATOM     95  C   UNL A   1      49.684  27.285  25.874  1.00  0.00     0.058 A 
ATOM     96  C   UNL A   1      50.749  26.915  26.709  1.00  0.00     0.135 A 
ATOM     97  C   UNL A   1      49.921  27.332  24.490  1.00  0.00     0.135 A 
ATOM     98  F   UNL A   1      50.578  26.863  28.039  1.00  0.00    -0.206 F 
ATOM     99  C   UNL A   1      52.006  26.616  26.193  1.00  0.00     0.059 A 
ATOM    100  C   UNL A   1      51.162  27.009  23.949  1.00  0.00     0.059 A 
ATOM    101  F   UNL A   1      48.935  27.672  23.646  1.00  0.00    -0.206 F 
ATOM    102  C   UNL A   1      52.201  26.661  24.811  1.00  0.00     0.060 A 
BRANCH 102 103
ATOM    103  S   UNL A   1      53.824  26.224  24.152  1.00  0.00     0.124 S 
ATOM    104  O   UNL A   1      54.093  24.967  24.841  1.00  0.00    -0.237 OA
ATOM    105  O   UNL A   1      53.560  26.118  22.721  1.00  0.00    -0.237 OA
ATOM    106  O   UNL A   1      54.665  27.350  24.546  1.00  0.00    -0.744 OA
ENDBRANCH 102 103
ENDBRANCH  70  95
ENDBRANCH  44  45
ENDBRANCH  36  39
ENDBRANCH  34  35
ENDBRANCH   1  34
TORSDOF 18
ENDMDL
