MODEL 1
REMARK VINA RESULT:     -10.9      0.000      0.000
REMARK SMILES [NH3+][C@]1(C(=O)NCCCNC(=O)c2ccc(-c3c4nc(c(-c5c(F)cc(S(=O)(=O)[O-])cc5F)c5ccc([nH]5)c(-c5c(F)cc(S(=O)(=O)[O-])cc5F)c5nc(c(-c6c(F)cc(S(=O)(=O)[O-])cc6F)c6ccc3[nH]6)C=C5)C=C4)cc2)CCC[C@@H]1CCOc1ccc(CO)cc1
REMARK SMILES IDX 3 1 4 2 5 3 2 5 78 6 81 7 79 8 80 9 1 10 82 14 83 15 84 16
REMARK SMILES IDX 85 17 86 18 92 19 87 20 91 21 88 22 89 23 90 24 6 26 7 27
REMARK SMILES IDX 8 28 9 29 10 30 11 32 12 33 13 34 77 35 14 36 76 37 15 38
REMARK SMILES IDX 16 39 17 40 70 41 18 42 75 43 69 44 71 45 19 46 74 47 68 48
REMARK SMILES IDX 67 49 20 51 54 52 33 53 53 54 34 55 37 56 52 57 72 58 35 59
REMARK SMILES IDX 36 60 51 62 73 63 38 64 21 65 22 66 31 67 23 68 24 69 30 70
REMARK SMILES IDX 32 71 25 72 26 73 27 74 28 75 29 76 55 77 56 78 65 79 57 80
REMARK SMILES IDX 58 81 64 82 66 83 59 84 60 85 61 86 62 87 63 88 39 89 40 90
REMARK SMILES IDX 49 91 41 92 42 93 48 94 50 95 43 96 44 97 45 98 46 99 47 100
REMARK H PARENT 5 4 1 11 1 12 1 13 90 25 9 31 71 50 37 61
REMARK Flexibility Score: inf
ROOT
ATOM      1  C   UNL A   1      34.617  24.132  25.500  1.00  0.00     0.281 C 
ATOM      2  O   UNL A   1      35.688  23.690  25.925  1.00  0.00    -0.268 OA
ATOM      3  N   UNL A   1      34.357  25.445  25.780  1.00  0.00    -0.351 N 
ATOM      4  H   UNL A   1      35.143  25.988  26.019  1.00  0.00     0.163 HD
ENDROOT
BRANCH   1   5
ATOM      5  C   UNL A   1      33.741  23.367  24.436  1.00  0.00     0.176 C 
ATOM      6  C   UNL A   1      34.354  21.954  24.220  1.00  0.00     0.079 C 
ATOM      7  C   UNL A   1      32.242  23.106  24.810  1.00  0.00     0.064 C 
ATOM      8  C   UNL A   1      33.201  20.972  24.209  1.00  0.00     0.008 C 
ATOM      9  C   UNL A   1      32.205  21.599  25.158  1.00  0.00     0.011 C 
BRANCH   5  10
ATOM     10  N   UNL A   1      33.937  24.176  23.233  1.00  0.00    -0.345 N 
ATOM     11  H   UNL A   1      33.033  24.371  22.802  1.00  0.00     0.345 HD
ATOM     12  H   UNL A   1      34.526  23.669  22.574  1.00  0.00     0.345 HD
ATOM     13  H   UNL A   1      34.389  25.056  23.485  1.00  0.00     0.345 HD
ENDBRANCH   5  10
BRANCH   7  14
ATOM     14  C   UNL A   1      31.040  23.410  23.847  1.00  0.00     0.052 C 
BRANCH  14  15
ATOM     15  C   UNL A   1      30.403  24.806  23.700  1.00  0.00     0.230 C 
BRANCH  15  16
ATOM     16  O   UNL A   1      31.251  25.745  22.989  1.00  0.00    -0.494 OA
BRANCH  16  17
ATOM     17  C   UNL A   1      30.695  26.997  22.965  1.00  0.00     0.119 A 
ATOM     18  C   UNL A   1      31.410  28.090  22.480  1.00  0.00     0.047 A 
ATOM     19  C   UNL A   1      29.378  27.148  23.382  1.00  0.00     0.047 A 
ATOM     20  C   UNL A   1      30.735  29.291  22.227  1.00  0.00     0.010 A 
ATOM     21  C   UNL A   1      28.700  28.335  23.112  1.00  0.00     0.010 A 
ATOM     22  C   UNL A   1      29.355  29.392  22.464  1.00  0.00    -0.022 A 
BRANCH  22  23
ATOM     23  C   UNL A   1      28.562  30.558  21.933  1.00  0.00     0.191 C 
BRANCH  23  24
ATOM     24  O   UNL A   1      27.787  30.197  20.802  1.00  0.00    -0.392 OA
ATOM     25  H   UNL A   1      26.867  30.469  20.940  1.00  0.00     0.211 HD
ENDBRANCH  23  24
ENDBRANCH  22  23
ENDBRANCH  16  17
ENDBRANCH  15  16
ENDBRANCH  14  15
ENDBRANCH   7  14
ENDBRANCH   1   5
BRANCH   3  26
ATOM     26  C   UNL A   1      33.095  26.153  25.776  1.00  0.00     0.118 C 
BRANCH  26  27
ATOM     27  C   UNL A   1      33.354  27.648  25.629  1.00  0.00     0.042 C 
BRANCH  27  28
ATOM     28  C   UNL A   1      34.140  28.197  26.804  1.00  0.00     0.118 C 
BRANCH  28  29
ATOM     29  N   UNL A   1      33.726  29.549  27.142  1.00  0.00    -0.352 N 
ATOM     30  C   UNL A   1      34.420  30.472  27.889  1.00  0.00     0.251 C 
ATOM     31  H   UNL A   1      32.849  29.836  26.800  1.00  0.00     0.163 HD
ATOM     32  O   UNL A   1      33.883  31.492  28.278  1.00  0.00    -0.269 OA
BRANCH  30  33
ATOM     33  C   UNL A   1      35.827  30.167  28.220  1.00  0.00     0.039 A 
ATOM     34  C   UNL A   1      36.134  29.650  29.478  1.00  0.00     0.014 A 
ATOM     35  C   UNL A   1      36.818  30.323  27.246  1.00  0.00     0.014 A 
ATOM     36  C   UNL A   1      37.444  29.251  29.748  1.00  0.00     0.010 A 
ATOM     37  C   UNL A   1      38.093  29.837  27.484  1.00  0.00     0.010 A 
ATOM     38  C   UNL A   1      38.425  29.319  28.745  1.00  0.00    -0.014 A 
BRANCH  38  39
ATOM     39  C   UNL A   1      39.831  28.925  29.002  1.00  0.00     0.031 A 
ATOM     40  C   UNL A   1      40.769  29.938  29.602  1.00  0.00     0.074 A 
ATOM     41  C   UNL A   1      40.270  27.702  28.646  1.00  0.00     0.049 A 
ATOM     42  N   UNL A   1      42.060  29.863  29.785  1.00  0.00    -0.248 NA
ATOM     43  C   UNL A   1      40.180  31.226  30.015  1.00  0.00     0.031 C 
ATOM     44  C   UNL A   1      39.457  26.653  28.024  1.00  0.00     0.029 A 
ATOM     45  N   UNL A   1      41.515  27.137  28.749  1.00  0.00    -0.354 N 
ATOM     46  C   UNL A   1      42.436  31.091  30.318  1.00  0.00     0.074 A 
ATOM     47  C   UNL A   1      41.254  31.920  30.359  1.00  0.00     0.031 C 
ATOM     48  C   UNL A   1      40.219  25.565  27.825  1.00  0.00     0.029 A 
ATOM     49  C   UNL A   1      41.582  25.852  28.266  1.00  0.00     0.049 A 
ATOM     50  H   UNL A   1      42.289  27.608  29.134  1.00  0.00     0.167 HD
ATOM     51  C   UNL A   1      43.650  31.480  30.771  1.00  0.00     0.037 A 
ATOM     52  C   UNL A   1      42.628  25.008  28.182  1.00  0.00     0.037 A 
ATOM     53  C   UNL A   1      44.810  30.631  30.767  1.00  0.00     0.049 A 
ATOM     54  C   UNL A   1      43.972  25.470  28.686  1.00  0.00     0.074 A 
ATOM     55  C   UNL A   1      46.086  30.914  31.220  1.00  0.00     0.029 A 
ATOM     56  N   UNL A   1      44.826  29.324  30.304  1.00  0.00    -0.354 N 
ATOM     57  N   UNL A   1      44.304  26.626  29.211  1.00  0.00    -0.248 NA
ATOM     58  C   UNL A   1      45.083  24.512  28.593  1.00  0.00     0.031 C 
ATOM     59  C   UNL A   1      46.881  29.783  31.009  1.00  0.00     0.029 A 
ATOM     60  C   UNL A   1      46.089  28.785  30.464  1.00  0.00     0.049 A 
ATOM     61  H   UNL A   1      44.054  28.851  29.917  1.00  0.00     0.167 HD
ATOM     62  C   UNL A   1      45.648  26.518  29.549  1.00  0.00     0.074 A 
ATOM     63  C   UNL A   1      46.066  25.183  29.175  1.00  0.00     0.031 C 
ATOM     64  C   UNL A   1      46.465  27.438  30.119  1.00  0.00     0.037 A 
BRANCH  51  65
ATOM     65  C   UNL A   1      43.771  32.865  31.342  1.00  0.00     0.058 A 
ATOM     66  C   UNL A   1      44.049  33.971  30.522  1.00  0.00     0.135 A 
ATOM     67  C   UNL A   1      43.573  33.100  32.712  1.00  0.00     0.135 A 
ATOM     68  F   UNL A   1      44.270  33.799  29.208  1.00  0.00    -0.206 F 
ATOM     69  C   UNL A   1      44.145  35.256  31.040  1.00  0.00     0.059 A 
ATOM     70  C   UNL A   1      43.636  34.383  33.249  1.00  0.00     0.059 A 
ATOM     71  F   UNL A   1      43.313  32.079  33.543  1.00  0.00    -0.206 F 
ATOM     72  C   UNL A   1      43.933  35.454  32.405  1.00  0.00     0.060 A 
BRANCH  72  73
ATOM     73  S   UNL A   1      44.034  37.134  33.054  1.00  0.00     0.124 S 
ATOM     74  O   UNL A   1      44.053  37.920  31.823  1.00  0.00    -0.237 OA
ATOM     75  O   UNL A   1      42.814  37.235  33.849  1.00  0.00    -0.237 OA
ATOM     76  O   UNL A   1      45.278  37.132  33.817  1.00  0.00    -0.744 OA
ENDBRANCH  72  73
ENDBRANCH  51  65
BRANCH  52  77
ATOM     77  C   UNL A   1      42.459  23.639  27.623  1.00  0.00     0.058 A 
ATOM     78  C   UNL A   1      42.304  22.531  28.471  1.00  0.00     0.135 A 
ATOM     79  C   UNL A   1      42.485  23.403  26.241  1.00  0.00     0.135 A 
ATOM     80  F   UNL A   1      42.273  22.704  29.800  1.00  0.00    -0.206 F 
ATOM     81  C   UNL A   1      42.226  21.235  27.972  1.00  0.00     0.059 A 
ATOM     82  C   UNL A   1      42.380  22.119  25.715  1.00  0.00     0.059 A 
ATOM     83  F   UNL A   1      42.606  24.429  25.384  1.00  0.00    -0.206 F 
ATOM     84  C   UNL A   1      42.273  21.038  26.591  1.00  0.00     0.060 A 
BRANCH  84  85
ATOM     85  S   UNL A   1      42.178  19.352  25.951  1.00  0.00     0.124 S 
ATOM     86  O   UNL A   1      42.715  18.585  27.069  1.00  0.00    -0.237 OA
ATOM     87  O   UNL A   1      40.749  19.198  25.697  1.00  0.00    -0.237 OA
ATOM     88  O   UNL A   1      43.017  19.401  24.757  1.00  0.00    -0.744 OA
ENDBRANCH  84  85
ENDBRANCH  52  77
BRANCH  64  89
ATOM     89  C   UNL A   1      47.870  27.014  30.439  1.00  0.00     0.058 A 
ATOM     90  C   UNL A   1      48.937  27.272  29.567  1.00  0.00     0.135 A 
ATOM     91  C   UNL A   1      48.157  26.408  31.673  1.00  0.00     0.135 A 
ATOM     92  F   UNL A   1      48.712  27.845  28.374  1.00  0.00    -0.206 F 
ATOM     93  C   UNL A   1      50.243  26.929  29.900  1.00  0.00     0.059 A 
ATOM     94  C   UNL A   1      49.458  26.081  32.039  1.00  0.00     0.059 A 
ATOM     95  F   UNL A   1      47.171  26.150  32.546  1.00  0.00    -0.206 F 
ATOM     96  C   UNL A   1      50.494  26.338  31.141  1.00  0.00     0.060 A 
BRANCH  96  97
ATOM     97  S   UNL A   1      52.198  25.946  31.582  1.00  0.00     0.124 S 
ATOM     98  O   UNL A   1      52.066  24.583  32.086  1.00  0.00    -0.237 OA
ATOM     99  O   UNL A   1      52.891  26.086  30.305  1.00  0.00    -0.237 OA
ATOM    100  O   UNL A   1      52.532  26.957  32.582  1.00  0.00    -0.744 OA
ENDBRANCH  96  97
ENDBRANCH  64  89
ENDBRANCH  38  39
ENDBRANCH  30  33
ENDBRANCH  28  29
ENDBRANCH  27  28
ENDBRANCH  26  27
ENDBRANCH   3  26
TORSDOF 20
ENDMDL
MODEL 2
REMARK VINA RESULT:     -10.2      5.050     11.453
REMARK SMILES [NH3+][C@]1(C(=O)NCCCNC(=O)c2ccc(-c3c4nc(c(-c5c(F)cc(S(=O)(=O)[O-])cc5F)c5ccc([nH]5)c(-c5c(F)cc(S(=O)(=O)[O-])cc5F)c5nc(c(-c6c(F)cc(S(=O)(=O)[O-])cc6F)c6ccc3[nH]6)C=C5)C=C4)cc2)CCC[C@@H]1CCOc1ccc(CO)cc1
REMARK SMILES IDX 3 1 4 2 5 3 2 5 78 6 81 7 79 8 80 9 1 10 82 14 83 15 84 16
REMARK SMILES IDX 85 17 86 18 92 19 87 20 91 21 88 22 89 23 90 24 6 26 7 27
REMARK SMILES IDX 8 28 9 29 10 30 11 32 12 33 13 34 77 35 14 36 76 37 15 38
REMARK SMILES IDX 16 39 17 40 70 41 18 42 75 43 69 44 71 45 19 46 74 47 68 48
REMARK SMILES IDX 67 49 20 51 54 52 33 53 53 54 34 55 37 56 52 57 72 58 35 59
REMARK SMILES IDX 36 60 51 62 73 63 38 64 21 65 22 66 31 67 23 68 24 69 30 70
REMARK SMILES IDX 32 71 25 72 26 73 27 74 28 75 29 76 55 77 56 78 65 79 57 80
REMARK SMILES IDX 58 81 64 82 66 83 59 84 60 85 61 86 62 87 63 88 39 89 40 90
REMARK SMILES IDX 49 91 41 92 42 93 48 94 50 95 43 96 44 97 45 98 46 99 47 100
REMARK H PARENT 5 4 1 11 1 12 1 13 90 25 9 31 71 50 37 61
REMARK Flexibility Score: inf
ROOT
ATOM      1  C   UNL A   1      44.826  20.742  25.266  1.00  0.00     0.281 C 
ATOM      2  O   UNL A   1      45.713  19.911  25.058  1.00  0.00    -0.268 OA
ATOM      3  N   UNL A   1      43.700  20.275  25.886  1.00  0.00    -0.351 N 
ATOM      4  H   UNL A   1      43.808  19.424  26.370  1.00  0.00     0.163 HD
ENDROOT
BRANCH   1   5
ATOM      5  C   UNL A   1      45.064  22.295  25.136  1.00  0.00     0.176 C 
ATOM      6  C   UNL A   1      43.895  22.902  24.310  1.00  0.00     0.079 C 
ATOM      7  C   UNL A   1      45.091  23.120  26.468  1.00  0.00     0.064 C 
ATOM      8  C   UNL A   1      43.467  24.170  25.021  1.00  0.00     0.008 C 
ATOM      9  C   UNL A   1      43.729  23.854  26.476  1.00  0.00     0.011 C 
BRANCH   5  10
ATOM     10  N   UNL A   1      46.300  22.356  24.356  1.00  0.00    -0.345 N 
ATOM     11  H   UNL A   1      46.713  23.284  24.445  1.00  0.00     0.345 HD
ATOM     12  H   UNL A   1      46.093  22.169  23.375  1.00  0.00     0.345 HD
ATOM     13  H   UNL A   1      46.956  21.657  24.704  1.00  0.00     0.345 HD
ENDBRANCH   5  10
BRANCH   7  14
ATOM     14  C   UNL A   1      46.206  24.168  26.820  1.00  0.00     0.052 C 
BRANCH  14  15
ATOM     15  C   UNL A   1      46.745  24.385  28.248  1.00  0.00     0.230 C 
BRANCH  15  16
ATOM     16  O   UNL A   1      46.137  25.518  28.919  1.00  0.00    -0.494 OA
BRANCH  16  17
ATOM     17  C   UNL A   1      45.478  25.128  30.055  1.00  0.00     0.119 A 
ATOM     18  C   UNL A   1      44.564  24.077  30.029  1.00  0.00     0.047 A 
ATOM     19  C   UNL A   1      45.782  25.766  31.252  1.00  0.00     0.047 A 
ATOM     20  C   UNL A   1      44.109  23.537  31.238  1.00  0.00     0.010 A 
ATOM     21  C   UNL A   1      45.345  25.217  32.457  1.00  0.00     0.010 A 
ATOM     22  C   UNL A   1      44.565  24.052  32.461  1.00  0.00    -0.022 A 
BRANCH  22  23
ATOM     23  C   UNL A   1      44.324  23.312  33.751  1.00  0.00     0.191 C 
BRANCH  23  24
ATOM     24  O   UNL A   1      43.067  22.656  33.755  1.00  0.00    -0.392 OA
ATOM     25  H   UNL A   1      42.555  22.944  34.527  1.00  0.00     0.211 HD
ENDBRANCH  23  24
ENDBRANCH  22  23
ENDBRANCH  16  17
ENDBRANCH  15  16
ENDBRANCH  14  15
ENDBRANCH   7  14
ENDBRANCH   1   5
BRANCH   3  26
ATOM     26  C   UNL A   1      42.372  20.850  25.936  1.00  0.00     0.118 C 
BRANCH  26  27
ATOM     27  C   UNL A   1      41.815  20.712  27.348  1.00  0.00     0.042 C 
BRANCH  27  28
ATOM     28  C   UNL A   1      40.862  21.843  27.685  1.00  0.00     0.118 C 
BRANCH  28  29
ATOM     29  N   UNL A   1      39.707  21.854  26.802  1.00  0.00    -0.352 N 
ATOM     30  C   UNL A   1      38.899  22.925  26.499  1.00  0.00     0.251 C 
ATOM     31  H   UNL A   1      39.476  20.998  26.374  1.00  0.00     0.163 HD
ATOM     32  O   UNL A   1      37.844  22.765  25.914  1.00  0.00    -0.269 OA
BRANCH  30  33
ATOM     33  C   UNL A   1      39.346  24.265  26.930  1.00  0.00     0.039 A 
ATOM     34  C   UNL A   1      39.166  24.648  28.259  1.00  0.00     0.014 A 
ATOM     35  C   UNL A   1      40.013  25.097  26.026  1.00  0.00     0.014 A 
ATOM     36  C   UNL A   1      39.696  25.864  28.693  1.00  0.00     0.010 A 
ATOM     37  C   UNL A   1      40.619  26.256  26.483  1.00  0.00     0.010 A 
ATOM     38  C   UNL A   1      40.446  26.663  27.815  1.00  0.00    -0.014 A 
BRANCH  38  39
ATOM     39  C   UNL A   1      41.003  27.971  28.235  1.00  0.00     0.031 A 
ATOM     40  C   UNL A   1      42.486  28.202  28.103  1.00  0.00     0.074 A 
ATOM     41  C   UNL A   1      40.203  28.908  28.780  1.00  0.00     0.049 A 
ATOM     42  N   UNL A   1      43.207  29.204  28.529  1.00  0.00    -0.248 NA
ATOM     43  C   UNL A   1      43.266  27.142  27.437  1.00  0.00     0.031 C 
ATOM     44  C   UNL A   1      38.759  28.777  28.989  1.00  0.00     0.029 A 
ATOM     45  N   UNL A   1      40.496  30.155  29.268  1.00  0.00    -0.354 N 
ATOM     46  C   UNL A   1      44.520  28.889  28.196  1.00  0.00     0.074 A 
ATOM     47  C   UNL A   1      44.508  27.572  27.603  1.00  0.00     0.031 C 
ATOM     48  C   UNL A   1      38.290  29.909  29.539  1.00  0.00     0.029 A 
ATOM     49  C   UNL A   1      39.402  30.829  29.759  1.00  0.00     0.049 A 
ATOM     50  H   UNL A   1      41.404  30.534  29.266  1.00  0.00     0.167 HD
ATOM     51  C   UNL A   1      45.632  29.647  28.336  1.00  0.00     0.037 A 
ATOM     52  C   UNL A   1      39.315  32.045  30.330  1.00  0.00     0.037 A 
ATOM     53  C   UNL A   1      45.626  30.974  28.887  1.00  0.00     0.049 A 
ATOM     54  C   UNL A   1      40.571  32.865  30.481  1.00  0.00     0.074 A 
ATOM     55  C   UNL A   1      46.691  31.841  29.057  1.00  0.00     0.029 A 
ATOM     56  N   UNL A   1      44.492  31.634  29.338  1.00  0.00    -0.354 N 
ATOM     57  N   UNL A   1      41.801  32.562  30.138  1.00  0.00    -0.248 NA
ATOM     58  C   UNL A   1      40.429  34.195  31.091  1.00  0.00     0.031 C 
ATOM     59  C   UNL A   1      46.204  33.018  29.633  1.00  0.00     0.029 A 
ATOM     60  C   UNL A   1      44.830  32.899  29.783  1.00  0.00     0.049 A 
ATOM     61  H   UNL A   1      43.583  31.257  29.342  1.00  0.00     0.167 HD
ATOM     62  C   UNL A   1      42.568  33.678  30.450  1.00  0.00     0.074 A 
ATOM     63  C   UNL A   1      41.665  34.664  31.005  1.00  0.00     0.031 C 
ATOM     64  C   UNL A   1      43.901  33.874  30.292  1.00  0.00     0.037 A 
BRANCH  51  65
ATOM     65  C   UNL A   1      46.934  29.073  27.850  1.00  0.00     0.058 A 
ATOM     66  C   UNL A   1      47.317  29.172  26.502  1.00  0.00     0.135 A 
ATOM     67  C   UNL A   1      47.825  28.452  28.739  1.00  0.00     0.135 A 
ATOM     68  F   UNL A   1      46.492  29.735  25.604  1.00  0.00    -0.206 F 
ATOM     69  C   UNL A   1      48.526  28.659  26.049  1.00  0.00     0.059 A 
ATOM     70  C   UNL A   1      49.054  27.958  28.314  1.00  0.00     0.059 A 
ATOM     71  F   UNL A   1      47.506  28.324  30.037  1.00  0.00    -0.206 F 
ATOM     72  C   UNL A   1      49.391  28.056  26.964  1.00  0.00     0.060 A 
BRANCH  72  73
ATOM     73  S   UNL A   1      50.970  27.423  26.362  1.00  0.00     0.124 S 
ATOM     74  O   UNL A   1      51.133  28.180  25.123  1.00  0.00    -0.237 OA
ATOM     75  O   UNL A   1      51.881  27.778  27.445  1.00  0.00    -0.237 OA
ATOM     76  O   UNL A   1      50.723  25.994  26.196  1.00  0.00    -0.744 OA
ENDBRANCH  72  73
ENDBRANCH  51  65
BRANCH  52  77
ATOM     77  C   UNL A   1      38.002  32.581  30.783  1.00  0.00     0.058 A 
ATOM     78  C   UNL A   1      37.152  33.250  29.889  1.00  0.00     0.135 A 
ATOM     79  C   UNL A   1      37.586  32.469  32.118  1.00  0.00     0.135 A 
ATOM     80  F   UNL A   1      37.504  33.383  28.602  1.00  0.00    -0.206 F 
ATOM     81  C   UNL A   1      35.959  33.829  30.310  1.00  0.00     0.059 A 
ATOM     82  C   UNL A   1      36.384  33.014  32.558  1.00  0.00     0.059 A 
ATOM     83  F   UNL A   1      38.350  31.818  33.010  1.00  0.00    -0.206 F 
ATOM     84  C   UNL A   1      35.587  33.712  31.650  1.00  0.00     0.060 A 
BRANCH  84  85
ATOM     85  S   UNL A   1      34.040  34.472  32.190  1.00  0.00     0.124 S 
ATOM     86  O   UNL A   1      33.459  33.406  33.000  1.00  0.00    -0.237 OA
ATOM     87  O   UNL A   1      34.511  35.645  32.920  1.00  0.00    -0.237 OA
ATOM     88  O   UNL A   1      33.353  34.758  30.934  1.00  0.00    -0.744 OA
ENDBRANCH  84  85
ENDBRANCH  52  77
BRANCH  64  89
ATOM     89  C   UNL A   1      44.452  35.222  30.656  1.00  0.00     0.058 A 
ATOM     90  C   UNL A   1      44.970  35.490  31.932  1.00  0.00     0.135 A 
ATOM     91  C   UNL A   1      44.529  36.236  29.686  1.00  0.00     0.135 A 
ATOM     92  F   UNL A   1      44.915  34.556  32.894  1.00  0.00    -0.206 F 
ATOM     93  C   UNL A   1      45.532  36.724  32.239  1.00  0.00     0.059 A 
ATOM     94  C   UNL A   1      45.111  37.467  29.963  1.00  0.00     0.059 A 
ATOM     95  F   UNL A   1      44.057  36.023  28.448  1.00  0.00    -0.206 F 
ATOM     96  C   UNL A   1      45.603  37.705  31.247  1.00  0.00     0.060 A 
BRANCH  96  97
ATOM     97  S   UNL A   1      46.383  39.282  31.644  1.00  0.00     0.124 S 
ATOM     98  O   UNL A   1      46.425  39.928  30.336  1.00  0.00    -0.237 OA
ATOM     99  O   UNL A   1      45.448  39.858  32.606  1.00  0.00    -0.237 OA
ATOM    100  O   UNL A   1      47.678  38.892  32.195  1.00  0.00    -0.744 OA
ENDBRANCH  96  97
ENDBRANCH  64  89
ENDBRANCH  38  39
ENDBRANCH  30  33
ENDBRANCH  28  29
ENDBRANCH  27  28
ENDBRANCH  26  27
ENDBRANCH   3  26
TORSDOF 20
ENDMDL
MODEL 3
REMARK VINA RESULT:     -10.2      4.771     11.202
REMARK SMILES [NH3+][C@]1(C(=O)NCCCNC(=O)c2ccc(-c3c4nc(c(-c5c(F)cc(S(=O)(=O)[O-])cc5F)c5ccc([nH]5)c(-c5c(F)cc(S(=O)(=O)[O-])cc5F)c5nc(c(-c6c(F)cc(S(=O)(=O)[O-])cc6F)c6ccc3[nH]6)C=C5)C=C4)cc2)CCC[C@@H]1CCOc1ccc(CO)cc1
REMARK SMILES IDX 3 1 4 2 5 3 2 5 78 6 81 7 79 8 80 9 1 10 82 14 83 15 84 16
REMARK SMILES IDX 85 17 86 18 92 19 87 20 91 21 88 22 89 23 90 24 6 26 7 27
REMARK SMILES IDX 8 28 9 29 10 30 11 32 12 33 13 34 77 35 14 36 76 37 15 38
REMARK SMILES IDX 16 39 17 40 70 41 18 42 75 43 69 44 71 45 19 46 74 47 68 48
REMARK SMILES IDX 67 49 20 51 54 52 33 53 53 54 34 55 37 56 52 57 72 58 35 59
REMARK SMILES IDX 36 60 51 62 73 63 38 64 21 65 22 66 31 67 23 68 24 69 30 70
REMARK SMILES IDX 32 71 25 72 26 73 27 74 28 75 29 76 55 77 56 78 65 79 57 80
REMARK SMILES IDX 58 81 64 82 66 83 59 84 60 85 61 86 62 87 63 88 39 89 40 90
REMARK SMILES IDX 49 91 41 92 42 93 48 94 50 95 43 96 44 97 45 98 46 99 47 100
REMARK H PARENT 5 4 1 11 1 12 1 13 90 25 9 31 71 50 37 61
REMARK Flexibility Score: inf
ROOT
ATOM      1  C   UNL A   1      44.161  22.981  28.544  1.00  0.00     0.281 C 
ATOM      2  O   UNL A   1      44.175  22.826  29.767  1.00  0.00    -0.268 OA
ATOM      3  N   UNL A   1      43.296  22.182  27.848  1.00  0.00    -0.351 N 
ATOM      4  H   UNL A   1      42.569  21.785  28.380  1.00  0.00     0.163 HD
ENDROOT
BRANCH   1   5
ATOM      5  C   UNL A   1      44.834  24.217  27.833  1.00  0.00     0.176 C 
ATOM      6  C   UNL A   1      45.646  25.011  28.895  1.00  0.00     0.079 C 
ATOM      7  C   UNL A   1      45.858  23.904  26.689  1.00  0.00     0.064 C 
ATOM      8  C   UNL A   1      46.978  25.357  28.260  1.00  0.00     0.008 C 
ATOM      9  C   UNL A   1      47.234  24.187  27.338  1.00  0.00     0.011 C 
BRANCH   5  10
ATOM     10  N   UNL A   1      43.673  25.004  27.414  1.00  0.00    -0.345 N 
ATOM     11  H   UNL A   1      43.970  25.723  26.755  1.00  0.00     0.345 HD
ATOM     12  H   UNL A   1      43.248  25.444  28.229  1.00  0.00     0.345 HD
ATOM     13  H   UNL A   1      42.992  24.392  26.964  1.00  0.00     0.345 HD
ENDBRANCH   5  10
BRANCH   7  14
ATOM     14  C   UNL A   1      45.833  24.604  25.284  1.00  0.00     0.052 C 
BRANCH  14  15
ATOM     15  C   UNL A   1      46.914  25.596  24.811  1.00  0.00     0.230 C 
BRANCH  15  16
ATOM     16  O   UNL A   1      46.367  26.863  24.363  1.00  0.00    -0.494 OA
BRANCH  16  17
ATOM     17  C   UNL A   1      45.592  27.441  25.334  1.00  0.00     0.119 A 
ATOM     18  C   UNL A   1      46.170  28.038  26.452  1.00  0.00     0.047 A 
ATOM     19  C   UNL A   1      44.214  27.473  25.154  1.00  0.00     0.047 A 
ATOM     20  C   UNL A   1      45.380  28.840  27.285  1.00  0.00     0.010 A 
ATOM     21  C   UNL A   1      43.430  28.286  25.970  1.00  0.00     0.010 A 
ATOM     22  C   UNL A   1      44.020  29.035  26.998  1.00  0.00    -0.022 A 
BRANCH  22  23
ATOM     23  C   UNL A   1      43.228  30.110  27.696  1.00  0.00     0.191 C 
BRANCH  23  24
ATOM     24  O   UNL A   1      43.972  30.720  28.738  1.00  0.00    -0.392 OA
ATOM     25  H   UNL A   1      44.885  30.394  28.716  1.00  0.00     0.211 HD
ENDBRANCH  23  24
ENDBRANCH  22  23
ENDBRANCH  16  17
ENDBRANCH  15  16
ENDBRANCH  14  15
ENDBRANCH   7  14
ENDBRANCH   1   5
BRANCH   3  26
ATOM     26  C   UNL A   1      43.293  21.837  26.442  1.00  0.00     0.118 C 
BRANCH  26  27
ATOM     27  C   UNL A   1      42.005  22.340  25.801  1.00  0.00     0.042 C 
BRANCH  27  28
ATOM     28  C   UNL A   1      40.801  22.073  26.682  1.00  0.00     0.118 C 
BRANCH  28  29
ATOM     29  N   UNL A   1      39.555  22.375  25.996  1.00  0.00    -0.352 N 
ATOM     30  C   UNL A   1      38.752  23.478  26.173  1.00  0.00     0.251 C 
ATOM     31  H   UNL A   1      39.251  21.716  25.332  1.00  0.00     0.163 HD
ATOM     32  O   UNL A   1      37.633  23.519  25.695  1.00  0.00    -0.269 OA
BRANCH  30  33
ATOM     33  C   UNL A   1      39.286  24.593  26.981  1.00  0.00     0.039 A 
ATOM     34  C   UNL A   1      40.058  25.575  26.361  1.00  0.00     0.014 A 
ATOM     35  C   UNL A   1      38.947  24.692  28.334  1.00  0.00     0.014 A 
ATOM     36  C   UNL A   1      40.462  26.688  27.098  1.00  0.00     0.010 A 
ATOM     37  C   UNL A   1      39.267  25.844  29.035  1.00  0.00     0.010 A 
ATOM     38  C   UNL A   1      40.048  26.842  28.432  1.00  0.00    -0.014 A 
BRANCH  38  39
ATOM     39  C   UNL A   1      40.476  27.999  29.252  1.00  0.00     0.031 A 
ATOM     40  C   UNL A   1      41.811  27.942  29.947  1.00  0.00     0.074 A 
ATOM     41  C   UNL A   1      39.655  29.054  29.420  1.00  0.00     0.049 A 
ATOM     42  N   UNL A   1      42.327  28.768  30.817  1.00  0.00    -0.248 NA
ATOM     43  C   UNL A   1      42.663  26.774  29.652  1.00  0.00     0.031 C 
ATOM     44  C   UNL A   1      38.324  29.200  28.824  1.00  0.00     0.029 A 
ATOM     45  N   UNL A   1      39.817  30.203  30.151  1.00  0.00    -0.354 N 
ATOM     46  C   UNL A   1      43.550  28.215  31.180  1.00  0.00     0.074 A 
ATOM     47  C   UNL A   1      43.667  26.948  30.497  1.00  0.00     0.031 C 
ATOM     48  C   UNL A   1      37.804  30.382  29.194  1.00  0.00     0.029 A 
ATOM     49  C   UNL A   1      38.743  31.059  30.084  1.00  0.00     0.049 A 
ATOM     50  H   UNL A   1      40.627  30.397  30.675  1.00  0.00     0.167 HD
ATOM     51  C   UNL A   1      44.509  28.737  31.980  1.00  0.00     0.037 A 
ATOM     52  C   UNL A   1      38.540  32.248  30.682  1.00  0.00     0.037 A 
ATOM     53  C   UNL A   1      44.401  30.019  32.619  1.00  0.00     0.049 A 
ATOM     54  C   UNL A   1      39.622  32.801  31.576  1.00  0.00     0.074 A 
ATOM     55  C   UNL A   1      45.319  30.655  33.435  1.00  0.00     0.029 A 
ATOM     56  N   UNL A   1      43.313  30.870  32.496  1.00  0.00    -0.354 N 
ATOM     57  N   UNL A   1      40.783  32.277  31.888  1.00  0.00    -0.248 NA
ATOM     58  C   UNL A   1      39.369  34.111  32.194  1.00  0.00     0.031 C 
ATOM     59  C   UNL A   1      44.776  31.883  33.824  1.00  0.00     0.029 A 
ATOM     60  C   UNL A   1      43.538  32.029  33.216  1.00  0.00     0.049 A 
ATOM     61  H   UNL A   1      42.501  30.679  31.974  1.00  0.00     0.167 HD
ATOM     62  C   UNL A   1      41.415  33.210  32.702  1.00  0.00     0.074 A 
ATOM     63  C   UNL A   1      40.510  34.333  32.830  1.00  0.00     0.031 C 
ATOM     64  C   UNL A   1      42.635  33.148  33.292  1.00  0.00     0.037 A 
BRANCH  51  65
ATOM     65  C   UNL A   1      45.767  27.937  32.173  1.00  0.00     0.058 A 
ATOM     66  C   UNL A   1      45.912  27.055  33.256  1.00  0.00     0.135 A 
ATOM     67  C   UNL A   1      46.824  28.022  31.253  1.00  0.00     0.135 A 
ATOM     68  F   UNL A   1      44.942  26.952  34.179  1.00  0.00    -0.206 F 
ATOM     69  C   UNL A   1      47.065  26.300  33.432  1.00  0.00     0.059 A 
ATOM     70  C   UNL A   1      47.976  27.254  31.392  1.00  0.00     0.059 A 
ATOM     71  F   UNL A   1      46.741  28.855  30.203  1.00  0.00    -0.206 F 
ATOM     72  C   UNL A   1      48.091  26.404  32.492  1.00  0.00     0.060 A 
BRANCH  72  73
ATOM     73  S   UNL A   1      49.569  25.393  32.721  1.00  0.00     0.124 S 
ATOM     74  O   UNL A   1      50.485  26.353  33.331  1.00  0.00    -0.237 OA
ATOM     75  O   UNL A   1      49.088  24.332  33.599  1.00  0.00    -0.237 OA
ATOM     76  O   UNL A   1      49.910  24.976  31.365  1.00  0.00    -0.744 OA
ENDBRANCH  72  73
ENDBRANCH  51  65
BRANCH  52  77
ATOM     77  C   UNL A   1      37.285  33.013  30.450  1.00  0.00     0.058 A 
ATOM     78  C   UNL A   1      36.255  33.010  31.404  1.00  0.00     0.135 A 
ATOM     79  C   UNL A   1      37.071  33.729  29.263  1.00  0.00     0.135 A 
ATOM     80  F   UNL A   1      36.411  32.340  32.556  1.00  0.00    -0.206 F 
ATOM     81  C   UNL A   1      35.042  33.651  31.172  1.00  0.00     0.059 A 
ATOM     82  C   UNL A   1      35.878  34.402  29.019  1.00  0.00     0.059 A 
ATOM     83  F   UNL A   1      38.032  33.784  28.327  1.00  0.00    -0.206 F 
ATOM     84  C   UNL A   1      34.860  34.338  29.971  1.00  0.00     0.060 A 
BRANCH  84  85
ATOM     85  S   UNL A   1      33.280  35.162  29.674  1.00  0.00     0.124 S 
ATOM     86  O   UNL A   1      32.747  34.378  28.566  1.00  0.00    -0.237 OA
ATOM     87  O   UNL A   1      32.603  35.000  30.956  1.00  0.00    -0.237 OA
ATOM     88  O   UNL A   1      33.674  36.530  29.349  1.00  0.00    -0.744 OA
ENDBRANCH  84  85
ENDBRANCH  52  77
BRANCH  64  89
ATOM     89  C   UNL A   1      43.093  34.349  34.067  1.00  0.00     0.058 A 
ATOM     90  C   UNL A   1      43.731  35.432  33.444  1.00  0.00     0.135 A 
ATOM     91  C   UNL A   1      42.821  34.445  35.442  1.00  0.00     0.135 A 
ATOM     92  F   UNL A   1      44.017  35.385  32.133  1.00  0.00    -0.206 F 
ATOM     93  C   UNL A   1      44.098  36.565  34.162  1.00  0.00     0.059 A 
ATOM     94  C   UNL A   1      43.155  35.579  36.173  1.00  0.00     0.059 A 
ATOM     95  F   UNL A   1      42.203  33.439  36.080  1.00  0.00    -0.206 F 
ATOM     96  C   UNL A   1      43.801  36.631  35.525  1.00  0.00     0.060 A 
BRANCH  96  97
ATOM     97  S   UNL A   1      44.236  38.129  36.432  1.00  0.00     0.124 S 
ATOM     98  O   UNL A   1      45.644  37.893  36.732  1.00  0.00    -0.237 OA
ATOM     99  O   UNL A   1      43.962  39.177  35.453  1.00  0.00    -0.237 OA
ATOM    100  O   UNL A   1      43.335  38.103  37.581  1.00  0.00    -0.744 OA
ENDBRANCH  96  97
ENDBRANCH  64  89
ENDBRANCH  38  39
ENDBRANCH  30  33
ENDBRANCH  28  29
ENDBRANCH  27  28
ENDBRANCH  26  27
ENDBRANCH   3  26
TORSDOF 20
ENDMDL
