MODEL 1
REMARK VINA RESULT:     -11.9      0.000      0.000
REMARK SMILES [NH3+]C[C@@]1([C@@H](O)C(=O)NCCCNC(=O)c2ccc(-c3c4nc(c(-c5c(F)cc(S(=O)(=O)[O-])cc5F)c5ccc([nH]5)c(-c5c(F)cc(S(=O)(=O)[O-])cc5F)c5nc(c(-c6c(F)cc(S(=O)(=O)[O-])cc6F)c6ccc3[nH]6)C=C5)C=C4)cc2)CCOc2ccccc21
REMARK SMILES IDX 10 1 9 2 8 3 6 4 7 5 4 7 3 8 81 9 89 10 82 11 84 12 88 13
REMARK SMILES IDX 83 14 85 15 87 16 86 17 2 18 1 19 5 23 11 25 12 26 13 27
REMARK SMILES IDX 14 29 15 30 16 31 80 32 17 33 79 34 18 35 19 36 20 37 73 38
REMARK SMILES IDX 21 39 78 40 72 41 74 42 22 43 77 44 71 45 70 46 23 48 57 49
REMARK SMILES IDX 36 50 56 51 37 52 40 53 55 54 75 55 38 56 39 57 54 59 76 60
REMARK SMILES IDX 41 61 24 62 25 63 34 64 26 65 27 66 33 67 35 68 28 69 29 70
REMARK SMILES IDX 30 71 31 72 32 73 58 74 59 75 68 76 60 77 61 78 67 79 69 80
REMARK SMILES IDX 62 81 63 82 64 83 65 84 66 85 42 86 43 87 52 88 44 89 45 90
REMARK SMILES IDX 51 91 53 92 46 93 47 94 48 95 49 96 50 97
REMARK H PARENT 8 6 1 20 1 21 1 22 5 24 12 28 74 47 40 58
REMARK Flexibility Score: inf
ROOT
ATOM      1  C   UNL A   1      37.391  22.864  25.635  1.00  0.00     0.042 C 
ENDROOT
BRANCH   1   2
ATOM      2  C   UNL A   1      35.905  23.179  25.484  1.00  0.00     0.117 C 
BRANCH   2   3
ATOM      3  N   UNL A   1      35.127  21.966  25.715  1.00  0.00    -0.354 N 
ATOM      4  C   UNL A   1      33.949  21.680  26.319  1.00  0.00     0.250 C 
ATOM      5  O   UNL A   1      33.680  20.471  26.410  1.00  0.00    -0.272 OA
ATOM      6  H   UNL A   1      35.563  21.165  25.343  1.00  0.00     0.163 HD
BRANCH   4   7
ATOM      7  C   UNL A   1      32.924  22.714  26.873  1.00  0.00     0.219 C 
BRANCH   7   8
ATOM      8  C   UNL A   1      31.979  23.483  25.849  1.00  0.00     0.086 C 
ATOM      9  C   UNL A   1      31.883  22.610  24.559  1.00  0.00     0.062 C 
ATOM     10  C   UNL A   1      32.503  24.837  25.337  1.00  0.00     0.009 A 
ATOM     11  C   UNL A   1      31.057  23.296  23.477  1.00  0.00     0.231 C 
ATOM     12  C   UNL A   1      32.229  25.285  24.036  1.00  0.00     0.123 A 
ATOM     13  C   UNL A   1      33.272  25.685  26.139  1.00  0.00     0.008 A 
ATOM     14  O   UNL A   1      31.583  24.554  23.078  1.00  0.00    -0.493 OA
ATOM     15  C   UNL A   1      32.674  26.540  23.596  1.00  0.00     0.047 A 
ATOM     16  C   UNL A   1      33.717  26.937  25.714  1.00  0.00     0.001 A 
ATOM     17  C   UNL A   1      33.407  27.372  24.437  1.00  0.00     0.004 A 
BRANCH   8  18
ATOM     18  C   UNL A   1      30.545  23.714  26.450  1.00  0.00     0.274 C 
BRANCH  18  19
ATOM     19  N   UNL A   1      29.743  22.523  26.739  1.00  0.00    -0.357 N 
ATOM     20  H   UNL A   1      30.344  21.793  27.119  1.00  0.00     0.344 HD
ATOM     21  H   UNL A   1      29.306  22.192  25.879  1.00  0.00     0.344 HD
ATOM     22  H   UNL A   1      29.020  22.757  27.419  1.00  0.00     0.344 HD
ENDBRANCH  18  19
ENDBRANCH   8  18
ENDBRANCH   7   8
BRANCH   7  23
ATOM     23  O   UNL A   1      32.282  22.315  28.079  1.00  0.00    -0.382 OA
ATOM     24  H   UNL A   1      32.706  22.755  28.832  1.00  0.00     0.211 HD
ENDBRANCH   7  23
ENDBRANCH   4   7
ENDBRANCH   2   3
ENDBRANCH   1   2
BRANCH   1  25
ATOM     25  C   UNL A   1      38.281  23.925  26.276  1.00  0.00     0.118 C 
BRANCH  25  26
ATOM     26  N   UNL A   1      39.708  23.818  26.050  1.00  0.00    -0.352 N 
ATOM     27  C   UNL A   1      40.790  24.447  26.639  1.00  0.00     0.251 C 
ATOM     28  H   UNL A   1      39.955  23.177  25.344  1.00  0.00     0.163 HD
ATOM     29  O   UNL A   1      41.907  24.041  26.331  1.00  0.00    -0.269 OA
BRANCH  27  30
ATOM     30  C   UNL A   1      40.675  25.619  27.562  1.00  0.00     0.039 A 
ATOM     31  C   UNL A   1      39.637  25.600  28.508  1.00  0.00     0.014 A 
ATOM     32  C   UNL A   1      41.513  26.732  27.539  1.00  0.00     0.014 A 
ATOM     33  C   UNL A   1      39.504  26.624  29.460  1.00  0.00     0.010 A 
ATOM     34  C   UNL A   1      41.452  27.694  28.554  1.00  0.00     0.010 A 
ATOM     35  C   UNL A   1      40.448  27.657  29.531  1.00  0.00    -0.014 A 
BRANCH  35  36
ATOM     36  C   UNL A   1      40.405  28.705  30.595  1.00  0.00     0.031 A 
ATOM     37  C   UNL A   1      41.301  28.600  31.806  1.00  0.00     0.074 A 
ATOM     38  C   UNL A   1      39.501  29.705  30.530  1.00  0.00     0.049 A 
ATOM     39  N   UNL A   1      41.297  29.308  32.908  1.00  0.00    -0.248 NA
ATOM     40  C   UNL A   1      42.312  27.530  31.791  1.00  0.00     0.031 C 
ATOM     41  C   UNL A   1      38.535  29.908  29.448  1.00  0.00     0.029 A 
ATOM     42  N   UNL A   1      39.231  30.732  31.404  1.00  0.00    -0.354 N 
ATOM     43  C   UNL A   1      42.264  28.741  33.732  1.00  0.00     0.074 A 
ATOM     44  C   UNL A   1      42.809  27.606  33.017  1.00  0.00     0.031 C 
ATOM     45  C   UNL A   1      37.794  30.995  29.712  1.00  0.00     0.029 A 
ATOM     46  C   UNL A   1      38.195  31.545  31.004  1.00  0.00     0.049 A 
ATOM     47  H   UNL A   1      39.732  30.872  32.240  1.00  0.00     0.167 HD
ATOM     48  C   UNL A   1      42.679  29.138  34.961  1.00  0.00     0.037 A 
ATOM     49  C   UNL A   1      37.618  32.601  31.610  1.00  0.00     0.037 A 
ATOM     50  C   UNL A   1      42.184  30.305  35.644  1.00  0.00     0.049 A 
ATOM     51  C   UNL A   1      38.124  33.053  32.952  1.00  0.00     0.074 A 
ATOM     52  C   UNL A   1      42.601  30.834  36.853  1.00  0.00     0.029 A 
ATOM     53  N   UNL A   1      41.175  31.130  35.174  1.00  0.00    -0.354 N 
ATOM     54  N   UNL A   1      39.071  32.530  33.693  1.00  0.00    -0.248 NA
ATOM     55  C   UNL A   1      37.486  34.240  33.541  1.00  0.00     0.031 C 
ATOM     56  C   UNL A   1      41.822  31.963  37.130  1.00  0.00     0.029 A 
ATOM     57  C   UNL A   1      40.947  32.160  36.074  1.00  0.00     0.049 A 
ATOM     58  H   UNL A   1      40.690  31.004  34.326  1.00  0.00     0.167 HD
ATOM     59  C   UNL A   1      39.155  33.333  34.826  1.00  0.00     0.074 A 
ATOM     60  C   UNL A   1      38.173  34.385  34.666  1.00  0.00     0.031 C 
ATOM     61  C   UNL A   1      39.972  33.207  35.900  1.00  0.00     0.037 A 
BRANCH  48  62
ATOM     62  C   UNL A   1      43.729  28.304  35.645  1.00  0.00     0.058 A 
ATOM     63  C   UNL A   1      45.099  28.511  35.421  1.00  0.00     0.135 A 
ATOM     64  C   UNL A   1      43.361  27.298  36.555  1.00  0.00     0.135 A 
ATOM     65  F   UNL A   1      45.508  29.450  34.553  1.00  0.00    -0.206 F 
ATOM     66  C   UNL A   1      46.066  27.724  36.040  1.00  0.00     0.059 A 
ATOM     67  C   UNL A   1      44.312  26.519  37.208  1.00  0.00     0.059 A 
ATOM     68  F   UNL A   1      42.065  27.061  36.813  1.00  0.00    -0.206 F 
ATOM     69  C   UNL A   1      45.662  26.726  36.928  1.00  0.00     0.060 A 
BRANCH  69  70
ATOM     70  S   UNL A   1      46.926  25.704  37.712  1.00  0.00     0.124 S 
ATOM     71  O   UNL A   1      47.016  24.587  36.776  1.00  0.00    -0.237 OA
ATOM     72  O   UNL A   1      48.079  26.597  37.743  1.00  0.00    -0.237 OA
ATOM     73  O   UNL A   1      46.347  25.385  39.014  1.00  0.00    -0.744 OA
ENDBRANCH  69  70
ENDBRANCH  48  62
BRANCH  49  74
ATOM     74  C   UNL A   1      36.499  33.319  30.939  1.00  0.00     0.058 A 
ATOM     75  C   UNL A   1      35.183  33.200  31.410  1.00  0.00     0.135 A 
ATOM     76  C   UNL A   1      36.725  34.155  29.834  1.00  0.00     0.135 A 
ATOM     77  F   UNL A   1      34.916  32.405  32.457  1.00  0.00    -0.206 F 
ATOM     78  C   UNL A   1      34.129  33.877  30.806  1.00  0.00     0.059 A 
ATOM     79  C   UNL A   1      35.690  34.860  29.227  1.00  0.00     0.059 A 
ATOM     80  F   UNL A   1      37.968  34.313  29.354  1.00  0.00    -0.206 F 
ATOM     81  C   UNL A   1      34.393  34.709  29.716  1.00  0.00     0.060 A 
BRANCH  81  82
ATOM     82  S   UNL A   1      33.026  35.631  28.979  1.00  0.00     0.124 S 
ATOM     83  O   UNL A   1      33.735  36.679  28.254  1.00  0.00    -0.237 OA
ATOM     84  O   UNL A   1      32.376  34.615  28.158  1.00  0.00    -0.237 OA
ATOM     85  O   UNL A   1      32.257  36.073  30.139  1.00  0.00    -0.744 OA
ENDBRANCH  81  82
ENDBRANCH  49  74
BRANCH  61  86
ATOM     86  C   UNL A   1      39.863  34.246  36.980  1.00  0.00     0.058 A 
ATOM     87  C   UNL A   1      40.454  35.511  36.847  1.00  0.00     0.135 A 
ATOM     88  C   UNL A   1      39.105  33.992  38.136  1.00  0.00     0.135 A 
ATOM     89  F   UNL A   1      41.193  35.800  35.765  1.00  0.00    -0.206 F 
ATOM     90  C   UNL A   1      40.313  36.485  37.831  1.00  0.00     0.059 A 
ATOM     91  C   UNL A   1      38.932  34.959  39.121  1.00  0.00     0.059 A 
ATOM     92  F   UNL A   1      38.511  32.800  38.307  1.00  0.00    -0.206 F 
ATOM     93  C   UNL A   1      39.547  36.201  38.963  1.00  0.00     0.060 A 
BRANCH  93  94
ATOM     94  S   UNL A   1      39.334  37.487  40.211  1.00  0.00     0.124 S 
ATOM     95  O   UNL A   1      38.737  36.736  41.309  1.00  0.00    -0.237 OA
ATOM     96  O   UNL A   1      40.703  37.946  40.427  1.00  0.00    -0.237 OA
ATOM     97  O   UNL A   1      38.454  38.452  39.558  1.00  0.00    -0.744 OA
ENDBRANCH  93  94
ENDBRANCH  61  86
ENDBRANCH  35  36
ENDBRANCH  27  30
ENDBRANCH  25  26
ENDBRANCH   1  25
TORSDOF 17
ENDMDL
MODEL 2
REMARK VINA RESULT:     -11.9      5.017     10.544
REMARK SMILES [NH3+]C[C@@]1([C@@H](O)C(=O)NCCCNC(=O)c2ccc(-c3c4nc(c(-c5c(F)cc(S(=O)(=O)[O-])cc5F)c5ccc([nH]5)c(-c5c(F)cc(S(=O)(=O)[O-])cc5F)c5nc(c(-c6c(F)cc(S(=O)(=O)[O-])cc6F)c6ccc3[nH]6)C=C5)C=C4)cc2)CCOc2ccccc21
REMARK SMILES IDX 10 1 9 2 8 3 6 4 7 5 4 7 3 8 81 9 89 10 82 11 84 12 88 13
REMARK SMILES IDX 83 14 85 15 87 16 86 17 2 18 1 19 5 23 11 25 12 26 13 27
REMARK SMILES IDX 14 29 15 30 16 31 80 32 17 33 79 34 18 35 19 36 20 37 73 38
REMARK SMILES IDX 21 39 78 40 72 41 74 42 22 43 77 44 71 45 70 46 23 48 57 49
REMARK SMILES IDX 36 50 56 51 37 52 40 53 55 54 75 55 38 56 39 57 54 59 76 60
REMARK SMILES IDX 41 61 24 62 25 63 34 64 26 65 27 66 33 67 35 68 28 69 29 70
REMARK SMILES IDX 30 71 31 72 32 73 58 74 59 75 68 76 60 77 61 78 67 79 69 80
REMARK SMILES IDX 62 81 63 82 64 83 65 84 66 85 42 86 43 87 52 88 44 89 45 90
REMARK SMILES IDX 51 91 53 92 46 93 47 94 48 95 49 96 50 97
REMARK H PARENT 8 6 1 20 1 21 1 22 5 24 12 28 74 47 40 58
REMARK Flexibility Score: inf
ROOT
ATOM      1  C   UNL A   1      31.800  27.869  27.355  1.00  0.00     0.042 C 
ENDROOT
BRANCH   1   2
ATOM      2  C   UNL A   1      31.436  26.846  26.281  1.00  0.00     0.117 C 
BRANCH   2   3
ATOM      3  N   UNL A   1      31.473  25.506  26.857  1.00  0.00    -0.354 N 
ATOM      4  C   UNL A   1      31.469  24.246  26.360  1.00  0.00     0.250 C 
ATOM      5  O   UNL A   1      31.390  23.342  27.208  1.00  0.00    -0.272 OA
ATOM      6  H   UNL A   1      31.511  25.521  27.841  1.00  0.00     0.163 HD
BRANCH   4   7
ATOM      7  C   UNL A   1      31.573  23.849  24.857  1.00  0.00     0.219 C 
BRANCH   7   8
ATOM      8  C   UNL A   1      32.536  22.652  24.444  1.00  0.00     0.086 C 
ATOM      9  C   UNL A   1      31.987  21.358  25.122  1.00  0.00     0.062 C 
ATOM     10  C   UNL A   1      33.985  22.748  24.956  1.00  0.00     0.009 A 
ATOM     11  C   UNL A   1      32.887  20.158  24.851  1.00  0.00     0.231 C 
ATOM     12  C   UNL A   1      34.718  21.602  25.301  1.00  0.00     0.123 A 
ATOM     13  C   UNL A   1      34.640  23.974  25.101  1.00  0.00     0.008 A 
ATOM     14  O   UNL A   1      34.216  20.331  25.322  1.00  0.00    -0.493 OA
ATOM     15  C   UNL A   1      36.052  21.699  25.723  1.00  0.00     0.047 A 
ATOM     16  C   UNL A   1      35.967  24.082  25.517  1.00  0.00     0.001 A 
ATOM     17  C   UNL A   1      36.682  22.936  25.820  1.00  0.00     0.004 A 
BRANCH   8  18
ATOM     18  C   UNL A   1      32.585  22.464  22.884  1.00  0.00     0.274 C 
BRANCH  18  19
ATOM     19  N   UNL A   1      32.493  23.674  22.063  1.00  0.00    -0.357 N 
ATOM     20  H   UNL A   1      32.220  24.462  22.649  1.00  0.00     0.344 HD
ATOM     21  H   UNL A   1      31.795  23.535  21.332  1.00  0.00     0.344 HD
ATOM     22  H   UNL A   1      33.399  23.864  21.636  1.00  0.00     0.344 HD
ENDBRANCH  18  19
ENDBRANCH   8  18
ENDBRANCH   7   8
BRANCH   7  23
ATOM     23  O   UNL A   1      30.333  23.874  24.156  1.00  0.00    -0.382 OA
ATOM     24  H   UNL A   1      30.359  24.570  23.481  1.00  0.00     0.211 HD
ENDBRANCH   7  23
ENDBRANCH   4   7
ENDBRANCH   2   3
ENDBRANCH   1   2
BRANCH   1  25
ATOM     25  C   UNL A   1      33.154  28.564  27.243  1.00  0.00     0.118 C 
BRANCH  25  26
ATOM     26  N   UNL A   1      33.237  29.932  27.713  1.00  0.00    -0.352 N 
ATOM     27  C   UNL A   1      34.304  30.704  28.134  1.00  0.00     0.251 C 
ATOM     28  H   UNL A   1      32.371  30.401  27.737  1.00  0.00     0.163 HD
ATOM     29  O   UNL A   1      34.084  31.894  28.343  1.00  0.00    -0.269 OA
BRANCH  27  30
ATOM     30  C   UNL A   1      35.672  30.163  28.410  1.00  0.00     0.039 A 
ATOM     31  C   UNL A   1      36.589  30.146  27.346  1.00  0.00     0.014 A 
ATOM     32  C   UNL A   1      36.093  29.660  29.639  1.00  0.00     0.014 A 
ATOM     33  C   UNL A   1      37.915  29.724  27.538  1.00  0.00     0.010 A 
ATOM     34  C   UNL A   1      37.439  29.346  29.859  1.00  0.00     0.010 A 
ATOM     35  C   UNL A   1      38.373  29.373  28.814  1.00  0.00    -0.014 A 
BRANCH  35  36
ATOM     36  C   UNL A   1      39.800  29.023  29.082  1.00  0.00     0.031 A 
ATOM     37  C   UNL A   1      40.755  30.065  29.614  1.00  0.00     0.074 A 
ATOM     38  C   UNL A   1      40.273  27.799  28.763  1.00  0.00     0.049 A 
ATOM     39  N   UNL A   1      42.057  30.008  29.752  1.00  0.00    -0.248 NA
ATOM     40  C   UNL A   1      40.172  31.358  30.007  1.00  0.00     0.031 C 
ATOM     41  C   UNL A   1      39.482  26.705  28.193  1.00  0.00     0.029 A 
ATOM     42  N   UNL A   1      41.540  27.272  28.854  1.00  0.00    -0.354 N 
ATOM     43  C   UNL A   1      42.450  31.265  30.198  1.00  0.00     0.074 A 
ATOM     44  C   UNL A   1      41.254  32.077  30.271  1.00  0.00     0.031 C 
ATOM     45  C   UNL A   1      40.274  25.638  28.003  1.00  0.00     0.029 A 
ATOM     46  C   UNL A   1      41.639  25.980  28.391  1.00  0.00     0.049 A 
ATOM     47  H   UNL A   1      42.306  27.774  29.217  1.00  0.00     0.167 HD
ATOM     48  C   UNL A   1      43.688  31.702  30.538  1.00  0.00     0.037 A 
ATOM     49  C   UNL A   1      42.706  25.165  28.272  1.00  0.00     0.037 A 
ATOM     50  C   UNL A   1      44.868  30.877  30.530  1.00  0.00     0.049 A 
ATOM     51  C   UNL A   1      44.063  25.654  28.697  1.00  0.00     0.074 A 
ATOM     52  C   UNL A   1      46.150  31.206  30.934  1.00  0.00     0.029 A 
ATOM     53  N   UNL A   1      44.910  29.558  30.106  1.00  0.00    -0.354 N 
ATOM     54  N   UNL A   1      44.405  26.832  29.160  1.00  0.00    -0.248 NA
ATOM     55  C   UNL A   1      45.180  24.704  28.588  1.00  0.00     0.031 C 
ATOM     56  C   UNL A   1      46.975  30.094  30.728  1.00  0.00     0.029 A 
ATOM     57  C   UNL A   1      46.198  29.060  30.230  1.00  0.00     0.049 A 
ATOM     58  H   UNL A   1      44.138  29.048  29.766  1.00  0.00     0.167 HD
ATOM     59  C   UNL A   1      45.771  26.759  29.413  1.00  0.00     0.074 A 
ATOM     60  C   UNL A   1      46.190  25.417  29.066  1.00  0.00     0.031 C 
ATOM     61  C   UNL A   1      46.601  27.720  29.890  1.00  0.00     0.037 A 
BRANCH  48  62
ATOM     62  C   UNL A   1      43.829  33.141  30.957  1.00  0.00     0.058 A 
ATOM     63  C   UNL A   1      43.809  33.523  32.308  1.00  0.00     0.135 A 
ATOM     64  C   UNL A   1      44.009  34.150  29.996  1.00  0.00     0.135 A 
ATOM     65  F   UNL A   1      43.628  32.602  33.268  1.00  0.00    -0.206 F 
ATOM     66  C   UNL A   1      43.919  34.857  32.689  1.00  0.00     0.059 A 
ATOM     67  C   UNL A   1      44.151  35.488  30.357  1.00  0.00     0.059 A 
ATOM     68  F   UNL A   1      44.043  33.842  28.690  1.00  0.00    -0.206 F 
ATOM     69  C   UNL A   1      44.084  35.833  31.706  1.00  0.00     0.060 A 
BRANCH  69  70
ATOM     70  S   UNL A   1      44.210  37.560  32.216  1.00  0.00     0.124 S 
ATOM     71  O   UNL A   1      43.242  37.611  33.307  1.00  0.00    -0.237 OA
ATOM     72  O   UNL A   1      45.611  37.672  32.607  1.00  0.00    -0.237 OA
ATOM     73  O   UNL A   1      43.837  38.298  31.012  1.00  0.00    -0.744 OA
ENDBRANCH  69  70
ENDBRANCH  48  62
BRANCH  49  74
ATOM     74  C   UNL A   1      42.529  23.787  27.737  1.00  0.00     0.058 A 
ATOM     75  C   UNL A   1      42.437  23.557  26.356  1.00  0.00     0.135 A 
ATOM     76  C   UNL A   1      42.472  22.673  28.590  1.00  0.00     0.135 A 
ATOM     77  F   UNL A   1      42.476  24.591  25.502  1.00  0.00    -0.206 F 
ATOM     78  C   UNL A   1      42.288  22.274  25.839  1.00  0.00     0.059 A 
ATOM     79  C   UNL A   1      42.346  21.379  28.095  1.00  0.00     0.059 A 
ATOM     80  F   UNL A   1      42.568  22.839  29.919  1.00  0.00    -0.206 F 
ATOM     81  C   UNL A   1      42.248  21.190  26.717  1.00  0.00     0.060 A 
BRANCH  81  82
ATOM     82  S   UNL A   1      42.117  19.524  26.031  1.00  0.00     0.124 S 
ATOM     83  O   UNL A   1      42.521  18.705  27.167  1.00  0.00    -0.237 OA
ATOM     84  O   UNL A   1      40.707  19.453  25.662  1.00  0.00    -0.237 OA
ATOM     85  O   UNL A   1      43.049  19.551  24.907  1.00  0.00    -0.744 OA
ENDBRANCH  81  82
ENDBRANCH  49  74
BRANCH  61  86
ATOM     86  C   UNL A   1      48.044  27.351  30.092  1.00  0.00     0.058 A 
ATOM     87  C   UNL A   1      49.017  27.631  29.122  1.00  0.00     0.135 A 
ATOM     88  C   UNL A   1      48.465  26.765  31.297  1.00  0.00     0.135 A 
ATOM     89  F   UNL A   1      48.665  28.184  27.951  1.00  0.00    -0.206 F 
ATOM     90  C   UNL A   1      50.360  27.328  29.332  1.00  0.00     0.059 A 
ATOM     91  C   UNL A   1      49.804  26.474  31.537  1.00  0.00     0.059 A 
ATOM     92  F   UNL A   1      47.573  26.485  32.261  1.00  0.00    -0.206 F 
ATOM     93  C   UNL A   1      50.744  26.753  30.545  1.00  0.00     0.060 A 
BRANCH  93  94
ATOM     94  S   UNL A   1      52.493  26.404  30.824  1.00  0.00     0.124 S 
ATOM     95  O   UNL A   1      52.427  25.185  31.621  1.00  0.00    -0.237 OA
ATOM     96  O   UNL A   1      53.003  26.247  29.465  1.00  0.00    -0.237 OA
ATOM     97  O   UNL A   1      52.967  27.592  31.530  1.00  0.00    -0.744 OA
ENDBRANCH  93  94
ENDBRANCH  61  86
ENDBRANCH  35  36
ENDBRANCH  27  30
ENDBRANCH  25  26
ENDBRANCH   1  25
TORSDOF 17
ENDMDL
MODEL 3
REMARK VINA RESULT:     -11.6      5.137     10.610
REMARK SMILES [NH3+]C[C@@]1([C@@H](O)C(=O)NCCCNC(=O)c2ccc(-c3c4nc(c(-c5c(F)cc(S(=O)(=O)[O-])cc5F)c5ccc([nH]5)c(-c5c(F)cc(S(=O)(=O)[O-])cc5F)c5nc(c(-c6c(F)cc(S(=O)(=O)[O-])cc6F)c6ccc3[nH]6)C=C5)C=C4)cc2)CCOc2ccccc21
REMARK SMILES IDX 10 1 9 2 8 3 6 4 7 5 4 7 3 8 81 9 89 10 82 11 84 12 88 13
REMARK SMILES IDX 83 14 85 15 87 16 86 17 2 18 1 19 5 23 11 25 12 26 13 27
REMARK SMILES IDX 14 29 15 30 16 31 80 32 17 33 79 34 18 35 19 36 20 37 73 38
REMARK SMILES IDX 21 39 78 40 72 41 74 42 22 43 77 44 71 45 70 46 23 48 57 49
REMARK SMILES IDX 36 50 56 51 37 52 40 53 55 54 75 55 38 56 39 57 54 59 76 60
REMARK SMILES IDX 41 61 24 62 25 63 34 64 26 65 27 66 33 67 35 68 28 69 29 70
REMARK SMILES IDX 30 71 31 72 32 73 58 74 59 75 68 76 60 77 61 78 67 79 69 80
REMARK SMILES IDX 62 81 63 82 64 83 65 84 66 85 42 86 43 87 52 88 44 89 45 90
REMARK SMILES IDX 51 91 53 92 46 93 47 94 48 95 49 96 50 97
REMARK H PARENT 8 6 1 20 1 21 1 22 5 24 12 28 74 47 40 58
REMARK Flexibility Score: inf
ROOT
ATOM      1  C   UNL A   1      32.211  27.665  27.187  1.00  0.00     0.042 C 
ENDROOT
BRANCH   1   2
ATOM      2  C   UNL A   1      31.438  27.084  26.005  1.00  0.00     0.117 C 
BRANCH   2   3
ATOM      3  N   UNL A   1      32.380  26.569  25.017  1.00  0.00    -0.354 N 
ATOM      4  C   UNL A   1      32.543  25.393  24.366  1.00  0.00     0.250 C 
ATOM      5  O   UNL A   1      33.567  25.311  23.668  1.00  0.00    -0.272 OA
ATOM      6  H   UNL A   1      33.059  27.237  24.763  1.00  0.00     0.163 HD
BRANCH   4   7
ATOM      7  C   UNL A   1      31.569  24.178  24.403  1.00  0.00     0.219 C 
BRANCH   7   8
ATOM      8  C   UNL A   1      31.754  23.081  25.541  1.00  0.00     0.086 C 
ATOM      9  C   UNL A   1      32.837  23.614  26.530  1.00  0.00     0.062 C 
ATOM     10  C   UNL A   1      32.314  21.723  25.081  1.00  0.00     0.009 A 
ATOM     11  C   UNL A   1      33.146  22.598  27.623  1.00  0.00     0.231 C 
ATOM     12  C   UNL A   1      33.150  20.956  25.907  1.00  0.00     0.123 A 
ATOM     13  C   UNL A   1      32.019  21.187  23.824  1.00  0.00     0.008 A 
ATOM     14  O   UNL A   1      33.628  21.359  27.123  1.00  0.00    -0.493 OA
ATOM     15  C   UNL A   1      33.618  19.700  25.495  1.00  0.00     0.047 A 
ATOM     16  C   UNL A   1      32.476  19.938  23.404  1.00  0.00     0.001 A 
ATOM     17  C   UNL A   1      33.273  19.184  24.249  1.00  0.00     0.004 A 
BRANCH   8  18
ATOM     18  C   UNL A   1      30.408  22.814  26.308  1.00  0.00     0.274 C 
BRANCH  18  19
ATOM     19  N   UNL A   1      29.723  23.977  26.877  1.00  0.00    -0.357 N 
ATOM     20  H   UNL A   1      29.162  23.683  27.677  1.00  0.00     0.344 HD
ATOM     21  H   UNL A   1      29.116  24.393  26.171  1.00  0.00     0.344 HD
ATOM     22  H   UNL A   1      30.413  24.664  27.179  1.00  0.00     0.344 HD
ENDBRANCH  18  19
ENDBRANCH   8  18
ENDBRANCH   7   8
BRANCH   7  23
ATOM     23  O   UNL A   1      30.213  24.503  24.114  1.00  0.00    -0.382 OA
ATOM     24  H   UNL A   1      29.632  24.059  24.752  1.00  0.00     0.211 HD
ENDBRANCH   7  23
ENDBRANCH   4   7
ENDBRANCH   2   3
ENDBRANCH   1   2
BRANCH   1  25
ATOM     25  C   UNL A   1      33.352  28.631  26.884  1.00  0.00     0.118 C 
BRANCH  25  26
ATOM     26  N   UNL A   1      33.348  29.902  27.580  1.00  0.00    -0.352 N 
ATOM     27  C   UNL A   1      34.357  30.634  28.179  1.00  0.00     0.251 C 
ATOM     28  H   UNL A   1      32.460  30.323  27.638  1.00  0.00     0.163 HD
ATOM     29  O   UNL A   1      34.070  31.761  28.572  1.00  0.00    -0.269 OA
BRANCH  27  30
ATOM     30  C   UNL A   1      35.736  30.110  28.429  1.00  0.00     0.039 A 
ATOM     31  C   UNL A   1      36.629  30.094  27.344  1.00  0.00     0.014 A 
ATOM     32  C   UNL A   1      36.190  29.624  29.652  1.00  0.00     0.014 A 
ATOM     33  C   UNL A   1      37.964  29.688  27.510  1.00  0.00     0.010 A 
ATOM     34  C   UNL A   1      37.545  29.327  29.845  1.00  0.00     0.010 A 
ATOM     35  C   UNL A   1      38.454  29.354  28.779  1.00  0.00    -0.014 A 
BRANCH  35  36
ATOM     36  C   UNL A   1      39.891  29.023  29.018  1.00  0.00     0.031 A 
ATOM     37  C   UNL A   1      40.845  30.079  29.523  1.00  0.00     0.074 A 
ATOM     38  C   UNL A   1      40.371  27.802  28.697  1.00  0.00     0.049 A 
ATOM     39  N   UNL A   1      42.150  30.038  29.634  1.00  0.00    -0.248 NA
ATOM     40  C   UNL A   1      40.255  31.368  29.921  1.00  0.00     0.031 C 
ATOM     41  C   UNL A   1      39.582  26.696  28.151  1.00  0.00     0.029 A 
ATOM     42  N   UNL A   1      41.646  27.291  28.763  1.00  0.00    -0.354 N 
ATOM     43  C   UNL A   1      42.538  31.303  30.063  1.00  0.00     0.074 A 
ATOM     44  C   UNL A   1      41.334  32.101  30.158  1.00  0.00     0.031 C 
ATOM     45  C   UNL A   1      40.381  25.637  27.950  1.00  0.00     0.029 A 
ATOM     46  C   UNL A   1      41.750  25.997  28.306  1.00  0.00     0.049 A 
ATOM     47  H   UNL A   1      42.414  27.804  29.106  1.00  0.00     0.167 HD
ATOM     48  C   UNL A   1      43.778  31.756  30.374  1.00  0.00     0.037 A 
ATOM     49  C   UNL A   1      42.824  25.194  28.168  1.00  0.00     0.037 A 
ATOM     50  C   UNL A   1      44.967  30.945  30.345  1.00  0.00     0.049 A 
ATOM     51  C   UNL A   1      44.184  25.702  28.562  1.00  0.00     0.074 A 
ATOM     52  C   UNL A   1      46.253  31.291  30.720  1.00  0.00     0.029 A 
ATOM     53  N   UNL A   1      45.015  29.623  29.929  1.00  0.00    -0.354 N 
ATOM     54  N   UNL A   1      44.522  26.886  29.010  1.00  0.00    -0.248 NA
ATOM     55  C   UNL A   1      45.309  24.764  28.434  1.00  0.00     0.031 C 
ATOM     56  C   UNL A   1      47.086  30.188  30.503  1.00  0.00     0.029 A 
ATOM     57  C   UNL A   1      46.311  29.142  30.028  1.00  0.00     0.049 A 
ATOM     58  H   UNL A   1      44.242  29.103  29.608  1.00  0.00     0.167 HD
ATOM     59  C   UNL A   1      45.894  26.831  29.234  1.00  0.00     0.074 A 
ATOM     60  C   UNL A   1      46.321  25.492  28.886  1.00  0.00     0.031 C 
ATOM     61  C   UNL A   1      46.722  27.804  29.687  1.00  0.00     0.037 A 
BRANCH  48  62
ATOM     62  C   UNL A   1      43.910  33.199  30.781  1.00  0.00     0.058 A 
ATOM     63  C   UNL A   1      44.166  34.212  29.842  1.00  0.00     0.135 A 
ATOM     64  C   UNL A   1      43.757  33.579  32.125  1.00  0.00     0.135 A 
ATOM     65  F   UNL A   1      44.333  33.905  28.546  1.00  0.00    -0.206 F 
ATOM     66  C   UNL A   1      44.307  35.542  30.226  1.00  0.00     0.059 A 
ATOM     67  C   UNL A   1      43.865  34.908  32.527  1.00  0.00     0.059 A 
ATOM     68  F   UNL A   1      43.505  32.655  33.065  1.00  0.00    -0.206 F 
ATOM     69  C   UNL A   1      44.161  35.880  31.572  1.00  0.00     0.060 A 
BRANCH  69  70
ATOM     70  S   UNL A   1      44.363  37.607  32.056  1.00  0.00     0.124 S 
ATOM     71  O   UNL A   1      45.809  37.688  32.241  1.00  0.00    -0.237 OA
ATOM     72  O   UNL A   1      43.831  38.322  30.901  1.00  0.00    -0.237 OA
ATOM     73  O   UNL A   1      43.568  37.713  33.276  1.00  0.00    -0.744 OA
ENDBRANCH  69  70
ENDBRANCH  48  62
BRANCH  49  74
ATOM     74  C   UNL A   1      42.651  23.811  27.646  1.00  0.00     0.058 A 
ATOM     75  C   UNL A   1      42.528  22.721  28.521  1.00  0.00     0.135 A 
ATOM     76  C   UNL A   1      42.581  23.553  26.268  1.00  0.00     0.135 A 
ATOM     77  F   UNL A   1      42.599  22.916  29.847  1.00  0.00    -0.206 F 
ATOM     78  C   UNL A   1      42.350  21.425  28.051  1.00  0.00     0.059 A 
ATOM     79  C   UNL A   1      42.381  22.268  25.774  1.00  0.00     0.059 A 
ATOM     80  F   UNL A   1      42.681  24.563  25.389  1.00  0.00    -0.206 F 
ATOM     81  C   UNL A   1      42.273  21.208  26.674  1.00  0.00     0.060 A 
BRANCH  81  82
ATOM     82  S   UNL A   1      41.978  19.529  26.077  1.00  0.00     0.124 S 
ATOM     83  O   UNL A   1      42.327  18.734  27.248  1.00  0.00    -0.237 OA
ATOM     84  O   UNL A   1      40.560  19.569  25.732  1.00  0.00    -0.237 OA
ATOM     85  O   UNL A   1      42.888  19.414  24.939  1.00  0.00    -0.744 OA
ENDBRANCH  81  82
ENDBRANCH  49  74
BRANCH  61  86
ATOM     86  C   UNL A   1      48.173  27.454  29.860  1.00  0.00     0.058 A 
ATOM     87  C   UNL A   1      49.128  27.768  28.881  1.00  0.00     0.135 A 
ATOM     88  C   UNL A   1      48.622  26.850  31.047  1.00  0.00     0.135 A 
ATOM     89  F   UNL A   1      48.750  28.339  27.727  1.00  0.00    -0.206 F 
ATOM     90  C   UNL A   1      50.478  27.481  29.066  1.00  0.00     0.059 A 
ATOM     91  C   UNL A   1      49.968  26.575  31.261  1.00  0.00     0.059 A 
ATOM     92  F   UNL A   1      47.749  26.537  32.018  1.00  0.00    -0.206 F 
ATOM     93  C   UNL A   1      50.889  26.888  30.261  1.00  0.00     0.060 A 
BRANCH  93  94
ATOM     94  S   UNL A   1      52.647  26.561  30.507  1.00  0.00     0.124 S 
ATOM     95  O   UNL A   1      53.057  26.137  29.173  1.00  0.00    -0.237 OA
ATOM     96  O   UNL A   1      53.151  27.860  30.942  1.00  0.00    -0.237 OA
ATOM     97  O   UNL A   1      52.659  25.518  31.529  1.00  0.00    -0.744 OA
ENDBRANCH  93  94
ENDBRANCH  61  86
ENDBRANCH  35  36
ENDBRANCH  27  30
ENDBRANCH  25  26
ENDBRANCH   1  25
TORSDOF 17
ENDMDL
