MODEL 1
REMARK VINA RESULT:     -12.5      0.000      0.000
REMARK SMILES C#Cc1cc(Cl)c2c(c1)C=C(C(=O)NCCCNC(=O)c1ccc(-c3c4nc(c(-c5c(F)cc(S(=O)(=O)[O-])cc5F)c5ccc([nH]5)c(-c5c(F)cc(S(=O)(=O)[O-])cc5F)c5nc(c(-c6c(F)cc(S(=O)(=O)[O-])cc6F)c6ccc3[nH]6)C=C5)C=C4)cc1)[C@@H](C(F)(F)F)O2
REMARK SMILES IDX 17 1 16 2 15 3 14 4 12 5 13 6 11 8 3 9 4 10 9 11 5 12 8 13
REMARK SMILES IDX 6 14 7 15 10 16 92 17 87 18 2 19 1 20 88 21 89 22 90 23
REMARK SMILES IDX 91 24 18 25 19 26 20 28 21 29 22 30 86 31 23 32 85 33 24 34
REMARK SMILES IDX 25 35 26 36 79 37 27 38 84 39 78 40 80 41 28 42 83 43 77 44
REMARK SMILES IDX 76 45 29 47 63 48 42 49 62 50 43 51 46 52 61 53 81 54 44 55
REMARK SMILES IDX 45 56 60 58 82 59 47 60 30 61 31 62 40 63 32 64 33 65 39 66
REMARK SMILES IDX 41 67 34 68 35 69 36 70 37 71 38 72 64 73 65 74 74 75 66 76
REMARK SMILES IDX 67 77 73 78 75 79 68 80 69 81 70 82 71 83 72 84 48 85 49 86
REMARK SMILES IDX 58 87 50 88 51 89 57 90 59 91 52 92 53 93 54 94 55 95 56 96
REMARK H PARENT 14 7 18 27 80 46 46 57
REMARK Flexibility Score: inf
ROOT
ATOM      1  C   UNL A   1      40.487  23.177  27.130  1.00  0.00     0.118 C 
ENDROOT
BRANCH   1   2
ATOM      2  C   UNL A   1      39.295  22.466  26.512  1.00  0.00     0.042 C 
BRANCH   2   3
ATOM      3  C   UNL A   1      38.198  23.444  26.129  1.00  0.00     0.118 C 
BRANCH   3   4
ATOM      4  N   UNL A   1      37.720  23.227  24.770  1.00  0.00    -0.352 N 
ATOM      5  C   UNL A   1      36.544  23.325  24.107  1.00  0.00     0.251 C 
ATOM      6  O   UNL A   1      36.589  23.070  22.899  1.00  0.00    -0.270 OA
ATOM      7  H   UNL A   1      38.447  22.930  24.175  1.00  0.00     0.163 HD
BRANCH   5   8
ATOM      8  C   UNL A   1      35.246  23.711  24.733  1.00  0.00     0.067 C 
ATOM      9  C   UNL A   1      32.346  27.195  26.421  1.00  0.00     0.027 A 
ATOM     10  C   UNL A   1      31.325  26.262  26.614  1.00  0.00     0.041 A 
ATOM     11  C   UNL A   1      33.571  26.797  25.873  1.00  0.00     0.029 A 
ATOM     12  C   UNL A   1      31.527  24.933  26.257  1.00  0.00     0.084 A 
ATOM     13  C   UNL A   1      33.778  25.460  25.516  1.00  0.00     0.020 A 
ATOM     14  Cl  UNL A   1      30.244  23.805  26.509  1.00  0.00    -0.080 Cl
ATOM     15  C   UNL A   1      32.751  24.531  25.713  1.00  0.00     0.146 A 
ATOM     16  C   UNL A   1      35.030  25.029  24.901  1.00  0.00     0.025 C 
ATOM     17  O   UNL A   1      32.881  23.224  25.341  1.00  0.00    -0.474 OA
ATOM     18  C   UNL A   1      34.225  22.713  25.190  1.00  0.00     0.314 C 
BRANCH   9  19
ATOM     19  C   UNL A   1      32.119  28.560  26.774  1.00  0.00    -0.070 C 
ATOM     20  C   UNL A   1      31.952  29.719  27.044  1.00  0.00     0.010 C 
ENDBRANCH   9  19
BRANCH  18  21
ATOM     21  C   UNL A   1      34.646  21.999  26.490  1.00  0.00     0.429 C 
ATOM     22  F   UNL A   1      33.638  21.225  26.960  1.00  0.00    -0.167 F 
ATOM     23  F   UNL A   1      35.711  21.177  26.318  1.00  0.00    -0.167 F 
ATOM     24  F   UNL A   1      34.987  22.867  27.470  1.00  0.00    -0.167 F 
ENDBRANCH  18  21
ENDBRANCH   5   8
ENDBRANCH   3   4
ENDBRANCH   2   3
ENDBRANCH   1   2
BRANCH   1  25
ATOM     25  N   UNL A   1      41.263  23.905  26.126  1.00  0.00    -0.352 N 
ATOM     26  C   UNL A   1      41.597  25.233  26.059  1.00  0.00     0.251 C 
ATOM     27  H   UNL A   1      41.598  23.355  25.381  1.00  0.00     0.163 HD
ATOM     28  O   UNL A   1      42.007  25.709  25.005  1.00  0.00    -0.269 OA
BRANCH  26  29
ATOM     29  C   UNL A   1      41.454  26.077  27.259  1.00  0.00     0.039 A 
ATOM     30  C   UNL A   1      42.384  27.090  27.504  1.00  0.00     0.014 A 
ATOM     31  C   UNL A   1      40.393  25.861  28.139  1.00  0.00     0.014 A 
ATOM     32  C   UNL A   1      42.202  27.928  28.603  1.00  0.00     0.010 A 
ATOM     33  C   UNL A   1      40.147  26.768  29.156  1.00  0.00     0.010 A 
ATOM     34  C   UNL A   1      41.062  27.796  29.413  1.00  0.00    -0.014 A 
BRANCH  34  35
ATOM     35  C   UNL A   1      40.825  28.697  30.564  1.00  0.00     0.031 A 
ATOM     36  C   UNL A   1      41.665  28.553  31.804  1.00  0.00     0.074 A 
ATOM     37  C   UNL A   1      39.833  29.606  30.506  1.00  0.00     0.049 A 
ATOM     38  N   UNL A   1      41.590  29.213  32.929  1.00  0.00    -0.248 NA
ATOM     39  C   UNL A   1      42.711  27.514  31.789  1.00  0.00     0.031 C 
ATOM     40  C   UNL A   1      38.932  29.802  29.367  1.00  0.00     0.029 A 
ATOM     41  N   UNL A   1      39.418  30.538  31.421  1.00  0.00    -0.354 N 
ATOM     42  C   UNL A   1      42.574  28.671  33.748  1.00  0.00     0.074 A 
ATOM     43  C   UNL A   1      43.180  27.578  33.025  1.00  0.00     0.031 C 
ATOM     44  C   UNL A   1      38.101  30.821  29.635  1.00  0.00     0.029 A 
ATOM     45  C   UNL A   1      38.376  31.320  30.979  1.00  0.00     0.049 A 
ATOM     46  H   UNL A   1      39.827  30.639  32.311  1.00  0.00     0.167 HD
ATOM     47  C   UNL A   1      42.964  29.078  34.978  1.00  0.00     0.037 A 
ATOM     48  C   UNL A   1      37.717  32.322  31.592  1.00  0.00     0.037 A 
ATOM     49  C   UNL A   1      42.366  30.182  35.679  1.00  0.00     0.049 A 
ATOM     50  C   UNL A   1      38.141  32.726  32.978  1.00  0.00     0.074 A 
ATOM     51  C   UNL A   1      42.708  30.700  36.913  1.00  0.00     0.029 A 
ATOM     52  N   UNL A   1      41.301  30.936  35.207  1.00  0.00    -0.354 N 
ATOM     53  N   UNL A   1      39.112  32.243  33.717  1.00  0.00    -0.248 NA
ATOM     54  C   UNL A   1      37.383  33.811  33.616  1.00  0.00     0.031 C 
ATOM     55  C   UNL A   1      41.812  31.727  37.217  1.00  0.00     0.029 A 
ATOM     56  C   UNL A   1      40.952  31.896  36.143  1.00  0.00     0.049 A 
ATOM     57  H   UNL A   1      40.858  30.809  34.337  1.00  0.00     0.167 HD
ATOM     58  C   UNL A   1      39.098  32.980  34.896  1.00  0.00     0.074 A 
ATOM     59  C   UNL A   1      38.033  33.955  34.763  1.00  0.00     0.031 C 
ATOM     60  C   UNL A   1      39.891  32.861  35.990  1.00  0.00     0.037 A 
BRANCH  47  61
ATOM     61  C   UNL A   1      44.097  28.339  35.637  1.00  0.00     0.058 A 
ATOM     62  C   UNL A   1      45.436  28.705  35.422  1.00  0.00     0.135 A 
ATOM     63  C   UNL A   1      43.841  27.292  36.536  1.00  0.00     0.135 A 
ATOM     64  F   UNL A   1      45.741  29.685  34.556  1.00  0.00    -0.206 F 
ATOM     65  C   UNL A   1      46.481  28.047  36.060  1.00  0.00     0.059 A 
ATOM     66  C   UNL A   1      44.869  26.642  37.211  1.00  0.00     0.059 A 
ATOM     67  F   UNL A   1      42.580  26.897  36.772  1.00  0.00    -0.206 F 
ATOM     68  C   UNL A   1      46.186  27.021  36.960  1.00  0.00     0.060 A 
BRANCH  68  69
ATOM     69  S   UNL A   1      47.557  26.198  37.798  1.00  0.00     0.124 S 
ATOM     70  O   UNL A   1      47.376  24.816  37.365  1.00  0.00    -0.237 OA
ATOM     71  O   UNL A   1      48.716  26.889  37.242  1.00  0.00    -0.237 OA
ATOM     72  O   UNL A   1      47.296  26.452  39.211  1.00  0.00    -0.744 OA
ENDBRANCH  68  69
ENDBRANCH  47  61
BRANCH  48  73
ATOM     73  C   UNL A   1      36.614  33.027  30.884  1.00  0.00     0.058 A 
ATOM     74  C   UNL A   1      35.275  32.813  31.241  1.00  0.00     0.135 A 
ATOM     75  C   UNL A   1      36.876  33.949  29.857  1.00  0.00     0.135 A 
ATOM     76  F   UNL A   1      34.971  31.938  32.211  1.00  0.00    -0.206 F 
ATOM     77  C   UNL A   1      34.234  33.478  30.600  1.00  0.00     0.059 A 
ATOM     78  C   UNL A   1      35.853  34.649  29.222  1.00  0.00     0.059 A 
ATOM     79  F   UNL A   1      38.141  34.205  29.486  1.00  0.00    -0.206 F 
ATOM     80  C   UNL A   1      34.535  34.400  29.596  1.00  0.00     0.060 A 
BRANCH  80  81
ATOM     81  S   UNL A   1      33.175  35.293  28.811  1.00  0.00     0.124 S 
ATOM     82  O   UNL A   1      32.555  34.242  28.012  1.00  0.00    -0.237 OA
ATOM     83  O   UNL A   1      32.411  35.755  29.965  1.00  0.00    -0.237 OA
ATOM     84  O   UNL A   1      33.853  36.342  28.055  1.00  0.00    -0.744 OA
ENDBRANCH  80  81
ENDBRANCH  48  73
BRANCH  60  85
ATOM     85  C   UNL A   1      39.659  33.813  37.131  1.00  0.00     0.058 A 
ATOM     86  C   UNL A   1      38.839  33.472  38.218  1.00  0.00     0.135 A 
ATOM     87  C   UNL A   1      40.337  35.042  37.182  1.00  0.00     0.135 A 
ATOM     88  F   UNL A   1      38.165  32.310  38.218  1.00  0.00    -0.206 F 
ATOM     89  C   UNL A   1      38.687  34.323  39.307  1.00  0.00     0.059 A 
ATOM     90  C   UNL A   1      40.227  35.893  38.276  1.00  0.00     0.059 A 
ATOM     91  F   UNL A   1      41.145  35.411  36.175  1.00  0.00    -0.206 F 
ATOM     92  C   UNL A   1      39.393  35.527  39.331  1.00  0.00     0.060 A 
BRANCH  92  93
ATOM     93  S   UNL A   1      39.218  36.595  40.775  1.00  0.00     0.124 S 
ATOM     94  O   UNL A   1      40.604  36.727  41.213  1.00  0.00    -0.237 OA
ATOM     95  O   UNL A   1      38.617  37.794  40.202  1.00  0.00    -0.237 OA
ATOM     96  O   UNL A   1      38.352  35.828  41.665  1.00  0.00    -0.744 OA
ENDBRANCH  92  93
ENDBRANCH  60  85
ENDBRANCH  34  35
ENDBRANCH  26  29
ENDBRANCH   1  25
TORSDOF 15
ENDMDL
MODEL 2
REMARK VINA RESULT:     -12.4      6.571     12.015
REMARK SMILES C#Cc1cc(Cl)c2c(c1)C=C(C(=O)NCCCNC(=O)c1ccc(-c3c4nc(c(-c5c(F)cc(S(=O)(=O)[O-])cc5F)c5ccc([nH]5)c(-c5c(F)cc(S(=O)(=O)[O-])cc5F)c5nc(c(-c6c(F)cc(S(=O)(=O)[O-])cc6F)c6ccc3[nH]6)C=C5)C=C4)cc1)[C@@H](C(F)(F)F)O2
REMARK SMILES IDX 17 1 16 2 15 3 14 4 12 5 13 6 11 8 3 9 4 10 9 11 5 12 8 13
REMARK SMILES IDX 6 14 7 15 10 16 92 17 87 18 2 19 1 20 88 21 89 22 90 23
REMARK SMILES IDX 91 24 18 25 19 26 20 28 21 29 22 30 86 31 23 32 85 33 24 34
REMARK SMILES IDX 25 35 26 36 79 37 27 38 84 39 78 40 80 41 28 42 83 43 77 44
REMARK SMILES IDX 76 45 29 47 63 48 42 49 62 50 43 51 46 52 61 53 81 54 44 55
REMARK SMILES IDX 45 56 60 58 82 59 47 60 30 61 31 62 40 63 32 64 33 65 39 66
REMARK SMILES IDX 41 67 34 68 35 69 36 70 37 71 38 72 64 73 65 74 74 75 66 76
REMARK SMILES IDX 67 77 73 78 75 79 68 80 69 81 70 82 71 83 72 84 48 85 49 86
REMARK SMILES IDX 58 87 50 88 51 89 57 90 59 91 52 92 53 93 54 94 55 95 56 96
REMARK H PARENT 14 7 18 27 80 46 46 57
REMARK Flexibility Score: inf
ROOT
ATOM      1  C   UNL A   1      35.771  31.516  28.343  1.00  0.00     0.118 C 
ENDROOT
BRANCH   1   2
ATOM      2  C   UNL A   1      34.558  31.056  27.552  1.00  0.00     0.042 C 
BRANCH   2   3
ATOM      3  C   UNL A   1      34.536  29.548  27.387  1.00  0.00     0.118 C 
BRANCH   3   4
ATOM      4  N   UNL A   1      33.224  28.983  27.673  1.00  0.00    -0.352 N 
ATOM      5  C   UNL A   1      32.437  28.003  27.171  1.00  0.00     0.251 C 
ATOM      6  O   UNL A   1      31.365  27.824  27.760  1.00  0.00    -0.270 OA
ATOM      7  H   UNL A   1      32.794  29.438  28.434  1.00  0.00     0.163 HD
BRANCH   5   8
ATOM      8  C   UNL A   1      32.783  27.157  25.993  1.00  0.00     0.067 C 
ATOM      9  C   UNL A   1      35.258  23.422  24.168  1.00  0.00     0.027 A 
ATOM     10  C   UNL A   1      34.600  23.573  22.946  1.00  0.00     0.041 A 
ATOM     11  C   UNL A   1      34.945  24.259  25.246  1.00  0.00     0.029 A 
ATOM     12  C   UNL A   1      33.629  24.559  22.802  1.00  0.00     0.084 A 
ATOM     13  C   UNL A   1      33.972  25.253  25.101  1.00  0.00     0.020 A 
ATOM     14  Cl  UNL A   1      32.835  24.720  21.276  1.00  0.00    -0.080 Cl
ATOM     15  C   UNL A   1      33.318  25.400  23.874  1.00  0.00     0.146 A 
ATOM     16  C   UNL A   1      33.596  26.109  26.223  1.00  0.00     0.025 C 
ATOM     17  O   UNL A   1      32.328  26.322  23.691  1.00  0.00    -0.474 OA
ATOM     18  C   UNL A   1      32.294  27.442  24.604  1.00  0.00     0.314 C 
BRANCH   9  19
ATOM     19  C   UNL A   1      36.238  22.394  24.309  1.00  0.00    -0.070 C 
ATOM     20  C   UNL A   1      37.037  21.502  24.425  1.00  0.00     0.010 C 
ENDBRANCH   9  19
BRANCH  18  21
ATOM     21  C   UNL A   1      33.020  28.643  23.964  1.00  0.00     0.429 C 
ATOM     22  F   UNL A   1      32.685  29.796  24.590  1.00  0.00    -0.167 F 
ATOM     23  F   UNL A   1      34.370  28.543  24.041  1.00  0.00    -0.167 F 
ATOM     24  F   UNL A   1      32.721  28.787  22.652  1.00  0.00    -0.167 F 
ENDBRANCH  18  21
ENDBRANCH   5   8
ENDBRANCH   3   4
ENDBRANCH   2   3
ENDBRANCH   1   2
BRANCH   1  25
ATOM     25  N   UNL A   1      35.642  31.198  29.765  1.00  0.00    -0.352 N 
ATOM     26  C   UNL A   1      36.385  30.358  30.555  1.00  0.00     0.251 C 
ATOM     27  H   UNL A   1      34.906  31.659  30.228  1.00  0.00     0.163 HD
ATOM     28  O   UNL A   1      35.954  30.005  31.648  1.00  0.00    -0.269 OA
BRANCH  26  29
ATOM     29  C   UNL A   1      37.695  29.883  30.075  1.00  0.00     0.039 A 
ATOM     30  C   UNL A   1      37.999  29.958  28.714  1.00  0.00     0.014 A 
ATOM     31  C   UNL A   1      38.622  29.366  30.981  1.00  0.00     0.014 A 
ATOM     32  C   UNL A   1      39.266  29.572  28.278  1.00  0.00     0.010 A 
ATOM     33  C   UNL A   1      39.916  29.101  30.565  1.00  0.00     0.010 A 
ATOM     34  C   UNL A   1      40.245  29.178  29.206  1.00  0.00    -0.014 A 
BRANCH  34  35
ATOM     35  C   UNL A   1      41.609  28.799  28.774  1.00  0.00     0.031 A 
ATOM     36  C   UNL A   1      42.695  29.840  28.749  1.00  0.00     0.074 A 
ATOM     37  C   UNL A   1      41.853  27.539  28.367  1.00  0.00     0.049 A 
ATOM     38  N   UNL A   1      43.938  29.722  28.366  1.00  0.00    -0.248 NA
ATOM     39  C   UNL A   1      42.331  31.200  29.187  1.00  0.00     0.031 C 
ATOM     40  C   UNL A   1      40.862  26.462  28.313  1.00  0.00     0.029 A 
ATOM     41  N   UNL A   1      43.009  26.948  27.927  1.00  0.00    -0.354 N 
ATOM     42  C   UNL A   1      44.500  30.984  28.519  1.00  0.00     0.074 A 
ATOM     43  C   UNL A   1      43.447  31.872  28.951  1.00  0.00     0.031 C 
ATOM     44  C   UNL A   1      41.463  25.332  27.907  1.00  0.00     0.029 A 
ATOM     45  C   UNL A   1      42.867  25.613  27.627  1.00  0.00     0.049 A 
ATOM     46  H   UNL A   1      43.860  27.434  27.833  1.00  0.00     0.167 HD
ATOM     47  C   UNL A   1      45.789  31.358  28.352  1.00  0.00     0.037 A 
ATOM     48  C   UNL A   1      43.769  24.720  27.175  1.00  0.00     0.037 A 
ATOM     49  C   UNL A   1      46.833  30.458  27.940  1.00  0.00     0.049 A 
ATOM     50  C   UNL A   1      45.187  25.173  26.954  1.00  0.00     0.074 A 
ATOM     51  C   UNL A   1      48.179  30.725  27.775  1.00  0.00     0.029 A 
ATOM     52  N   UNL A   1      46.647  29.119  27.628  1.00  0.00    -0.354 N 
ATOM     53  N   UNL A   1      45.716  26.356  27.159  1.00  0.00    -0.248 NA
ATOM     54  C   UNL A   1      46.133  24.171  26.443  1.00  0.00     0.031 C 
ATOM     55  C   UNL A   1      48.797  29.565  27.303  1.00  0.00     0.029 A 
ATOM     56  C   UNL A   1      47.850  28.554  27.239  1.00  0.00     0.049 A 
ATOM     57  H   UNL A   1      45.788  28.640  27.676  1.00  0.00     0.167 HD
ATOM     58  C   UNL A   1      47.061  26.236  26.825  1.00  0.00     0.074 A 
ATOM     59  C   UNL A   1      47.267  24.859  26.424  1.00  0.00     0.031 C 
ATOM     60  C   UNL A   1      48.036  27.179  26.847  1.00  0.00     0.037 A 
BRANCH  47  61
ATOM     61  C   UNL A   1      46.147  32.793  28.628  1.00  0.00     0.058 A 
ATOM     62  C   UNL A   1      46.102  33.768  27.619  1.00  0.00     0.135 A 
ATOM     63  C   UNL A   1      46.484  33.210  29.926  1.00  0.00     0.135 A 
ATOM     64  F   UNL A   1      45.807  33.423  26.355  1.00  0.00    -0.206 F 
ATOM     65  C   UNL A   1      46.395  35.101  27.882  1.00  0.00     0.059 A 
ATOM     66  C   UNL A   1      46.748  34.543  30.219  1.00  0.00     0.059 A 
ATOM     67  F   UNL A   1      46.549  32.317  30.927  1.00  0.00    -0.206 F 
ATOM     68  C   UNL A   1      46.709  35.480  29.189  1.00  0.00     0.060 A 
BRANCH  68  69
ATOM     69  S   UNL A   1      47.062  37.221  29.512  1.00  0.00     0.124 S 
ATOM     70  O   UNL A   1      47.597  37.163  30.869  1.00  0.00    -0.237 OA
ATOM     71  O   UNL A   1      48.026  37.540  28.464  1.00  0.00    -0.237 OA
ATOM     72  O   UNL A   1      45.758  37.863  29.380  1.00  0.00    -0.744 OA
ENDBRANCH  68  69
ENDBRANCH  47  61
BRANCH  48  73
ATOM     73  C   UNL A   1      43.360  23.310  26.935  1.00  0.00     0.058 A 
ATOM     74  C   UNL A   1      43.237  22.807  25.631  1.00  0.00     0.135 A 
ATOM     75  C   UNL A   1      43.113  22.428  28.000  1.00  0.00     0.135 A 
ATOM     76  F   UNL A   1      43.456  23.610  24.579  1.00  0.00    -0.206 F 
ATOM     77  C   UNL A   1      42.873  21.486  25.390  1.00  0.00     0.059 A 
ATOM     78  C   UNL A   1      42.777  21.094  27.784  1.00  0.00     0.059 A 
ATOM     79  F   UNL A   1      43.233  22.853  29.268  1.00  0.00    -0.206 F 
ATOM     80  C   UNL A   1      42.653  20.635  26.475  1.00  0.00     0.060 A 
BRANCH  80  81
ATOM     81  S   UNL A   1      42.232  18.910  26.145  1.00  0.00     0.124 S 
ATOM     82  O   UNL A   1      42.520  18.285  27.431  1.00  0.00    -0.237 OA
ATOM     83  O   UNL A   1      40.822  19.007  25.783  1.00  0.00    -0.237 OA
ATOM     84  O   UNL A   1      43.131  18.547  25.053  1.00  0.00    -0.744 OA
ENDBRANCH  80  81
ENDBRANCH  48  73
BRANCH  60  85
ATOM     85  C   UNL A   1      49.423  26.762  26.442  1.00  0.00     0.058 A 
ATOM     86  C   UNL A   1      50.302  26.151  27.350  1.00  0.00     0.135 A 
ATOM     87  C   UNL A   1      49.844  26.889  25.107  1.00  0.00     0.135 A 
ATOM     88  F   UNL A   1      49.951  26.008  28.638  1.00  0.00    -0.206 F 
ATOM     89  C   UNL A   1      51.555  25.697  26.953  1.00  0.00     0.059 A 
ATOM     90  C   UNL A   1      51.078  26.411  24.681  1.00  0.00     0.059 A 
ATOM     91  F   UNL A   1      49.036  27.453  24.195  1.00  0.00    -0.206 F 
ATOM     92  C   UNL A   1      51.930  25.823  25.614  1.00  0.00     0.060 A 
BRANCH  92  93
ATOM     93  S   UNL A   1      53.540  25.184  25.111  1.00  0.00     0.124 S 
ATOM     94  O   UNL A   1      53.609  25.621  23.720  1.00  0.00    -0.237 OA
ATOM     95  O   UNL A   1      54.444  25.862  26.034  1.00  0.00    -0.237 OA
ATOM     96  O   UNL A   1      53.414  23.743  25.308  1.00  0.00    -0.744 OA
ENDBRANCH  92  93
ENDBRANCH  60  85
ENDBRANCH  34  35
ENDBRANCH  26  29
ENDBRANCH   1  25
TORSDOF 15
ENDMDL
MODEL 3
REMARK VINA RESULT:     -12.4      4.636     10.204
REMARK SMILES C#Cc1cc(Cl)c2c(c1)C=C(C(=O)NCCCNC(=O)c1ccc(-c3c4nc(c(-c5c(F)cc(S(=O)(=O)[O-])cc5F)c5ccc([nH]5)c(-c5c(F)cc(S(=O)(=O)[O-])cc5F)c5nc(c(-c6c(F)cc(S(=O)(=O)[O-])cc6F)c6ccc3[nH]6)C=C5)C=C4)cc1)[C@@H](C(F)(F)F)O2
REMARK SMILES IDX 17 1 16 2 15 3 14 4 12 5 13 6 11 8 3 9 4 10 9 11 5 12 8 13
REMARK SMILES IDX 6 14 7 15 10 16 92 17 87 18 2 19 1 20 88 21 89 22 90 23
REMARK SMILES IDX 91 24 18 25 19 26 20 28 21 29 22 30 86 31 23 32 85 33 24 34
REMARK SMILES IDX 25 35 26 36 79 37 27 38 84 39 78 40 80 41 28 42 83 43 77 44
REMARK SMILES IDX 76 45 29 47 63 48 42 49 62 50 43 51 46 52 61 53 81 54 44 55
REMARK SMILES IDX 45 56 60 58 82 59 47 60 30 61 31 62 40 63 32 64 33 65 39 66
REMARK SMILES IDX 41 67 34 68 35 69 36 70 37 71 38 72 64 73 65 74 74 75 66 76
REMARK SMILES IDX 67 77 73 78 75 79 68 80 69 81 70 82 71 83 72 84 48 85 49 86
REMARK SMILES IDX 58 87 50 88 51 89 57 90 59 91 52 92 53 93 54 94 55 95 56 96
REMARK H PARENT 14 7 18 27 80 46 46 57
REMARK Flexibility Score: inf
ROOT
ATOM      1  C   UNL A   1      33.785  28.214  26.598  1.00  0.00     0.118 C 
ENDROOT
BRANCH   1   2
ATOM      2  C   UNL A   1      33.961  28.122  25.091  1.00  0.00     0.042 C 
BRANCH   2   3
ATOM      3  C   UNL A   1      32.719  27.567  24.416  1.00  0.00     0.118 C 
BRANCH   3   4
ATOM      4  N   UNL A   1      31.770  27.021  25.377  1.00  0.00    -0.352 N 
ATOM      5  C   UNL A   1      31.524  25.822  25.953  1.00  0.00     0.251 C 
ATOM      6  O   UNL A   1      30.603  25.803  26.777  1.00  0.00    -0.270 OA
ATOM      7  H   UNL A   1      31.139  27.709  25.691  1.00  0.00     0.163 HD
BRANCH   5   8
ATOM      8  C   UNL A   1      32.277  24.568  25.659  1.00  0.00     0.067 C 
ATOM      9  C   UNL A   1      36.475  22.164  25.690  1.00  0.00     0.027 A 
ATOM     10  C   UNL A   1      35.820  21.000  25.284  1.00  0.00     0.041 A 
ATOM     11  C   UNL A   1      35.749  23.339  25.916  1.00  0.00     0.029 A 
ATOM     12  C   UNL A   1      34.440  21.010  25.107  1.00  0.00     0.084 A 
ATOM     13  C   UNL A   1      34.362  23.352  25.735  1.00  0.00     0.020 A 
ATOM     14  Cl  UNL A   1      33.661  19.553  24.603  1.00  0.00    -0.080 Cl
ATOM     15  C   UNL A   1      33.713  22.183  25.327  1.00  0.00     0.146 A 
ATOM     16  C   UNL A   1      33.577  24.553  26.008  1.00  0.00     0.025 C 
ATOM     17  O   UNL A   1      32.357  22.126  25.180  1.00  0.00    -0.474 OA
ATOM     18  C   UNL A   1      31.662  23.379  24.985  1.00  0.00     0.314 C 
BRANCH   9  19
ATOM     19  C   UNL A   1      37.889  22.136  25.887  1.00  0.00    -0.070 C 
ATOM     20  C   UNL A   1      39.074  22.093  26.085  1.00  0.00     0.010 C 
ENDBRANCH   9  19
BRANCH  18  21
ATOM     21  C   UNL A   1      31.444  23.609  23.475  1.00  0.00     0.429 C 
ATOM     22  F   UNL A   1      30.203  24.098  23.240  1.00  0.00    -0.167 F 
ATOM     23  F   UNL A   1      32.315  24.504  22.948  1.00  0.00    -0.167 F 
ATOM     24  F   UNL A   1      31.580  22.472  22.754  1.00  0.00    -0.167 F 
ENDBRANCH  18  21
ENDBRANCH   5   8
ENDBRANCH   3   4
ENDBRANCH   2   3
ENDBRANCH   1   2
BRANCH   1  25
ATOM     25  N   UNL A   1      33.636  29.600  27.041  1.00  0.00    -0.352 N 
ATOM     26  C   UNL A   1      34.447  30.366  27.838  1.00  0.00     0.251 C 
ATOM     27  H   UNL A   1      32.825  30.055  26.715  1.00  0.00     0.163 HD
ATOM     28  O   UNL A   1      34.019  31.406  28.328  1.00  0.00    -0.269 OA
BRANCH  26  29
ATOM     29  C   UNL A   1      35.829  29.925  28.101  1.00  0.00     0.039 A 
ATOM     30  C   UNL A   1      36.799  30.070  27.108  1.00  0.00     0.014 A 
ATOM     31  C   UNL A   1      36.158  29.369  29.338  1.00  0.00     0.014 A 
ATOM     32  C   UNL A   1      38.118  29.715  27.389  1.00  0.00     0.010 A 
ATOM     33  C   UNL A   1      37.485  29.133  29.655  1.00  0.00     0.010 A 
ATOM     34  C   UNL A   1      38.475  29.281  28.677  1.00  0.00    -0.014 A 
BRANCH  34  35
ATOM     35  C   UNL A   1      39.875  28.933  29.012  1.00  0.00     0.031 A 
ATOM     36  C   UNL A   1      40.739  29.939  29.724  1.00  0.00     0.074 A 
ATOM     37  C   UNL A   1      40.373  27.739  28.639  1.00  0.00     0.049 A 
ATOM     38  N   UNL A   1      41.995  29.845  30.070  1.00  0.00    -0.248 NA
ATOM     39  C   UNL A   1      40.118  31.230  30.072  1.00  0.00     0.031 C 
ATOM     40  C   UNL A   1      39.633  26.707  27.908  1.00  0.00     0.029 A 
ATOM     41  N   UNL A   1      41.613  27.188  28.825  1.00  0.00    -0.354 N 
ATOM     42  C   UNL A   1      42.311  31.057  30.672  1.00  0.00     0.074 A 
ATOM     43  C   UNL A   1      41.143  31.900  30.575  1.00  0.00     0.031 C 
ATOM     44  C   UNL A   1      40.421  25.632  27.749  1.00  0.00     0.029 A 
ATOM     45  C   UNL A   1      41.734  25.915  28.320  1.00  0.00     0.049 A 
ATOM     46  H   UNL A   1      42.350  27.660  29.278  1.00  0.00     0.167 HD
ATOM     47  C   UNL A   1      43.459  31.417  31.288  1.00  0.00     0.037 A 
ATOM     48  C   UNL A   1      42.787  25.073  28.318  1.00  0.00     0.037 A 
ATOM     49  C   UNL A   1      44.609  30.559  31.396  1.00  0.00     0.049 A 
ATOM     50  C   UNL A   1      44.068  25.516  28.971  1.00  0.00     0.074 A 
ATOM     51  C   UNL A   1      45.811  30.813  32.029  1.00  0.00     0.029 A 
ATOM     52  N   UNL A   1      44.699  29.285  30.856  1.00  0.00    -0.354 N 
ATOM     53  N   UNL A   1      44.333  26.644  29.588  1.00  0.00    -0.248 NA
ATOM     54  C   UNL A   1      45.196  24.574  28.929  1.00  0.00     0.031 C 
ATOM     55  C   UNL A   1      46.651  29.718  31.820  1.00  0.00     0.029 A 
ATOM     56  C   UNL A   1      45.951  28.751  31.114  1.00  0.00     0.049 A 
ATOM     57  H   UNL A   1      43.981  28.827  30.362  1.00  0.00     0.167 HD
ATOM     58  C   UNL A   1      45.648  26.538  30.029  1.00  0.00     0.074 A 
ATOM     59  C   UNL A   1      46.117  25.228  29.624  1.00  0.00     0.031 C 
ATOM     60  C   UNL A   1      46.398  27.443  30.706  1.00  0.00     0.037 A 
BRANCH  47  61
ATOM     61  C   UNL A   1      43.527  32.788  31.905  1.00  0.00     0.058 A 
ATOM     62  C   UNL A   1      43.925  33.910  31.160  1.00  0.00     0.135 A 
ATOM     63  C   UNL A   1      43.136  32.993  33.238  1.00  0.00     0.135 A 
ATOM     64  F   UNL A   1      44.330  33.770  29.888  1.00  0.00    -0.206 F 
ATOM     65  C   UNL A   1      43.951  35.182  31.719  1.00  0.00     0.059 A 
ATOM     66  C   UNL A   1      43.122  34.262  33.808  1.00  0.00     0.059 A 
ATOM     67  F   UNL A   1      42.753  31.955  33.997  1.00  0.00    -0.206 F 
ATOM     68  C   UNL A   1      43.539  35.349  33.043  1.00  0.00     0.060 A 
BRANCH  68  69
ATOM     69  S   UNL A   1      43.556  37.014  33.740  1.00  0.00     0.124 S 
ATOM     70  O   UNL A   1      43.697  37.832  32.539  1.00  0.00    -0.237 OA
ATOM     71  O   UNL A   1      42.258  37.082  34.404  1.00  0.00    -0.237 OA
ATOM     72  O   UNL A   1      44.713  37.000  34.628  1.00  0.00    -0.744 OA
ENDBRANCH  68  69
ENDBRANCH  47  61
BRANCH  48  73
ATOM     73  C   UNL A   1      42.655  23.723  27.707  1.00  0.00     0.058 A 
ATOM     74  C   UNL A   1      42.832  23.536  26.328  1.00  0.00     0.135 A 
ATOM     75  C   UNL A   1      42.379  22.589  28.488  1.00  0.00     0.135 A 
ATOM     76  F   UNL A   1      43.091  24.587  25.536  1.00  0.00    -0.206 F 
ATOM     77  C   UNL A   1      42.730  22.278  25.743  1.00  0.00     0.059 A 
ATOM     78  C   UNL A   1      42.302  21.316  27.931  1.00  0.00     0.059 A 
ATOM     79  F   UNL A   1      42.217  22.709  29.815  1.00  0.00    -0.206 F 
ATOM     80  C   UNL A   1      42.472  21.172  26.556  1.00  0.00     0.060 A 
BRANCH  80  81
ATOM     81  S   UNL A   1      42.395  19.539  25.789  1.00  0.00     0.124 S 
ATOM     82  O   UNL A   1      42.816  18.677  26.887  1.00  0.00    -0.237 OA
ATOM     83  O   UNL A   1      40.988  19.450  25.409  1.00  0.00    -0.237 OA
ATOM     84  O   UNL A   1      43.333  19.645  24.675  1.00  0.00    -0.744 OA
ENDBRANCH  80  81
ENDBRANCH  48  73
BRANCH  60  85
ATOM     85  C   UNL A   1      47.804  27.052  31.071  1.00  0.00     0.058 A 
ATOM     86  C   UNL A   1      48.077  26.250  32.189  1.00  0.00     0.135 A 
ATOM     87  C   UNL A   1      48.880  27.407  30.240  1.00  0.00     0.135 A 
ATOM     88  F   UNL A   1      47.086  25.885  33.019  1.00  0.00    -0.206 F 
ATOM     89  C   UNL A   1      49.369  25.828  32.481  1.00  0.00     0.059 A 
ATOM     90  C   UNL A   1      50.175  26.967  30.493  1.00  0.00     0.059 A 
ATOM     91  F   UNL A   1      48.672  28.162  29.150  1.00  0.00    -0.206 F 
ATOM     92  C   UNL A   1      50.410  26.184  31.621  1.00  0.00     0.060 A 
BRANCH  92  93
ATOM     93  S   UNL A   1      52.072  25.585  31.991  1.00  0.00     0.124 S 
ATOM     94  O   UNL A   1      52.797  25.963  30.782  1.00  0.00    -0.237 OA
ATOM     95  O   UNL A   1      52.410  26.337  33.195  1.00  0.00    -0.237 OA
ATOM     96  O   UNL A   1      51.884  24.151  32.185  1.00  0.00    -0.744 OA
ENDBRANCH  92  93
ENDBRANCH  60  85
ENDBRANCH  34  35
ENDBRANCH  26  29
ENDBRANCH   1  25
TORSDOF 15
ENDMDL
