MODEL 1
REMARK VINA RESULT:     -13.1      0.000      0.000
REMARK SMILES Cc1nc(NC(=O)[C@H]2[C@@H]3CC[C@@H](C3)[C@@H]2C(=O)NCCCNC(=O)c2ccc(-c3c4nc(c(-c5c(F)cc(S(=O)(=O)[O-])cc5F)c5ccc([nH]5)c(-c5c(F)cc(S(=O)(=O)[O-])cc5F)c5nc(c(-c6c(F)cc(S(=O)(=O)[O-])cc6F)c6ccc3[nH]6)C=C5)C=C4)cc2)sc1-c1ccccc1
REMARK SMILES IDX 19 1 18 2 17 3 15 4 16 5 14 7 8 8 9 9 10 10 13 11 12 12
REMARK SMILES IDX 11 13 6 14 5 15 7 17 4 18 1 19 2 20 3 21 91 22 90 23 92 24
REMARK SMILES IDX 93 25 97 26 94 27 96 28 95 29 20 30 21 31 22 32 23 34 24 35
REMARK SMILES IDX 25 36 89 37 26 38 88 39 27 40 28 41 29 42 82 43 30 44 87 45
REMARK SMILES IDX 81 46 83 47 31 48 86 49 80 50 79 51 32 53 66 54 45 55 65 56
REMARK SMILES IDX 46 57 49 58 64 59 84 60 47 61 48 62 63 64 85 65 50 66 33 67
REMARK SMILES IDX 34 68 43 69 35 70 36 71 42 72 44 73 37 74 38 75 39 76 40 77
REMARK SMILES IDX 41 78 67 79 68 80 77 81 69 82 70 83 76 84 78 85 71 86 72 87
REMARK SMILES IDX 73 88 74 89 75 90 51 91 52 92 61 93 53 94 54 95 60 96 62 97
REMARK SMILES IDX 55 98 56 99 57 100 58 101 59 102
REMARK H PARENT 17 6 5 16 21 33 83 52 49 63
REMARK Flexibility Score: inf
ROOT
ATOM      1  C   UNL A   1      37.923  23.066  25.741  1.00  0.00     0.042 C 
ENDROOT
BRANCH   1   2
ATOM      2  C   UNL A   1      36.550  23.722  25.786  1.00  0.00     0.117 C 
BRANCH   2   3
ATOM      3  N   UNL A   1      35.698  23.235  26.856  1.00  0.00    -0.356 N 
ATOM      4  C   UNL A   1      34.450  22.698  26.894  1.00  0.00     0.224 C 
ATOM      5  O   UNL A   1      34.144  22.184  27.975  1.00  0.00    -0.275 OA
ATOM      6  H   UNL A   1      36.113  23.311  27.745  1.00  0.00     0.163 HD
BRANCH   4   7
ATOM      7  C   UNL A   1      33.469  22.737  25.703  1.00  0.00     0.094 C 
ATOM      8  C   UNL A   1      32.142  21.966  26.056  1.00  0.00     0.094 C 
ATOM      9  C   UNL A   1      32.185  20.811  24.998  1.00  0.00     0.002 C 
ATOM     10  C   UNL A   1      33.369  19.861  25.262  1.00  0.00     0.005 C 
ATOM     11  C   UNL A   1      32.651  21.574  23.761  1.00  0.00     0.009 C 
ATOM     12  C   UNL A   1      33.956  22.014  24.420  1.00  0.00     0.002 C 
ATOM     13  C   UNL A   1      34.577  20.655  24.762  1.00  0.00     0.005 C 
BRANCH   8  14
ATOM     14  C   UNL A   1      30.760  22.654  25.919  1.00  0.00     0.230 C 
ATOM     15  N   UNL A   1      30.524  23.923  25.519  1.00  0.00    -0.302 N 
ATOM     16  H   UNL A   1      29.577  24.157  25.389  1.00  0.00     0.172 HD
ATOM     17  O   UNL A   1      29.732  22.018  26.210  1.00  0.00    -0.274 OA
BRANCH  15  18
ATOM     18  C   UNL A   1      31.409  24.916  25.272  1.00  0.00     0.190 A 
ATOM     19  C   UNL A   1      33.199  27.099  23.107  1.00  0.00     0.068 C 
ATOM     20  C   UNL A   1      32.630  26.444  24.305  1.00  0.00     0.058 A 
ATOM     21  N   UNL A   1      31.947  25.257  24.139  1.00  0.00    -0.225 NA
ATOM     22  C   UNL A   1      32.578  26.977  25.582  1.00  0.00     0.059 A 
ATOM     23  S   UNL A   1      31.798  25.877  26.631  1.00  0.00    -0.096 S 
BRANCH  22  24
ATOM     24  C   UNL A   1      33.022  28.300  25.995  1.00  0.00    -0.006 A 
ATOM     25  C   UNL A   1      32.131  29.377  25.991  1.00  0.00     0.009 A 
ATOM     26  C   UNL A   1      34.269  28.434  26.622  1.00  0.00     0.009 A 
ATOM     27  C   UNL A   1      32.469  30.564  26.647  1.00  0.00     0.001 A 
ATOM     28  C   UNL A   1      34.604  29.620  27.275  1.00  0.00     0.001 A 
ATOM     29  C   UNL A   1      33.698  30.678  27.299  1.00  0.00     0.000 A 
ENDBRANCH  22  24
ENDBRANCH  15  18
ENDBRANCH   8  14
ENDBRANCH   4   7
ENDBRANCH   2   3
ENDBRANCH   1   2
BRANCH   1  30
ATOM     30  C   UNL A   1      38.942  23.647  26.721  1.00  0.00     0.118 C 
BRANCH  30  31
ATOM     31  N   UNL A   1      40.252  23.856  26.135  1.00  0.00    -0.352 N 
ATOM     32  C   UNL A   1      41.199  24.812  26.409  1.00  0.00     0.251 C 
ATOM     33  H   UNL A   1      40.502  23.214  25.431  1.00  0.00     0.163 HD
ATOM     34  O   UNL A   1      42.201  24.882  25.703  1.00  0.00    -0.269 OA
BRANCH  32  35
ATOM     35  C   UNL A   1      41.014  25.772  27.522  1.00  0.00     0.039 A 
ATOM     36  C   UNL A   1      41.918  26.832  27.639  1.00  0.00     0.014 A 
ATOM     37  C   UNL A   1      40.004  25.613  28.477  1.00  0.00     0.014 A 
ATOM     38  C   UNL A   1      41.787  27.752  28.681  1.00  0.00     0.010 A 
ATOM     39  C   UNL A   1      39.838  26.566  29.484  1.00  0.00     0.010 A 
ATOM     40  C   UNL A   1      40.735  27.639  29.604  1.00  0.00    -0.014 A 
BRANCH  40  41
ATOM     41  C   UNL A   1      40.585  28.622  30.710  1.00  0.00     0.031 A 
ATOM     42  C   UNL A   1      41.461  28.528  31.931  1.00  0.00     0.074 A 
ATOM     43  C   UNL A   1      39.644  29.583  30.628  1.00  0.00     0.049 A 
ATOM     44  N   UNL A   1      41.458  29.271  33.008  1.00  0.00    -0.248 NA
ATOM     45  C   UNL A   1      42.456  27.444  31.953  1.00  0.00     0.031 C 
ATOM     46  C   UNL A   1      38.713  29.762  29.513  1.00  0.00     0.029 A 
ATOM     47  N   UNL A   1      39.315  30.591  31.501  1.00  0.00    -0.354 N 
ATOM     48  C   UNL A   1      42.439  28.743  33.837  1.00  0.00     0.074 A 
ATOM     49  C   UNL A   1      42.986  27.586  33.160  1.00  0.00     0.031 C 
ATOM     50  C   UNL A   1      37.930  30.826  29.761  1.00  0.00     0.029 A 
ATOM     51  C   UNL A   1      38.284  31.386  31.062  1.00  0.00     0.049 A 
ATOM     52  H   UNL A   1      39.773  30.728  32.361  1.00  0.00     0.167 HD
ATOM     53  C   UNL A   1      42.863  29.191  35.045  1.00  0.00     0.037 A 
ATOM     54  C   UNL A   1      37.687  32.446  31.642  1.00  0.00     0.037 A 
ATOM     55  C   UNL A   1      42.339  30.357  35.706  1.00  0.00     0.049 A 
ATOM     56  C   UNL A   1      38.178  32.928  32.981  1.00  0.00     0.074 A 
ATOM     57  C   UNL A   1      42.735  30.916  36.908  1.00  0.00     0.029 A 
ATOM     58  N   UNL A   1      41.305  31.145  35.222  1.00  0.00    -0.354 N 
ATOM     59  N   UNL A   1      39.140  32.443  33.729  1.00  0.00    -0.248 NA
ATOM     60  C   UNL A   1      37.506  34.105  33.552  1.00  0.00     0.031 C 
ATOM     61  C   UNL A   1      41.919  32.023  37.167  1.00  0.00     0.029 A 
ATOM     62  C   UNL A   1      41.041  32.177  36.106  1.00  0.00     0.049 A 
ATOM     63  H   UNL A   1      40.829  30.993  34.372  1.00  0.00     0.167 HD
ATOM     64  C   UNL A   1      39.207  33.270  34.845  1.00  0.00     0.074 A 
ATOM     65  C   UNL A   1      38.194  34.291  34.670  1.00  0.00     0.031 C 
ATOM     66  C   UNL A   1      40.034  33.191  35.916  1.00  0.00     0.037 A 
BRANCH  53  67
ATOM     67  C   UNL A   1      43.956  28.415  35.729  1.00  0.00     0.058 A 
ATOM     68  C   UNL A   1      43.667  27.380  36.633  1.00  0.00     0.135 A 
ATOM     69  C   UNL A   1      45.306  28.687  35.454  1.00  0.00     0.135 A 
ATOM     70  F   UNL A   1      42.393  27.089  36.941  1.00  0.00    -0.206 F 
ATOM     71  C   UNL A   1      44.678  26.664  37.265  1.00  0.00     0.059 A 
ATOM     72  C   UNL A   1      46.333  27.966  36.055  1.00  0.00     0.059 A 
ATOM     73  F   UNL A   1      45.637  29.665  34.597  1.00  0.00    -0.206 F 
ATOM     74  C   UNL A   1      46.009  26.967  36.972  1.00  0.00     0.060 A 
BRANCH  74  75
ATOM     75  S   UNL A   1      47.310  26.032  37.804  1.00  0.00     0.124 S 
ATOM     76  O   UNL A   1      47.477  26.799  39.034  1.00  0.00    -0.237 OA
ATOM     77  O   UNL A   1      46.702  24.714  37.955  1.00  0.00    -0.237 OA
ATOM     78  O   UNL A   1      48.428  26.099  36.865  1.00  0.00    -0.744 OA
ENDBRANCH  74  75
ENDBRANCH  53  67
BRANCH  54  79
ATOM     79  C   UNL A   1      36.573  33.141  30.947  1.00  0.00     0.058 A 
ATOM     80  C   UNL A   1      35.250  33.018  31.399  1.00  0.00     0.135 A 
ATOM     81  C   UNL A   1      36.808  33.954  29.827  1.00  0.00     0.135 A 
ATOM     82  F   UNL A   1      34.975  32.247  32.462  1.00  0.00    -0.206 F 
ATOM     83  C   UNL A   1      34.198  33.663  30.759  1.00  0.00     0.059 A 
ATOM     84  C   UNL A   1      35.775  34.627  29.183  1.00  0.00     0.059 A 
ATOM     85  F   UNL A   1      38.059  34.118  29.366  1.00  0.00    -0.206 F 
ATOM     86  C   UNL A   1      34.472  34.468  29.651  1.00  0.00     0.060 A 
BRANCH  86  87
ATOM     87  S   UNL A   1      33.108  35.348  28.859  1.00  0.00     0.124 S 
ATOM     88  O   UNL A   1      32.289  35.714  30.007  1.00  0.00    -0.237 OA
ATOM     89  O   UNL A   1      33.798  36.445  28.188  1.00  0.00    -0.237 OA
ATOM     90  O   UNL A   1      32.537  34.341  27.968  1.00  0.00    -0.744 OA
ENDBRANCH  86  87
ENDBRANCH  54  79
BRANCH  66  91
ATOM     91  C   UNL A   1      39.902  34.251  36.972  1.00  0.00     0.058 A 
ATOM     92  C   UNL A   1      40.498  35.514  36.826  1.00  0.00     0.135 A 
ATOM     93  C   UNL A   1      39.129  34.020  38.121  1.00  0.00     0.135 A 
ATOM     94  F   UNL A   1      41.254  35.783  35.750  1.00  0.00    -0.206 F 
ATOM     95  C   UNL A   1      40.348  36.503  37.793  1.00  0.00     0.059 A 
ATOM     96  C   UNL A   1      38.945  35.002  39.088  1.00  0.00     0.059 A 
ATOM     97  F   UNL A   1      38.530  32.832  38.303  1.00  0.00    -0.206 F 
ATOM     98  C   UNL A   1      39.569  36.238  38.921  1.00  0.00     0.060 A 
BRANCH  98  99
ATOM     99  S   UNL A   1      39.351  37.541  40.151  1.00  0.00     0.124 S 
ATOM    100  O   UNL A   1      40.671  38.162  40.157  1.00  0.00    -0.237 OA
ATOM    101  O   UNL A   1      38.277  38.342  39.574  1.00  0.00    -0.237 OA
ATOM    102  O   UNL A   1      38.994  36.807  41.363  1.00  0.00    -0.744 OA
ENDBRANCH  98  99
ENDBRANCH  66  91
ENDBRANCH  40  41
ENDBRANCH  32  35
ENDBRANCH  30  31
ENDBRANCH   1  30
TORSDOF 16
ENDMDL
MODEL 2
REMARK VINA RESULT:     -12.9      6.369     11.912
REMARK SMILES Cc1nc(NC(=O)[C@H]2[C@@H]3CC[C@@H](C3)[C@@H]2C(=O)NCCCNC(=O)c2ccc(-c3c4nc(c(-c5c(F)cc(S(=O)(=O)[O-])cc5F)c5ccc([nH]5)c(-c5c(F)cc(S(=O)(=O)[O-])cc5F)c5nc(c(-c6c(F)cc(S(=O)(=O)[O-])cc6F)c6ccc3[nH]6)C=C5)C=C4)cc2)sc1-c1ccccc1
REMARK SMILES IDX 19 1 18 2 17 3 15 4 16 5 14 7 8 8 9 9 10 10 13 11 12 12
REMARK SMILES IDX 11 13 6 14 5 15 7 17 4 18 1 19 2 20 3 21 91 22 90 23 92 24
REMARK SMILES IDX 93 25 97 26 94 27 96 28 95 29 20 30 21 31 22 32 23 34 24 35
REMARK SMILES IDX 25 36 89 37 26 38 88 39 27 40 28 41 29 42 82 43 30 44 87 45
REMARK SMILES IDX 81 46 83 47 31 48 86 49 80 50 79 51 32 53 66 54 45 55 65 56
REMARK SMILES IDX 46 57 49 58 64 59 84 60 47 61 48 62 63 64 85 65 50 66 33 67
REMARK SMILES IDX 34 68 43 69 35 70 36 71 42 72 44 73 37 74 38 75 39 76 40 77
REMARK SMILES IDX 41 78 67 79 68 80 77 81 69 82 70 83 76 84 78 85 71 86 72 87
REMARK SMILES IDX 73 88 74 89 75 90 51 91 52 92 61 93 53 94 54 95 60 96 62 97
REMARK SMILES IDX 55 98 56 99 57 100 58 101 59 102
REMARK H PARENT 17 6 5 16 21 33 83 52 49 63
REMARK Flexibility Score: inf
ROOT
ATOM      1  C   UNL A   1      33.928  29.718  27.417  1.00  0.00     0.042 C 
ENDROOT
BRANCH   1   2
ATOM      2  C   UNL A   1      33.847  28.461  26.562  1.00  0.00     0.117 C 
BRANCH   2   3
ATOM      3  N   UNL A   1      34.193  28.672  25.168  1.00  0.00    -0.356 N 
ATOM      4  C   UNL A   1      33.585  28.367  23.991  1.00  0.00     0.224 C 
ATOM      5  O   UNL A   1      34.077  28.918  23.000  1.00  0.00    -0.275 OA
ATOM      6  H   UNL A   1      35.054  29.135  25.050  1.00  0.00     0.163 HD
BRANCH   4   7
ATOM      7  C   UNL A   1      32.390  27.396  23.875  1.00  0.00     0.094 C 
ATOM      8  C   UNL A   1      31.878  27.328  22.388  1.00  0.00     0.094 C 
ATOM      9  C   UNL A   1      30.424  27.889  22.556  1.00  0.00     0.002 C 
ATOM     10  C   UNL A   1      30.445  29.369  22.981  1.00  0.00     0.005 C 
ATOM     11  C   UNL A   1      29.994  27.187  23.841  1.00  0.00     0.009 C 
ATOM     12  C   UNL A   1      31.119  27.814  24.660  1.00  0.00     0.002 C 
ATOM     13  C   UNL A   1      30.821  29.305  24.463  1.00  0.00     0.005 C 
BRANCH   8  14
ATOM     14  C   UNL A   1      31.758  25.972  21.648  1.00  0.00     0.230 C 
ATOM     15  N   UNL A   1      32.127  24.759  22.115  1.00  0.00    -0.302 N 
ATOM     16  H   UNL A   1      31.879  23.993  21.550  1.00  0.00     0.172 HD
ATOM     17  O   UNL A   1      31.292  25.947  20.495  1.00  0.00    -0.274 OA
BRANCH  15  18
ATOM     18  C   UNL A   1      32.792  24.452  23.253  1.00  0.00     0.190 A 
ATOM     19  C   UNL A   1      32.971  23.195  26.577  1.00  0.00     0.068 C 
ATOM     20  C   UNL A   1      33.322  23.719  25.240  1.00  0.00     0.058 A 
ATOM     21  N   UNL A   1      32.303  24.165  24.424  1.00  0.00    -0.225 NA
ATOM     22  C   UNL A   1      34.572  23.676  24.645  1.00  0.00     0.059 A 
ATOM     23  S   UNL A   1      34.491  24.368  23.086  1.00  0.00    -0.096 S 
BRANCH  22  24
ATOM     24  C   UNL A   1      35.776  23.063  25.187  1.00  0.00    -0.006 A 
ATOM     25  C   UNL A   1      36.106  21.744  24.862  1.00  0.00     0.009 A 
ATOM     26  C   UNL A   1      36.719  23.874  25.836  1.00  0.00     0.009 A 
ATOM     27  C   UNL A   1      37.384  21.256  25.144  1.00  0.00     0.001 A 
ATOM     28  C   UNL A   1      37.994  23.383  26.116  1.00  0.00     0.001 A 
ATOM     29  C   UNL A   1      38.329  22.079  25.757  1.00  0.00     0.000 A 
ENDBRANCH  22  24
ENDBRANCH  15  18
ENDBRANCH   8  14
ENDBRANCH   4   7
ENDBRANCH   2   3
ENDBRANCH   1   2
BRANCH   1  30
ATOM     30  C   UNL A   1      35.328  30.051  27.933  1.00  0.00     0.118 C 
BRANCH  30  31
ATOM     31  N   UNL A   1      35.338  30.543  29.297  1.00  0.00    -0.352 N 
ATOM     32  C   UNL A   1      36.358  30.572  30.217  1.00  0.00     0.251 C 
ATOM     33  H   UNL A   1      34.482  30.914  29.614  1.00  0.00     0.163 HD
ATOM     34  O   UNL A   1      36.116  30.925  31.367  1.00  0.00    -0.269 OA
BRANCH  32  35
ATOM     35  C   UNL A   1      37.731  30.158  29.847  1.00  0.00     0.039 A 
ATOM     36  C   UNL A   1      38.073  30.137  28.492  1.00  0.00     0.014 A 
ATOM     37  C   UNL A   1      38.662  29.741  30.805  1.00  0.00     0.014 A 
ATOM     38  C   UNL A   1      39.354  29.741  28.100  1.00  0.00     0.010 A 
ATOM     39  C   UNL A   1      39.959  29.402  30.417  1.00  0.00     0.010 A 
ATOM     40  C   UNL A   1      40.316  29.386  29.059  1.00  0.00    -0.014 A 
BRANCH  40  41
ATOM     41  C   UNL A   1      41.683  28.973  28.648  1.00  0.00     0.031 A 
ATOM     42  C   UNL A   1      42.799  29.983  28.602  1.00  0.00     0.074 A 
ATOM     43  C   UNL A   1      41.918  27.695  28.291  1.00  0.00     0.049 A 
ATOM     44  N   UNL A   1      44.046  29.820  28.241  1.00  0.00    -0.248 NA
ATOM     45  C   UNL A   1      42.464  31.361  28.994  1.00  0.00     0.031 C 
ATOM     46  C   UNL A   1      40.915  26.628  28.262  1.00  0.00     0.029 A 
ATOM     47  N   UNL A   1      43.073  27.076  27.880  1.00  0.00    -0.354 N 
ATOM     48  C   UNL A   1      44.641  31.070  28.352  1.00  0.00     0.074 A 
ATOM     49  C   UNL A   1      43.608  31.993  28.770  1.00  0.00     0.031 C 
ATOM     50  C   UNL A   1      41.504  25.484  27.874  1.00  0.00     0.029 A 
ATOM     51  C   UNL A   1      42.914  25.741  27.599  1.00  0.00     0.049 A 
ATOM     52  H   UNL A   1      43.933  27.547  27.794  1.00  0.00     0.167 HD
ATOM     53  C   UNL A   1      45.936  31.417  28.147  1.00  0.00     0.037 A 
ATOM     54  C   UNL A   1      43.803  24.825  27.167  1.00  0.00     0.037 A 
ATOM     55  C   UNL A   1      46.970  30.493  27.758  1.00  0.00     0.049 A 
ATOM     56  C   UNL A   1      45.236  25.232  26.950  1.00  0.00     0.074 A 
ATOM     57  C   UNL A   1      48.319  30.741  27.571  1.00  0.00     0.029 A 
ATOM     58  N   UNL A   1      46.772  29.146  27.499  1.00  0.00    -0.354 N 
ATOM     59  N   UNL A   1      45.790  26.410  27.107  1.00  0.00    -0.248 NA
ATOM     60  C   UNL A   1      46.165  24.184  26.503  1.00  0.00     0.031 C 
ATOM     61  C   UNL A   1      48.930  29.549  27.166  1.00  0.00     0.029 A 
ATOM     62  C   UNL A   1      47.970  28.551  27.139  1.00  0.00     0.049 A 
ATOM     63  H   UNL A   1      45.906  28.680  27.561  1.00  0.00     0.167 HD
ATOM     64  C   UNL A   1      47.137  26.239  26.804  1.00  0.00     0.074 A 
ATOM     65  C   UNL A   1      47.315  24.843  26.463  1.00  0.00     0.031 C 
ATOM     66  C   UNL A   1      48.135  27.157  26.810  1.00  0.00     0.037 A 
BRANCH  53  67
ATOM     67  C   UNL A   1      46.308  32.861  28.344  1.00  0.00     0.058 A 
ATOM     68  C   UNL A   1      46.245  33.787  27.290  1.00  0.00     0.135 A 
ATOM     69  C   UNL A   1      46.701  33.332  29.607  1.00  0.00     0.135 A 
ATOM     70  F   UNL A   1      45.889  33.386  26.059  1.00  0.00    -0.206 F 
ATOM     71  C   UNL A   1      46.589  35.122  27.474  1.00  0.00     0.059 A 
ATOM     72  C   UNL A   1      47.026  34.669  29.819  1.00  0.00     0.059 A 
ATOM     73  F   UNL A   1      46.777  32.490  30.649  1.00  0.00    -0.206 F 
ATOM     74  C   UNL A   1      46.982  35.553  28.742  1.00  0.00     0.060 A 
BRANCH  74  75
ATOM     75  S   UNL A   1      47.431  37.287  28.963  1.00  0.00     0.124 S 
ATOM     76  O   UNL A   1      48.450  37.457  27.932  1.00  0.00    -0.237 OA
ATOM     77  O   UNL A   1      46.165  37.972  28.723  1.00  0.00    -0.237 OA
ATOM     78  O   UNL A   1      47.916  37.339  30.340  1.00  0.00    -0.744 OA
ENDBRANCH  74  75
ENDBRANCH  53  67
BRANCH  54  79
ATOM     79  C   UNL A   1      43.368  23.423  26.933  1.00  0.00     0.058 A 
ATOM     80  C   UNL A   1      43.177  22.933  25.632  1.00  0.00     0.135 A 
ATOM     81  C   UNL A   1      43.150  22.541  28.003  1.00  0.00     0.135 A 
ATOM     82  F   UNL A   1      43.368  23.741  24.578  1.00  0.00    -0.206 F 
ATOM     83  C   UNL A   1      42.771  21.624  25.399  1.00  0.00     0.059 A 
ATOM     84  C   UNL A   1      42.765  21.221  27.794  1.00  0.00     0.059 A 
ATOM     85  F   UNL A   1      43.337  22.957  29.266  1.00  0.00    -0.206 F 
ATOM     86  C   UNL A   1      42.570  20.774  26.488  1.00  0.00     0.060 A 
BRANCH  86  87
ATOM     87  S   UNL A   1      42.097  19.059  26.175  1.00  0.00     0.124 S 
ATOM     88  O   UNL A   1      42.369  18.440  27.465  1.00  0.00    -0.237 OA
ATOM     89  O   UNL A   1      40.689  19.190  25.810  1.00  0.00    -0.237 OA
ATOM     90  O   UNL A   1      42.983  18.664  25.083  1.00  0.00    -0.744 OA
ENDBRANCH  86  87
ENDBRANCH  54  79
BRANCH  66  91
ATOM     91  C   UNL A   1      49.516  26.679  26.465  1.00  0.00     0.058 A 
ATOM     92  C   UNL A   1      50.325  26.025  27.407  1.00  0.00     0.135 A 
ATOM     93  C   UNL A   1      50.018  26.832  25.162  1.00  0.00     0.135 A 
ATOM     94  F   UNL A   1      49.895  25.860  28.668  1.00  0.00    -0.206 F 
ATOM     95  C   UNL A   1      51.593  25.557  27.074  1.00  0.00     0.059 A 
ATOM     96  C   UNL A   1      51.272  26.351  24.801  1.00  0.00     0.059 A 
ATOM     97  F   UNL A   1      49.280  27.443  24.222  1.00  0.00    -0.206 F 
ATOM     98  C   UNL A   1      52.058  25.724  25.769  1.00  0.00     0.060 A 
BRANCH  98  99
ATOM     99  S   UNL A   1      53.689  25.081  25.339  1.00  0.00     0.124 S 
ATOM    100  O   UNL A   1      54.508  25.611  26.423  1.00  0.00    -0.237 OA
ATOM    101  O   UNL A   1      53.473  23.638  25.356  1.00  0.00    -0.237 OA
ATOM    102  O   UNL A   1      53.942  25.654  24.020  1.00  0.00    -0.744 OA
ENDBRANCH  98  99
ENDBRANCH  66  91
ENDBRANCH  40  41
ENDBRANCH  32  35
ENDBRANCH  30  31
ENDBRANCH   1  30
TORSDOF 16
ENDMDL
MODEL 3
REMARK VINA RESULT:     -12.8      6.232     11.785
REMARK SMILES Cc1nc(NC(=O)[C@H]2[C@@H]3CC[C@@H](C3)[C@@H]2C(=O)NCCCNC(=O)c2ccc(-c3c4nc(c(-c5c(F)cc(S(=O)(=O)[O-])cc5F)c5ccc([nH]5)c(-c5c(F)cc(S(=O)(=O)[O-])cc5F)c5nc(c(-c6c(F)cc(S(=O)(=O)[O-])cc6F)c6ccc3[nH]6)C=C5)C=C4)cc2)sc1-c1ccccc1
REMARK SMILES IDX 19 1 18 2 17 3 15 4 16 5 14 7 8 8 9 9 10 10 13 11 12 12
REMARK SMILES IDX 11 13 6 14 5 15 7 17 4 18 1 19 2 20 3 21 91 22 90 23 92 24
REMARK SMILES IDX 93 25 97 26 94 27 96 28 95 29 20 30 21 31 22 32 23 34 24 35
REMARK SMILES IDX 25 36 89 37 26 38 88 39 27 40 28 41 29 42 82 43 30 44 87 45
REMARK SMILES IDX 81 46 83 47 31 48 86 49 80 50 79 51 32 53 66 54 45 55 65 56
REMARK SMILES IDX 46 57 49 58 64 59 84 60 47 61 48 62 63 64 85 65 50 66 33 67
REMARK SMILES IDX 34 68 43 69 35 70 36 71 42 72 44 73 37 74 38 75 39 76 40 77
REMARK SMILES IDX 41 78 67 79 68 80 77 81 69 82 70 83 76 84 78 85 71 86 72 87
REMARK SMILES IDX 73 88 74 89 75 90 51 91 52 92 61 93 53 94 54 95 60 96 62 97
REMARK SMILES IDX 55 98 56 99 57 100 58 101 59 102
REMARK H PARENT 17 6 5 16 21 33 83 52 49 63
REMARK Flexibility Score: inf
ROOT
ATOM      1  C   UNL A   1      34.079  31.095  27.387  1.00  0.00     0.042 C 
ENDROOT
BRANCH   1   2
ATOM      2  C   UNL A   1      33.041  29.998  27.189  1.00  0.00     0.117 C 
BRANCH   2   3
ATOM      3  N   UNL A   1      33.610  28.683  26.955  1.00  0.00    -0.356 N 
ATOM      4  C   UNL A   1      33.156  27.556  26.346  1.00  0.00     0.224 C 
ATOM      5  O   UNL A   1      34.022  26.700  26.137  1.00  0.00    -0.275 OA
ATOM      6  H   UNL A   1      34.520  28.587  27.317  1.00  0.00     0.163 HD
BRANCH   4   7
ATOM      7  C   UNL A   1      31.678  27.333  25.959  1.00  0.00     0.094 C 
ATOM      8  C   UNL A   1      31.446  25.843  25.507  1.00  0.00     0.094 C 
ATOM      9  C   UNL A   1      31.011  26.055  24.016  1.00  0.00     0.002 C 
ATOM     10  C   UNL A   1      32.167  26.630  23.176  1.00  0.00     0.005 C 
ATOM     11  C   UNL A   1      30.084  27.260  24.159  1.00  0.00     0.009 C 
ATOM     12  C   UNL A   1      31.185  28.147  24.733  1.00  0.00     0.002 C 
ATOM     13  C   UNL A   1      32.213  28.100  23.597  1.00  0.00     0.005 C 
BRANCH   8  14
ATOM     14  C   UNL A   1      30.356  24.968  26.176  1.00  0.00     0.230 C 
ATOM     15  N   UNL A   1      30.399  23.632  26.373  1.00  0.00    -0.302 N 
ATOM     16  H   UNL A   1      29.664  23.259  26.911  1.00  0.00     0.172 HD
ATOM     17  O   UNL A   1      29.308  25.502  26.577  1.00  0.00    -0.274 OA
BRANCH  15  18
ATOM     18  C   UNL A   1      31.314  22.736  25.935  1.00  0.00     0.190 A 
ATOM     19  C   UNL A   1      32.324  19.931  23.992  1.00  0.00     0.068 C 
ATOM     20  C   UNL A   1      32.326  21.123  24.868  1.00  0.00     0.058 A 
ATOM     21  N   UNL A   1      31.113  21.619  25.300  1.00  0.00    -0.225 NA
ATOM     22  C   UNL A   1      33.425  21.900  25.190  1.00  0.00     0.059 A 
ATOM     23  S   UNL A   1      32.941  23.190  26.200  1.00  0.00    -0.096 S 
BRANCH  22  24
ATOM     24  C   UNL A   1      34.784  21.738  24.696  1.00  0.00    -0.006 A 
ATOM     25  C   UNL A   1      35.328  22.667  23.804  1.00  0.00     0.009 A 
ATOM     26  C   UNL A   1      35.619  20.788  25.302  1.00  0.00     0.009 A 
ATOM     27  C   UNL A   1      36.703  22.673  23.556  1.00  0.00     0.001 A 
ATOM     28  C   UNL A   1      36.991  20.796  25.050  1.00  0.00     0.001 A 
ATOM     29  C   UNL A   1      37.533  21.747  24.189  1.00  0.00     0.000 A 
ENDBRANCH  22  24
ENDBRANCH  15  18
ENDBRANCH   8  14
ENDBRANCH   4   7
ENDBRANCH   2   3
ENDBRANCH   1   2
BRANCH   1  30
ATOM     30  C   UNL A   1      35.360  30.644  28.088  1.00  0.00     0.118 C 
BRANCH  30  31
ATOM     31  N   UNL A   1      35.328  30.832  29.526  1.00  0.00    -0.352 N 
ATOM     32  C   UNL A   1      36.302  30.604  30.466  1.00  0.00     0.251 C 
ATOM     33  H   UNL A   1      34.477  31.175  29.883  1.00  0.00     0.163 HD
ATOM     34  O   UNL A   1      36.023  30.716  31.657  1.00  0.00    -0.269 OA
BRANCH  32  35
ATOM     35  C   UNL A   1      37.670  30.200  30.067  1.00  0.00     0.039 A 
ATOM     36  C   UNL A   1      37.982  30.178  28.704  1.00  0.00     0.014 A 
ATOM     37  C   UNL A   1      38.625  29.791  31.004  1.00  0.00     0.014 A 
ATOM     38  C   UNL A   1      39.256  29.791  28.284  1.00  0.00     0.010 A 
ATOM     39  C   UNL A   1      39.916  29.461  30.588  1.00  0.00     0.010 A 
ATOM     40  C   UNL A   1      40.242  29.446  29.223  1.00  0.00    -0.014 A 
BRANCH  40  41
ATOM     41  C   UNL A   1      41.603  29.042  28.781  1.00  0.00     0.031 A 
ATOM     42  C   UNL A   1      42.717  30.055  28.733  1.00  0.00     0.074 A 
ATOM     43  C   UNL A   1      41.834  27.771  28.399  1.00  0.00     0.049 A 
ATOM     44  N   UNL A   1      43.958  29.901  28.348  1.00  0.00    -0.248 NA
ATOM     45  C   UNL A   1      42.386  31.426  29.154  1.00  0.00     0.031 C 
ATOM     46  C   UNL A   1      40.833  26.703  28.370  1.00  0.00     0.029 A 
ATOM     47  N   UNL A   1      42.983  27.161  27.959  1.00  0.00    -0.354 N 
ATOM     48  C   UNL A   1      44.552  31.150  28.470  1.00  0.00     0.074 A 
ATOM     49  C   UNL A   1      43.524  32.064  28.921  1.00  0.00     0.031 C 
ATOM     50  C   UNL A   1      41.417  25.566  27.953  1.00  0.00     0.029 A 
ATOM     51  C   UNL A   1      42.822  25.830  27.659  1.00  0.00     0.049 A 
ATOM     52  H   UNL A   1      43.841  27.635  27.866  1.00  0.00     0.167 HD
ATOM     53  C   UNL A   1      45.843  31.503  28.248  1.00  0.00     0.037 A 
ATOM     54  C   UNL A   1      43.705  24.924  27.196  1.00  0.00     0.037 A 
ATOM     55  C   UNL A   1      46.872  30.588  27.827  1.00  0.00     0.049 A 
ATOM     56  C   UNL A   1      45.133  25.337  26.961  1.00  0.00     0.074 A 
ATOM     57  C   UNL A   1      48.216  30.841  27.621  1.00  0.00     0.029 A 
ATOM     58  N   UNL A   1      46.672  29.245  27.549  1.00  0.00    -0.354 N 
ATOM     59  N   UNL A   1      45.688  26.514  27.128  1.00  0.00    -0.248 NA
ATOM     60  C   UNL A   1      46.056  24.299  26.481  1.00  0.00     0.031 C 
ATOM     61  C   UNL A   1      48.823  29.657  27.186  1.00  0.00     0.029 A 
ATOM     62  C   UNL A   1      47.864  28.658  27.159  1.00  0.00     0.049 A 
ATOM     63  H   UNL A   1      45.808  28.776  27.618  1.00  0.00     0.167 HD
ATOM     64  C   UNL A   1      47.029  26.351  26.800  1.00  0.00     0.074 A 
ATOM     65  C   UNL A   1      47.204  24.961  26.433  1.00  0.00     0.031 C 
ATOM     66  C   UNL A   1      48.026  27.271  26.804  1.00  0.00     0.037 A 
BRANCH  53  67
ATOM     67  C   UNL A   1      46.215  32.945  28.463  1.00  0.00     0.058 A 
ATOM     68  C   UNL A   1      46.649  33.414  29.713  1.00  0.00     0.135 A 
ATOM     69  C   UNL A   1      46.168  33.861  27.400  1.00  0.00     0.135 A 
ATOM     70  F   UNL A   1      46.698  32.582  30.766  1.00  0.00    -0.206 F 
ATOM     71  C   UNL A   1      46.992  34.747  29.910  1.00  0.00     0.059 A 
ATOM     72  C   UNL A   1      46.531  35.194  27.568  1.00  0.00     0.059 A 
ATOM     73  F   UNL A   1      45.761  33.466  26.184  1.00  0.00    -0.206 F 
ATOM     74  C   UNL A   1      46.927  35.631  28.832  1.00  0.00     0.060 A 
BRANCH  74  75
ATOM     75  S   UNL A   1      47.371  37.359  29.105  1.00  0.00     0.124 S 
ATOM     76  O   UNL A   1      46.788  37.998  27.930  1.00  0.00    -0.237 OA
ATOM     77  O   UNL A   1      46.719  37.654  30.377  1.00  0.00    -0.237 OA
ATOM     78  O   UNL A   1      48.832  37.331  29.145  1.00  0.00    -0.744 OA
ENDBRANCH  74  75
ENDBRANCH  53  67
BRANCH  54  79
ATOM     79  C   UNL A   1      43.269  23.525  26.946  1.00  0.00     0.058 A 
ATOM     80  C   UNL A   1      43.044  23.060  25.642  1.00  0.00     0.135 A 
ATOM     81  C   UNL A   1      43.082  22.621  28.004  1.00  0.00     0.135 A 
ATOM     82  F   UNL A   1      43.204  23.889  24.599  1.00  0.00    -0.206 F 
ATOM     83  C   UNL A   1      42.637  21.754  25.394  1.00  0.00     0.059 A 
ATOM     84  C   UNL A   1      42.696  21.304  27.780  1.00  0.00     0.059 A 
ATOM     85  F   UNL A   1      43.301  23.013  29.270  1.00  0.00    -0.206 F 
ATOM     86  C   UNL A   1      42.467  20.883  26.471  1.00  0.00     0.060 A 
BRANCH  86  87
ATOM     87  S   UNL A   1      41.992  19.172  26.137  1.00  0.00     0.124 S 
ATOM     88  O   UNL A   1      40.567  19.312  25.865  1.00  0.00    -0.237 OA
ATOM     89  O   UNL A   1      42.833  18.837  24.992  1.00  0.00    -0.237 OA
ATOM     90  O   UNL A   1      42.336  18.483  27.378  1.00  0.00    -0.744 OA
ENDBRANCH  86  87
ENDBRANCH  54  79
BRANCH  66  91
ATOM     91  C   UNL A   1      49.402  26.801  26.428  1.00  0.00     0.058 A 
ATOM     92  C   UNL A   1      50.239  26.159  27.354  1.00  0.00     0.135 A 
ATOM     93  C   UNL A   1      49.871  26.950  25.113  1.00  0.00     0.135 A 
ATOM     94  F   UNL A   1      49.842  25.998  28.626  1.00  0.00    -0.206 F 
ATOM     95  C   UNL A   1      51.502  25.698  26.992  1.00  0.00     0.059 A 
ATOM     96  C   UNL A   1      51.119  26.476  24.723  1.00  0.00     0.059 A 
ATOM     97  F   UNL A   1      49.104  27.549  24.187  1.00  0.00    -0.206 F 
ATOM     98  C   UNL A   1      51.933  25.861  25.675  1.00  0.00     0.060 A 
BRANCH  98  99
ATOM     99  S   UNL A   1      53.559  25.228  25.209  1.00  0.00     0.124 S 
ATOM    100  O   UNL A   1      53.369  23.791  25.365  1.00  0.00    -0.237 OA
ATOM    101  O   UNL A   1      53.699  25.703  23.836  1.00  0.00    -0.237 OA
ATOM    102  O   UNL A   1      54.456  25.854  26.176  1.00  0.00    -0.744 OA
ENDBRANCH  98  99
ENDBRANCH  66  91
ENDBRANCH  40  41
ENDBRANCH  32  35
ENDBRANCH  30  31
ENDBRANCH   1  30
TORSDOF 16
ENDMDL
