MODEL 1
REMARK VINA RESULT:     -12.2      0.000      0.000
REMARK SMILES NC(=O)c1cc(NC(=O)/C=C\C(=O)NCCCNC(=O)c2ccc(-c3c4nc(c(-c5c(F)cc(S(=O)(=O)[O-])cc5F)c5ccc([nH]5)c(-c5c(F)cc(S(=O)(=O)[O-])cc5F)c5nc(c(-c6c(F)cc(S(=O)(=O)[O-])cc6F)c6ccc3[nH]6)C=C5)C=C4)cc2)ccc1N1CCOCC1
REMARK SMILES IDX 16 1 15 2 14 3 12 4 13 5 11 7 10 8 8 9 7 10 9 12 6 13 4 14
REMARK SMILES IDX 5 15 89 16 88 17 87 18 2 19 1 20 3 23 90 24 91 25 95 26
REMARK SMILES IDX 92 27 94 28 93 29 17 30 18 31 19 32 20 34 21 35 22 36 86 37
REMARK SMILES IDX 23 38 85 39 24 40 25 41 26 42 79 43 27 44 84 45 78 46 80 47
REMARK SMILES IDX 28 48 83 49 77 50 76 51 29 53 63 54 42 55 62 56 43 57 46 58
REMARK SMILES IDX 61 59 81 60 44 61 45 62 60 64 82 65 47 66 30 67 31 68 40 69
REMARK SMILES IDX 32 70 33 71 39 72 41 73 34 74 35 75 36 76 37 77 38 78 64 79
REMARK SMILES IDX 65 80 74 81 66 82 67 83 73 84 75 85 68 86 69 87 70 88 71 89
REMARK SMILES IDX 72 90 48 91 49 92 58 93 50 94 51 95 57 96 59 97 52 98 53 99
REMARK SMILES IDX 54 100 55 101 56 102
REMARK H PARENT 14 6 7 11 1 21 1 22 18 33 80 52 46 63
REMARK Flexibility Score: inf
ROOT
ATOM      1  C   UNL A   1      31.531  31.902  26.759  1.00  0.00     0.042 C 
ENDROOT
BRANCH   1   2
ATOM      2  C   UNL A   1      31.677  30.585  26.005  1.00  0.00     0.118 C 
BRANCH   2   3
ATOM      3  N   UNL A   1      33.025  30.169  25.679  1.00  0.00    -0.352 N 
ATOM      4  C   UNL A   1      33.424  28.917  25.336  1.00  0.00     0.244 C 
ATOM      5  O   UNL A   1      34.214  28.758  24.408  1.00  0.00    -0.270 OA
ATOM      6  H   UNL A   1      33.722  30.863  25.710  1.00  0.00     0.163 HD
BRANCH   4   7
ATOM      7  C   UNL A   1      32.916  27.731  26.052  1.00  0.00     0.077 C 
ATOM      8  C   UNL A   1      32.551  26.546  25.540  1.00  0.00     0.077 C 
BRANCH   8   9
ATOM      9  C   UNL A   1      32.690  25.991  24.174  1.00  0.00     0.248 C 
ATOM     10  N   UNL A   1      32.121  26.543  23.070  1.00  0.00    -0.322 N 
ATOM     11  H   UNL A   1      32.514  26.239  22.220  1.00  0.00     0.170 HD
ATOM     12  O   UNL A   1      33.414  25.002  24.040  1.00  0.00    -0.270 OA
BRANCH  10  13
ATOM     13  C   UNL A   1      31.079  27.463  22.921  1.00  0.00     0.042 A 
ATOM     14  C   UNL A   1      28.779  28.177  23.188  1.00  0.00     0.064 A 
ATOM     15  C   UNL A   1      29.768  27.183  23.281  1.00  0.00     0.042 A 
ATOM     16  C   UNL A   1      29.068  29.459  22.685  1.00  0.00     0.050 A 
ATOM     17  C   UNL A   1      30.398  29.696  22.297  1.00  0.00     0.029 A 
ATOM     18  C   UNL A   1      31.383  28.711  22.383  1.00  0.00     0.028 A 
BRANCH  14  19
ATOM     19  C   UNL A   1      27.431  27.732  23.577  1.00  0.00     0.250 C 
ATOM     20  N   UNL A   1      27.356  26.448  24.035  1.00  0.00    -0.366 N 
ATOM     21  H   UNL A   1      26.490  26.074  24.316  1.00  0.00     0.159 HD
ATOM     22  H   UNL A   1      28.170  25.895  24.086  1.00  0.00     0.159 HD
ATOM     23  O   UNL A   1      26.450  28.462  23.540  1.00  0.00    -0.269 OA
ENDBRANCH  14  19
BRANCH  16  24
ATOM     24  N   UNL A   1      28.161  30.475  22.453  1.00  0.00    -0.366 N 
ATOM     25  C   UNL A   1      27.687  30.862  21.118  1.00  0.00     0.145 C 
ATOM     26  C   UNL A   1      28.058  31.531  23.470  1.00  0.00     0.145 C 
ATOM     27  C   UNL A   1      28.244  32.236  20.694  1.00  0.00     0.181 C 
ATOM     28  C   UNL A   1      28.744  32.794  22.938  1.00  0.00     0.181 C 
ATOM     29  O   UNL A   1      28.112  33.237  21.724  1.00  0.00    -0.378 OA
ENDBRANCH  16  24
ENDBRANCH  10  13
ENDBRANCH   8   9
ENDBRANCH   4   7
ENDBRANCH   2   3
ENDBRANCH   1   2
BRANCH   1  30
ATOM     30  C   UNL A   1      32.820  32.593  27.194  1.00  0.00     0.118 C 
BRANCH  30  31
ATOM     31  N   UNL A   1      32.621  33.961  27.635  1.00  0.00    -0.352 N 
ATOM     32  C   UNL A   1      33.250  34.642  28.647  1.00  0.00     0.251 C 
ATOM     33  H   UNL A   1      31.942  34.471  27.137  1.00  0.00     0.163 HD
ATOM     34  O   UNL A   1      32.840  35.749  28.984  1.00  0.00    -0.269 OA
BRANCH  32  35
ATOM     35  C   UNL A   1      34.414  34.046  29.337  1.00  0.00     0.039 A 
ATOM     36  C   UNL A   1      34.191  33.212  30.434  1.00  0.00     0.014 A 
ATOM     37  C   UNL A   1      35.720  34.356  28.944  1.00  0.00     0.014 A 
ATOM     38  C   UNL A   1      35.277  32.663  31.124  1.00  0.00     0.010 A 
ATOM     39  C   UNL A   1      36.803  33.775  29.612  1.00  0.00     0.010 A 
ATOM     40  C   UNL A   1      36.595  32.929  30.714  1.00  0.00    -0.014 A 
BRANCH  40  41
ATOM     41  C   UNL A   1      37.750  32.326  31.436  1.00  0.00     0.031 A 
ATOM     42  C   UNL A   1      38.197  32.870  32.766  1.00  0.00     0.074 A 
ATOM     43  C   UNL A   1      38.423  31.299  30.879  1.00  0.00     0.049 A 
ATOM     44  N   UNL A   1      39.185  32.480  33.531  1.00  0.00    -0.248 NA
ATOM     45  C   UNL A   1      37.446  34.017  33.298  1.00  0.00     0.031 C 
ATOM     46  C   UNL A   1      38.117  30.701  29.580  1.00  0.00     0.029 A 
ATOM     47  N   UNL A   1      39.507  30.585  31.329  1.00  0.00    -0.354 N 
ATOM     48  C   UNL A   1      39.182  33.334  34.628  1.00  0.00     0.074 A 
ATOM     49  C   UNL A   1      38.124  34.296  34.402  1.00  0.00     0.031 C 
ATOM     50  C   UNL A   1      38.985  29.704  29.342  1.00  0.00     0.029 A 
ATOM     51  C   UNL A   1      39.930  29.614  30.452  1.00  0.00     0.049 A 
ATOM     52  H   UNL A   1      39.940  30.752  32.197  1.00  0.00     0.167 HD
ATOM     53  C   UNL A   1      39.975  33.310  35.729  1.00  0.00     0.037 A 
ATOM     54  C   UNL A   1      40.968  28.756  30.520  1.00  0.00     0.037 A 
ATOM     55  C   UNL A   1      41.028  32.350  35.949  1.00  0.00     0.049 A 
ATOM     56  C   UNL A   1      41.849  28.755  31.739  1.00  0.00     0.074 A 
ATOM     57  C   UNL A   1      41.848  32.209  37.055  1.00  0.00     0.029 A 
ATOM     58  N   UNL A   1      41.424  31.380  35.037  1.00  0.00    -0.354 N 
ATOM     59  N   UNL A   1      41.784  29.522  32.802  1.00  0.00    -0.248 NA
ATOM     60  C   UNL A   1      42.936  27.769  31.776  1.00  0.00     0.031 C 
ATOM     61  C   UNL A   1      42.778  31.200  36.788  1.00  0.00     0.029 A 
ATOM     62  C   UNL A   1      42.497  30.661  35.543  1.00  0.00     0.049 A 
ATOM     63  H   UNL A   1      41.002  31.224  34.160  1.00  0.00     0.167 HD
ATOM     64  C   UNL A   1      42.807  29.096  33.643  1.00  0.00     0.074 A 
ATOM     65  C   UNL A   1      43.468  27.997  32.970  1.00  0.00     0.031 C 
ATOM     66  C   UNL A   1      43.159  29.570  34.865  1.00  0.00     0.037 A 
BRANCH  53  67
ATOM     67  C   UNL A   1      39.745  34.376  36.772  1.00  0.00     0.058 A 
ATOM     68  C   UNL A   1      40.360  35.637  36.696  1.00  0.00     0.135 A 
ATOM     69  C   UNL A   1      38.893  34.134  37.863  1.00  0.00     0.135 A 
ATOM     70  F   UNL A   1      41.188  35.926  35.678  1.00  0.00    -0.206 F 
ATOM     71  C   UNL A   1      40.189  36.594  37.692  1.00  0.00     0.059 A 
ATOM     72  C   UNL A   1      38.679  35.090  38.852  1.00  0.00     0.059 A 
ATOM     73  F   UNL A   1      38.268  32.953  37.984  1.00  0.00    -0.206 F 
ATOM     74  C   UNL A   1      39.353  36.306  38.772  1.00  0.00     0.060 A 
BRANCH  74  75
ATOM     75  S   UNL A   1      39.181  37.538  40.081  1.00  0.00     0.124 S 
ATOM     76  O   UNL A   1      38.762  36.707  41.206  1.00  0.00    -0.237 OA
ATOM     77  O   UNL A   1      40.528  38.090  40.170  1.00  0.00    -0.237 OA
ATOM     78  O   UNL A   1      38.165  38.448  39.562  1.00  0.00    -0.744 OA
ENDBRANCH  74  75
ENDBRANCH  53  67
BRANCH  54  79
ATOM     79  C   UNL A   1      41.210  27.818  29.391  1.00  0.00     0.058 A 
ATOM     80  C   UNL A   1      42.281  28.005  28.507  1.00  0.00     0.135 A 
ATOM     81  C   UNL A   1      40.409  26.678  29.216  1.00  0.00     0.135 A 
ATOM     82  F   UNL A   1      43.068  29.086  28.624  1.00  0.00    -0.206 F 
ATOM     83  C   UNL A   1      42.557  27.091  27.494  1.00  0.00     0.059 A 
ATOM     84  C   UNL A   1      40.681  25.736  28.228  1.00  0.00     0.059 A 
ATOM     85  F   UNL A   1      39.378  26.447  30.044  1.00  0.00    -0.206 F 
ATOM     86  C   UNL A   1      41.759  25.952  27.373  1.00  0.00     0.060 A 
BRANCH  86  87
ATOM     87  S   UNL A   1      42.191  24.724  26.120  1.00  0.00     0.124 S 
ATOM     88  O   UNL A   1      42.274  25.544  24.917  1.00  0.00    -0.237 OA
ATOM     89  O   UNL A   1      43.458  24.205  26.627  1.00  0.00    -0.237 OA
ATOM     90  O   UNL A   1      41.074  23.786  26.169  1.00  0.00    -0.744 OA
ENDBRANCH  86  87
ENDBRANCH  54  79
BRANCH  66  91
ATOM     91  C   UNL A   1      44.297  28.889  35.580  1.00  0.00     0.058 A 
ATOM     92  C   UNL A   1      45.627  29.313  35.430  1.00  0.00     0.135 A 
ATOM     93  C   UNL A   1      44.045  27.837  36.476  1.00  0.00     0.135 A 
ATOM     94  F   UNL A   1      45.930  30.309  34.582  1.00  0.00    -0.206 F 
ATOM     95  C   UNL A   1      46.667  28.706  36.129  1.00  0.00     0.059 A 
ATOM     96  C   UNL A   1      45.065  27.237  37.208  1.00  0.00     0.059 A 
ATOM     97  F   UNL A   1      42.791  27.396  36.664  1.00  0.00    -0.206 F 
ATOM     98  C   UNL A   1      46.376  27.671  37.020  1.00  0.00     0.060 A 
BRANCH  98  99
ATOM     99  S   UNL A   1      47.728  26.922  37.951  1.00  0.00     0.124 S 
ATOM    100  O   UNL A   1      47.089  26.649  39.234  1.00  0.00    -0.237 OA
ATOM    101  O   UNL A   1      48.051  25.750  37.143  1.00  0.00    -0.237 OA
ATOM    102  O   UNL A   1      48.750  27.964  37.968  1.00  0.00    -0.744 OA
ENDBRANCH  98  99
ENDBRANCH  66  91
ENDBRANCH  40  41
ENDBRANCH  32  35
ENDBRANCH  30  31
ENDBRANCH   1  30
TORSDOF 17
ENDMDL
MODEL 2
REMARK VINA RESULT:     -12.0      4.956      9.934
REMARK SMILES NC(=O)c1cc(NC(=O)/C=C\C(=O)NCCCNC(=O)c2ccc(-c3c4nc(c(-c5c(F)cc(S(=O)(=O)[O-])cc5F)c5ccc([nH]5)c(-c5c(F)cc(S(=O)(=O)[O-])cc5F)c5nc(c(-c6c(F)cc(S(=O)(=O)[O-])cc6F)c6ccc3[nH]6)C=C5)C=C4)cc2)ccc1N1CCOCC1
REMARK SMILES IDX 16 1 15 2 14 3 12 4 13 5 11 7 10 8 8 9 7 10 9 12 6 13 4 14
REMARK SMILES IDX 5 15 89 16 88 17 87 18 2 19 1 20 3 23 90 24 91 25 95 26
REMARK SMILES IDX 92 27 94 28 93 29 17 30 18 31 19 32 20 34 21 35 22 36 86 37
REMARK SMILES IDX 23 38 85 39 24 40 25 41 26 42 79 43 27 44 84 45 78 46 80 47
REMARK SMILES IDX 28 48 83 49 77 50 76 51 29 53 63 54 42 55 62 56 43 57 46 58
REMARK SMILES IDX 61 59 81 60 44 61 45 62 60 64 82 65 47 66 30 67 31 68 40 69
REMARK SMILES IDX 32 70 33 71 39 72 41 73 34 74 35 75 36 76 37 77 38 78 64 79
REMARK SMILES IDX 65 80 74 81 66 82 67 83 73 84 75 85 68 86 69 87 70 88 71 89
REMARK SMILES IDX 72 90 48 91 49 92 58 93 50 94 51 95 57 96 59 97 52 98 53 99
REMARK SMILES IDX 54 100 55 101 56 102
REMARK H PARENT 14 6 7 11 1 21 1 22 18 33 80 52 46 63
REMARK Flexibility Score: inf
ROOT
ATOM      1  C   UNL A   1      34.891  23.339  25.446  1.00  0.00     0.042 C 
ENDROOT
BRANCH   1   2
ATOM      2  C   UNL A   1      34.873  22.126  24.523  1.00  0.00     0.118 C 
BRANCH   2   3
ATOM      3  N   UNL A   1      33.609  21.429  24.391  1.00  0.00    -0.352 N 
ATOM      4  C   UNL A   1      32.711  21.568  23.383  1.00  0.00     0.244 C 
ATOM      5  O   UNL A   1      32.175  20.575  22.899  1.00  0.00    -0.270 OA
ATOM      6  H   UNL A   1      33.380  20.791  25.105  1.00  0.00     0.163 HD
BRANCH   4   7
ATOM      7  C   UNL A   1      32.369  22.899  22.844  1.00  0.00     0.077 C 
ATOM      8  C   UNL A   1      31.571  23.833  23.382  1.00  0.00     0.077 C 
BRANCH   8   9
ATOM      9  C   UNL A   1      30.932  23.916  24.716  1.00  0.00     0.248 C 
ATOM     10  N   UNL A   1      30.209  24.984  25.144  1.00  0.00    -0.322 N 
ATOM     11  H   UNL A   1      29.628  24.793  25.917  1.00  0.00     0.170 HD
ATOM     12  O   UNL A   1      31.024  22.928  25.446  1.00  0.00    -0.270 OA
BRANCH  10  13
ATOM     13  C   UNL A   1      30.138  26.304  24.689  1.00  0.00     0.042 A 
ATOM     14  C   UNL A   1      31.003  28.556  24.467  1.00  0.00     0.064 A 
ATOM     15  C   UNL A   1      31.079  27.268  25.024  1.00  0.00     0.042 A 
ATOM     16  C   UNL A   1      29.957  28.925  23.601  1.00  0.00     0.050 A 
ATOM     17  C   UNL A   1      29.003  27.933  23.312  1.00  0.00     0.029 A 
ATOM     18  C   UNL A   1      29.071  26.654  23.866  1.00  0.00     0.028 A 
BRANCH  14  19
ATOM     19  C   UNL A   1      32.048  29.482  24.932  1.00  0.00     0.250 C 
ATOM     20  N   UNL A   1      33.198  29.474  24.194  1.00  0.00    -0.366 N 
ATOM     21  H   UNL A   1      33.946  30.066  24.439  1.00  0.00     0.159 HD
ATOM     22  H   UNL A   1      33.278  28.877  23.414  1.00  0.00     0.159 HD
ATOM     23  O   UNL A   1      31.896  30.241  25.880  1.00  0.00    -0.269 OA
ENDBRANCH  14  19
BRANCH  16  24
ATOM     24  N   UNL A   1      29.725  30.183  23.080  1.00  0.00    -0.366 N 
ATOM     25  C   UNL A   1      29.088  31.275  23.827  1.00  0.00     0.145 C 
ATOM     26  C   UNL A   1      29.622  30.298  21.619  1.00  0.00     0.145 C 
ATOM     27  C   UNL A   1      27.674  31.580  23.291  1.00  0.00     0.181 C 
ATOM     28  C   UNL A   1      28.149  30.494  21.243  1.00  0.00     0.181 C 
ATOM     29  O   UNL A   1      27.630  31.688  21.854  1.00  0.00    -0.378 OA
ENDBRANCH  16  24
ENDBRANCH  10  13
ENDBRANCH   8   9
ENDBRANCH   4   7
ENDBRANCH   2   3
ENDBRANCH   1   2
BRANCH   1  30
ATOM     30  C   UNL A   1      36.239  23.729  26.045  1.00  0.00     0.118 C 
BRANCH  30  31
ATOM     31  N   UNL A   1      37.219  22.660  26.009  1.00  0.00    -0.352 N 
ATOM     32  C   UNL A   1      38.573  22.721  26.226  1.00  0.00     0.251 C 
ATOM     33  H   UNL A   1      36.863  21.766  25.799  1.00  0.00     0.163 HD
ATOM     34  O   UNL A   1      39.273  21.741  25.996  1.00  0.00    -0.269 OA
BRANCH  32  35
ATOM     35  C   UNL A   1      39.192  23.966  26.731  1.00  0.00     0.039 A 
ATOM     36  C   UNL A   1      39.824  24.819  25.824  1.00  0.00     0.014 A 
ATOM     37  C   UNL A   1      39.203  24.261  28.098  1.00  0.00     0.014 A 
ATOM     38  C   UNL A   1      40.445  25.985  26.282  1.00  0.00     0.010 A 
ATOM     39  C   UNL A   1      39.792  25.447  28.549  1.00  0.00     0.010 A 
ATOM     40  C   UNL A   1      40.427  26.318  27.648  1.00  0.00    -0.014 A 
BRANCH  40  41
ATOM     41  C   UNL A   1      41.070  27.572  28.131  1.00  0.00     0.031 A 
ATOM     42  C   UNL A   1      42.567  27.732  28.102  1.00  0.00     0.074 A 
ATOM     43  C   UNL A   1      40.307  28.566  28.628  1.00  0.00     0.049 A 
ATOM     44  N   UNL A   1      43.300  28.745  28.490  1.00  0.00    -0.248 NA
ATOM     45  C   UNL A   1      43.343  26.594  27.586  1.00  0.00     0.031 C 
ATOM     46  C   UNL A   1      38.849  28.526  28.747  1.00  0.00     0.029 A 
ATOM     47  N   UNL A   1      40.649  29.796  29.135  1.00  0.00    -0.354 N 
ATOM     48  C   UNL A   1      44.621  28.368  28.275  1.00  0.00     0.074 A 
ATOM     49  C   UNL A   1      44.587  27.011  27.770  1.00  0.00     0.031 C 
ATOM     50  C   UNL A   1      38.421  29.681  29.280  1.00  0.00     0.029 A 
ATOM     51  C   UNL A   1      39.573  30.530  29.575  1.00  0.00     0.049 A 
ATOM     52  H   UNL A   1      41.577  30.121  29.178  1.00  0.00     0.167 HD
ATOM     53  C   UNL A   1      45.754  29.089  28.465  1.00  0.00     0.037 A 
ATOM     54  C   UNL A   1      39.514  31.742  30.164  1.00  0.00     0.037 A 
ATOM     55  C   UNL A   1      45.780  30.440  28.969  1.00  0.00     0.049 A 
ATOM     56  C   UNL A   1      40.782  32.520  30.384  1.00  0.00     0.074 A 
ATOM     57  C   UNL A   1      46.872  31.272  29.144  1.00  0.00     0.029 A 
ATOM     58  N   UNL A   1      44.668  31.150  29.402  1.00  0.00    -0.354 N 
ATOM     59  N   UNL A   1      42.017  32.178  30.105  1.00  0.00    -0.248 NA
ATOM     60  C   UNL A   1      40.650  33.852  30.989  1.00  0.00     0.031 C 
ATOM     61  C   UNL A   1      46.431  32.458  29.740  1.00  0.00     0.029 A 
ATOM     62  C   UNL A   1      45.053  32.396  29.873  1.00  0.00     0.049 A 
ATOM     63  H   UNL A   1      43.742  30.817  29.376  1.00  0.00     0.167 HD
ATOM     64  C   UNL A   1      42.808  33.260  30.478  1.00  0.00     0.074 A 
ATOM     65  C   UNL A   1      41.909  34.272  30.993  1.00  0.00     0.031 C 
ATOM     66  C   UNL A   1      44.155  33.401  30.394  1.00  0.00     0.037 A 
BRANCH  53  67
ATOM     67  C   UNL A   1      47.065  28.415  28.145  1.00  0.00     0.058 A 
ATOM     68  C   UNL A   1      47.630  28.455  26.859  1.00  0.00     0.135 A 
ATOM     69  C   UNL A   1      47.771  27.720  29.142  1.00  0.00     0.135 A 
ATOM     70  F   UNL A   1      47.000  29.101  25.864  1.00  0.00    -0.206 F 
ATOM     71  C   UNL A   1      48.811  27.782  26.559  1.00  0.00     0.059 A 
ATOM     72  C   UNL A   1      48.972  27.069  28.872  1.00  0.00     0.059 A 
ATOM     73  F   UNL A   1      47.288  27.656  30.393  1.00  0.00    -0.206 F 
ATOM     74  C   UNL A   1      49.469  27.083  27.572  1.00  0.00     0.060 A 
BRANCH  74  75
ATOM     75  S   UNL A   1      50.973  26.174  27.155  1.00  0.00     0.124 S 
ATOM     76  O   UNL A   1      50.545  24.795  27.369  1.00  0.00    -0.237 OA
ATOM     77  O   UNL A   1      51.195  26.559  25.765  1.00  0.00    -0.237 OA
ATOM     78  O   UNL A   1      51.953  26.681  28.109  1.00  0.00    -0.744 OA
ENDBRANCH  74  75
ENDBRANCH  53  67
BRANCH  54  79
ATOM     79  C   UNL A   1      38.192  32.288  30.569  1.00  0.00     0.058 A 
ATOM     80  C   UNL A   1      37.654  32.026  31.837  1.00  0.00     0.135 A 
ATOM     81  C   UNL A   1      37.469  33.138  29.716  1.00  0.00     0.135 A 
ATOM     82  F   UNL A   1      38.300  31.211  32.685  1.00  0.00    -0.206 F 
ATOM     83  C   UNL A   1      36.453  32.595  32.251  1.00  0.00     0.059 A 
ATOM     84  C   UNL A   1      36.279  33.739  30.116  1.00  0.00     0.059 A 
ATOM     85  F   UNL A   1      37.946  33.428  28.495  1.00  0.00    -0.206 F 
ATOM     86  C   UNL A   1      35.781  33.462  31.387  1.00  0.00     0.060 A 
BRANCH  86  87
ATOM     87  S   UNL A   1      34.276  34.272  31.974  1.00  0.00     0.124 S 
ATOM     88  O   UNL A   1      34.816  35.450  32.643  1.00  0.00    -0.237 OA
ATOM     89  O   UNL A   1      33.558  34.518  30.728  1.00  0.00    -0.237 OA
ATOM     90  O   UNL A   1      33.674  33.270  32.849  1.00  0.00    -0.744 OA
ENDBRANCH  86  87
ENDBRANCH  54  79
BRANCH  66  91
ATOM     91  C   UNL A   1      44.752  34.710  30.842  1.00  0.00     0.058 A 
ATOM     92  C   UNL A   1      44.857  35.812  29.980  1.00  0.00     0.135 A 
ATOM     93  C   UNL A   1      45.167  34.881  32.173  1.00  0.00     0.135 A 
ATOM     94  F   UNL A   1      44.483  35.705  28.695  1.00  0.00    -0.206 F 
ATOM     95  C   UNL A   1      45.369  37.031  30.416  1.00  0.00     0.059 A 
ATOM     96  C   UNL A   1      45.653  36.099  32.639  1.00  0.00     0.059 A 
ATOM     97  F   UNL A   1      45.082  33.863  33.044  1.00  0.00    -0.206 F 
ATOM     98  C   UNL A   1      45.761  37.167  31.750  1.00  0.00     0.060 A 
BRANCH  98  99
ATOM     99  S   UNL A   1      46.383  38.765  32.312  1.00  0.00     0.124 S 
ATOM    100  O   UNL A   1      46.878  38.437  33.645  1.00  0.00    -0.237 OA
ATOM    101  O   UNL A   1      47.405  39.069  31.315  1.00  0.00    -0.237 OA
ATOM    102  O   UNL A   1      45.204  39.624  32.274  1.00  0.00    -0.744 OA
ENDBRANCH  98  99
ENDBRANCH  66  91
ENDBRANCH  40  41
ENDBRANCH  32  35
ENDBRANCH  30  31
ENDBRANCH   1  30
TORSDOF 17
ENDMDL
MODEL 3
REMARK VINA RESULT:     -11.9      3.619      9.052
REMARK SMILES NC(=O)c1cc(NC(=O)/C=C\C(=O)NCCCNC(=O)c2ccc(-c3c4nc(c(-c5c(F)cc(S(=O)(=O)[O-])cc5F)c5ccc([nH]5)c(-c5c(F)cc(S(=O)(=O)[O-])cc5F)c5nc(c(-c6c(F)cc(S(=O)(=O)[O-])cc6F)c6ccc3[nH]6)C=C5)C=C4)cc2)ccc1N1CCOCC1
REMARK SMILES IDX 16 1 15 2 14 3 12 4 13 5 11 7 10 8 8 9 7 10 9 12 6 13 4 14
REMARK SMILES IDX 5 15 89 16 88 17 87 18 2 19 1 20 3 23 90 24 91 25 95 26
REMARK SMILES IDX 92 27 94 28 93 29 17 30 18 31 19 32 20 34 21 35 22 36 86 37
REMARK SMILES IDX 23 38 85 39 24 40 25 41 26 42 79 43 27 44 84 45 78 46 80 47
REMARK SMILES IDX 28 48 83 49 77 50 76 51 29 53 63 54 42 55 62 56 43 57 46 58
REMARK SMILES IDX 61 59 81 60 44 61 45 62 60 64 82 65 47 66 30 67 31 68 40 69
REMARK SMILES IDX 32 70 33 71 39 72 41 73 34 74 35 75 36 76 37 77 38 78 64 79
REMARK SMILES IDX 65 80 74 81 66 82 67 83 73 84 75 85 68 86 69 87 70 88 71 89
REMARK SMILES IDX 72 90 48 91 49 92 58 93 50 94 51 95 57 96 59 97 52 98 53 99
REMARK SMILES IDX 54 100 55 101 56 102
REMARK H PARENT 14 6 7 11 1 21 1 22 18 33 80 52 46 63
REMARK Flexibility Score: inf
ROOT
ATOM      1  C   UNL A   1      34.936  23.154  25.705  1.00  0.00     0.042 C 
ENDROOT
BRANCH   1   2
ATOM      2  C   UNL A   1      34.873  22.108  24.599  1.00  0.00     0.118 C 
BRANCH   2   3
ATOM      3  N   UNL A   1      33.619  21.397  24.448  1.00  0.00    -0.352 N 
ATOM      4  C   UNL A   1      32.735  21.526  23.426  1.00  0.00     0.244 C 
ATOM      5  O   UNL A   1      32.217  20.526  22.934  1.00  0.00    -0.270 OA
ATOM      6  H   UNL A   1      33.387  20.756  25.158  1.00  0.00     0.163 HD
BRANCH   4   7
ATOM      7  C   UNL A   1      32.387  22.852  22.881  1.00  0.00     0.077 C 
ATOM      8  C   UNL A   1      31.591  23.788  23.419  1.00  0.00     0.077 C 
BRANCH   8   9
ATOM      9  C   UNL A   1      30.961  23.879  24.757  1.00  0.00     0.248 C 
ATOM     10  N   UNL A   1      30.242  24.949  25.185  1.00  0.00    -0.322 N 
ATOM     11  H   UNL A   1      29.668  24.763  25.963  1.00  0.00     0.170 HD
ATOM     12  O   UNL A   1      31.058  22.894  25.492  1.00  0.00    -0.270 OA
BRANCH  10  13
ATOM     13  C   UNL A   1      30.170  26.267  24.724  1.00  0.00     0.042 A 
ATOM     14  C   UNL A   1      31.036  28.517  24.482  1.00  0.00     0.064 A 
ATOM     15  C   UNL A   1      31.114  27.232  25.046  1.00  0.00     0.042 A 
ATOM     16  C   UNL A   1      29.983  28.882  23.624  1.00  0.00     0.050 A 
ATOM     17  C   UNL A   1      29.025  27.891  23.348  1.00  0.00     0.029 A 
ATOM     18  C   UNL A   1      29.096  26.614  23.908  1.00  0.00     0.028 A 
BRANCH  14  19
ATOM     19  C   UNL A   1      32.086  29.444  24.934  1.00  0.00     0.250 C 
ATOM     20  N   UNL A   1      33.183  29.513  24.124  1.00  0.00    -0.366 N 
ATOM     21  H   UNL A   1      33.931  30.110  24.356  1.00  0.00     0.159 HD
ATOM     22  H   UNL A   1      33.227  28.965  23.306  1.00  0.00     0.159 HD
ATOM     23  O   UNL A   1      31.978  30.140  25.935  1.00  0.00    -0.269 OA
ENDBRANCH  14  19
BRANCH  16  24
ATOM     24  N   UNL A   1      29.749  30.138  23.098  1.00  0.00    -0.366 N 
ATOM     25  C   UNL A   1      29.113  31.233  23.842  1.00  0.00     0.145 C 
ATOM     26  C   UNL A   1      29.640  30.246  21.636  1.00  0.00     0.145 C 
ATOM     27  C   UNL A   1      27.698  31.535  23.311  1.00  0.00     0.181 C 
ATOM     28  C   UNL A   1      28.165  30.440  21.265  1.00  0.00     0.181 C 
ATOM     29  O   UNL A   1      27.647  31.637  21.873  1.00  0.00    -0.378 OA
ENDBRANCH  16  24
ENDBRANCH  10  13
ENDBRANCH   8   9
ENDBRANCH   4   7
ENDBRANCH   2   3
ENDBRANCH   1   2
BRANCH   1  30
ATOM     30  C   UNL A   1      36.295  23.798  25.969  1.00  0.00     0.118 C 
BRANCH  30  31
ATOM     31  N   UNL A   1      37.406  22.874  25.844  1.00  0.00    -0.352 N 
ATOM     32  C   UNL A   1      38.724  23.058  26.179  1.00  0.00     0.251 C 
ATOM     33  H   UNL A   1      37.182  21.992  25.467  1.00  0.00     0.163 HD
ATOM     34  O   UNL A   1      39.559  22.220  25.854  1.00  0.00    -0.269 OA
BRANCH  32  35
ATOM     35  C   UNL A   1      39.143  24.265  26.923  1.00  0.00     0.039 A 
ATOM     36  C   UNL A   1      39.950  25.206  26.280  1.00  0.00     0.014 A 
ATOM     37  C   UNL A   1      38.794  24.440  28.266  1.00  0.00     0.014 A 
ATOM     38  C   UNL A   1      40.387  26.339  26.973  1.00  0.00     0.010 A 
ATOM     39  C   UNL A   1      39.200  25.593  28.945  1.00  0.00     0.010 A 
ATOM     40  C   UNL A   1      40.008  26.552  28.310  1.00  0.00    -0.014 A 
BRANCH  40  41
ATOM     41  C   UNL A   1      40.456  27.771  29.040  1.00  0.00     0.031 A 
ATOM     42  C   UNL A   1      41.815  27.828  29.685  1.00  0.00     0.074 A 
ATOM     43  C   UNL A   1      39.623  28.825  29.153  1.00  0.00     0.049 A 
ATOM     44  N   UNL A   1      42.368  28.798  30.368  1.00  0.00    -0.248 NA
ATOM     45  C   UNL A   1      42.657  26.628  29.560  1.00  0.00     0.031 C 
ATOM     46  C   UNL A   1      38.267  28.887  28.609  1.00  0.00     0.029 A 
ATOM     47  N   UNL A   1      39.791  30.041  29.770  1.00  0.00    -0.354 N 
ATOM     48  C   UNL A   1      43.616  28.328  30.762  1.00  0.00     0.074 A 
ATOM     49  C   UNL A   1      43.715  26.965  30.283  1.00  0.00     0.031 C 
ATOM     50  C   UNL A   1      37.730  30.081  28.905  1.00  0.00     0.029 A 
ATOM     51  C   UNL A   1      38.686  30.856  29.691  1.00  0.00     0.049 A 
ATOM     52  H   UNL A   1      40.622  30.304  30.226  1.00  0.00     0.167 HD
ATOM     53  C   UNL A   1      44.594  28.974  31.444  1.00  0.00     0.037 A 
ATOM     54  C   UNL A   1      38.457  32.083  30.202  1.00  0.00     0.037 A 
ATOM     55  C   UNL A   1      44.489  30.332  31.919  1.00  0.00     0.049 A 
ATOM     56  C   UNL A   1      39.546  32.779  30.971  1.00  0.00     0.074 A 
ATOM     57  C   UNL A   1      45.444  31.093  32.570  1.00  0.00     0.029 A 
ATOM     58  N   UNL A   1      43.354  31.126  31.816  1.00  0.00    -0.354 N 
ATOM     59  N   UNL A   1      40.748  32.347  31.270  1.00  0.00    -0.248 NA
ATOM     60  C   UNL A   1      39.254  34.131  31.466  1.00  0.00     0.031 C 
ATOM     61  C   UNL A   1      44.869  32.319  32.917  1.00  0.00     0.029 A 
ATOM     62  C   UNL A   1      43.575  32.354  32.420  1.00  0.00     0.049 A 
ATOM     63  H   UNL A   1      42.515  30.856  31.376  1.00  0.00     0.167 HD
ATOM     64  C   UNL A   1      41.364  33.382  31.967  1.00  0.00     0.074 A 
ATOM     65  C   UNL A   1      40.404  34.465  32.035  1.00  0.00     0.031 C 
ATOM     66  C   UNL A   1      42.614  33.430  32.494  1.00  0.00     0.037 A 
BRANCH  53  67
ATOM     67  C   UNL A   1      45.858  28.206  31.738  1.00  0.00     0.058 A 
ATOM     68  C   UNL A   1      46.017  27.454  32.915  1.00  0.00     0.135 A 
ATOM     69  C   UNL A   1      46.929  28.219  30.827  1.00  0.00     0.135 A 
ATOM     70  F   UNL A   1      45.030  27.406  33.825  1.00  0.00    -0.206 F 
ATOM     71  C   UNL A   1      47.207  26.795  33.205  1.00  0.00     0.059 A 
ATOM     72  C   UNL A   1      48.116  27.538  31.082  1.00  0.00     0.059 A 
ATOM     73  F   UNL A   1      46.833  28.910  29.681  1.00  0.00    -0.206 F 
ATOM     74  C   UNL A   1      48.256  26.852  32.285  1.00  0.00     0.060 A 
BRANCH  74  75
ATOM     75  S   UNL A   1      49.812  26.035  32.700  1.00  0.00     0.124 S 
ATOM     76  O   UNL A   1      50.540  26.144  31.440  1.00  0.00    -0.237 OA
ATOM     77  O   UNL A   1      50.315  26.858  33.795  1.00  0.00    -0.237 OA
ATOM     78  O   UNL A   1      49.400  24.685  33.070  1.00  0.00    -0.744 OA
ENDBRANCH  74  75
ENDBRANCH  53  67
BRANCH  54  79
ATOM     79  C   UNL A   1      37.135  32.727  29.979  1.00  0.00     0.058 A 
ATOM     80  C   UNL A   1      36.060  32.500  30.849  1.00  0.00     0.135 A 
ATOM     81  C   UNL A   1      36.943  33.634  28.925  1.00  0.00     0.135 A 
ATOM     82  F   UNL A   1      36.190  31.633  31.865  1.00  0.00    -0.206 F 
ATOM     83  C   UNL A   1      34.843  33.157  30.690  1.00  0.00     0.059 A 
ATOM     84  C   UNL A   1      35.745  34.323  28.760  1.00  0.00     0.059 A 
ATOM     85  F   UNL A   1      37.945  33.894  28.070  1.00  0.00    -0.206 F 
ATOM     86  C   UNL A   1      34.701  34.078  29.650  1.00  0.00     0.060 A 
BRANCH  86  87
ATOM     87  S   UNL A   1      33.152  34.998  29.516  1.00  0.00     0.124 S 
ATOM     88  O   UNL A   1      32.367  34.131  28.645  1.00  0.00    -0.237 OA
ATOM     89  O   UNL A   1      32.718  35.066  30.908  1.00  0.00    -0.237 OA
ATOM     90  O   UNL A   1      33.566  36.271  28.933  1.00  0.00    -0.744 OA
ENDBRANCH  86  87
ENDBRANCH  54  79
BRANCH  66  91
ATOM     91  C   UNL A   1      43.039  34.705  33.173  1.00  0.00     0.058 A 
ATOM     92  C   UNL A   1      42.925  34.881  34.562  1.00  0.00     0.135 A 
ATOM     93  C   UNL A   1      43.628  35.742  32.431  1.00  0.00     0.135 A 
ATOM     94  F   UNL A   1      42.363  33.927  35.321  1.00  0.00    -0.206 F 
ATOM     95  C   UNL A   1      43.363  36.047  35.186  1.00  0.00     0.059 A 
ATOM     96  C   UNL A   1      44.101  36.902  33.038  1.00  0.00     0.059 A 
ATOM     97  F   UNL A   1      43.770  35.626  31.101  1.00  0.00    -0.206 F 
ATOM     98  C   UNL A   1      43.954  37.050  34.417  1.00  0.00     0.060 A 
BRANCH  98  99
ATOM     99  S   UNL A   1      44.555  38.537  35.244  1.00  0.00     0.124 S 
ATOM    100  O   UNL A   1      46.000  38.379  35.125  1.00  0.00    -0.237 OA
ATOM    101  O   UNL A   1      43.965  39.602  34.438  1.00  0.00    -0.237 OA
ATOM    102  O   UNL A   1      44.020  38.415  36.597  1.00  0.00    -0.744 OA
ENDBRANCH  98  99
ENDBRANCH  66  91
ENDBRANCH  40  41
ENDBRANCH  32  35
ENDBRANCH  30  31
ENDBRANCH   1  30
TORSDOF 17
ENDMDL
