MODEL 1
REMARK VINA RESULT:     -12.5      0.000      0.000
REMARK SMILES C[C@H]1CN(C(=O)N2CC[NH+]([C@@H](C)C(=O)NCCCNC(=O)c3ccc(-c4c5nc(c(-c6c(F)cc(S(=O)(=O)[O-])cc6F)c6ccc([nH]6)c(-c6c(F)cc(S(=O)(=O)[O-])cc6F)c6nc(c(-c7c(F)cc(S(=O)(=O)[O-])cc7F)c7ccc4[nH]7)C=C6)C=C5)cc3)CC2)C[C@@H]1C
REMARK SMILES IDX 18 1 17 2 16 3 15 4 13 5 14 6 11 8 12 9 10 10 1 11 2 12 3 13
REMARK SMILES IDX 91 14 4 15 90 16 92 17 5 18 6 19 7 20 8 21 89 22 9 23 88 24
REMARK SMILES IDX 19 26 20 27 21 29 22 30 23 31 87 32 24 33 86 34 25 35 26 36
REMARK SMILES IDX 27 37 80 38 28 39 85 40 79 41 81 42 29 43 84 44 78 45 77 46
REMARK SMILES IDX 30 48 64 49 43 50 63 51 44 52 47 53 62 54 82 55 45 56 46 57
REMARK SMILES IDX 61 59 83 60 48 61 31 62 32 63 41 64 33 65 34 66 40 67 42 68
REMARK SMILES IDX 35 69 36 70 37 71 38 72 39 73 65 74 66 75 75 76 67 77 68 78
REMARK SMILES IDX 74 79 76 80 69 81 70 82 71 83 72 84 73 85 49 86 50 87 59 88
REMARK SMILES IDX 51 89 52 90 58 91 60 92 53 93 54 94 55 95 56 96 57 97
REMARK H PARENT 15 7 10 25 19 28 81 47 47 58
REMARK Flexibility Score: inf
ROOT
ATOM      1  C   UNL A   1      41.128  22.901  27.165  1.00  0.00     0.118 C 
ENDROOT
BRANCH   1   2
ATOM      2  C   UNL A   1      39.990  22.023  26.673  1.00  0.00     0.042 C 
BRANCH   2   3
ATOM      3  C   UNL A   1      38.662  22.760  26.503  1.00  0.00     0.118 C 
BRANCH   3   4
ATOM      4  N   UNL A   1      38.151  22.659  25.146  1.00  0.00    -0.351 N 
ATOM      5  C   UNL A   1      36.976  22.205  24.624  1.00  0.00     0.278 C 
ATOM      6  O   UNL A   1      36.910  22.203  23.387  1.00  0.00    -0.268 OA
ATOM      7  H   UNL A   1      38.782  22.985  24.464  1.00  0.00     0.163 HD
BRANCH   5   8
ATOM      8  C   UNL A   1      35.752  21.742  25.468  1.00  0.00     0.271 C 
ATOM      9  C   UNL A   1      35.133  20.427  25.001  1.00  0.00     0.086 C 
BRANCH   8  10
ATOM     10  N   UNL A   1      34.879  22.856  25.915  1.00  0.00    -0.322 N 
ATOM     11  C   UNL A   1      28.775  26.348  23.876  1.00  0.00     0.010 C 
ATOM     12  C   UNL A   1      30.097  27.090  24.077  1.00  0.00     0.010 C 
ATOM     13  C   UNL A   1      31.239  26.108  24.345  1.00  0.00     0.125 C 
ATOM     14  C   UNL A   1      30.556  27.807  22.792  1.00  0.00     0.010 C 
ATOM     15  N   UNL A   1      31.793  25.813  23.032  1.00  0.00    -0.324 N 
ATOM     16  C   UNL A   1      31.255  26.692  22.009  1.00  0.00     0.125 C 
ATOM     17  C   UNL A   1      31.528  28.950  23.104  1.00  0.00     0.010 C 
ATOM     18  C   UNL A   1      32.891  25.028  22.781  1.00  0.00     0.320 C 
ATOM     19  O   UNL A   1      33.426  24.941  21.678  1.00  0.00    -0.248 OA
ATOM     20  N   UNL A   1      33.425  24.426  23.902  1.00  0.00    -0.313 N 
ATOM     21  C   UNL A   1      34.849  24.615  24.105  1.00  0.00     0.183 C 
ATOM     22  C   UNL A   1      32.908  23.122  24.303  1.00  0.00     0.183 C 
ATOM     23  C   UNL A   1      35.251  24.219  25.530  1.00  0.00     0.284 C 
ATOM     24  C   UNL A   1      33.435  22.663  25.681  1.00  0.00     0.284 C 
ATOM     25  H   UNL A   1      35.070  22.789  26.915  1.00  0.00     0.348 HD
ENDBRANCH   8  10
ENDBRANCH   5   8
ENDBRANCH   3   4
ENDBRANCH   2   3
ENDBRANCH   1   2
BRANCH   1  26
ATOM     26  N   UNL A   1      41.721  23.680  26.091  1.00  0.00    -0.352 N 
ATOM     27  C   UNL A   1      41.890  25.040  25.973  1.00  0.00     0.251 C 
ATOM     28  H   UNL A   1      42.054  23.152  25.329  1.00  0.00     0.163 HD
ATOM     29  O   UNL A   1      42.223  25.503  24.886  1.00  0.00    -0.269 OA
BRANCH  27  30
ATOM     30  C   UNL A   1      41.660  25.949  27.125  1.00  0.00     0.039 A 
ATOM     31  C   UNL A   1      42.499  27.056  27.288  1.00  0.00     0.014 A 
ATOM     32  C   UNL A   1      40.665  25.699  28.073  1.00  0.00     0.014 A 
ATOM     33  C   UNL A   1      42.312  27.927  28.367  1.00  0.00     0.010 A 
ATOM     34  C   UNL A   1      40.414  26.621  29.089  1.00  0.00     0.010 A 
ATOM     35  C   UNL A   1      41.250  27.732  29.264  1.00  0.00    -0.014 A 
BRANCH  35  36
ATOM     36  C   UNL A   1      41.026  28.646  30.417  1.00  0.00     0.031 A 
ATOM     37  C   UNL A   1      41.861  28.500  31.665  1.00  0.00     0.074 A 
ATOM     38  C   UNL A   1      40.043  29.567  30.369  1.00  0.00     0.049 A 
ATOM     39  N   UNL A   1      41.771  29.143  32.801  1.00  0.00    -0.248 NA
ATOM     40  C   UNL A   1      42.915  27.472  31.644  1.00  0.00     0.031 C 
ATOM     41  C   UNL A   1      39.133  29.775  29.240  1.00  0.00     0.029 A 
ATOM     42  N   UNL A   1      39.638  30.496  31.295  1.00  0.00    -0.354 N 
ATOM     43  C   UNL A   1      42.735  28.582  33.633  1.00  0.00     0.074 A 
ATOM     44  C   UNL A   1      43.359  27.510  32.892  1.00  0.00     0.031 C 
ATOM     45  C   UNL A   1      38.294  30.784  29.530  1.00  0.00     0.029 A 
ATOM     46  C   UNL A   1      38.581  31.271  30.876  1.00  0.00     0.049 A 
ATOM     47  H   UNL A   1      40.064  30.599  32.175  1.00  0.00     0.167 HD
ATOM     48  C   UNL A   1      43.089  28.944  34.889  1.00  0.00     0.037 A 
ATOM     49  C   UNL A   1      37.915  32.259  31.506  1.00  0.00     0.037 A 
ATOM     50  C   UNL A   1      42.496  30.042  35.606  1.00  0.00     0.049 A 
ATOM     51  C   UNL A   1      38.341  32.661  32.892  1.00  0.00     0.074 A 
ATOM     52  C   UNL A   1      42.827  30.535  36.857  1.00  0.00     0.029 A 
ATOM     53  N   UNL A   1      41.451  30.824  35.133  1.00  0.00    -0.354 N 
ATOM     54  N   UNL A   1      39.295  32.157  33.640  1.00  0.00    -0.248 NA
ATOM     55  C   UNL A   1      37.608  33.769  33.519  1.00  0.00     0.031 C 
ATOM     56  C   UNL A   1      41.958  31.589  37.155  1.00  0.00     0.029 A 
ATOM     57  C   UNL A   1      41.116  31.785  36.072  1.00  0.00     0.049 A 
ATOM     58  H   UNL A   1      41.013  30.711  34.258  1.00  0.00     0.167 HD
ATOM     59  C   UNL A   1      39.293  32.904  34.813  1.00  0.00     0.074 A 
ATOM     60  C   UNL A   1      38.252  33.900  34.671  1.00  0.00     0.031 C 
ATOM     61  C   UNL A   1      40.082  32.775  35.909  1.00  0.00     0.037 A 
BRANCH  48  62
ATOM     62  C   UNL A   1      44.177  28.153  35.565  1.00  0.00     0.058 A 
ATOM     63  C   UNL A   1      43.893  27.003  36.321  1.00  0.00     0.135 A 
ATOM     64  C   UNL A   1      45.523  28.532  35.435  1.00  0.00     0.135 A 
ATOM     65  F   UNL A   1      42.622  26.604  36.491  1.00  0.00    -0.206 F 
ATOM     66  C   UNL A   1      44.899  26.277  36.949  1.00  0.00     0.059 A 
ATOM     67  C   UNL A   1      46.549  27.803  36.031  1.00  0.00     0.059 A 
ATOM     68  F   UNL A   1      45.854  29.621  34.724  1.00  0.00    -0.206 F 
ATOM     69  C   UNL A   1      46.225  26.686  36.800  1.00  0.00     0.060 A 
BRANCH  69  70
ATOM     70  S   UNL A   1      47.519  25.732  37.622  1.00  0.00     0.124 S 
ATOM     71  O   UNL A   1      48.573  25.742  36.611  1.00  0.00    -0.237 OA
ATOM     72  O   UNL A   1      47.781  26.526  38.818  1.00  0.00    -0.237 OA
ATOM     73  O   UNL A   1      46.888  24.437  37.858  1.00  0.00    -0.744 OA
ENDBRANCH  69  70
ENDBRANCH  48  62
BRANCH  49  74
ATOM     74  C   UNL A   1      36.794  32.956  30.819  1.00  0.00     0.058 A 
ATOM     75  C   UNL A   1      35.461  32.708  31.179  1.00  0.00     0.135 A 
ATOM     76  C   UNL A   1      37.032  33.894  29.803  1.00  0.00     0.135 A 
ATOM     77  F   UNL A   1      35.182  31.814  32.140  1.00  0.00    -0.206 F 
ATOM     78  C   UNL A   1      34.403  33.353  30.548  1.00  0.00     0.059 A 
ATOM     79  C   UNL A   1      35.991  34.572  29.174  1.00  0.00     0.059 A 
ATOM     80  F   UNL A   1      38.290  34.181  29.433  1.00  0.00    -0.206 F 
ATOM     81  C   UNL A   1      34.679  34.287  29.548  1.00  0.00     0.060 A 
BRANCH  81  82
ATOM     82  S   UNL A   1      33.301  35.160  28.772  1.00  0.00     0.124 S 
ATOM     83  O   UNL A   1      33.998  36.183  28.000  1.00  0.00    -0.237 OA
ATOM     84  O   UNL A   1      32.661  34.100  27.998  1.00  0.00    -0.237 OA
ATOM     85  O   UNL A   1      32.528  35.645  29.912  1.00  0.00    -0.744 OA
ENDBRANCH  81  82
ENDBRANCH  49  74
BRANCH  61  86
ATOM     86  C   UNL A   1      39.877  33.757  37.028  1.00  0.00     0.058 A 
ATOM     87  C   UNL A   1      40.501  35.014  37.030  1.00  0.00     0.135 A 
ATOM     88  C   UNL A   1      38.998  33.457  38.082  1.00  0.00     0.135 A 
ATOM     89  F   UNL A   1      41.354  35.347  36.048  1.00  0.00    -0.206 F 
ATOM     90  C   UNL A   1      40.279  35.933  38.050  1.00  0.00     0.059 A 
ATOM     91  C   UNL A   1      38.742  34.371  39.099  1.00  0.00     0.059 A 
ATOM     92  F   UNL A   1      38.368  32.273  38.121  1.00  0.00    -0.206 F 
ATOM     93  C   UNL A   1      39.395  35.603  39.080  1.00  0.00     0.060 A 
BRANCH  93  94
ATOM     94  S   UNL A   1      39.087  36.817  40.380  1.00  0.00     0.124 S 
ATOM     95  O   UNL A   1      38.152  36.097  41.238  1.00  0.00    -0.237 OA
ATOM     96  O   UNL A   1      40.421  37.029  40.933  1.00  0.00    -0.237 OA
ATOM     97  O   UNL A   1      38.528  37.954  39.656  1.00  0.00    -0.744 OA
ENDBRANCH  93  94
ENDBRANCH  61  86
ENDBRANCH  35  36
ENDBRANCH  27  30
ENDBRANCH   1  26
TORSDOF 14
ENDMDL
MODEL 2
REMARK VINA RESULT:     -12.4      6.357     12.004
REMARK SMILES C[C@H]1CN(C(=O)N2CC[NH+]([C@@H](C)C(=O)NCCCNC(=O)c3ccc(-c4c5nc(c(-c6c(F)cc(S(=O)(=O)[O-])cc6F)c6ccc([nH]6)c(-c6c(F)cc(S(=O)(=O)[O-])cc6F)c6nc(c(-c7c(F)cc(S(=O)(=O)[O-])cc7F)c7ccc4[nH]7)C=C6)C=C5)cc3)CC2)C[C@@H]1C
REMARK SMILES IDX 18 1 17 2 16 3 15 4 13 5 14 6 11 8 12 9 10 10 1 11 2 12 3 13
REMARK SMILES IDX 91 14 4 15 90 16 92 17 5 18 6 19 7 20 8 21 89 22 9 23 88 24
REMARK SMILES IDX 19 26 20 27 21 29 22 30 23 31 87 32 24 33 86 34 25 35 26 36
REMARK SMILES IDX 27 37 80 38 28 39 85 40 79 41 81 42 29 43 84 44 78 45 77 46
REMARK SMILES IDX 30 48 64 49 43 50 63 51 44 52 47 53 62 54 82 55 45 56 46 57
REMARK SMILES IDX 61 59 83 60 48 61 31 62 32 63 41 64 33 65 34 66 40 67 42 68
REMARK SMILES IDX 35 69 36 70 37 71 38 72 39 73 65 74 66 75 75 76 67 77 68 78
REMARK SMILES IDX 74 79 76 80 69 81 70 82 71 83 72 84 73 85 49 86 50 87 59 88
REMARK SMILES IDX 51 89 52 90 58 91 60 92 53 93 54 94 55 95 56 96 57 97
REMARK H PARENT 15 7 10 25 19 28 81 47 47 58
REMARK Flexibility Score: inf
ROOT
ATOM      1  C   UNL A   1      35.857  32.132  28.740  1.00  0.00     0.118 C 
ENDROOT
BRANCH   1   2
ATOM      2  C   UNL A   1      34.719  31.802  27.790  1.00  0.00     0.042 C 
BRANCH   2   3
ATOM      3  C   UNL A   1      34.685  30.342  27.340  1.00  0.00     0.118 C 
BRANCH   3   4
ATOM      4  N   UNL A   1      33.424  29.698  27.666  1.00  0.00    -0.351 N 
ATOM      5  C   UNL A   1      32.388  29.239  26.907  1.00  0.00     0.278 C 
ATOM      6  O   UNL A   1      31.419  28.799  27.541  1.00  0.00    -0.268 OA
ATOM      7  H   UNL A   1      33.289  29.566  28.632  1.00  0.00     0.163 HD
BRANCH   5   8
ATOM      8  C   UNL A   1      32.377  29.207  25.350  1.00  0.00     0.271 C 
ATOM      9  C   UNL A   1      31.058  29.658  24.726  1.00  0.00     0.086 C 
BRANCH   8  10
ATOM     10  N   UNL A   1      33.119  28.059  24.771  1.00  0.00    -0.322 N 
ATOM     11  C   UNL A   1      31.917  21.225  22.433  1.00  0.00     0.010 C 
ATOM     12  C   UNL A   1      32.931  21.531  23.536  1.00  0.00     0.010 C 
ATOM     13  C   UNL A   1      32.871  23.005  23.939  1.00  0.00     0.125 C 
ATOM     14  C   UNL A   1      32.591  20.802  24.850  1.00  0.00     0.010 C 
ATOM     15  N   UNL A   1      31.913  23.054  25.034  1.00  0.00    -0.324 N 
ATOM     16  C   UNL A   1      31.553  21.724  25.494  1.00  0.00     0.125 C 
ATOM     17  C   UNL A   1      33.825  20.655  25.746  1.00  0.00     0.010 C 
ATOM     18  C   UNL A   1      31.587  24.167  25.768  1.00  0.00     0.320 C 
ATOM     19  O   UNL A   1      30.903  24.131  26.789  1.00  0.00    -0.248 OA
ATOM     20  N   UNL A   1      32.188  25.330  25.332  1.00  0.00    -0.313 N 
ATOM     21  C   UNL A   1      32.893  26.097  26.341  1.00  0.00     0.183 C 
ATOM     22  C   UNL A   1      31.509  26.122  24.312  1.00  0.00     0.183 C 
ATOM     23  C   UNL A   1      33.800  27.145  25.690  1.00  0.00     0.284 C 
ATOM     24  C   UNL A   1      32.382  27.273  23.763  1.00  0.00     0.284 C 
ATOM     25  H   UNL A   1      33.857  28.590  24.310  1.00  0.00     0.348 HD
ENDBRANCH   8  10
ENDBRANCH   5   8
ENDBRANCH   3   4
ENDBRANCH   2   3
ENDBRANCH   1   2
BRANCH   1  26
ATOM     26  N   UNL A   1      35.650  31.564  30.060  1.00  0.00    -0.352 N 
ATOM     27  C   UNL A   1      36.399  30.642  30.754  1.00  0.00     0.251 C 
ATOM     28  H   UNL A   1      34.849  31.890  30.532  1.00  0.00     0.163 HD
ATOM     29  O   UNL A   1      35.927  30.141  31.771  1.00  0.00    -0.269 OA
BRANCH  27  30
ATOM     30  C   UNL A   1      37.749  30.235  30.287  1.00  0.00     0.039 A 
ATOM     31  C   UNL A   1      38.723  29.916  31.239  1.00  0.00     0.014 A 
ATOM     32  C   UNL A   1      38.082  30.212  28.931  1.00  0.00     0.014 A 
ATOM     33  C   UNL A   1      40.007  29.536  30.830  1.00  0.00     0.010 A 
ATOM     34  C   UNL A   1      39.327  29.735  28.521  1.00  0.00     0.010 A 
ATOM     35  C   UNL A   1      40.313  29.415  29.465  1.00  0.00    -0.014 A 
BRANCH  35  36
ATOM     36  C   UNL A   1      41.668  29.008  29.004  1.00  0.00     0.031 A 
ATOM     37  C   UNL A   1      42.780  30.026  28.945  1.00  0.00     0.074 A 
ATOM     38  C   UNL A   1      41.888  27.746  28.587  1.00  0.00     0.049 A 
ATOM     39  N   UNL A   1      44.003  29.891  28.502  1.00  0.00    -0.248 NA
ATOM     40  C   UNL A   1      42.464  31.385  29.417  1.00  0.00     0.031 C 
ATOM     41  C   UNL A   1      40.884  26.680  28.546  1.00  0.00     0.029 A 
ATOM     42  N   UNL A   1      43.027  27.145  28.109  1.00  0.00    -0.354 N 
ATOM     43  C   UNL A   1      44.591  31.147  28.619  1.00  0.00     0.074 A 
ATOM     44  C   UNL A   1      43.573  32.044  29.119  1.00  0.00     0.031 C 
ATOM     45  C   UNL A   1      41.457  25.551  28.094  1.00  0.00     0.029 A 
ATOM     46  C   UNL A   1      42.857  25.820  27.778  1.00  0.00     0.049 A 
ATOM     47  H   UNL A   1      43.884  27.617  28.013  1.00  0.00     0.167 HD
ATOM     48  C   UNL A   1      45.868  31.515  28.359  1.00  0.00     0.037 A 
ATOM     49  C   UNL A   1      43.729  24.924  27.274  1.00  0.00     0.037 A 
ATOM     50  C   UNL A   1      46.889  30.609  27.904  1.00  0.00     0.049 A 
ATOM     51  C   UNL A   1      45.149  25.349  27.017  1.00  0.00     0.074 A 
ATOM     52  C   UNL A   1      48.230  30.866  27.676  1.00  0.00     0.029 A 
ATOM     53  N   UNL A   1      46.684  29.267  27.614  1.00  0.00    -0.354 N 
ATOM     54  N   UNL A   1      45.700  26.527  27.189  1.00  0.00    -0.248 NA
ATOM     55  C   UNL A   1      46.068  24.324  26.505  1.00  0.00     0.031 C 
ATOM     56  C   UNL A   1      48.827  29.689  27.212  1.00  0.00     0.029 A 
ATOM     57  C   UNL A   1      47.870  28.687  27.195  1.00  0.00     0.049 A 
ATOM     58  H   UNL A   1      45.823  28.798  27.695  1.00  0.00     0.167 HD
ATOM     59  C   UNL A   1      47.036  26.378  26.831  1.00  0.00     0.074 A 
ATOM     60  C   UNL A   1      47.212  24.993  26.445  1.00  0.00     0.031 C 
ATOM     61  C   UNL A   1      48.027  27.304  26.823  1.00  0.00     0.037 A 
BRANCH  48  62
ATOM     62  C   UNL A   1      46.237  32.959  28.573  1.00  0.00     0.058 A 
ATOM     63  C   UNL A   1      46.758  33.415  29.796  1.00  0.00     0.135 A 
ATOM     64  C   UNL A   1      46.093  33.896  27.537  1.00  0.00     0.135 A 
ATOM     65  F   UNL A   1      46.902  32.565  30.827  1.00  0.00    -0.206 F 
ATOM     66  C   UNL A   1      47.092  34.750  29.994  1.00  0.00     0.059 A 
ATOM     67  C   UNL A   1      46.448  35.232  27.704  1.00  0.00     0.059 A 
ATOM     68  F   UNL A   1      45.600  33.518  26.347  1.00  0.00    -0.206 F 
ATOM     69  C   UNL A   1      46.932  35.653  28.942  1.00  0.00     0.060 A 
BRANCH  69  70
ATOM     70  S   UNL A   1      47.371  37.382  29.216  1.00  0.00     0.124 S 
ATOM     71  O   UNL A   1      48.140  37.294  30.454  1.00  0.00    -0.237 OA
ATOM     72  O   UNL A   1      48.136  37.705  28.016  1.00  0.00    -0.237 OA
ATOM     73  O   UNL A   1      46.076  38.048  29.328  1.00  0.00    -0.744 OA
ENDBRANCH  69  70
ENDBRANCH  48  62
BRANCH  49  74
ATOM     74  C   UNL A   1      43.288  23.528  27.008  1.00  0.00     0.058 A 
ATOM     75  C   UNL A   1      43.037  23.087  25.700  1.00  0.00     0.135 A 
ATOM     76  C   UNL A   1      43.127  22.603  28.051  1.00  0.00     0.135 A 
ATOM     77  F   UNL A   1      43.171  23.937  24.670  1.00  0.00    -0.206 F 
ATOM     78  C   UNL A   1      42.628  21.784  25.435  1.00  0.00     0.059 A 
ATOM     79  C   UNL A   1      42.743  21.286  27.808  1.00  0.00     0.059 A 
ATOM     80  F   UNL A   1      43.372  22.968  29.319  1.00  0.00    -0.206 F 
ATOM     81  C   UNL A   1      42.487  20.890  26.497  1.00  0.00     0.060 A 
BRANCH  81  82
ATOM     82  S   UNL A   1      42.007  19.186  26.137  1.00  0.00     0.124 S 
ATOM     83  O   UNL A   1      40.585  19.335  25.852  1.00  0.00    -0.237 OA
ATOM     84  O   UNL A   1      42.858  18.860  24.997  1.00  0.00    -0.237 OA
ATOM     85  O   UNL A   1      42.333  18.479  27.373  1.00  0.00    -0.744 OA
ENDBRANCH  81  82
ENDBRANCH  49  74
BRANCH  61  86
ATOM     86  C   UNL A   1      49.400  26.845  26.418  1.00  0.00     0.058 A 
ATOM     87  C   UNL A   1      50.296  26.294  27.346  1.00  0.00     0.135 A 
ATOM     88  C   UNL A   1      49.799  26.905  25.072  1.00  0.00     0.135 A 
ATOM     89  F   UNL A   1      49.965  26.219  28.644  1.00  0.00    -0.206 F 
ATOM     90  C   UNL A   1      51.552  25.837  26.958  1.00  0.00     0.059 A 
ATOM     91  C   UNL A   1      51.039  26.430  24.659  1.00  0.00     0.059 A 
ATOM     92  F   UNL A   1      48.974  27.414  24.144  1.00  0.00    -0.206 F 
ATOM     93  C   UNL A   1      51.914  25.908  25.611  1.00  0.00     0.060 A 
BRANCH  93  94
ATOM     94  S   UNL A   1      53.531  25.279  25.114  1.00  0.00     0.124 S 
ATOM     95  O   UNL A   1      53.579  25.672  23.710  1.00  0.00    -0.237 OA
ATOM     96  O   UNL A   1      54.435  25.999  26.006  1.00  0.00    -0.237 OA
ATOM     97  O   UNL A   1      53.428  23.844  25.361  1.00  0.00    -0.744 OA
ENDBRANCH  93  94
ENDBRANCH  61  86
ENDBRANCH  35  36
ENDBRANCH  27  30
ENDBRANCH   1  26
TORSDOF 14
ENDMDL
MODEL 3
REMARK VINA RESULT:     -12.3      4.965      7.038
REMARK SMILES C[C@H]1CN(C(=O)N2CC[NH+]([C@@H](C)C(=O)NCCCNC(=O)c3ccc(-c4c5nc(c(-c6c(F)cc(S(=O)(=O)[O-])cc6F)c6ccc([nH]6)c(-c6c(F)cc(S(=O)(=O)[O-])cc6F)c6nc(c(-c7c(F)cc(S(=O)(=O)[O-])cc7F)c7ccc4[nH]7)C=C6)C=C5)cc3)CC2)C[C@@H]1C
REMARK SMILES IDX 18 1 17 2 16 3 15 4 13 5 14 6 11 8 12 9 10 10 1 11 2 12 3 13
REMARK SMILES IDX 91 14 4 15 90 16 92 17 5 18 6 19 7 20 8 21 89 22 9 23 88 24
REMARK SMILES IDX 19 26 20 27 21 29 22 30 23 31 87 32 24 33 86 34 25 35 26 36
REMARK SMILES IDX 27 37 80 38 28 39 85 40 79 41 81 42 29 43 84 44 78 45 77 46
REMARK SMILES IDX 30 48 64 49 43 50 63 51 44 52 47 53 62 54 82 55 45 56 46 57
REMARK SMILES IDX 61 59 83 60 48 61 31 62 32 63 41 64 33 65 34 66 40 67 42 68
REMARK SMILES IDX 35 69 36 70 37 71 38 72 39 73 65 74 66 75 75 76 67 77 68 78
REMARK SMILES IDX 74 79 76 80 69 81 70 82 71 83 72 84 73 85 49 86 50 87 59 88
REMARK SMILES IDX 51 89 52 90 58 91 60 92 53 93 54 94 55 95 56 96 57 97
REMARK H PARENT 15 7 10 25 19 28 81 47 47 58
REMARK Flexibility Score: inf
ROOT
ATOM      1  C   UNL A   1      36.003  23.715  26.298  1.00  0.00     0.118 C 
ENDROOT
BRANCH   1   2
ATOM      2  C   UNL A   1      35.545  24.236  24.947  1.00  0.00     0.042 C 
BRANCH   2   3
ATOM      3  C   UNL A   1      34.403  25.249  25.023  1.00  0.00     0.118 C 
BRANCH   3   4
ATOM      4  N   UNL A   1      33.484  24.955  26.110  1.00  0.00    -0.351 N 
ATOM      5  C   UNL A   1      32.138  24.741  26.161  1.00  0.00     0.278 C 
ATOM      6  O   UNL A   1      31.668  24.584  27.296  1.00  0.00    -0.268 OA
ATOM      7  H   UNL A   1      33.923  24.898  26.990  1.00  0.00     0.163 HD
BRANCH   5   8
ATOM      8  C   UNL A   1      31.207  24.653  24.916  1.00  0.00     0.271 C 
ATOM      9  C   UNL A   1      30.172  25.772  24.830  1.00  0.00     0.086 C 
BRANCH   8  10
ATOM     10  N   UNL A   1      30.833  23.265  24.547  1.00  0.00    -0.322 N 
ATOM     11  C   UNL A   1      32.728  16.363  26.093  1.00  0.00     0.010 C 
ATOM     12  C   UNL A   1      32.759  16.905  24.662  1.00  0.00     0.010 C 
ATOM     13  C   UNL A   1      32.471  18.407  24.642  1.00  0.00     0.125 C 
ATOM     14  C   UNL A   1      34.168  16.816  24.043  1.00  0.00     0.010 C 
ATOM     15  N   UNL A   1      33.779  19.039  24.734  1.00  0.00    -0.324 N 
ATOM     16  C   UNL A   1      34.855  18.076  24.577  1.00  0.00     0.125 C 
ATOM     17  C   UNL A   1      34.109  16.831  22.512  1.00  0.00     0.010 C 
ATOM     18  C   UNL A   1      34.026  20.388  24.677  1.00  0.00     0.320 C 
ATOM     19  O   UNL A   1      35.154  20.869  24.589  1.00  0.00    -0.248 OA
ATOM     20  N   UNL A   1      32.891  21.169  24.610  1.00  0.00    -0.313 N 
ATOM     21  C   UNL A   1      32.853  22.142  23.535  1.00  0.00     0.183 C 
ATOM     22  C   UNL A   1      32.269  21.598  25.858  1.00  0.00     0.183 C 
ATOM     23  C   UNL A   1      31.434  22.686  23.344  1.00  0.00     0.284 C 
ATOM     24  C   UNL A   1      30.898  22.280  25.645  1.00  0.00     0.284 C 
ATOM     25  H   UNL A   1      29.857  23.443  24.312  1.00  0.00     0.348 HD
ENDBRANCH   8  10
ENDBRANCH   5   8
ENDBRANCH   3   4
ENDBRANCH   2   3
ENDBRANCH   1   2
BRANCH   1  26
ATOM     26  N   UNL A   1      37.010  22.676  26.171  1.00  0.00    -0.352 N 
ATOM     27  C   UNL A   1      38.381  22.757  26.252  1.00  0.00     0.251 C 
ATOM     28  H   UNL A   1      36.657  21.772  26.000  1.00  0.00     0.163 HD
ATOM     29  O   UNL A   1      39.054  21.791  25.902  1.00  0.00    -0.269 OA
BRANCH  27  30
ATOM     30  C   UNL A   1      39.054  23.990  26.735  1.00  0.00     0.039 A 
ATOM     31  C   UNL A   1      39.737  24.791  25.813  1.00  0.00     0.014 A 
ATOM     32  C   UNL A   1      39.065  24.341  28.087  1.00  0.00     0.014 A 
ATOM     33  C   UNL A   1      40.386  25.955  26.239  1.00  0.00     0.010 A 
ATOM     34  C   UNL A   1      39.623  25.552  28.494  1.00  0.00     0.010 A 
ATOM     35  C   UNL A   1      40.312  26.362  27.581  1.00  0.00    -0.014 A 
BRANCH  35  36
ATOM     36  C   UNL A   1      40.989  27.598  28.059  1.00  0.00     0.031 A 
ATOM     37  C   UNL A   1      42.491  27.713  27.974  1.00  0.00     0.074 A 
ATOM     38  C   UNL A   1      40.268  28.590  28.617  1.00  0.00     0.049 A 
ATOM     39  N   UNL A   1      43.274  28.669  28.404  1.00  0.00    -0.248 NA
ATOM     40  C   UNL A   1      43.211  26.589  27.352  1.00  0.00     0.031 C 
ATOM     41  C   UNL A   1      38.815  28.580  28.804  1.00  0.00     0.029 A 
ATOM     42  N   UNL A   1      40.659  29.799  29.138  1.00  0.00    -0.354 N 
ATOM     43  C   UNL A   1      44.572  28.251  28.128  1.00  0.00     0.074 A 
ATOM     44  C   UNL A   1      44.475  26.932  27.547  1.00  0.00     0.031 C 
ATOM     45  C   UNL A   1      38.436  29.736  29.374  1.00  0.00     0.029 A 
ATOM     46  C   UNL A   1      39.618  30.554  29.627  1.00  0.00     0.049 A 
ATOM     47  H   UNL A   1      41.596  30.097  29.161  1.00  0.00     0.167 HD
ATOM     48  C   UNL A   1      45.737  28.917  28.316  1.00  0.00     0.037 A 
ATOM     49  C   UNL A   1      39.616  31.767  30.214  1.00  0.00     0.037 A 
ATOM     50  C   UNL A   1      45.824  30.249  28.853  1.00  0.00     0.049 A 
ATOM     51  C   UNL A   1      40.919  32.498  30.391  1.00  0.00     0.074 A 
ATOM     52  C   UNL A   1      46.949  31.038  29.022  1.00  0.00     0.029 A 
ATOM     53  N   UNL A   1      44.742  30.993  29.304  1.00  0.00    -0.354 N 
ATOM     54  N   UNL A   1      42.131  32.110  30.069  1.00  0.00    -0.248 NA
ATOM     55  C   UNL A   1      40.856  33.833  31.001  1.00  0.00     0.031 C 
ATOM     56  C   UNL A   1      46.552  32.244  29.609  1.00  0.00     0.029 A 
ATOM     57  C   UNL A   1      45.175  32.225  29.763  1.00  0.00     0.049 A 
ATOM     58  H   UNL A   1      43.806  30.688  29.297  1.00  0.00     0.167 HD
ATOM     59  C   UNL A   1      42.971  33.164  30.415  1.00  0.00     0.074 A 
ATOM     60  C   UNL A   1      42.128  34.209  30.958  1.00  0.00     0.031 C 
ATOM     61  C   UNL A   1      44.318  33.257  30.292  1.00  0.00     0.037 A 
BRANCH  48  62
ATOM     62  C   UNL A   1      47.012  28.217  27.925  1.00  0.00     0.058 A 
ATOM     63  C   UNL A   1      47.747  27.454  28.847  1.00  0.00     0.135 A 
ATOM     64  C   UNL A   1      47.492  28.288  26.608  1.00  0.00     0.135 A 
ATOM     65  F   UNL A   1      47.343  27.365  30.125  1.00  0.00    -0.206 F 
ATOM     66  C   UNL A   1      48.928  26.814  28.486  1.00  0.00     0.059 A 
ATOM     67  C   UNL A   1      48.655  27.632  26.216  1.00  0.00     0.059 A 
ATOM     68  F   UNL A   1      46.830  29.002  25.684  1.00  0.00    -0.206 F 
ATOM     69  C   UNL A   1      49.376  26.910  27.168  1.00  0.00     0.060 A 
BRANCH  69  70
ATOM     70  S   UNL A   1      50.910  26.073  26.715  1.00  0.00     0.124 S 
ATOM     71  O   UNL A   1      51.901  26.882  27.421  1.00  0.00    -0.237 OA
ATOM     72  O   UNL A   1      50.700  24.728  27.241  1.00  0.00    -0.237 OA
ATOM     73  O   UNL A   1      50.937  26.177  25.260  1.00  0.00    -0.744 OA
ENDBRANCH  69  70
ENDBRANCH  48  62
BRANCH  49  74
ATOM     74  C   UNL A   1      38.331  32.378  30.652  1.00  0.00     0.058 A 
ATOM     75  C   UNL A   1      37.561  33.149  29.769  1.00  0.00     0.135 A 
ATOM     76  C   UNL A   1      37.839  32.189  31.953  1.00  0.00     0.135 A 
ATOM     77  F   UNL A   1      37.992  33.364  28.516  1.00  0.00    -0.206 F 
ATOM     78  C   UNL A   1      36.357  33.724  30.162  1.00  0.00     0.059 A 
ATOM     79  C   UNL A   1      36.625  32.733  32.362  1.00  0.00     0.059 A 
ATOM     80  F   UNL A   1      38.528  31.445  32.831  1.00  0.00    -0.206 F 
ATOM     81  C   UNL A   1      35.896  33.508  31.461  1.00  0.00     0.060 A 
BRANCH  81  82
ATOM     82  S   UNL A   1      34.305  34.213  31.946  1.00  0.00     0.124 S 
ATOM     83  O   UNL A   1      34.721  35.424  32.644  1.00  0.00    -0.237 OA
ATOM     84  O   UNL A   1      33.650  34.411  30.657  1.00  0.00    -0.237 OA
ATOM     85  O   UNL A   1      33.718  33.171  32.784  1.00  0.00    -0.744 OA
ENDBRANCH  81  82
ENDBRANCH  49  74
BRANCH  61  86
ATOM     86  C   UNL A   1      44.964  34.545  30.721  1.00  0.00     0.058 A 
ATOM     87  C   UNL A   1      45.449  34.728  32.025  1.00  0.00     0.135 A 
ATOM     88  C   UNL A   1      45.151  35.586  29.797  1.00  0.00     0.135 A 
ATOM     89  F   UNL A   1      45.290  33.765  32.947  1.00  0.00    -0.206 F 
ATOM     90  C   UNL A   1      46.078  35.909  32.405  1.00  0.00     0.059 A 
ATOM     91  C   UNL A   1      45.801  36.765  30.149  1.00  0.00     0.059 A 
ATOM     92  F   UNL A   1      44.715  35.456  28.534  1.00  0.00    -0.206 F 
ATOM     93  C   UNL A   1      46.251  36.922  31.459  1.00  0.00     0.060 A 
BRANCH  93  94
ATOM     94  S   UNL A   1      47.101  38.435  31.955  1.00  0.00     0.124 S 
ATOM     95  O   UNL A   1      48.312  37.902  32.570  1.00  0.00    -0.237 OA
ATOM     96  O   UNL A   1      47.286  39.122  30.680  1.00  0.00    -0.237 OA
ATOM     97  O   UNL A   1      46.158  39.069  32.871  1.00  0.00    -0.744 OA
ENDBRANCH  93  94
ENDBRANCH  61  86
ENDBRANCH  35  36
ENDBRANCH  27  30
ENDBRANCH   1  26
TORSDOF 14
ENDMDL
