MODEL 1
REMARK VINA RESULT:     -12.1      0.000      0.000
REMARK SMILES O=C(NCCCNC(=O)c1ccc(S(=O)(=O)Cc2cccs2)c(F)c1)c1ccc(-c2c3nc(c(-c4c(F)cc(S(=O)(=O)[O-])cc4F)c4ccc([nH]4)c(-c4c(F)cc(S(=O)(=O)[O-])cc4F)c4nc(c(-c5c(F)cc(S(=O)(=O)[O-])cc5F)c5ccc2[nH]5)C=C4)C=C3)cc1
REMARK SMILES IDX 5 1 4 2 3 3 1 4 2 5 26 7 27 8 91 9 28 10 90 11 29 12 30 13
REMARK SMILES IDX 31 14 84 15 32 16 89 17 83 18 85 19 33 20 88 21 82 22 81 23
REMARK SMILES IDX 34 25 68 26 47 27 67 28 48 29 51 30 66 31 86 32 49 33 50 34
REMARK SMILES IDX 65 36 87 37 52 38 35 39 36 40 45 41 37 42 38 43 44 44 46 45
REMARK SMILES IDX 39 46 40 47 41 48 42 49 43 50 69 51 70 52 79 53 71 54 72 55
REMARK SMILES IDX 78 56 80 57 73 58 74 59 75 60 76 61 77 62 53 63 54 64 63 65
REMARK SMILES IDX 55 66 56 67 62 68 64 69 57 70 58 71 59 72 60 73 61 74 6 75
REMARK SMILES IDX 7 76 8 77 9 79 10 80 11 81 25 82 12 83 23 84 13 85 24 86
REMARK SMILES IDX 14 87 15 88 16 89 17 90 18 91 19 92 22 93 20 94 21 95
REMARK H PARENT 3 6 85 24 51 35 7 78
REMARK Flexibility Score: inf
ROOT
ATOM      1  C   UNL A   1      34.754  29.536  27.475  1.00  0.00     0.042 C 
ENDROOT
BRANCH   1   2
ATOM      2  C   UNL A   1      35.382  30.778  28.098  1.00  0.00     0.118 C 
BRANCH   2   3
ATOM      3  N   UNL A   1      35.404  30.719  29.555  1.00  0.00    -0.352 N 
ATOM      4  O   UNL A   1      36.060  30.074  31.600  1.00  0.00    -0.269 OA
ATOM      5  C   UNL A   1      36.351  30.223  30.416  1.00  0.00     0.251 C 
ATOM      6  H   UNL A   1      34.609  31.099  29.992  1.00  0.00     0.163 HD
BRANCH   5   7
ATOM      7  C   UNL A   1      37.702  29.862  29.934  1.00  0.00     0.039 A 
ATOM      8  C   UNL A   1      38.071  30.069  28.604  1.00  0.00     0.014 A 
ATOM      9  C   UNL A   1      38.642  29.364  30.846  1.00  0.00     0.014 A 
ATOM     10  C   UNL A   1      39.319  29.650  28.156  1.00  0.00     0.010 A 
ATOM     11  C   UNL A   1      39.928  29.027  30.411  1.00  0.00     0.010 A 
ATOM     12  C   UNL A   1      40.270  29.145  29.057  1.00  0.00    -0.014 A 
BRANCH  12  13
ATOM     13  C   UNL A   1      41.630  28.810  28.561  1.00  0.00     0.031 A 
ATOM     14  C   UNL A   1      42.736  29.829  28.575  1.00  0.00     0.074 A 
ATOM     15  C   UNL A   1      41.872  27.551  28.146  1.00  0.00     0.049 A 
ATOM     16  N   UNL A   1      43.984  29.690  28.209  1.00  0.00    -0.248 NA
ATOM     17  C   UNL A   1      42.402  31.179  29.059  1.00  0.00     0.031 C 
ATOM     18  C   UNL A   1      40.876  26.477  28.092  1.00  0.00     0.029 A 
ATOM     19  N   UNL A   1      43.030  26.947  27.727  1.00  0.00    -0.354 N 
ATOM     20  C   UNL A   1      44.584  30.926  28.412  1.00  0.00     0.074 A 
ATOM     21  C   UNL A   1      43.556  31.817  28.906  1.00  0.00     0.031 C 
ATOM     22  C   UNL A   1      41.477  25.334  27.731  1.00  0.00     0.029 A 
ATOM     23  C   UNL A   1      42.885  25.604  27.463  1.00  0.00     0.049 A 
ATOM     24  H   UNL A   1      43.883  27.428  27.622  1.00  0.00     0.167 HD
ATOM     25  C   UNL A   1      45.877  31.280  28.217  1.00  0.00     0.037 A 
ATOM     26  C   UNL A   1      43.782  24.691  27.046  1.00  0.00     0.037 A 
ATOM     27  C   UNL A   1      46.898  30.382  27.737  1.00  0.00     0.049 A 
ATOM     28  C   UNL A   1      45.198  25.122  26.796  1.00  0.00     0.074 A 
ATOM     29  C   UNL A   1      48.236  30.649  27.504  1.00  0.00     0.029 A 
ATOM     30  N   UNL A   1      46.698  29.046  27.423  1.00  0.00    -0.354 N 
ATOM     31  N   UNL A   1      45.742  26.301  26.981  1.00  0.00    -0.248 NA
ATOM     32  C   UNL A   1      46.118  24.107  26.269  1.00  0.00     0.031 C 
ATOM     33  C   UNL A   1      48.838  29.483  27.019  1.00  0.00     0.029 A 
ATOM     34  C   UNL A   1      47.884  28.479  26.988  1.00  0.00     0.049 A 
ATOM     35  H   UNL A   1      45.840  28.571  27.499  1.00  0.00     0.167 HD
ATOM     36  C   UNL A   1      47.071  26.167  26.602  1.00  0.00     0.074 A 
ATOM     37  C   UNL A   1      47.254  24.790  26.194  1.00  0.00     0.031 C 
ATOM     38  C   UNL A   1      48.049  27.104  26.587  1.00  0.00     0.037 A 
BRANCH  25  39
ATOM     39  C   UNL A   1      46.279  32.696  28.524  1.00  0.00     0.058 A 
ATOM     40  C   UNL A   1      46.187  33.695  27.542  1.00  0.00     0.135 A 
ATOM     41  C   UNL A   1      46.839  33.044  29.763  1.00  0.00     0.135 A 
ATOM     42  F   UNL A   1      45.654  33.417  26.342  1.00  0.00    -0.206 F 
ATOM     43  C   UNL A   1      46.656  34.985  27.770  1.00  0.00     0.059 A 
ATOM     44  C   UNL A   1      47.296  34.334  30.020  1.00  0.00     0.059 A 
ATOM     45  F   UNL A   1      46.929  32.131  30.744  1.00  0.00    -0.206 F 
ATOM     46  C   UNL A   1      47.215  35.293  29.012  1.00  0.00     0.060 A 
BRANCH  46  47
ATOM     47  S   UNL A   1      47.811  36.974  29.296  1.00  0.00     0.124 S 
ATOM     48  O   UNL A   1      48.922  36.749  30.212  1.00  0.00    -0.237 OA
ATOM     49  O   UNL A   1      48.173  37.402  27.948  1.00  0.00    -0.237 OA
ATOM     50  O   UNL A   1      46.649  37.651  29.867  1.00  0.00    -0.744 OA
ENDBRANCH  46  47
ENDBRANCH  25  39
BRANCH  26  51
ATOM     51  C   UNL A   1      43.361  23.280  26.844  1.00  0.00     0.058 A 
ATOM     52  C   UNL A   1      43.135  22.425  27.934  1.00  0.00     0.135 A 
ATOM     53  C   UNL A   1      43.214  22.749  25.555  1.00  0.00     0.135 A 
ATOM     54  F   UNL A   1      43.272  22.883  29.188  1.00  0.00    -0.206 F 
ATOM     55  C   UNL A   1      42.802  21.089  27.754  1.00  0.00     0.059 A 
ATOM     56  C   UNL A   1      42.855  21.420  25.348  1.00  0.00     0.059 A 
ATOM     57  F   UNL A   1      43.410  23.532  24.482  1.00  0.00    -0.206 F 
ATOM     58  C   UNL A   1      42.669  20.594  26.456  1.00  0.00     0.060 A 
BRANCH  58  59
ATOM     59  S   UNL A   1      42.236  18.855  26.241  1.00  0.00     0.124 S 
ATOM     60  O   UNL A   1      43.183  18.445  25.209  1.00  0.00    -0.237 OA
ATOM     61  O   UNL A   1      42.473  18.312  27.574  1.00  0.00    -0.237 OA
ATOM     62  O   UNL A   1      40.837  18.905  25.827  1.00  0.00    -0.744 OA
ENDBRANCH  58  59
ENDBRANCH  26  51
BRANCH  38  63
ATOM     63  C   UNL A   1      49.411  26.672  26.127  1.00  0.00     0.058 A 
ATOM     64  C   UNL A   1      50.310  26.076  27.025  1.00  0.00     0.135 A 
ATOM     65  C   UNL A   1      49.848  26.904  24.814  1.00  0.00     0.135 A 
ATOM     66  F   UNL A   1      49.940  25.835  28.293  1.00  0.00    -0.206 F 
ATOM     67  C   UNL A   1      51.603  25.739  26.640  1.00  0.00     0.059 A 
ATOM     68  C   UNL A   1      51.129  26.554  24.401  1.00  0.00     0.059 A 
ATOM     69  F   UNL A   1      49.019  27.459  23.916  1.00  0.00    -0.206 F 
ATOM     70  C   UNL A   1      52.004  25.986  25.327  1.00  0.00     0.060 A 
BRANCH  70  71
ATOM     71  S   UNL A   1      53.681  25.528  24.838  1.00  0.00     0.124 S 
ATOM     72  O   UNL A   1      53.624  25.695  23.389  1.00  0.00    -0.237 OA
ATOM     73  O   UNL A   1      54.492  26.505  25.559  1.00  0.00    -0.237 OA
ATOM     74  O   UNL A   1      53.807  24.152  25.308  1.00  0.00    -0.744 OA
ENDBRANCH  70  71
ENDBRANCH  38  63
ENDBRANCH  12  13
ENDBRANCH   5   7
ENDBRANCH   2   3
ENDBRANCH   1   2
BRANCH   1  75
ATOM     75  C   UNL A   1      33.343  29.762  26.945  1.00  0.00     0.118 C 
BRANCH  75  76
ATOM     76  N   UNL A   1      33.309  29.815  25.490  1.00  0.00    -0.352 N 
ATOM     77  C   UNL A   1      33.082  28.794  24.606  1.00  0.00     0.251 C 
ATOM     78  H   UNL A   1      33.472  30.699  25.091  1.00  0.00     0.163 HD
ATOM     79  O   UNL A   1      33.246  28.936  23.403  1.00  0.00    -0.269 OA
BRANCH  77  80
ATOM     80  C   UNL A   1      32.632  27.495  25.127  1.00  0.00     0.042 A 
ATOM     81  C   UNL A   1      33.575  26.571  25.592  1.00  0.00     0.015 A 
ATOM     82  C   UNL A   1      31.267  27.217  25.168  1.00  0.00     0.054 A 
ATOM     83  C   UNL A   1      33.142  25.343  26.092  1.00  0.00     0.024 A 
ATOM     84  C   UNL A   1      30.848  25.981  25.650  1.00  0.00     0.142 A 
ATOM     85  C   UNL A   1      31.771  25.056  26.124  1.00  0.00     0.103 A 
ATOM     86  F   UNL A   1      29.536  25.718  25.654  1.00  0.00    -0.206 F 
BRANCH  85  87
ATOM     87  S   UNL A   1      31.234  23.490  26.741  1.00  0.00     0.186 S 
ATOM     88  O   UNL A   1      32.280  23.058  27.651  1.00  0.00    -0.223 OA
ATOM     89  O   UNL A   1      29.886  23.688  27.252  1.00  0.00    -0.223 OA
BRANCH  87  90
ATOM     90  C   UNL A   1      31.157  22.327  25.390  1.00  0.00     0.188 C 
BRANCH  90  91
ATOM     91  C   UNL A   1      32.503  21.764  25.049  1.00  0.00     0.020 A 
ATOM     92  C   UNL A   1      33.562  22.370  24.396  1.00  0.00     0.016 A 
ATOM     93  S   UNL A   1      32.927  20.187  25.579  1.00  0.00    -0.148 S 
ATOM     94  C   UNL A   1      34.702  21.522  24.300  1.00  0.00     0.012 A 
ATOM     95  C   UNL A   1      34.496  20.310  24.915  1.00  0.00     0.065 A 
ENDBRANCH  90  91
ENDBRANCH  87  90
ENDBRANCH  85  87
ENDBRANCH  77  80
ENDBRANCH  75  76
ENDBRANCH   1  75
TORSDOF 16
ENDMDL
MODEL 2
REMARK VINA RESULT:     -12.0      6.625     12.176
REMARK SMILES O=C(NCCCNC(=O)c1ccc(S(=O)(=O)Cc2cccs2)c(F)c1)c1ccc(-c2c3nc(c(-c4c(F)cc(S(=O)(=O)[O-])cc4F)c4ccc([nH]4)c(-c4c(F)cc(S(=O)(=O)[O-])cc4F)c4nc(c(-c5c(F)cc(S(=O)(=O)[O-])cc5F)c5ccc2[nH]5)C=C4)C=C3)cc1
REMARK SMILES IDX 5 1 4 2 3 3 1 4 2 5 26 7 27 8 91 9 28 10 90 11 29 12 30 13
REMARK SMILES IDX 31 14 84 15 32 16 89 17 83 18 85 19 33 20 88 21 82 22 81 23
REMARK SMILES IDX 34 25 68 26 47 27 67 28 48 29 51 30 66 31 86 32 49 33 50 34
REMARK SMILES IDX 65 36 87 37 52 38 35 39 36 40 45 41 37 42 38 43 44 44 46 45
REMARK SMILES IDX 39 46 40 47 41 48 42 49 43 50 69 51 70 52 79 53 71 54 72 55
REMARK SMILES IDX 78 56 80 57 73 58 74 59 75 60 76 61 77 62 53 63 54 64 63 65
REMARK SMILES IDX 55 66 56 67 62 68 64 69 57 70 58 71 59 72 60 73 61 74 6 75
REMARK SMILES IDX 7 76 8 77 9 79 10 80 11 81 25 82 12 83 23 84 13 85 24 86
REMARK SMILES IDX 14 87 15 88 16 89 17 90 18 91 19 92 22 93 20 94 21 95
REMARK H PARENT 3 6 85 24 51 35 7 78
REMARK Flexibility Score: inf
ROOT
ATOM      1  C   UNL A   1      38.855  22.262  26.218  1.00  0.00     0.042 C 
ENDROOT
BRANCH   1   2
ATOM      2  C   UNL A   1      39.541  23.450  26.884  1.00  0.00     0.118 C 
BRANCH   2   3
ATOM      3  N   UNL A   1      40.564  24.049  26.036  1.00  0.00    -0.352 N 
ATOM      4  O   UNL A   1      41.828  25.662  25.125  1.00  0.00    -0.269 OA
ATOM      5  C   UNL A   1      41.149  25.290  26.078  1.00  0.00     0.251 C 
ATOM      6  H   UNL A   1      40.890  23.465  25.314  1.00  0.00     0.163 HD
BRANCH   5   7
ATOM      7  C   UNL A   1      40.963  26.178  27.247  1.00  0.00     0.039 A 
ATOM      8  C   UNL A   1      40.095  25.831  28.284  1.00  0.00     0.014 A 
ATOM      9  C   UNL A   1      41.718  27.354  27.338  1.00  0.00     0.014 A 
ATOM     10  C   UNL A   1      39.877  26.717  29.333  1.00  0.00     0.010 A 
ATOM     11  C   UNL A   1      41.564  28.201  28.440  1.00  0.00     0.010 A 
ATOM     12  C   UNL A   1      40.623  27.902  29.436  1.00  0.00    -0.014 A 
BRANCH  12  13
ATOM     13  C   UNL A   1      40.442  28.770  30.628  1.00  0.00     0.031 A 
ATOM     14  C   UNL A   1      41.363  28.668  31.813  1.00  0.00     0.074 A 
ATOM     15  C   UNL A   1      39.464  29.697  30.606  1.00  0.00     0.049 A 
ATOM     16  N   UNL A   1      41.361  29.372  32.915  1.00  0.00    -0.248 NA
ATOM     17  C   UNL A   1      42.420  27.645  31.758  1.00  0.00     0.031 C 
ATOM     18  C   UNL A   1      38.512  29.890  29.508  1.00  0.00     0.029 A 
ATOM     19  N   UNL A   1      39.125  30.672  31.509  1.00  0.00    -0.354 N 
ATOM     20  C   UNL A   1      42.407  28.880  33.686  1.00  0.00     0.074 A 
ATOM     21  C   UNL A   1      43.006  27.794  32.939  1.00  0.00     0.031 C 
ATOM     22  C   UNL A   1      37.744  30.958  29.770  1.00  0.00     0.029 A 
ATOM     23  C   UNL A   1      38.102  31.486  31.081  1.00  0.00     0.049 A 
ATOM     24  H   UNL A   1      39.570  30.779  32.381  1.00  0.00     0.167 HD
ATOM     25  C   UNL A   1      42.835  29.306  34.899  1.00  0.00     0.037 A 
ATOM     26  C   UNL A   1      37.511  32.538  31.678  1.00  0.00     0.037 A 
ATOM     27  C   UNL A   1      42.241  30.397  35.629  1.00  0.00     0.049 A 
ATOM     28  C   UNL A   1      37.978  32.960  33.041  1.00  0.00     0.074 A 
ATOM     29  C   UNL A   1      42.603  30.899  36.868  1.00  0.00     0.029 A 
ATOM     30  N   UNL A   1      41.167  31.157  35.190  1.00  0.00    -0.354 N 
ATOM     31  N   UNL A   1      38.960  32.471  33.759  1.00  0.00    -0.248 NA
ATOM     32  C   UNL A   1      37.250  34.063  33.681  1.00  0.00     0.031 C 
ATOM     33  C   UNL A   1      41.728  31.943  37.191  1.00  0.00     0.029 A 
ATOM     34  C   UNL A   1      40.847  32.116  36.136  1.00  0.00     0.049 A 
ATOM     35  H   UNL A   1      40.703  31.034  34.331  1.00  0.00     0.167 HD
ATOM     36  C   UNL A   1      38.975  33.214  34.933  1.00  0.00     0.074 A 
ATOM     37  C   UNL A   1      37.916  34.195  34.821  1.00  0.00     0.031 C 
ATOM     38  C   UNL A   1      39.790  33.088  36.008  1.00  0.00     0.037 A 
BRANCH  25  39
ATOM     39  C   UNL A   1      44.008  28.601  35.523  1.00  0.00     0.058 A 
ATOM     40  C   UNL A   1      45.312  29.090  35.350  1.00  0.00     0.135 A 
ATOM     41  C   UNL A   1      43.848  27.392  36.218  1.00  0.00     0.135 A 
ATOM     42  F   UNL A   1      45.520  30.245  34.699  1.00  0.00    -0.206 F 
ATOM     43  C   UNL A   1      46.420  28.395  35.825  1.00  0.00     0.059 A 
ATOM     44  C   UNL A   1      44.941  26.689  36.720  1.00  0.00     0.059 A 
ATOM     45  F   UNL A   1      42.620  26.892  36.430  1.00  0.00    -0.206 F 
ATOM     46  C   UNL A   1      46.223  27.191  36.504  1.00  0.00     0.060 A 
BRANCH  46  47
ATOM     47  S   UNL A   1      47.670  26.304  37.122  1.00  0.00     0.124 S 
ATOM     48  O   UNL A   1      47.380  26.211  38.548  1.00  0.00    -0.237 OA
ATOM     49  O   UNL A   1      47.603  25.051  36.375  1.00  0.00    -0.237 OA
ATOM     50  O   UNL A   1      48.782  27.180  36.760  1.00  0.00    -0.744 OA
ENDBRANCH  46  47
ENDBRANCH  25  39
BRANCH  26  51
ATOM     51  C   UNL A   1      36.416  33.264  30.982  1.00  0.00     0.058 A 
ATOM     52  C   UNL A   1      36.681  34.111  29.895  1.00  0.00     0.135 A 
ATOM     53  C   UNL A   1      35.087  33.151  31.417  1.00  0.00     0.135 A 
ATOM     54  F   UNL A   1      37.937  34.260  29.448  1.00  0.00    -0.206 F 
ATOM     55  C   UNL A   1      35.671  34.841  29.280  1.00  0.00     0.059 A 
ATOM     56  C   UNL A   1      34.055  33.851  30.799  1.00  0.00     0.059 A 
ATOM     57  F   UNL A   1      34.785  32.345  32.446  1.00  0.00    -0.206 F 
ATOM     58  C   UNL A   1      34.362  34.708  29.741  1.00  0.00     0.060 A 
BRANCH  58  59
ATOM     59  S   UNL A   1      33.064  35.664  28.929  1.00  0.00     0.124 S 
ATOM     60  O   UNL A   1      32.434  34.646  28.093  1.00  0.00    -0.237 OA
ATOM     61  O   UNL A   1      32.274  36.134  30.062  1.00  0.00    -0.237 OA
ATOM     62  O   UNL A   1      33.805  36.697  28.213  1.00  0.00    -0.744 OA
ENDBRANCH  58  59
ENDBRANCH  26  51
BRANCH  38  63
ATOM     63  C   UNL A   1      39.580  34.041  37.148  1.00  0.00     0.058 A 
ATOM     64  C   UNL A   1      40.129  35.332  37.107  1.00  0.00     0.135 A 
ATOM     65  C   UNL A   1      38.887  33.656  38.306  1.00  0.00     0.135 A 
ATOM     66  F   UNL A   1      40.801  35.747  36.022  1.00  0.00    -0.206 F 
ATOM     67  C   UNL A   1      40.011  36.204  38.183  1.00  0.00     0.059 A 
ATOM     68  C   UNL A   1      38.738  34.520  39.386  1.00  0.00     0.059 A 
ATOM     69  F   UNL A   1      38.332  32.436  38.385  1.00  0.00    -0.206 F 
ATOM     70  C   UNL A   1      39.318  35.788  39.320  1.00  0.00     0.060 A 
BRANCH  70  71
ATOM     71  S   UNL A   1      39.161  36.937  40.703  1.00  0.00     0.124 S 
ATOM     72  O   UNL A   1      40.554  37.285  40.961  1.00  0.00    -0.237 OA
ATOM     73  O   UNL A   1      38.336  37.998  40.133  1.00  0.00    -0.237 OA
ATOM     74  O   UNL A   1      38.511  36.136  41.737  1.00  0.00    -0.744 OA
ENDBRANCH  70  71
ENDBRANCH  38  63
ENDBRANCH  12  13
ENDBRANCH   5   7
ENDBRANCH   2   3
ENDBRANCH   1   2
BRANCH   1  75
ATOM     75  C   UNL A   1      37.504  22.601  25.600  1.00  0.00     0.118 C 
BRANCH  75  76
ATOM     76  N   UNL A   1      36.420  21.850  26.214  1.00  0.00    -0.352 N 
ATOM     77  C   UNL A   1      35.070  22.021  26.058  1.00  0.00     0.251 C 
ATOM     78  H   UNL A   1      36.692  21.125  26.821  1.00  0.00     0.163 HD
ATOM     79  O   UNL A   1      34.260  21.431  26.760  1.00  0.00    -0.269 OA
BRANCH  77  80
ATOM     80  C   UNL A   1      34.590  22.941  25.017  1.00  0.00     0.042 A 
ATOM     81  C   UNL A   1      34.745  24.322  25.188  1.00  0.00     0.015 A 
ATOM     82  C   UNL A   1      34.006  22.418  23.865  1.00  0.00     0.054 A 
ATOM     83  C   UNL A   1      34.295  25.191  24.196  1.00  0.00     0.024 A 
ATOM     84  C   UNL A   1      33.543  23.295  22.889  1.00  0.00     0.142 A 
ATOM     85  C   UNL A   1      33.698  24.668  23.041  1.00  0.00     0.103 A 
ATOM     86  F   UNL A   1      32.959  22.777  21.803  1.00  0.00    -0.206 F 
BRANCH  85  87
ATOM     87  S   UNL A   1      33.113  25.779  21.796  1.00  0.00     0.186 S 
ATOM     88  O   UNL A   1      33.845  27.014  22.011  1.00  0.00    -0.223 OA
ATOM     89  O   UNL A   1      33.251  25.083  20.525  1.00  0.00    -0.223 OA
BRANCH  87  90
ATOM     90  C   UNL A   1      31.381  26.103  22.073  1.00  0.00     0.188 C 
BRANCH  90  91
ATOM     91  C   UNL A   1      31.020  26.056  23.527  1.00  0.00     0.020 A 
ATOM     92  C   UNL A   1      30.524  24.999  24.268  1.00  0.00     0.016 A 
ATOM     93  S   UNL A   1      31.315  27.423  24.523  1.00  0.00    -0.148 S 
ATOM     94  C   UNL A   1      30.350  25.329  25.643  1.00  0.00     0.012 A 
ATOM     95  C   UNL A   1      30.755  26.613  25.919  1.00  0.00     0.065 A 
ENDBRANCH  90  91
ENDBRANCH  87  90
ENDBRANCH  85  87
ENDBRANCH  77  80
ENDBRANCH  75  76
ENDBRANCH   1  75
TORSDOF 16
ENDMDL
MODEL 3
REMARK VINA RESULT:     -12.0      4.168     10.515
REMARK SMILES O=C(NCCCNC(=O)c1ccc(S(=O)(=O)Cc2cccs2)c(F)c1)c1ccc(-c2c3nc(c(-c4c(F)cc(S(=O)(=O)[O-])cc4F)c4ccc([nH]4)c(-c4c(F)cc(S(=O)(=O)[O-])cc4F)c4nc(c(-c5c(F)cc(S(=O)(=O)[O-])cc5F)c5ccc2[nH]5)C=C4)C=C3)cc1
REMARK SMILES IDX 5 1 4 2 3 3 1 4 2 5 26 7 27 8 91 9 28 10 90 11 29 12 30 13
REMARK SMILES IDX 31 14 84 15 32 16 89 17 83 18 85 19 33 20 88 21 82 22 81 23
REMARK SMILES IDX 34 25 68 26 47 27 67 28 48 29 51 30 66 31 86 32 49 33 50 34
REMARK SMILES IDX 65 36 87 37 52 38 35 39 36 40 45 41 37 42 38 43 44 44 46 45
REMARK SMILES IDX 39 46 40 47 41 48 42 49 43 50 69 51 70 52 79 53 71 54 72 55
REMARK SMILES IDX 78 56 80 57 73 58 74 59 75 60 76 61 77 62 53 63 54 64 63 65
REMARK SMILES IDX 55 66 56 67 62 68 64 69 57 70 58 71 59 72 60 73 61 74 6 75
REMARK SMILES IDX 7 76 8 77 9 79 10 80 11 81 25 82 12 83 23 84 13 85 24 86
REMARK SMILES IDX 14 87 15 88 16 89 17 90 18 91 19 92 22 93 20 94 21 95
REMARK H PARENT 3 6 85 24 51 35 7 78
REMARK Flexibility Score: inf
ROOT
ATOM      1  C   UNL A   1      34.428  33.268  29.794  1.00  0.00     0.042 C 
ENDROOT
BRANCH   1   2
ATOM      2  C   UNL A   1      34.767  32.655  28.439  1.00  0.00     0.118 C 
BRANCH   2   3
ATOM      3  N   UNL A   1      34.062  31.401  28.204  1.00  0.00    -0.352 N 
ATOM      4  O   UNL A   1      33.768  29.262  27.597  1.00  0.00    -0.269 OA
ATOM      5  C   UNL A   1      34.538  30.130  27.999  1.00  0.00     0.251 C 
ATOM      6  H   UNL A   1      33.081  31.480  28.191  1.00  0.00     0.163 HD
BRANCH   5   7
ATOM      7  C   UNL A   1      35.959  29.802  28.248  1.00  0.00     0.039 A 
ATOM      8  C   UNL A   1      36.932  30.029  27.273  1.00  0.00     0.014 A 
ATOM      9  C   UNL A   1      36.337  29.315  29.505  1.00  0.00     0.014 A 
ATOM     10  C   UNL A   1      38.247  29.639  27.500  1.00  0.00     0.010 A 
ATOM     11  C   UNL A   1      37.677  29.008  29.763  1.00  0.00     0.010 A 
ATOM     12  C   UNL A   1      38.641  29.145  28.754  1.00  0.00    -0.014 A 
BRANCH  12  13
ATOM     13  C   UNL A   1      40.075  28.844  28.994  1.00  0.00     0.031 A 
ATOM     14  C   UNL A   1      40.664  27.511  28.620  1.00  0.00     0.074 A 
ATOM     15  C   UNL A   1      40.860  29.812  29.507  1.00  0.00     0.049 A 
ATOM     16  N   UNL A   1      41.901  27.101  28.733  1.00  0.00    -0.248 NA
ATOM     17  C   UNL A   1      39.751  26.509  28.047  1.00  0.00     0.031 C 
ATOM     18  C   UNL A   1      40.398  31.146  29.904  1.00  0.00     0.029 A 
ATOM     19  N   UNL A   1      42.209  29.846  29.750  1.00  0.00    -0.354 N 
ATOM     20  C   UNL A   1      41.918  25.797  28.252  1.00  0.00     0.074 A 
ATOM     21  C   UNL A   1      40.560  25.470  27.873  1.00  0.00     0.031 C 
ATOM     22  C   UNL A   1      41.452  31.887  30.276  1.00  0.00     0.029 A 
ATOM     23  C   UNL A   1      42.655  31.065  30.208  1.00  0.00     0.049 A 
ATOM     24  H   UNL A   1      42.802  29.072  29.612  1.00  0.00     0.167 HD
ATOM     25  C   UNL A   1      42.973  24.957  28.127  1.00  0.00     0.037 A 
ATOM     26  C   UNL A   1      43.892  31.476  30.543  1.00  0.00     0.037 A 
ATOM     27  C   UNL A   1      44.325  25.296  28.494  1.00  0.00     0.049 A 
ATOM     28  C   UNL A   1      45.036  30.508  30.435  1.00  0.00     0.074 A 
ATOM     29  C   UNL A   1      45.462  24.509  28.408  1.00  0.00     0.029 A 
ATOM     30  N   UNL A   1      44.726  26.519  29.012  1.00  0.00    -0.354 N 
ATOM     31  N   UNL A   1      45.027  29.275  29.991  1.00  0.00    -0.248 NA
ATOM     32  C   UNL A   1      46.351  30.982  30.885  1.00  0.00     0.031 C 
ATOM     33  C   UNL A   1      46.544  25.246  28.902  1.00  0.00     0.029 A 
ATOM     34  C   UNL A   1      46.089  26.505  29.260  1.00  0.00     0.049 A 
ATOM     35  H   UNL A   1      44.130  27.284  29.178  1.00  0.00     0.167 HD
ATOM     36  C   UNL A   1      46.337  28.826  30.099  1.00  0.00     0.074 A 
ATOM     37  C   UNL A   1      47.114  29.925  30.633  1.00  0.00     0.031 C 
ATOM     38  C   UNL A   1      46.847  27.609  29.790  1.00  0.00     0.037 A 
BRANCH  25  39
ATOM     39  C   UNL A   1      42.724  23.585  27.564  1.00  0.00     0.058 A 
ATOM     40  C   UNL A   1      42.455  22.501  28.413  1.00  0.00     0.135 A 
ATOM     41  C   UNL A   1      42.839  23.328  26.189  1.00  0.00     0.135 A 
ATOM     42  F   UNL A   1      42.329  22.693  29.736  1.00  0.00    -0.206 F 
ATOM     43  C   UNL A   1      42.331  21.204  27.923  1.00  0.00     0.059 A 
ATOM     44  C   UNL A   1      42.699  22.042  25.673  1.00  0.00     0.059 A 
ATOM     45  F   UNL A   1      43.073  24.334  25.330  1.00  0.00    -0.206 F 
ATOM     46  C   UNL A   1      42.461  20.985  26.550  1.00  0.00     0.060 A 
BRANCH  46  47
ATOM     47  S   UNL A   1      42.289  19.298  25.927  1.00  0.00     0.124 S 
ATOM     48  O   UNL A   1      40.852  19.206  25.701  1.00  0.00    -0.237 OA
ATOM     49  O   UNL A   1      43.123  19.328  24.729  1.00  0.00    -0.237 OA
ATOM     50  O   UNL A   1      42.809  18.480  27.021  1.00  0.00    -0.744 OA
ENDBRANCH  46  47
ENDBRANCH  25  39
BRANCH  26  51
ATOM     51  C   UNL A   1      44.107  32.871  31.007  1.00  0.00     0.058 A 
ATOM     52  C   UNL A   1      44.123  33.190  32.373  1.00  0.00     0.135 A 
ATOM     53  C   UNL A   1      44.264  33.919  30.088  1.00  0.00     0.135 A 
ATOM     54  F   UNL A   1      43.968  32.224  33.292  1.00  0.00    -0.206 F 
ATOM     55  C   UNL A   1      44.262  34.500  32.813  1.00  0.00     0.059 A 
ATOM     56  C   UNL A   1      44.431  35.237  30.504  1.00  0.00     0.059 A 
ATOM     57  F   UNL A   1      44.266  33.661  28.771  1.00  0.00    -0.206 F 
ATOM     58  C   UNL A   1      44.411  35.518  31.870  1.00  0.00     0.060 A 
BRANCH  58  59
ATOM     59  S   UNL A   1      44.590  37.215  32.460  1.00  0.00     0.124 S 
ATOM     60  O   UNL A   1      45.731  37.090  33.361  1.00  0.00    -0.237 OA
ATOM     61  O   UNL A   1      44.835  37.947  31.222  1.00  0.00    -0.237 OA
ATOM     62  O   UNL A   1      43.307  37.485  33.102  1.00  0.00    -0.744 OA
ENDBRANCH  58  59
ENDBRANCH  26  51
BRANCH  38  63
ATOM     63  C   UNL A   1      48.318  27.403  30.007  1.00  0.00     0.058 A 
ATOM     64  C   UNL A   1      49.235  27.684  28.983  1.00  0.00     0.135 A 
ATOM     65  C   UNL A   1      48.812  26.869  31.208  1.00  0.00     0.135 A 
ATOM     66  F   UNL A   1      48.812  28.195  27.816  1.00  0.00    -0.206 F 
ATOM     67  C   UNL A   1      50.593  27.428  29.137  1.00  0.00     0.059 A 
ATOM     68  C   UNL A   1      50.169  26.626  31.391  1.00  0.00     0.059 A 
ATOM     69  F   UNL A   1      47.974  26.598  32.221  1.00  0.00    -0.206 F 
ATOM     70  C   UNL A   1      51.050  26.895  30.342  1.00  0.00     0.060 A 
BRANCH  70  71
ATOM     71  S   UNL A   1      52.818  26.582  30.532  1.00  0.00     0.124 S 
ATOM     72  O   UNL A   1      52.822  25.433  31.431  1.00  0.00    -0.237 OA
ATOM     73  O   UNL A   1      53.235  26.315  29.158  1.00  0.00    -0.237 OA
ATOM     74  O   UNL A   1      53.324  27.828  31.100  1.00  0.00    -0.744 OA
ENDBRANCH  70  71
ENDBRANCH  38  63
ENDBRANCH  12  13
ENDBRANCH   5   7
ENDBRANCH   2   3
ENDBRANCH   1   2
BRANCH   1  75
ATOM     75  C   UNL A   1      35.245  34.512  30.125  1.00  0.00     0.118 C 
BRANCH  75  76
ATOM     76  N   UNL A   1      36.498  34.553  29.386  1.00  0.00    -0.352 N 
ATOM     77  C   UNL A   1      37.752  34.211  29.817  1.00  0.00     0.251 C 
ATOM     78  H   UNL A   1      36.436  34.869  28.456  1.00  0.00     0.163 HD
ATOM     79  O   UNL A   1      38.750  34.449  29.151  1.00  0.00    -0.269 OA
BRANCH  77  80
ATOM     80  C   UNL A   1      37.894  33.542  31.118  1.00  0.00     0.042 A 
ATOM     81  C   UNL A   1      37.521  32.200  31.252  1.00  0.00     0.015 A 
ATOM     82  C   UNL A   1      38.421  34.255  32.194  1.00  0.00     0.054 A 
ATOM     83  C   UNL A   1      37.663  31.568  32.486  1.00  0.00     0.024 A 
ATOM     84  C   UNL A   1      38.541  33.620  33.426  1.00  0.00     0.142 A 
ATOM     85  C   UNL A   1      38.183  32.285  33.572  1.00  0.00     0.103 A 
ATOM     86  F   UNL A   1      39.021  34.328  34.455  1.00  0.00    -0.206 F 
BRANCH  85  87
ATOM     87  S   UNL A   1      38.342  31.480  35.137  1.00  0.00     0.186 S 
ATOM     88  O   UNL A   1      37.519  32.252  36.051  1.00  0.00    -0.223 OA
ATOM     89  O   UNL A   1      38.031  30.077  34.913  1.00  0.00    -0.223 OA
BRANCH  87  90
ATOM     90  C   UNL A   1      40.037  31.599  35.682  1.00  0.00     0.188 C 
BRANCH  90  91
ATOM     91  C   UNL A   1      40.923  30.599  35.003  1.00  0.00     0.020 A 
ATOM     92  C   UNL A   1      41.195  30.448  33.655  1.00  0.00     0.016 A 
ATOM     93  S   UNL A   1      41.849  29.503  35.945  1.00  0.00    -0.148 S 
ATOM     94  C   UNL A   1      42.132  29.407  33.399  1.00  0.00     0.012 A 
ATOM     95  C   UNL A   1      42.579  28.820  34.560  1.00  0.00     0.065 A 
ENDBRANCH  90  91
ENDBRANCH  87  90
ENDBRANCH  85  87
ENDBRANCH  77  80
ENDBRANCH  75  76
ENDBRANCH   1  75
TORSDOF 16
ENDMDL
