MODEL 1
REMARK VINA RESULT:     -13.1      0.000      0.000
REMARK SMILES Cc1ccc(C(=O)NCCCNC(=O)c2ccc(-c3c4nc(c(-c5c(F)cc(S(=O)(=O)[O-])cc5F)c5ccc([nH]5)c(-c5c(F)cc(S(=O)(=O)[O-])cc5F)c5nc(c(-c6c(F)cc(S(=O)(=O)[O-])cc6F)c6ccc3[nH]6)C=C5)C=C4)cc2)cc1/[NH+]=C1\NCCS1
REMARK SMILES IDX 11 1 10 2 9 3 8 4 6 5 7 6 5 8 1 9 2 10 3 11 82 12 4 13 81 14
REMARK SMILES IDX 83 15 84 16 85 18 88 19 86 20 87 22 12 23 13 24 14 26 15 27
REMARK SMILES IDX 16 28 80 29 17 30 79 31 18 32 19 33 20 34 73 35 21 36 78 37
REMARK SMILES IDX 72 38 74 39 22 40 77 41 71 42 70 43 23 45 57 46 36 47 56 48
REMARK SMILES IDX 37 49 40 50 55 51 75 52 38 53 39 54 54 56 76 57 41 58 24 59
REMARK SMILES IDX 25 60 34 61 26 62 27 63 33 64 35 65 28 66 29 67 30 68 31 69
REMARK SMILES IDX 32 70 58 71 59 72 68 73 60 74 61 75 67 76 69 77 62 78 63 79
REMARK SMILES IDX 64 80 65 81 66 82 42 83 43 84 52 85 44 86 45 87 51 88 53 89
REMARK SMILES IDX 46 90 47 91 48 92 49 93 50 94
REMARK H PARENT 8 7 83 17 85 21 12 25 74 44 40 55
REMARK Flexibility Score: inf
ROOT
ATOM      1  C   UNL A   1      41.034  22.201  26.820  1.00  0.00     0.118 C 
ENDROOT
BRANCH   1   2
ATOM      2  C   UNL A   1      39.638  21.594  26.340  1.00  0.00     0.042 C 
BRANCH   2   3
ATOM      3  C   UNL A   1      38.482  22.649  25.952  1.00  0.00     0.118 C 
BRANCH   3   4
ATOM      4  N   UNL A   1      37.784  22.511  24.649  1.00  0.00    -0.352 N 
ATOM      5  C   UNL A   1      36.657  22.997  24.019  1.00  0.00     0.251 C 
ATOM      6  O   UNL A   1      36.559  23.031  22.792  1.00  0.00    -0.269 OA
ATOM      7  H   UNL A   1      38.269  21.889  24.060  1.00  0.00     0.163 HD
BRANCH   5   8
ATOM      8  C   UNL A   1      35.495  23.446  24.797  1.00  0.00     0.044 A 
ATOM      9  C   UNL A   1      31.809  24.656  26.612  1.00  0.00     0.049 C 
ATOM     10  C   UNL A   1      33.129  24.265  26.020  1.00  0.00    -0.004 A 
ATOM     11  C   UNL A   1      33.745  23.068  26.420  1.00  0.00     0.008 A 
ATOM     12  C   UNL A   1      33.778  25.093  25.090  1.00  0.00     0.129 A 
ATOM     13  C   UNL A   1      34.919  22.645  25.791  1.00  0.00     0.014 A 
ATOM     14  C   UNL A   1      34.998  24.714  24.560  1.00  0.00     0.065 A 
BRANCH  12  15
ATOM     15  N   UNL A   1      33.197  26.242  24.552  1.00  0.00    -0.235 N 
ATOM     16  C   UNL A   1      33.409  27.362  25.132  1.00  0.00     0.309 C 
ATOM     17  H   UNL A   1      32.636  26.191  23.745  1.00  0.00     0.313 HD
ATOM     18  N   UNL A   1      34.084  27.672  26.271  1.00  0.00    -0.268 N 
ATOM     19  S   UNL A   1      32.713  28.805  24.409  1.00  0.00    -0.035 SA
ATOM     20  C   UNL A   1      34.113  29.060  26.654  1.00  0.00     0.246 C 
ATOM     21  H   UNL A   1      34.531  26.981  26.809  1.00  0.00     0.305 HD
ATOM     22  C   UNL A   1      32.929  29.725  25.955  1.00  0.00     0.128 C 
ENDBRANCH  12  15
ENDBRANCH   5   8
ENDBRANCH   3   4
ENDBRANCH   2   3
ENDBRANCH   1   2
BRANCH   1  23
ATOM     23  N   UNL A   1      41.742  23.430  26.197  1.00  0.00    -0.352 N 
ATOM     24  C   UNL A   1      41.864  24.848  26.476  1.00  0.00     0.251 C 
ATOM     25  H   UNL A   1      42.249  23.180  25.390  1.00  0.00     0.163 HD
ATOM     26  O   UNL A   1      43.042  25.240  26.550  1.00  0.00    -0.269 OA
BRANCH  24  27
ATOM     27  C   UNL A   1      40.813  25.989  26.695  1.00  0.00     0.039 A 
ATOM     28  C   UNL A   1      40.982  27.269  26.091  1.00  0.00     0.014 A 
ATOM     29  C   UNL A   1      39.680  25.910  27.491  1.00  0.00     0.014 A 
ATOM     30  C   UNL A   1      40.472  28.453  26.732  1.00  0.00     0.010 A 
ATOM     31  C   UNL A   1      39.137  27.081  28.099  1.00  0.00     0.010 A 
ATOM     32  C   UNL A   1      39.686  28.353  27.886  1.00  0.00    -0.014 A 
BRANCH  32  33
ATOM     33  C   UNL A   1      39.549  29.445  28.922  1.00  0.00     0.031 A 
ATOM     34  C   UNL A   1      38.487  30.450  28.861  1.00  0.00     0.074 A 
ATOM     35  C   UNL A   1      40.288  29.602  30.058  1.00  0.00     0.049 A 
ATOM     36  N   UNL A   1      38.676  31.728  28.946  1.00  0.00    -0.248 NA
ATOM     37  C   UNL A   1      37.094  30.042  28.843  1.00  0.00     0.031 C 
ATOM     38  C   UNL A   1      40.193  30.542  31.189  1.00  0.00     0.029 A 
ATOM     39  N   UNL A   1      41.374  28.858  30.464  1.00  0.00    -0.354 N 
ATOM     40  C   UNL A   1      37.460  32.266  29.314  1.00  0.00     0.074 A 
ATOM     41  C   UNL A   1      36.492  31.210  29.080  1.00  0.00     0.031 C 
ATOM     42  C   UNL A   1      41.360  30.543  31.874  1.00  0.00     0.029 A 
ATOM     43  C   UNL A   1      42.265  29.637  31.199  1.00  0.00     0.049 A 
ATOM     44  H   UNL A   1      41.504  27.903  30.263  1.00  0.00     0.167 HD
ATOM     45  C   UNL A   1      37.377  33.436  30.022  1.00  0.00     0.037 A 
ATOM     46  C   UNL A   1      43.526  29.858  30.711  1.00  0.00     0.037 A 
ATOM     47  C   UNL A   1      38.687  33.845  30.546  1.00  0.00     0.049 A 
ATOM     48  C   UNL A   1      43.702  31.292  30.323  1.00  0.00     0.074 A 
ATOM     49  C   UNL A   1      39.218  33.797  31.829  1.00  0.00     0.029 A 
ATOM     50  N   UNL A   1      39.760  34.104  29.698  1.00  0.00    -0.354 N 
ATOM     51  N   UNL A   1      42.713  32.132  30.317  1.00  0.00    -0.248 NA
ATOM     52  C   UNL A   1      44.951  31.905  29.892  1.00  0.00     0.031 C 
ATOM     53  C   UNL A   1      40.619  33.970  31.741  1.00  0.00     0.029 A 
ATOM     54  C   UNL A   1      40.948  34.143  30.408  1.00  0.00     0.049 A 
ATOM     55  H   UNL A   1      39.684  34.240  28.726  1.00  0.00     0.167 HD
ATOM     56  C   UNL A   1      43.127  33.348  29.877  1.00  0.00     0.074 A 
ATOM     57  C   UNL A   1      44.550  33.167  29.650  1.00  0.00     0.031 C 
ATOM     58  C   UNL A   1      42.230  34.367  29.744  1.00  0.00     0.037 A 
BRANCH  45  59
ATOM     59  C   UNL A   1      36.061  34.007  30.539  1.00  0.00     0.058 A 
ATOM     60  C   UNL A   1      35.107  34.597  29.681  1.00  0.00     0.135 A 
ATOM     61  C   UNL A   1      35.669  33.960  31.894  1.00  0.00     0.135 A 
ATOM     62  F   UNL A   1      35.251  34.587  28.350  1.00  0.00    -0.206 F 
ATOM     63  C   UNL A   1      33.932  35.200  30.142  1.00  0.00     0.059 A 
ATOM     64  C   UNL A   1      34.534  34.612  32.390  1.00  0.00     0.059 A 
ATOM     65  F   UNL A   1      36.341  33.219  32.787  1.00  0.00    -0.206 F 
ATOM     66  C   UNL A   1      33.667  35.231  31.503  1.00  0.00     0.060 A 
BRANCH  66  67
ATOM     67  S   UNL A   1      32.149  36.010  32.082  1.00  0.00     0.124 S 
ATOM     68  O   UNL A   1      31.545  36.481  30.839  1.00  0.00    -0.237 OA
ATOM     69  O   UNL A   1      31.469  34.897  32.737  1.00  0.00    -0.237 OA
ATOM     70  O   UNL A   1      32.624  37.063  32.976  1.00  0.00    -0.744 OA
ENDBRANCH  66  67
ENDBRANCH  45  59
BRANCH  46  71
ATOM     71  C   UNL A   1      44.205  28.676  30.019  1.00  0.00     0.058 A 
ATOM     72  C   UNL A   1      43.641  28.399  28.768  1.00  0.00     0.135 A 
ATOM     73  C   UNL A   1      45.587  28.736  29.964  1.00  0.00     0.135 A 
ATOM     74  F   UNL A   1      42.465  27.767  28.687  1.00  0.00    -0.206 F 
ATOM     75  C   UNL A   1      44.193  28.927  27.604  1.00  0.00     0.059 A 
ATOM     76  C   UNL A   1      46.185  29.170  28.775  1.00  0.00     0.059 A 
ATOM     77  F   UNL A   1      46.327  28.604  31.077  1.00  0.00    -0.206 F 
ATOM     78  C   UNL A   1      45.407  29.572  27.698  1.00  0.00     0.060 A 
BRANCH  78  79
ATOM     79  S   UNL A   1      45.795  31.020  26.472  1.00  0.00     0.124 S 
ATOM     80  O   UNL A   1      46.253  30.277  25.321  1.00  0.00    -0.237 OA
ATOM     81  O   UNL A   1      44.517  31.672  26.210  1.00  0.00    -0.237 OA
ATOM     82  O   UNL A   1      46.816  31.853  27.059  1.00  0.00    -0.744 OA
ENDBRANCH  78  79
ENDBRANCH  46  71
BRANCH  58  83
ATOM     83  C   UNL A   1      42.503  35.698  29.105  1.00  0.00     0.058 A 
ATOM     84  C   UNL A   1      41.918  36.133  27.905  1.00  0.00     0.135 A 
ATOM     85  C   UNL A   1      43.316  36.647  29.771  1.00  0.00     0.135 A 
ATOM     86  F   UNL A   1      41.025  35.382  27.245  1.00  0.00    -0.206 F 
ATOM     87  C   UNL A   1      42.197  37.382  27.353  1.00  0.00     0.059 A 
ATOM     88  C   UNL A   1      43.553  37.920  29.272  1.00  0.00     0.059 A 
ATOM     89  F   UNL A   1      43.909  36.371  30.941  1.00  0.00    -0.206 F 
ATOM     90  C   UNL A   1      43.021  38.266  28.041  1.00  0.00     0.060 A 
BRANCH  90  91
ATOM     91  S   UNL A   1      43.363  39.885  27.338  1.00  0.00     0.124 S 
ATOM     92  O   UNL A   1      42.908  40.766  28.409  1.00  0.00    -0.237 OA
ATOM     93  O   UNL A   1      44.807  39.843  27.126  1.00  0.00    -0.237 OA
ATOM     94  O   UNL A   1      42.559  39.901  26.121  1.00  0.00    -0.744 OA
ENDBRANCH  90  91
ENDBRANCH  58  83
ENDBRANCH  32  33
ENDBRANCH  24  27
ENDBRANCH   1  23
TORSDOF 14
ENDMDL
MODEL 2
REMARK VINA RESULT:     -12.9      1.432      1.981
REMARK SMILES Cc1ccc(C(=O)NCCCNC(=O)c2ccc(-c3c4nc(c(-c5c(F)cc(S(=O)(=O)[O-])cc5F)c5ccc([nH]5)c(-c5c(F)cc(S(=O)(=O)[O-])cc5F)c5nc(c(-c6c(F)cc(S(=O)(=O)[O-])cc6F)c6ccc3[nH]6)C=C5)C=C4)cc2)cc1/[NH+]=C1\NCCS1
REMARK SMILES IDX 11 1 10 2 9 3 8 4 6 5 7 6 5 8 1 9 2 10 3 11 82 12 4 13 81 14
REMARK SMILES IDX 83 15 84 16 85 18 88 19 86 20 87 22 12 23 13 24 14 26 15 27
REMARK SMILES IDX 16 28 80 29 17 30 79 31 18 32 19 33 20 34 73 35 21 36 78 37
REMARK SMILES IDX 72 38 74 39 22 40 77 41 71 42 70 43 23 45 57 46 36 47 56 48
REMARK SMILES IDX 37 49 40 50 55 51 75 52 38 53 39 54 54 56 76 57 41 58 24 59
REMARK SMILES IDX 25 60 34 61 26 62 27 63 33 64 35 65 28 66 29 67 30 68 31 69
REMARK SMILES IDX 32 70 58 71 59 72 68 73 60 74 61 75 67 76 69 77 62 78 63 79
REMARK SMILES IDX 64 80 65 81 66 82 42 83 43 84 52 85 44 86 45 87 51 88 53 89
REMARK SMILES IDX 46 90 47 91 48 92 49 93 50 94
REMARK H PARENT 8 7 83 17 85 21 12 25 74 44 40 55
REMARK Flexibility Score: inf
ROOT
ATOM      1  C   UNL A   1      41.911  22.411  27.532  1.00  0.00     0.118 C 
ENDROOT
BRANCH   1   2
ATOM      2  C   UNL A   1      40.544  21.591  27.610  1.00  0.00     0.042 C 
BRANCH   2   3
ATOM      3  C   UNL A   1      39.669  21.503  26.259  1.00  0.00     0.118 C 
BRANCH   3   4
ATOM      4  N   UNL A   1      38.827  22.661  25.865  1.00  0.00    -0.352 N 
ATOM      5  C   UNL A   1      37.494  23.010  25.831  1.00  0.00     0.251 C 
ATOM      6  O   UNL A   1      37.127  24.186  25.848  1.00  0.00    -0.269 OA
ATOM      7  H   UNL A   1      39.387  23.397  25.526  1.00  0.00     0.163 HD
BRANCH   5   8
ATOM      8  C   UNL A   1      36.449  21.985  25.717  1.00  0.00     0.044 A 
ATOM      9  C   UNL A   1      33.142  19.346  25.052  1.00  0.00     0.049 C 
ATOM     10  C   UNL A   1      34.313  20.238  25.335  1.00  0.00    -0.004 A 
ATOM     11  C   UNL A   1      35.565  19.944  24.772  1.00  0.00     0.008 A 
ATOM     12  C   UNL A   1      34.186  21.349  26.184  1.00  0.00     0.129 A 
ATOM     13  C   UNL A   1      36.630  20.831  24.942  1.00  0.00     0.014 A 
ATOM     14  C   UNL A   1      35.281  22.155  26.435  1.00  0.00     0.065 A 
BRANCH  12  15
ATOM     15  N   UNL A   1      32.964  21.781  26.701  1.00  0.00    -0.235 N 
ATOM     16  C   UNL A   1      32.288  22.638  26.034  1.00  0.00     0.309 C 
ATOM     17  H   UNL A   1      32.630  21.435  27.560  1.00  0.00     0.313 HD
ATOM     18  N   UNL A   1      32.563  23.296  24.875  1.00  0.00    -0.268 N 
ATOM     19  S   UNL A   1      30.728  23.132  26.675  1.00  0.00    -0.035 SA
ATOM     20  C   UNL A   1      31.569  24.224  24.402  1.00  0.00     0.246 C 
ATOM     21  H   UNL A   1      33.402  23.146  24.384  1.00  0.00     0.305 HD
ATOM     22  C   UNL A   1      30.718  24.601  25.614  1.00  0.00     0.128 C 
ENDBRANCH  12  15
ENDBRANCH   5   8
ENDBRANCH   3   4
ENDBRANCH   2   3
ENDBRANCH   1   2
BRANCH   1  23
ATOM     23  N   UNL A   1      42.216  23.555  26.532  1.00  0.00    -0.352 N 
ATOM     24  C   UNL A   1      42.154  25.003  26.515  1.00  0.00     0.251 C 
ATOM     25  H   UNL A   1      42.542  23.201  25.672  1.00  0.00     0.163 HD
ATOM     26  O   UNL A   1      43.226  25.542  26.189  1.00  0.00    -0.269 OA
BRANCH  24  27
ATOM     27  C   UNL A   1      41.008  26.029  26.815  1.00  0.00     0.039 A 
ATOM     28  C   UNL A   1      40.950  27.284  26.142  1.00  0.00     0.014 A 
ATOM     29  C   UNL A   1      39.996  25.867  27.749  1.00  0.00     0.014 A 
ATOM     30  C   UNL A   1      40.383  28.437  26.791  1.00  0.00     0.010 A 
ATOM     31  C   UNL A   1      39.393  27.001  28.371  1.00  0.00     0.010 A 
ATOM     32  C   UNL A   1      39.757  28.313  28.038  1.00  0.00    -0.014 A 
BRANCH  32  33
ATOM     33  C   UNL A   1      39.615  29.439  29.035  1.00  0.00     0.031 A 
ATOM     34  C   UNL A   1      38.539  30.427  28.949  1.00  0.00     0.074 A 
ATOM     35  C   UNL A   1      40.362  29.646  30.158  1.00  0.00     0.049 A 
ATOM     36  N   UNL A   1      38.712  31.710  28.988  1.00  0.00    -0.248 NA
ATOM     37  C   UNL A   1      37.152  30.000  28.960  1.00  0.00     0.031 C 
ATOM     38  C   UNL A   1      40.265  30.624  31.256  1.00  0.00     0.029 A 
ATOM     39  N   UNL A   1      41.462  28.932  30.579  1.00  0.00    -0.354 N 
ATOM     40  C   UNL A   1      37.492  32.244  29.349  1.00  0.00     0.074 A 
ATOM     41  C   UNL A   1      36.536  31.168  29.161  1.00  0.00     0.031 C 
ATOM     42  C   UNL A   1      41.438  30.665  31.929  1.00  0.00     0.029 A 
ATOM     43  C   UNL A   1      42.349  29.748  31.277  1.00  0.00     0.049 A 
ATOM     44  H   UNL A   1      41.603  27.972  30.410  1.00  0.00     0.167 HD
ATOM     45  C   UNL A   1      37.399  33.437  30.016  1.00  0.00     0.037 A 
ATOM     46  C   UNL A   1      43.603  29.967  30.769  1.00  0.00     0.037 A 
ATOM     47  C   UNL A   1      38.709  33.882  30.512  1.00  0.00     0.049 A 
ATOM     48  C   UNL A   1      43.755  31.389  30.330  1.00  0.00     0.074 A 
ATOM     49  C   UNL A   1      39.252  33.886  31.790  1.00  0.00     0.029 A 
ATOM     50  N   UNL A   1      39.770  34.125  29.644  1.00  0.00    -0.354 N 
ATOM     51  N   UNL A   1      42.754  32.216  30.303  1.00  0.00    -0.248 NA
ATOM     52  C   UNL A   1      44.992  32.004  29.865  1.00  0.00     0.031 C 
ATOM     53  C   UNL A   1      40.650  34.075  31.682  1.00  0.00     0.029 A 
ATOM     54  C   UNL A   1      40.964  34.205  30.341  1.00  0.00     0.049 A 
ATOM     55  H   UNL A   1      39.683  34.226  28.669  1.00  0.00     0.167 HD
ATOM     56  C   UNL A   1      43.148  33.421  29.817  1.00  0.00     0.074 A 
ATOM     57  C   UNL A   1      44.571  33.251  29.582  1.00  0.00     0.031 C 
ATOM     58  C   UNL A   1      42.236  34.422  29.657  1.00  0.00     0.037 A 
BRANCH  45  59
ATOM     59  C   UNL A   1      36.081  34.009  30.525  1.00  0.00     0.058 A 
ATOM     60  C   UNL A   1      35.115  34.565  29.658  1.00  0.00     0.135 A 
ATOM     61  C   UNL A   1      35.697  33.995  31.884  1.00  0.00     0.135 A 
ATOM     62  F   UNL A   1      35.251  34.520  28.326  1.00  0.00    -0.206 F 
ATOM     63  C   UNL A   1      33.937  35.169  30.110  1.00  0.00     0.059 A 
ATOM     64  C   UNL A   1      34.559  34.648  32.368  1.00  0.00     0.059 A 
ATOM     65  F   UNL A   1      36.382  33.286  32.792  1.00  0.00    -0.206 F 
ATOM     66  C   UNL A   1      33.680  35.234  31.471  1.00  0.00     0.060 A 
BRANCH  66  67
ATOM     67  S   UNL A   1      32.157  36.013  32.037  1.00  0.00     0.124 S 
ATOM     68  O   UNL A   1      32.652  37.062  32.924  1.00  0.00    -0.237 OA
ATOM     69  O   UNL A   1      31.566  36.469  30.783  1.00  0.00    -0.237 OA
ATOM     70  O   UNL A   1      31.443  34.926  32.703  1.00  0.00    -0.744 OA
ENDBRANCH  66  67
ENDBRANCH  45  59
BRANCH  46  71
ATOM     71  C   UNL A   1      44.291  28.772  30.113  1.00  0.00     0.058 A 
ATOM     72  C   UNL A   1      43.697  28.421  28.894  1.00  0.00     0.135 A 
ATOM     73  C   UNL A   1      45.669  28.863  30.012  1.00  0.00     0.135 A 
ATOM     74  F   UNL A   1      42.536  27.757  28.880  1.00  0.00    -0.206 F 
ATOM     75  C   UNL A   1      44.200  28.907  27.690  1.00  0.00     0.059 A 
ATOM     76  C   UNL A   1      46.219  29.254  28.786  1.00  0.00     0.059 A 
ATOM     77  F   UNL A   1      46.445  28.802  31.106  1.00  0.00    -0.206 F 
ATOM     78  C   UNL A   1      45.399  29.585  27.716  1.00  0.00     0.060 A 
BRANCH  78  79
ATOM     79  S   UNL A   1      45.712  30.982  26.412  1.00  0.00     0.124 S 
ATOM     80  O   UNL A   1      46.726  31.756  27.091  1.00  0.00    -0.237 OA
ATOM     81  O   UNL A   1      46.254  30.313  25.235  1.00  0.00    -0.237 OA
ATOM     82  O   UNL A   1      44.480  31.704  26.213  1.00  0.00    -0.744 OA
ENDBRANCH  78  79
ENDBRANCH  46  71
BRANCH  58  83
ATOM     83  C   UNL A   1      42.485  35.733  28.969  1.00  0.00     0.058 A 
ATOM     84  C   UNL A   1      41.869  36.125  27.770  1.00  0.00     0.135 A 
ATOM     85  C   UNL A   1      43.307  36.708  29.584  1.00  0.00     0.135 A 
ATOM     86  F   UNL A   1      40.966  35.349  27.156  1.00  0.00    -0.206 F 
ATOM     87  C   UNL A   1      42.126  37.357  27.171  1.00  0.00     0.059 A 
ATOM     88  C   UNL A   1      43.524  37.966  29.039  1.00  0.00     0.059 A 
ATOM     89  F   UNL A   1      43.930  36.474  30.749  1.00  0.00    -0.206 F 
ATOM     90  C   UNL A   1      42.961  38.269  27.811  1.00  0.00     0.060 A 
BRANCH  90  91
ATOM     91  S   UNL A   1      43.275  39.866  27.048  1.00  0.00     0.124 S 
ATOM     92  O   UNL A   1      43.284  40.745  28.213  1.00  0.00    -0.237 OA
ATOM     93  O   UNL A   1      44.567  39.662  26.400  1.00  0.00    -0.237 OA
ATOM     94  O   UNL A   1      42.146  40.034  26.138  1.00  0.00    -0.744 OA
ENDBRANCH  90  91
ENDBRANCH  58  83
ENDBRANCH  32  33
ENDBRANCH  24  27
ENDBRANCH   1  23
TORSDOF 14
ENDMDL
MODEL 3
REMARK VINA RESULT:     -12.8      1.734      2.809
REMARK SMILES Cc1ccc(C(=O)NCCCNC(=O)c2ccc(-c3c4nc(c(-c5c(F)cc(S(=O)(=O)[O-])cc5F)c5ccc([nH]5)c(-c5c(F)cc(S(=O)(=O)[O-])cc5F)c5nc(c(-c6c(F)cc(S(=O)(=O)[O-])cc6F)c6ccc3[nH]6)C=C5)C=C4)cc2)cc1/[NH+]=C1\NCCS1
REMARK SMILES IDX 11 1 10 2 9 3 8 4 6 5 7 6 5 8 1 9 2 10 3 11 82 12 4 13 81 14
REMARK SMILES IDX 83 15 84 16 85 18 88 19 86 20 87 22 12 23 13 24 14 26 15 27
REMARK SMILES IDX 16 28 80 29 17 30 79 31 18 32 19 33 20 34 73 35 21 36 78 37
REMARK SMILES IDX 72 38 74 39 22 40 77 41 71 42 70 43 23 45 57 46 36 47 56 48
REMARK SMILES IDX 37 49 40 50 55 51 75 52 38 53 39 54 54 56 76 57 41 58 24 59
REMARK SMILES IDX 25 60 34 61 26 62 27 63 33 64 35 65 28 66 29 67 30 68 31 69
REMARK SMILES IDX 32 70 58 71 59 72 68 73 60 74 61 75 67 76 69 77 62 78 63 79
REMARK SMILES IDX 64 80 65 81 66 82 42 83 43 84 52 85 44 86 45 87 51 88 53 89
REMARK SMILES IDX 46 90 47 91 48 92 49 93 50 94
REMARK H PARENT 8 7 83 17 85 21 12 25 74 44 40 55
REMARK Flexibility Score: inf
ROOT
ATOM      1  C   UNL A   1      40.854  22.280  26.155  1.00  0.00     0.118 C 
ENDROOT
BRANCH   1   2
ATOM      2  C   UNL A   1      39.291  22.288  26.481  1.00  0.00     0.042 C 
BRANCH   2   3
ATOM      3  C   UNL A   1      38.355  21.338  25.575  1.00  0.00     0.118 C 
BRANCH   3   4
ATOM      4  N   UNL A   1      37.816  21.862  24.294  1.00  0.00    -0.352 N 
ATOM      5  C   UNL A   1      36.770  22.644  23.852  1.00  0.00     0.251 C 
ATOM      6  O   UNL A   1      36.817  23.252  22.781  1.00  0.00    -0.269 OA
ATOM      7  H   UNL A   1      38.369  21.562  23.537  1.00  0.00     0.163 HD
BRANCH   5   8
ATOM      8  C   UNL A   1      35.523  22.739  24.621  1.00  0.00     0.044 A 
ATOM      9  C   UNL A   1      32.090  22.615  27.180  1.00  0.00     0.049 C 
ATOM     10  C   UNL A   1      33.257  22.686  26.242  1.00  0.00    -0.004 A 
ATOM     11  C   UNL A   1      34.131  23.783  26.298  1.00  0.00     0.008 A 
ATOM     12  C   UNL A   1      33.474  21.685  25.281  1.00  0.00     0.129 A 
ATOM     13  C   UNL A   1      35.280  23.800  25.503  1.00  0.00     0.014 A 
ATOM     14  C   UNL A   1      34.554  21.773  24.423  1.00  0.00     0.065 A 
BRANCH  12  15
ATOM     15  N   UNL A   1      32.726  20.508  25.220  1.00  0.00    -0.235 N 
ATOM     16  C   UNL A   1      33.339  19.408  24.996  1.00  0.00     0.309 C 
ATOM     17  H   UNL A   1      31.750  20.524  25.348  1.00  0.00     0.313 HD
ATOM     18  N   UNL A   1      34.646  19.143  24.732  1.00  0.00    -0.268 N 
ATOM     19  S   UNL A   1      32.388  17.929  24.975  1.00  0.00    -0.035 SA
ATOM     20  C   UNL A   1      34.999  17.765  24.506  1.00  0.00     0.246 C 
ATOM     21  H   UNL A   1      35.320  19.859  24.696  1.00  0.00     0.305 HD
ATOM     22  C   UNL A   1      33.711  17.050  24.102  1.00  0.00     0.128 C 
ENDBRANCH  12  15
ENDBRANCH   5   8
ENDBRANCH   3   4
ENDBRANCH   2   3
ENDBRANCH   1   2
BRANCH   1  23
ATOM     23  N   UNL A   1      41.736  23.538  25.952  1.00  0.00    -0.352 N 
ATOM     24  C   UNL A   1      41.845  24.869  26.519  1.00  0.00     0.251 C 
ATOM     25  H   UNL A   1      42.406  23.395  25.245  1.00  0.00     0.163 HD
ATOM     26  O   UNL A   1      42.988  25.143  26.926  1.00  0.00    -0.269 OA
BRANCH  24  27
ATOM     27  C   UNL A   1      40.818  26.036  26.715  1.00  0.00     0.039 A 
ATOM     28  C   UNL A   1      41.041  27.317  26.134  1.00  0.00     0.014 A 
ATOM     29  C   UNL A   1      39.657  25.978  27.472  1.00  0.00     0.014 A 
ATOM     30  C   UNL A   1      40.542  28.507  26.770  1.00  0.00     0.010 A 
ATOM     31  C   UNL A   1      39.124  27.157  28.075  1.00  0.00     0.010 A 
ATOM     32  C   UNL A   1      39.714  28.415  27.896  1.00  0.00    -0.014 A 
BRANCH  32  33
ATOM     33  C   UNL A   1      39.571  29.499  28.939  1.00  0.00     0.031 A 
ATOM     34  C   UNL A   1      38.507  30.502  28.881  1.00  0.00     0.074 A 
ATOM     35  C   UNL A   1      40.304  29.649  30.080  1.00  0.00     0.049 A 
ATOM     36  N   UNL A   1      38.694  31.781  28.978  1.00  0.00    -0.248 NA
ATOM     37  C   UNL A   1      37.115  30.092  28.855  1.00  0.00     0.031 C 
ATOM     38  C   UNL A   1      40.203  30.580  31.218  1.00  0.00     0.029 A 
ATOM     39  N   UNL A   1      41.390  28.904  30.485  1.00  0.00    -0.354 N 
ATOM     40  C   UNL A   1      37.475  32.314  29.344  1.00  0.00     0.074 A 
ATOM     41  C   UNL A   1      36.510  31.258  29.098  1.00  0.00     0.031 C 
ATOM     42  C   UNL A   1      41.367  30.578  31.907  1.00  0.00     0.029 A 
ATOM     43  C   UNL A   1      42.276  29.679  31.229  1.00  0.00     0.049 A 
ATOM     44  H   UNL A   1      41.522  27.951  30.277  1.00  0.00     0.167 HD
ATOM     45  C   UNL A   1      37.386  33.478  30.061  1.00  0.00     0.037 A 
ATOM     46  C   UNL A   1      43.539  29.906  30.748  1.00  0.00     0.037 A 
ATOM     47  C   UNL A   1      38.694  33.885  30.593  1.00  0.00     0.049 A 
ATOM     48  C   UNL A   1      43.714  31.343  30.373  1.00  0.00     0.074 A 
ATOM     49  C   UNL A   1      39.219  33.828  31.878  1.00  0.00     0.029 A 
ATOM     50  N   UNL A   1      39.770  34.153  29.752  1.00  0.00    -0.354 N 
ATOM     51  N   UNL A   1      42.723  32.182  30.368  1.00  0.00    -0.248 NA
ATOM     52  C   UNL A   1      44.964  31.962  29.952  1.00  0.00     0.031 C 
ATOM     53  C   UNL A   1      40.621  34.005  31.797  1.00  0.00     0.029 A 
ATOM     54  C   UNL A   1      40.955  34.188  30.467  1.00  0.00     0.049 A 
ATOM     55  H   UNL A   1      39.698  34.297  28.780  1.00  0.00     0.167 HD
ATOM     56  C   UNL A   1      43.137  33.402  29.939  1.00  0.00     0.074 A 
ATOM     57  C   UNL A   1      44.561  33.225  29.717  1.00  0.00     0.031 C 
ATOM     58  C   UNL A   1      42.239  34.420  29.810  1.00  0.00     0.037 A 
BRANCH  45  59
ATOM     59  C   UNL A   1      36.067  34.043  30.577  1.00  0.00     0.058 A 
ATOM     60  C   UNL A   1      35.107  34.618  29.717  1.00  0.00     0.135 A 
ATOM     61  C   UNL A   1      35.678  34.003  31.933  1.00  0.00     0.135 A 
ATOM     62  F   UNL A   1      35.248  34.599  28.385  1.00  0.00    -0.206 F 
ATOM     63  C   UNL A   1      33.928  35.216  30.176  1.00  0.00     0.059 A 
ATOM     64  C   UNL A   1      34.540  34.650  32.426  1.00  0.00     0.059 A 
ATOM     65  F   UNL A   1      36.358  33.274  32.830  1.00  0.00    -0.206 F 
ATOM     66  C   UNL A   1      33.666  35.255  31.537  1.00  0.00     0.060 A 
BRANCH  66  67
ATOM     67  S   UNL A   1      32.143  36.027  32.113  1.00  0.00     0.124 S 
ATOM     68  O   UNL A   1      31.553  36.520  30.873  1.00  0.00    -0.237 OA
ATOM     69  O   UNL A   1      31.454  34.904  32.742  1.00  0.00    -0.237 OA
ATOM     70  O   UNL A   1      32.611  37.063  33.031  1.00  0.00    -0.744 OA
ENDBRANCH  66  67
ENDBRANCH  45  59
BRANCH  46  71
ATOM     71  C   UNL A   1      44.223  28.731  30.051  1.00  0.00     0.058 A 
ATOM     72  C   UNL A   1      43.644  28.440  28.809  1.00  0.00     0.135 A 
ATOM     73  C   UNL A   1      45.603  28.810  29.973  1.00  0.00     0.135 A 
ATOM     74  F   UNL A   1      42.475  27.792  28.750  1.00  0.00    -0.206 F 
ATOM     75  C   UNL A   1      44.170  28.972  27.635  1.00  0.00     0.059 A 
ATOM     76  C   UNL A   1      46.176  29.247  28.774  1.00  0.00     0.059 A 
ATOM     77  F   UNL A   1      46.363  28.692  31.075  1.00  0.00    -0.206 F 
ATOM     78  C   UNL A   1      45.376  29.634  27.707  1.00  0.00     0.060 A 
BRANCH  78  79
ATOM     79  S   UNL A   1      45.725  31.082  26.470  1.00  0.00     0.124 S 
ATOM     80  O   UNL A   1      46.245  30.346  25.341  1.00  0.00    -0.237 OA
ATOM     81  O   UNL A   1      44.424  31.669  26.168  1.00  0.00    -0.237 OA
ATOM     82  O   UNL A   1      46.691  31.970  27.068  1.00  0.00    -0.744 OA
ENDBRANCH  78  79
ENDBRANCH  46  71
BRANCH  58  83
ATOM     83  C   UNL A   1      42.512  35.756  29.183  1.00  0.00     0.058 A 
ATOM     84  C   UNL A   1      43.317  36.750  29.761  1.00  0.00     0.135 A 
ATOM     85  C   UNL A   1      42.032  36.035  27.880  1.00  0.00     0.135 A 
ATOM     86  F   UNL A   1      43.941  36.558  30.931  1.00  0.00    -0.206 F 
ATOM     87  C   UNL A   1      43.549  37.974  29.137  1.00  0.00     0.059 A 
ATOM     88  C   UNL A   1      42.307  37.221  27.212  1.00  0.00     0.059 A 
ATOM     89  F   UNL A   1      41.279  35.158  27.202  1.00  0.00    -0.206 F 
ATOM     90  C   UNL A   1      43.034  38.203  27.864  1.00  0.00     0.060 A 
BRANCH  90  91
ATOM     91  S   UNL A   1      43.352  39.774  27.051  1.00  0.00     0.124 S 
ATOM     92  O   UNL A   1      43.578  40.651  28.196  1.00  0.00    -0.237 OA
ATOM     93  O   UNL A   1      44.527  39.481  26.238  1.00  0.00    -0.237 OA
ATOM     94  O   UNL A   1      42.125  40.020  26.300  1.00  0.00    -0.744 OA
ENDBRANCH  90  91
ENDBRANCH  58  83
ENDBRANCH  32  33
ENDBRANCH  24  27
ENDBRANCH   1  23
TORSDOF 14
ENDMDL
