MODEL 1
REMARK VINA RESULT:     -11.8      0.000      0.000
REMARK SMILES O=C(Cn1cccc1C(=O)NCCC(=O)NC1CC1)NCCCNC(=O)c1ccc(-c2c3nc(c(-c4c(F)cc(S(=O)(=O)[O-])cc4F)c4ccc([nH]4)c(-c4c(F)cc(S(=O)(=O)[O-])cc4F)c4nc(c(-c5c(F)cc(S(=O)(=O)[O-])cc5F)c5ccc2[nH]5)C=C4)C=C3)cc1
REMARK SMILES IDX 1 1 2 2 20 3 3 5 4 6 5 7 8 8 6 9 7 10 9 11 10 12 11 13 12 15
REMARK SMILES IDX 13 16 14 17 15 18 16 19 17 21 18 22 19 23 21 24 22 25 23 26
REMARK SMILES IDX 24 27 25 28 26 30 27 31 28 32 92 33 29 34 91 35 30 36 31 37
REMARK SMILES IDX 32 38 85 39 33 40 90 41 84 42 86 43 34 44 89 45 83 46 82 47
REMARK SMILES IDX 35 49 69 50 48 51 68 52 49 53 52 54 67 55 87 56 50 57 51 58
REMARK SMILES IDX 66 60 88 61 53 62 36 63 37 64 46 65 38 66 39 67 45 68 47 69
REMARK SMILES IDX 40 70 41 71 42 72 43 73 44 74 70 75 71 76 80 77 72 78 73 79
REMARK SMILES IDX 79 80 81 81 74 82 75 83 76 84 77 85 78 86 54 87 55 88 64 89
REMARK SMILES IDX 56 90 57 91 63 92 65 93 58 94 59 95 60 96 61 97 62 98
REMARK H PARENT 20 4 11 14 16 20 24 29 86 48 52 59
REMARK Flexibility Score: inf
ROOT
ATOM      1  O   UNL A   1      33.736  29.349  23.580  1.00  0.00    -0.273 OA
ATOM      2  C   UNL A   1      32.588  28.970  23.795  1.00  0.00     0.239 C 
ATOM      3  N   UNL A   1      31.905  29.248  24.956  1.00  0.00    -0.354 N 
ATOM      4  H   UNL A   1      31.009  28.861  25.083  1.00  0.00     0.163 HD
ENDROOT
BRANCH   2   5
ATOM      5  C   UNL A   1      31.763  28.263  22.747  1.00  0.00     0.222 C 
BRANCH   5   6
ATOM      6  N   UNL A   1      31.214  26.967  23.092  1.00  0.00    -0.334 N 
ATOM      7  C   UNL A   1      29.924  26.799  23.548  1.00  0.00     0.087 A 
ATOM      8  C   UNL A   1      31.844  25.734  22.963  1.00  0.00     0.107 A 
ATOM      9  C   UNL A   1      29.715  25.472  23.804  1.00  0.00     0.020 A 
ATOM     10  C   UNL A   1      30.908  24.816  23.462  1.00  0.00     0.033 A 
BRANCH   8  11
ATOM     11  C   UNL A   1      33.134  25.262  22.456  1.00  0.00     0.267 C 
ATOM     12  O   UNL A   1      33.551  25.682  21.367  1.00  0.00    -0.268 OA
ATOM     13  N   UNL A   1      34.025  24.396  23.022  1.00  0.00    -0.350 N 
ATOM     14  H   UNL A   1      34.875  24.425  22.526  1.00  0.00     0.163 HD
BRANCH  13  15
ATOM     15  C   UNL A   1      34.130  23.447  24.117  1.00  0.00     0.126 C 
BRANCH  15  16
ATOM     16  C   UNL A   1      34.939  23.978  25.303  1.00  0.00     0.121 C 
BRANCH  16  17
ATOM     17  C   UNL A   1      35.130  22.980  26.422  1.00  0.00     0.221 C 
ATOM     18  O   UNL A   1      34.354  22.935  27.378  1.00  0.00    -0.275 OA
ATOM     19  N   UNL A   1      36.165  22.088  26.356  1.00  0.00    -0.353 N 
ATOM     20  H   UNL A   1      36.198  21.411  27.070  1.00  0.00     0.163 HD
BRANCH  19  21
ATOM     21  C   UNL A   1      37.200  22.020  25.382  1.00  0.00     0.082 C 
ATOM     22  C   UNL A   1      38.634  21.841  25.795  1.00  0.00     0.027 C 
ATOM     23  C   UNL A   1      37.924  20.740  25.070  1.00  0.00     0.027 C 
ENDBRANCH  19  21
ENDBRANCH  16  17
ENDBRANCH  15  16
ENDBRANCH  13  15
ENDBRANCH   8  11
ENDBRANCH   5   6
ENDBRANCH   2   5
BRANCH   3  24
ATOM     24  C   UNL A   1      32.453  30.088  25.999  1.00  0.00     0.117 C 
BRANCH  24  25
ATOM     25  C   UNL A   1      33.069  29.250  27.121  1.00  0.00     0.042 C 
BRANCH  25  26
ATOM     26  C   UNL A   1      34.598  29.211  27.078  1.00  0.00     0.118 C 
BRANCH  26  27
ATOM     27  N   UNL A   1      35.156  30.532  27.299  1.00  0.00    -0.352 N 
ATOM     28  C   UNL A   1      36.237  30.943  28.035  1.00  0.00     0.251 C 
ATOM     29  H   UNL A   1      34.675  31.259  26.842  1.00  0.00     0.163 HD
ATOM     30  O   UNL A   1      36.300  32.125  28.352  1.00  0.00    -0.269 OA
BRANCH  28  31
ATOM     31  C   UNL A   1      37.309  30.017  28.464  1.00  0.00     0.039 A 
ATOM     32  C   UNL A   1      38.418  29.887  27.613  1.00  0.00     0.014 A 
ATOM     33  C   UNL A   1      37.204  29.209  29.600  1.00  0.00     0.014 A 
ATOM     34  C   UNL A   1      39.443  28.999  27.927  1.00  0.00     0.010 A 
ATOM     35  C   UNL A   1      38.233  28.327  29.925  1.00  0.00     0.010 A 
ATOM     36  C   UNL A   1      39.362  28.243  29.101  1.00  0.00    -0.014 A 
BRANCH  36  37
ATOM     37  C   UNL A   1      40.569  27.535  29.584  1.00  0.00     0.031 A 
ATOM     38  C   UNL A   1      40.794  26.214  28.790  1.00  0.00     0.074 A 
ATOM     39  C   UNL A   1      41.272  28.139  30.593  1.00  0.00     0.049 A 
ATOM     40  N   UNL A   1      41.523  25.176  29.067  1.00  0.00    -0.248 NA
ATOM     41  C   UNL A   1      40.053  25.995  27.510  1.00  0.00     0.031 C 
ATOM     42  C   UNL A   1      40.909  29.432  31.223  1.00  0.00     0.029 A 
ATOM     43  N   UNL A   1      42.422  27.823  31.292  1.00  0.00    -0.354 N 
ATOM     44  C   UNL A   1      41.527  24.331  27.928  1.00  0.00     0.074 A 
ATOM     45  C   UNL A   1      40.514  24.828  27.053  1.00  0.00     0.031 C 
ATOM     46  C   UNL A   1      41.749  29.737  32.237  1.00  0.00     0.029 A 
ATOM     47  C   UNL A   1      42.766  28.710  32.355  1.00  0.00     0.049 A 
ATOM     48  H   UNL A   1      42.969  27.035  31.070  1.00  0.00     0.167 HD
ATOM     49  C   UNL A   1      42.460  23.354  27.716  1.00  0.00     0.037 A 
ATOM     50  C   UNL A   1      43.781  28.605  33.274  1.00  0.00     0.037 A 
ATOM     51  C   UNL A   1      43.341  23.295  28.831  1.00  0.00     0.049 A 
ATOM     52  C   UNL A   1      44.615  27.504  32.778  1.00  0.00     0.074 A 
ATOM     53  C   UNL A   1      43.157  22.854  30.114  1.00  0.00     0.029 A 
ATOM     54  N   UNL A   1      44.465  24.082  28.770  1.00  0.00    -0.354 N 
ATOM     55  N   UNL A   1      45.386  27.579  31.735  1.00  0.00    -0.248 NA
ATOM     56  C   UNL A   1      44.534  26.201  33.448  1.00  0.00     0.031 C 
ATOM     57  C   UNL A   1      43.878  23.793  30.874  1.00  0.00     0.029 A 
ATOM     58  C   UNL A   1      44.660  24.591  30.028  1.00  0.00     0.049 A 
ATOM     59  H   UNL A   1      45.024  24.248  27.976  1.00  0.00     0.167 HD
ATOM     60  C   UNL A   1      45.591  26.258  31.435  1.00  0.00     0.074 A 
ATOM     61  C   UNL A   1      45.341  25.509  32.649  1.00  0.00     0.031 C 
ATOM     62  C   UNL A   1      45.385  25.831  30.163  1.00  0.00     0.037 A 
BRANCH  49  63
ATOM     63  C   UNL A   1      42.861  22.545  26.509  1.00  0.00     0.058 A 
ATOM     64  C   UNL A   1      42.441  21.189  26.453  1.00  0.00     0.135 A 
ATOM     65  C   UNL A   1      43.904  22.901  25.642  1.00  0.00     0.135 A 
ATOM     66  F   UNL A   1      41.399  20.761  27.186  1.00  0.00    -0.206 F 
ATOM     67  C   UNL A   1      43.118  20.222  25.720  1.00  0.00     0.059 A 
ATOM     68  C   UNL A   1      44.571  21.950  24.861  1.00  0.00     0.059 A 
ATOM     69  F   UNL A   1      44.357  24.161  25.594  1.00  0.00    -0.206 F 
ATOM     70  C   UNL A   1      44.212  20.606  24.956  1.00  0.00     0.060 A 
BRANCH  70  71
ATOM     71  S   UNL A   1      45.174  19.315  24.137  1.00  0.00     0.124 S 
ATOM     72  O   UNL A   1      44.862  18.149  24.954  1.00  0.00    -0.237 OA
ATOM     73  O   UNL A   1      44.607  19.314  22.791  1.00  0.00    -0.237 OA
ATOM     74  O   UNL A   1      46.544  19.809  24.231  1.00  0.00    -0.744 OA
ENDBRANCH  70  71
ENDBRANCH  49  63
BRANCH  50  75
ATOM     75  C   UNL A   1      44.221  29.195  34.607  1.00  0.00     0.058 A 
ATOM     76  C   UNL A   1      45.166  30.209  34.796  1.00  0.00     0.135 A 
ATOM     77  C   UNL A   1      43.494  28.857  35.791  1.00  0.00     0.135 A 
ATOM     78  F   UNL A   1      46.025  30.541  33.825  1.00  0.00    -0.206 F 
ATOM     79  C   UNL A   1      45.246  30.949  35.996  1.00  0.00     0.059 A 
ATOM     80  C   UNL A   1      43.508  29.610  36.960  1.00  0.00     0.059 A 
ATOM     81  F   UNL A   1      42.681  27.791  35.841  1.00  0.00    -0.206 F 
ATOM     82  C   UNL A   1      44.362  30.690  37.043  1.00  0.00     0.060 A 
BRANCH  82  83
ATOM     83  S   UNL A   1      44.198  31.830  38.436  1.00  0.00     0.124 S 
ATOM     84  O   UNL A   1      42.925  32.481  38.154  1.00  0.00    -0.237 OA
ATOM     85  O   UNL A   1      44.212  30.927  39.584  1.00  0.00    -0.237 OA
ATOM     86  O   UNL A   1      45.382  32.678  38.313  1.00  0.00    -0.744 OA
ENDBRANCH  82  83
ENDBRANCH  50  75
BRANCH  62  87
ATOM     87  C   UNL A   1      45.596  26.887  29.089  1.00  0.00     0.058 A 
ATOM     88  C   UNL A   1      46.893  27.354  28.814  1.00  0.00     0.135 A 
ATOM     89  C   UNL A   1      44.561  27.516  28.375  1.00  0.00     0.135 A 
ATOM     90  F   UNL A   1      47.946  26.808  29.444  1.00  0.00    -0.206 F 
ATOM     91  C   UNL A   1      47.146  28.374  27.891  1.00  0.00     0.059 A 
ATOM     92  C   UNL A   1      44.783  28.534  27.440  1.00  0.00     0.059 A 
ATOM     93  F   UNL A   1      43.291  27.162  28.566  1.00  0.00    -0.206 F 
ATOM     94  C   UNL A   1      46.084  28.957  27.201  1.00  0.00     0.060 A 
BRANCH  94  95
ATOM     95  S   UNL A   1      46.428  30.243  25.978  1.00  0.00     0.124 S 
ATOM     96  O   UNL A   1      46.655  29.468  24.762  1.00  0.00    -0.237 OA
ATOM     97  O   UNL A   1      45.198  31.028  26.006  1.00  0.00    -0.237 OA
ATOM     98  O   UNL A   1      47.610  30.920  26.509  1.00  0.00    -0.744 OA
ENDBRANCH  94  95
ENDBRANCH  62  87
ENDBRANCH  36  37
ENDBRANCH  28  31
ENDBRANCH  26  27
ENDBRANCH  25  26
ENDBRANCH  24  25
ENDBRANCH   3  24
TORSDOF 19
ENDMDL
MODEL 2
REMARK VINA RESULT:     -10.8      4.436      9.959
REMARK SMILES O=C(Cn1cccc1C(=O)NCCC(=O)NC1CC1)NCCCNC(=O)c1ccc(-c2c3nc(c(-c4c(F)cc(S(=O)(=O)[O-])cc4F)c4ccc([nH]4)c(-c4c(F)cc(S(=O)(=O)[O-])cc4F)c4nc(c(-c5c(F)cc(S(=O)(=O)[O-])cc5F)c5ccc2[nH]5)C=C4)C=C3)cc1
REMARK SMILES IDX 1 1 2 2 20 3 3 5 4 6 5 7 8 8 6 9 7 10 9 11 10 12 11 13 12 15
REMARK SMILES IDX 13 16 14 17 15 18 16 19 17 21 18 22 19 23 21 24 22 25 23 26
REMARK SMILES IDX 24 27 25 28 26 30 27 31 28 32 92 33 29 34 91 35 30 36 31 37
REMARK SMILES IDX 32 38 85 39 33 40 90 41 84 42 86 43 34 44 89 45 83 46 82 47
REMARK SMILES IDX 35 49 69 50 48 51 68 52 49 53 52 54 67 55 87 56 50 57 51 58
REMARK SMILES IDX 66 60 88 61 53 62 36 63 37 64 46 65 38 66 39 67 45 68 47 69
REMARK SMILES IDX 40 70 41 71 42 72 43 73 44 74 70 75 71 76 80 77 72 78 73 79
REMARK SMILES IDX 79 80 81 81 74 82 75 83 76 84 77 85 78 86 54 87 55 88 64 89
REMARK SMILES IDX 56 90 57 91 63 92 65 93 58 94 59 95 60 96 61 97 62 98
REMARK H PARENT 20 4 11 14 16 20 24 29 86 48 52 59
REMARK Flexibility Score: inf
ROOT
ATOM      1  O   UNL A   1      34.380  23.072  26.332  1.00  0.00    -0.273 OA
ATOM      2  C   UNL A   1      34.416  24.097  25.656  1.00  0.00     0.239 C 
ATOM      3  N   UNL A   1      35.325  24.303  24.645  1.00  0.00    -0.354 N 
ATOM      4  H   UNL A   1      35.333  25.174  24.185  1.00  0.00     0.163 HD
ENDROOT
BRANCH   2   5
ATOM      5  C   UNL A   1      33.380  25.186  25.787  1.00  0.00     0.222 C 
BRANCH   5   6
ATOM      6  N   UNL A   1      32.249  25.144  24.883  1.00  0.00    -0.334 N 
ATOM      7  C   UNL A   1      31.954  26.167  24.007  1.00  0.00     0.087 A 
ATOM      8  C   UNL A   1      31.357  24.090  24.711  1.00  0.00     0.107 A 
ATOM      9  C   UNL A   1      30.823  25.840  23.310  1.00  0.00     0.020 A 
ATOM     10  C   UNL A   1      30.443  24.566  23.760  1.00  0.00     0.033 A 
BRANCH   8  11
ATOM     11  C   UNL A   1      31.212  22.739  25.254  1.00  0.00     0.267 C 
ATOM     12  O   UNL A   1      30.452  22.547  26.216  1.00  0.00    -0.268 OA
ATOM     13  N   UNL A   1      31.793  21.573  24.848  1.00  0.00    -0.350 N 
ATOM     14  H   UNL A   1      31.356  20.812  25.294  1.00  0.00     0.163 HD
BRANCH  13  15
ATOM     15  C   UNL A   1      32.846  21.086  23.972  1.00  0.00     0.126 C 
BRANCH  15  16
ATOM     16  C   UNL A   1      33.683  19.967  24.597  1.00  0.00     0.121 C 
BRANCH  16  17
ATOM     17  C   UNL A   1      33.232  19.552  25.980  1.00  0.00     0.221 C 
ATOM     18  O   UNL A   1      33.236  20.348  26.920  1.00  0.00    -0.275 OA
ATOM     19  N   UNL A   1      32.779  18.277  26.183  1.00  0.00    -0.353 N 
ATOM     20  H   UNL A   1      32.426  18.082  27.081  1.00  0.00     0.163 HD
BRANCH  19  21
ATOM     21  C   UNL A   1      32.758  17.199  25.254  1.00  0.00     0.082 C 
ATOM     22  C   UNL A   1      33.867  16.184  25.230  1.00  0.00     0.027 C 
ATOM     23  C   UNL A   1      32.497  15.781  25.680  1.00  0.00     0.027 C 
ENDBRANCH  19  21
ENDBRANCH  16  17
ENDBRANCH  15  16
ENDBRANCH  13  15
ENDBRANCH   8  11
ENDBRANCH   5   6
ENDBRANCH   2   5
BRANCH   3  24
ATOM     24  C   UNL A   1      36.271  23.291  24.229  1.00  0.00     0.117 C 
BRANCH  24  25
ATOM     25  C   UNL A   1      37.113  22.799  25.408  1.00  0.00     0.042 C 
BRANCH  25  26
ATOM     26  C   UNL A   1      37.929  23.908  26.074  1.00  0.00     0.118 C 
BRANCH  26  27
ATOM     27  N   UNL A   1      38.967  23.350  26.921  1.00  0.00    -0.352 N 
ATOM     28  C   UNL A   1      40.036  23.938  27.545  1.00  0.00     0.251 C 
ATOM     29  H   UNL A   1      38.890  22.380  27.073  1.00  0.00     0.163 HD
ATOM     30  O   UNL A   1      40.957  23.216  27.908  1.00  0.00    -0.269 OA
BRANCH  28  31
ATOM     31  C   UNL A   1      40.119  25.397  27.780  1.00  0.00     0.039 A 
ATOM     32  C   UNL A   1      39.732  25.862  29.047  1.00  0.00     0.014 A 
ATOM     33  C   UNL A   1      40.455  26.309  26.775  1.00  0.00     0.014 A 
ATOM     34  C   UNL A   1      39.738  27.226  29.326  1.00  0.00     0.010 A 
ATOM     35  C   UNL A   1      40.474  27.675  27.053  1.00  0.00     0.010 A 
ATOM     36  C   UNL A   1      40.140  28.128  28.335  1.00  0.00    -0.014 A 
BRANCH  36  37
ATOM     37  C   UNL A   1      40.433  29.528  28.715  1.00  0.00     0.031 A 
ATOM     38  C   UNL A   1      39.117  30.337  28.918  1.00  0.00     0.074 A 
ATOM     39  C   UNL A   1      41.755  29.866  28.841  1.00  0.00     0.049 A 
ATOM     40  N   UNL A   1      38.911  31.618  28.957  1.00  0.00    -0.248 NA
ATOM     41  C   UNL A   1      37.821  29.604  29.049  1.00  0.00     0.031 C 
ATOM     42  C   UNL A   1      42.891  28.938  28.623  1.00  0.00     0.029 A 
ATOM     43  N   UNL A   1      42.427  31.025  29.180  1.00  0.00    -0.354 N 
ATOM     44  C   UNL A   1      37.566  31.830  29.353  1.00  0.00     0.074 A 
ATOM     45  C   UNL A   1      36.918  30.560  29.278  1.00  0.00     0.031 C 
ATOM     46  C   UNL A   1      44.077  29.575  28.750  1.00  0.00     0.029 A 
ATOM     47  C   UNL A   1      43.851  30.964  29.100  1.00  0.00     0.049 A 
ATOM     48  H   UNL A   1      41.953  31.842  29.459  1.00  0.00     0.167 HD
ATOM     49  C   UNL A   1      37.103  33.017  29.851  1.00  0.00     0.037 A 
ATOM     50  C   UNL A   1      44.770  31.967  29.279  1.00  0.00     0.037 A 
ATOM     51  C   UNL A   1      38.153  33.977  29.829  1.00  0.00     0.049 A 
ATOM     52  C   UNL A   1      43.994  33.085  29.829  1.00  0.00     0.074 A 
ATOM     53  C   UNL A   1      38.763  34.637  28.796  1.00  0.00     0.029 A 
ATOM     54  N   UNL A   1      38.936  34.057  30.955  1.00  0.00    -0.354 N 
ATOM     55  N   UNL A   1      43.518  33.123  31.037  1.00  0.00    -0.248 NA
ATOM     56  C   UNL A   1      43.663  34.213  28.951  1.00  0.00     0.031 C 
ATOM     57  C   UNL A   1      40.113  34.655  29.190  1.00  0.00     0.029 A 
ATOM     58  C   UNL A   1      40.225  34.248  30.527  1.00  0.00     0.049 A 
ATOM     59  H   UNL A   1      38.631  33.991  31.889  1.00  0.00     0.167 HD
ATOM     60  C   UNL A   1      42.556  34.094  30.935  1.00  0.00     0.074 A 
ATOM     61  C   UNL A   1      42.907  34.912  29.792  1.00  0.00     0.031 C 
ATOM     62  C   UNL A   1      41.305  33.832  31.390  1.00  0.00     0.037 A 
BRANCH  49  63
ATOM     63  C   UNL A   1      35.853  33.416  30.593  1.00  0.00     0.058 A 
ATOM     64  C   UNL A   1      34.783  33.964  29.837  1.00  0.00     0.135 A 
ATOM     65  C   UNL A   1      35.804  33.634  31.976  1.00  0.00     0.135 A 
ATOM     66  F   UNL A   1      34.694  33.747  28.514  1.00  0.00    -0.206 F 
ATOM     67  C   UNL A   1      33.830  34.812  30.389  1.00  0.00     0.059 A 
ATOM     68  C   UNL A   1      34.826  34.449  32.560  1.00  0.00     0.059 A 
ATOM     69  F   UNL A   1      36.749  33.136  32.785  1.00  0.00    -0.206 F 
ATOM     70  C   UNL A   1      33.884  35.083  31.750  1.00  0.00     0.060 A 
BRANCH  70  71
ATOM     71  S   UNL A   1      32.738  36.307  32.420  1.00  0.00     0.124 S 
ATOM     72  O   UNL A   1      32.532  37.182  31.272  1.00  0.00    -0.237 OA
ATOM     73  O   UNL A   1      31.593  35.483  32.800  1.00  0.00    -0.237 OA
ATOM     74  O   UNL A   1      33.481  36.886  33.535  1.00  0.00    -0.744 OA
ENDBRANCH  70  71
ENDBRANCH  49  63
BRANCH  50  75
ATOM     75  C   UNL A   1      46.239  32.272  29.015  1.00  0.00     0.058 A 
ATOM     76  C   UNL A   1      47.292  32.140  29.926  1.00  0.00     0.135 A 
ATOM     77  C   UNL A   1      46.665  32.534  27.675  1.00  0.00     0.135 A 
ATOM     78  F   UNL A   1      47.059  32.037  31.239  1.00  0.00    -0.206 F 
ATOM     79  C   UNL A   1      48.641  32.080  29.512  1.00  0.00     0.059 A 
ATOM     80  C   UNL A   1      47.978  32.415  27.234  1.00  0.00     0.059 A 
ATOM     81  F   UNL A   1      45.795  32.867  26.709  1.00  0.00    -0.206 F 
ATOM     82  C   UNL A   1      48.965  32.144  28.158  1.00  0.00     0.060 A 
BRANCH  82  83
ATOM     83  S   UNL A   1      50.622  31.721  27.569  1.00  0.00     0.124 S 
ATOM     84  O   UNL A   1      50.849  30.424  28.195  1.00  0.00    -0.237 OA
ATOM     85  O   UNL A   1      50.446  31.707  26.119  1.00  0.00    -0.237 OA
ATOM     86  O   UNL A   1      51.444  32.818  28.074  1.00  0.00    -0.744 OA
ENDBRANCH  82  83
ENDBRANCH  50  75
BRANCH  62  87
ATOM     87  C   UNL A   1      41.230  32.818  32.521  1.00  0.00     0.058 A 
ATOM     88  C   UNL A   1      40.560  31.599  32.322  1.00  0.00     0.135 A 
ATOM     89  C   UNL A   1      41.724  33.034  33.820  1.00  0.00     0.135 A 
ATOM     90  F   UNL A   1      40.060  31.303  31.112  1.00  0.00    -0.206 F 
ATOM     91  C   UNL A   1      40.393  30.656  33.342  1.00  0.00     0.059 A 
ATOM     92  C   UNL A   1      41.579  32.108  34.858  1.00  0.00     0.059 A 
ATOM     93  F   UNL A   1      42.364  34.162  34.124  1.00  0.00    -0.206 F 
ATOM     94  C   UNL A   1      40.913  30.916  34.610  1.00  0.00     0.060 A 
BRANCH  94  95
ATOM     95  S   UNL A   1      40.730  29.670  35.908  1.00  0.00     0.124 S 
ATOM     96  O   UNL A   1      41.708  30.104  36.900  1.00  0.00    -0.237 OA
ATOM     97  O   UNL A   1      39.330  29.829  36.289  1.00  0.00    -0.237 OA
ATOM     98  O   UNL A   1      41.050  28.414  35.231  1.00  0.00    -0.744 OA
ENDBRANCH  94  95
ENDBRANCH  62  87
ENDBRANCH  36  37
ENDBRANCH  28  31
ENDBRANCH  26  27
ENDBRANCH  25  26
ENDBRANCH  24  25
ENDBRANCH   3  24
TORSDOF 19
ENDMDL
MODEL 3
REMARK VINA RESULT:     -10.6      3.643      9.403
REMARK SMILES O=C(Cn1cccc1C(=O)NCCC(=O)NC1CC1)NCCCNC(=O)c1ccc(-c2c3nc(c(-c4c(F)cc(S(=O)(=O)[O-])cc4F)c4ccc([nH]4)c(-c4c(F)cc(S(=O)(=O)[O-])cc4F)c4nc(c(-c5c(F)cc(S(=O)(=O)[O-])cc5F)c5ccc2[nH]5)C=C4)C=C3)cc1
REMARK SMILES IDX 1 1 2 2 20 3 3 5 4 6 5 7 8 8 6 9 7 10 9 11 10 12 11 13 12 15
REMARK SMILES IDX 13 16 14 17 15 18 16 19 17 21 18 22 19 23 21 24 22 25 23 26
REMARK SMILES IDX 24 27 25 28 26 30 27 31 28 32 92 33 29 34 91 35 30 36 31 37
REMARK SMILES IDX 32 38 85 39 33 40 90 41 84 42 86 43 34 44 89 45 83 46 82 47
REMARK SMILES IDX 35 49 69 50 48 51 68 52 49 53 52 54 67 55 87 56 50 57 51 58
REMARK SMILES IDX 66 60 88 61 53 62 36 63 37 64 46 65 38 66 39 67 45 68 47 69
REMARK SMILES IDX 40 70 41 71 42 72 43 73 44 74 70 75 71 76 80 77 72 78 73 79
REMARK SMILES IDX 79 80 81 81 74 82 75 83 76 84 77 85 78 86 54 87 55 88 64 89
REMARK SMILES IDX 56 90 57 91 63 92 65 93 58 94 59 95 60 96 61 97 62 98
REMARK H PARENT 20 4 11 14 16 20 24 29 86 48 52 59
REMARK Flexibility Score: inf
ROOT
ATOM      1  O   UNL A   1      36.318  23.035  24.054  1.00  0.00    -0.273 OA
ATOM      2  C   UNL A   1      36.142  22.856  25.256  1.00  0.00     0.239 C 
ATOM      3  N   UNL A   1      37.136  22.443  26.113  1.00  0.00    -0.354 N 
ATOM      4  H   UNL A   1      36.906  22.263  27.053  1.00  0.00     0.163 HD
ENDROOT
BRANCH   2   5
ATOM      5  C   UNL A   1      34.838  23.193  25.938  1.00  0.00     0.222 C 
BRANCH   5   6
ATOM      6  N   UNL A   1      33.692  22.358  25.639  1.00  0.00    -0.334 N 
ATOM      7  C   UNL A   1      33.808  21.099  25.090  1.00  0.00     0.087 A 
ATOM      8  C   UNL A   1      32.357  22.649  25.903  1.00  0.00     0.107 A 
ATOM      9  C   UNL A   1      32.555  20.579  24.909  1.00  0.00     0.020 A 
ATOM     10  C   UNL A   1      31.659  21.546  25.392  1.00  0.00     0.033 A 
BRANCH   8  11
ATOM     11  C   UNL A   1      31.629  23.744  26.545  1.00  0.00     0.267 C 
ATOM     12  O   UNL A   1      30.784  23.486  27.415  1.00  0.00    -0.268 OA
ATOM     13  N   UNL A   1      31.739  25.091  26.351  1.00  0.00    -0.350 N 
ATOM     14  H   UNL A   1      31.250  25.568  27.060  1.00  0.00     0.163 HD
BRANCH  13  15
ATOM     15  C   UNL A   1      32.342  26.051  25.443  1.00  0.00     0.126 C 
BRANCH  15  16
ATOM     16  C   UNL A   1      31.378  27.156  25.004  1.00  0.00     0.121 C 
BRANCH  16  17
ATOM     17  C   UNL A   1      30.353  26.718  23.982  1.00  0.00     0.221 C 
ATOM     18  O   UNL A   1      29.921  25.565  23.965  1.00  0.00    -0.275 OA
ATOM     19  N   UNL A   1      29.872  27.628  23.082  1.00  0.00    -0.353 N 
ATOM     20  H   UNL A   1      29.152  27.312  22.490  1.00  0.00     0.163 HD
BRANCH  19  21
ATOM     21  C   UNL A   1      30.288  28.976  22.895  1.00  0.00     0.082 C 
ATOM     22  C   UNL A   1      29.539  29.891  21.966  1.00  0.00     0.027 C 
ATOM     23  C   UNL A   1      29.507  30.138  23.443  1.00  0.00     0.027 C 
ENDBRANCH  19  21
ENDBRANCH  16  17
ENDBRANCH  15  16
ENDBRANCH  13  15
ENDBRANCH   8  11
ENDBRANCH   5   6
ENDBRANCH   2   5
BRANCH   3  24
ATOM     24  C   UNL A   1      38.506  22.263  25.687  1.00  0.00     0.117 C 
BRANCH  24  25
ATOM     25  C   UNL A   1      39.136  21.034  26.344  1.00  0.00     0.042 C 
BRANCH  25  26
ATOM     26  C   UNL A   1      39.263  19.839  25.397  1.00  0.00     0.118 C 
BRANCH  26  27
ATOM     27  N   UNL A   1      40.285  18.919  25.860  1.00  0.00    -0.352 N 
ATOM     28  C   UNL A   1      41.606  19.118  26.169  1.00  0.00     0.251 C 
ATOM     29  H   UNL A   1      39.977  17.990  25.971  1.00  0.00     0.163 HD
ATOM     30  O   UNL A   1      42.343  18.139  26.196  1.00  0.00    -0.269 OA
BRANCH  28  31
ATOM     31  C   UNL A   1      42.165  20.459  26.455  1.00  0.00     0.039 A 
ATOM     32  C   UNL A   1      42.704  21.169  25.371  1.00  0.00     0.014 A 
ATOM     33  C   UNL A   1      42.269  20.977  27.749  1.00  0.00     0.014 A 
ATOM     34  C   UNL A   1      43.289  22.415  25.570  1.00  0.00     0.010 A 
ATOM     35  C   UNL A   1      42.844  22.230  27.952  1.00  0.00     0.010 A 
ATOM     36  C   UNL A   1      43.330  22.957  26.858  1.00  0.00    -0.014 A 
BRANCH  36  37
ATOM     37  C   UNL A   1      43.673  24.388  27.025  1.00  0.00     0.031 A 
ATOM     38  C   UNL A   1      42.388  25.255  27.173  1.00  0.00     0.074 A 
ATOM     39  C   UNL A   1      45.007  24.701  27.042  1.00  0.00     0.049 A 
ATOM     40  N   UNL A   1      42.213  26.534  27.042  1.00  0.00    -0.248 NA
ATOM     41  C   UNL A   1      41.083  24.585  27.464  1.00  0.00     0.031 C 
ATOM     42  C   UNL A   1      46.110  23.719  26.904  1.00  0.00     0.029 A 
ATOM     43  N   UNL A   1      45.721  25.876  27.185  1.00  0.00    -0.354 N 
ATOM     44  C   UNL A   1      40.893  26.838  27.466  1.00  0.00     0.074 A 
ATOM     45  C   UNL A   1      40.215  25.590  27.598  1.00  0.00     0.031 C 
ATOM     46  C   UNL A   1      47.314  24.333  26.887  1.00  0.00     0.029 A 
ATOM     47  C   UNL A   1      47.138  25.762  27.050  1.00  0.00     0.049 A 
ATOM     48  H   UNL A   1      45.280  26.737  27.368  1.00  0.00     0.167 HD
ATOM     49  C   UNL A   1      40.483  28.096  27.814  1.00  0.00     0.037 A 
ATOM     50  C   UNL A   1      48.087  26.754  27.045  1.00  0.00     0.037 A 
ATOM     51  C   UNL A   1      41.552  29.012  27.611  1.00  0.00     0.049 A 
ATOM     52  C   UNL A   1      47.364  27.958  27.469  1.00  0.00     0.074 A 
ATOM     53  C   UNL A   1      42.125  29.505  26.469  1.00  0.00     0.029 A 
ATOM     54  N   UNL A   1      42.391  29.225  28.677  1.00  0.00    -0.354 N 
ATOM     55  N   UNL A   1      46.949  28.178  28.679  1.00  0.00    -0.248 NA
ATOM     56  C   UNL A   1      47.016  28.964  26.457  1.00  0.00     0.031 C 
ATOM     57  C   UNL A   1      43.493  29.539  26.794  1.00  0.00     0.029 A 
ATOM     58  C   UNL A   1      43.661  29.317  28.168  1.00  0.00     0.049 A 
ATOM     59  H   UNL A   1      42.131  29.297  29.624  1.00  0.00     0.167 HD
ATOM     60  C   UNL A   1      46.005  29.153  28.487  1.00  0.00     0.074 A 
ATOM     61  C   UNL A   1      46.319  29.794  27.226  1.00  0.00     0.031 C 
ATOM     62  C   UNL A   1      44.772  28.993  29.031  1.00  0.00     0.037 A 
BRANCH  49  63
ATOM     63  C   UNL A   1      39.280  28.630  28.549  1.00  0.00     0.058 A 
ATOM     64  C   UNL A   1      38.511  29.639  27.912  1.00  0.00     0.135 A 
ATOM     65  C   UNL A   1      39.083  28.486  29.929  1.00  0.00     0.135 A 
ATOM     66  F   UNL A   1      38.567  29.809  26.580  1.00  0.00    -0.206 F 
ATOM     67  C   UNL A   1      37.735  30.551  28.618  1.00  0.00     0.059 A 
ATOM     68  C   UNL A   1      38.270  29.366  30.654  1.00  0.00     0.059 A 
ATOM     69  F   UNL A   1      39.738  27.545  30.623  1.00  0.00    -0.206 F 
ATOM     70  C   UNL A   1      37.653  30.432  29.998  1.00  0.00     0.060 A 
BRANCH  70  71
ATOM     71  S   UNL A   1      36.772  31.715  30.913  1.00  0.00     0.124 S 
ATOM     72  O   UNL A   1      35.933  32.299  29.873  1.00  0.00    -0.237 OA
ATOM     73  O   UNL A   1      36.068  30.940  31.932  1.00  0.00    -0.237 OA
ATOM     74  O   UNL A   1      37.846  32.565  31.416  1.00  0.00    -0.744 OA
ENDBRANCH  70  71
ENDBRANCH  49  63
BRANCH  50  75
ATOM     75  C   UNL A   1      49.547  26.976  26.674  1.00  0.00     0.058 A 
ATOM     76  C   UNL A   1      50.581  27.336  27.545  1.00  0.00     0.135 A 
ATOM     77  C   UNL A   1      49.997  26.607  25.367  1.00  0.00     0.135 A 
ATOM     78  F   UNL A   1      50.318  27.843  28.755  1.00  0.00    -0.206 F 
ATOM     79  C   UNL A   1      51.941  27.161  27.211  1.00  0.00     0.059 A 
ATOM     80  C   UNL A   1      51.326  26.365  25.036  1.00  0.00     0.059 A 
ATOM     81  F   UNL A   1      49.140  26.408  24.354  1.00  0.00    -0.206 F 
ATOM     82  C   UNL A   1      52.299  26.604  25.983  1.00  0.00     0.060 A 
BRANCH  82  83
ATOM     83  S   UNL A   1      53.987  26.042  25.664  1.00  0.00     0.124 S 
ATOM     84  O   UNL A   1      53.987  25.872  24.217  1.00  0.00    -0.237 OA
ATOM     85  O   UNL A   1      54.789  27.150  26.177  1.00  0.00    -0.237 OA
ATOM     86  O   UNL A   1      54.081  24.810  26.445  1.00  0.00    -0.744 OA
ENDBRANCH  82  83
ENDBRANCH  50  75
BRANCH  62  87
ATOM     87  C   UNL A   1      44.731  28.148  30.294  1.00  0.00     0.058 A 
ATOM     88  C   UNL A   1      45.329  28.625  31.473  1.00  0.00     0.135 A 
ATOM     89  C   UNL A   1      44.197  26.849  30.368  1.00  0.00     0.135 A 
ATOM     90  F   UNL A   1      45.861  29.857  31.499  1.00  0.00    -0.206 F 
ATOM     91  C   UNL A   1      45.389  27.867  32.647  1.00  0.00     0.059 A 
ATOM     92  C   UNL A   1      44.235  26.069  31.529  1.00  0.00     0.059 A 
ATOM     93  F   UNL A   1      43.618  26.291  29.305  1.00  0.00    -0.206 F 
ATOM     94  C   UNL A   1      44.833  26.588  32.669  1.00  0.00     0.060 A 
BRANCH  94  95
ATOM     95  S   UNL A   1      44.878  25.636  34.206  1.00  0.00     0.124 S 
ATOM     96  O   UNL A   1      43.465  25.536  34.555  1.00  0.00    -0.237 OA
ATOM     97  O   UNL A   1      45.513  24.394  33.777  1.00  0.00    -0.237 OA
ATOM     98  O   UNL A   1      45.679  26.464  35.105  1.00  0.00    -0.744 OA
ENDBRANCH  94  95
ENDBRANCH  62  87
ENDBRANCH  36  37
ENDBRANCH  28  31
ENDBRANCH  26  27
ENDBRANCH  25  26
ENDBRANCH  24  25
ENDBRANCH   3  24
TORSDOF 19
ENDMDL
