MODEL 1
REMARK VINA RESULT:     -13.6      0.000      0.000
REMARK SMILES Cc1nc(COc2ccc(/C=C3\CCc4oc(C(=O)NCCCNC(=O)c5ccc(-c6c7nc(c(-c8c(F)cc(S(=O)(=O)[O-])cc8F)c8ccc([nH]8)c(-c8c(F)cc(S(=O)(=O)[O-])cc8F)c8nc(c(-c9c(F)cc(S(=O)(=O)[O-])cc9F)c9ccc6[nH]9)C=C8)C=C7)cc5)c(C)c4C3=O)cc2)no1
REMARK SMILES IDX 21 1 20 2 18 3 19 4 17 6 11 7 12 8 13 9 96 10 14 11 95 12
REMARK SMILES IDX 97 13 15 14 93 15 16 16 94 17 10 18 7 19 8 20 99 21 9 22
REMARK SMILES IDX 98 23 6 24 5 25 4 26 1 27 2 28 3 29 101 30 100 31 22 32
REMARK SMILES IDX 23 33 24 34 25 35 26 37 27 38 28 39 92 40 29 41 91 42 30 43
REMARK SMILES IDX 31 44 32 45 85 46 33 47 90 48 84 49 86 50 34 51 89 52 83 53
REMARK SMILES IDX 82 54 35 56 69 57 48 58 68 59 49 60 52 61 67 62 87 63 50 64
REMARK SMILES IDX 51 65 66 67 88 68 53 69 36 70 37 71 46 72 38 73 39 74 45 75
REMARK SMILES IDX 47 76 40 77 41 78 42 79 43 80 44 81 70 82 71 83 80 84 72 85
REMARK SMILES IDX 73 86 79 87 81 88 74 89 75 90 76 91 77 92 78 93 54 94 55 95
REMARK SMILES IDX 64 96 56 97 57 98 63 99 65 100 58 101 59 102 60 103 61 104
REMARK SMILES IDX 62 105
REMARK H PARENT 20 5 24 36 86 55 52 66
REMARK Flexibility Score: inf
ROOT
ATOM      1  C   UNL A   1      36.267  20.556  25.057  1.00  0.00     0.118 C 
ENDROOT
BRANCH   1   2
ATOM      2  N   UNL A   1      35.205  19.553  25.070  1.00  0.00    -0.349 N 
ATOM      3  C   UNL A   1      33.838  19.693  24.911  1.00  0.00     0.287 C 
ATOM      4  O   UNL A   1      33.186  18.658  24.778  1.00  0.00    -0.266 OA
ATOM      5  H   UNL A   1      35.512  18.629  25.215  1.00  0.00     0.163 HD
BRANCH   3   6
ATOM      6  C   UNL A   1      33.243  21.018  24.875  1.00  0.00     0.195 A 
ATOM      7  C   UNL A   1      32.348  26.595  24.576  1.00  0.00     0.016 C 
ATOM      8  C   UNL A   1      31.855  25.395  24.937  1.00  0.00     0.001 C 
ATOM      9  C   UNL A   1      31.488  24.908  26.322  1.00  0.00     0.048 C 
ATOM     10  C   UNL A   1      31.826  24.300  23.872  1.00  0.00     0.192 C 
ATOM     11  C   UNL A   1      32.601  23.963  26.794  1.00  0.00     0.081 C 
ATOM     12  C   UNL A   1      32.352  23.044  24.414  1.00  0.00     0.067 A 
ATOM     13  O   UNL A   1      31.479  24.485  22.726  1.00  0.00    -0.289 OA
ATOM     14  C   UNL A   1      32.732  22.949  25.731  1.00  0.00     0.116 A 
ATOM     15  C   UNL A   1      32.583  21.739  23.869  1.00  0.00     0.012 A 
ATOM     16  O   UNL A   1      33.254  21.757  26.026  1.00  0.00    -0.455 OA
ATOM     17  C   UNL A   1      32.200  21.278  22.507  1.00  0.00     0.049 C 
BRANCH   7  18
ATOM     18  C   UNL A   1      32.719  27.743  25.433  1.00  0.00    -0.025 A 
ATOM     19  C   UNL A   1      33.367  30.080  26.914  1.00  0.00     0.120 A 
ATOM     20  C   UNL A   1      34.263  29.024  26.839  1.00  0.00     0.047 A 
ATOM     21  C   UNL A   1      32.169  29.988  26.212  1.00  0.00     0.047 A 
ATOM     22  C   UNL A   1      33.951  27.884  26.089  1.00  0.00     0.012 A 
ATOM     23  C   UNL A   1      31.843  28.830  25.490  1.00  0.00     0.012 A 
BRANCH  19  24
ATOM     24  O   UNL A   1      33.812  31.184  27.587  1.00  0.00    -0.485 OA
BRANCH  24  25
ATOM     25  C   UNL A   1      32.913  32.307  27.641  1.00  0.00     0.310 C 
BRANCH  25  26
ATOM     26  C   UNL A   1      33.540  33.577  28.101  1.00  0.00     0.209 A 
ATOM     27  C   UNL A   1      33.379  36.879  29.369  1.00  0.00     0.114 C 
ATOM     28  C   UNL A   1      33.629  35.524  28.854  1.00  0.00     0.223 A 
ATOM     29  N   UNL A   1      32.861  34.461  28.907  1.00  0.00    -0.193 NA
ATOM     30  O   UNL A   1      34.770  35.335  28.130  1.00  0.00    -0.340 OA
ATOM     31  N   UNL A   1      34.715  34.029  27.639  1.00  0.00    -0.059 NA
ENDBRANCH  25  26
ENDBRANCH  24  25
ENDBRANCH  19  24
ENDBRANCH   7  18
ENDBRANCH   3   6
ENDBRANCH   1   2
BRANCH   1  32
ATOM     32  C   UNL A   1      37.626  20.000  24.610  1.00  0.00     0.042 C 
BRANCH  32  33
ATOM     33  C   UNL A   1      38.727  20.337  25.606  1.00  0.00     0.118 C 
BRANCH  33  34
ATOM     34  N   UNL A   1      39.763  19.292  25.692  1.00  0.00    -0.352 N 
ATOM     35  C   UNL A   1      41.122  19.425  25.934  1.00  0.00     0.251 C 
ATOM     36  H   UNL A   1      39.445  18.370  25.559  1.00  0.00     0.163 HD
ATOM     37  O   UNL A   1      41.896  18.514  25.660  1.00  0.00    -0.269 OA
BRANCH  35  38
ATOM     38  C   UNL A   1      41.617  20.681  26.523  1.00  0.00     0.039 A 
ATOM     39  C   UNL A   1      42.249  21.678  25.772  1.00  0.00     0.014 A 
ATOM     40  C   UNL A   1      41.379  20.866  27.876  1.00  0.00     0.014 A 
ATOM     41  C   UNL A   1      42.551  22.892  26.392  1.00  0.00     0.010 A 
ATOM     42  C   UNL A   1      41.427  22.123  28.396  1.00  0.00     0.010 A 
ATOM     43  C   UNL A   1      42.117  23.109  27.708  1.00  0.00    -0.014 A 
BRANCH  43  44
ATOM     44  C   UNL A   1      42.310  24.371  28.407  1.00  0.00     0.031 A 
ATOM     45  C   UNL A   1      41.214  25.361  28.231  1.00  0.00     0.074 A 
ATOM     46  C   UNL A   1      43.253  24.507  29.367  1.00  0.00     0.049 A 
ATOM     47  N   UNL A   1      41.259  26.496  27.618  1.00  0.00    -0.248 NA
ATOM     48  C   UNL A   1      39.859  24.976  28.661  1.00  0.00     0.031 C 
ATOM     49  C   UNL A   1      44.173  23.491  29.905  1.00  0.00     0.029 A 
ATOM     50  N   UNL A   1      43.499  25.568  30.177  1.00  0.00    -0.354 N 
ATOM     51  C   UNL A   1      40.006  27.078  27.799  1.00  0.00     0.074 A 
ATOM     52  C   UNL A   1      39.139  26.018  28.243  1.00  0.00     0.031 C 
ATOM     53  C   UNL A   1      44.666  23.903  31.093  1.00  0.00     0.029 A 
ATOM     54  C   UNL A   1      44.257  25.277  31.306  1.00  0.00     0.049 A 
ATOM     55  H   UNL A   1      43.165  26.473  29.981  1.00  0.00     0.167 HD
ATOM     56  C   UNL A   1      39.847  28.432  27.813  1.00  0.00     0.037 A 
ATOM     57  C   UNL A   1      44.494  26.106  32.354  1.00  0.00     0.037 A 
ATOM     58  C   UNL A   1      41.022  29.095  27.298  1.00  0.00     0.049 A 
ATOM     59  C   UNL A   1      44.214  27.487  31.870  1.00  0.00     0.074 A 
ATOM     60  C   UNL A   1      41.721  29.039  26.107  1.00  0.00     0.029 A 
ATOM     61  N   UNL A   1      41.885  29.666  28.205  1.00  0.00    -0.354 N 
ATOM     62  N   UNL A   1      44.913  28.085  30.941  1.00  0.00    -0.248 NA
ATOM     63  C   UNL A   1      42.868  28.004  32.064  1.00  0.00     0.031 C 
ATOM     64  C   UNL A   1      43.095  29.090  26.486  1.00  0.00     0.029 A 
ATOM     65  C   UNL A   1      43.152  29.256  27.871  1.00  0.00     0.049 A 
ATOM     66  H   UNL A   1      41.640  30.258  28.953  1.00  0.00     0.167 HD
ATOM     67  C   UNL A   1      43.978  28.753  30.160  1.00  0.00     0.074 A 
ATOM     68  C   UNL A   1      42.744  28.726  30.946  1.00  0.00     0.031 C 
ATOM     69  C   UNL A   1      44.202  29.005  28.836  1.00  0.00     0.037 A 
BRANCH  56  70
ATOM     70  C   UNL A   1      38.802  29.175  28.619  1.00  0.00     0.058 A 
ATOM     71  C   UNL A   1      37.940  30.075  27.958  1.00  0.00     0.135 A 
ATOM     72  C   UNL A   1      38.792  29.255  30.030  1.00  0.00     0.135 A 
ATOM     73  F   UNL A   1      37.861  30.089  26.618  1.00  0.00    -0.206 F 
ATOM     74  C   UNL A   1      37.197  31.041  28.640  1.00  0.00     0.059 A 
ATOM     75  C   UNL A   1      38.016  30.171  30.732  1.00  0.00     0.059 A 
ATOM     76  F   UNL A   1      39.605  28.522  30.799  1.00  0.00    -0.206 F 
ATOM     77  C   UNL A   1      37.259  31.091  30.028  1.00  0.00     0.060 A 
BRANCH  77  78
ATOM     78  S   UNL A   1      36.399  32.408  30.905  1.00  0.00     0.124 S 
ATOM     79  O   UNL A   1      36.829  33.582  30.154  1.00  0.00    -0.237 OA
ATOM     80  O   UNL A   1      35.003  32.019  30.743  1.00  0.00    -0.237 OA
ATOM     81  O   UNL A   1      36.920  32.300  32.265  1.00  0.00    -0.744 OA
ENDBRANCH  77  78
ENDBRANCH  56  70
BRANCH  57  82
ATOM     82  C   UNL A   1      44.588  25.753  33.796  1.00  0.00     0.058 A 
ATOM     83  C   UNL A   1      45.837  25.618  34.431  1.00  0.00     0.135 A 
ATOM     84  C   UNL A   1      43.466  25.817  34.650  1.00  0.00     0.135 A 
ATOM     85  F   UNL A   1      46.960  25.565  33.700  1.00  0.00    -0.206 F 
ATOM     86  C   UNL A   1      45.970  25.603  35.825  1.00  0.00     0.059 A 
ATOM     87  C   UNL A   1      43.573  25.794  36.041  1.00  0.00     0.059 A 
ATOM     88  F   UNL A   1      42.232  25.998  34.157  1.00  0.00    -0.206 F 
ATOM     89  C   UNL A   1      44.831  25.715  36.623  1.00  0.00     0.060 A 
BRANCH  89  90
ATOM     90  S   UNL A   1      45.014  25.888  38.416  1.00  0.00     0.124 S 
ATOM     91  O   UNL A   1      45.277  24.514  38.827  1.00  0.00    -0.237 OA
ATOM     92  O   UNL A   1      46.138  26.812  38.524  1.00  0.00    -0.237 OA
ATOM     93  O   UNL A   1      43.725  26.430  38.837  1.00  0.00    -0.744 OA
ENDBRANCH  89  90
ENDBRANCH  57  82
BRANCH  69  94
ATOM     94  C   UNL A   1      45.588  28.789  28.277  1.00  0.00     0.058 A 
ATOM     95  C   UNL A   1      46.038  27.587  27.701  1.00  0.00     0.135 A 
ATOM     96  C   UNL A   1      46.433  29.903  28.161  1.00  0.00     0.135 A 
ATOM     97  F   UNL A   1      45.257  26.500  27.670  1.00  0.00    -0.206 F 
ATOM     98  C   UNL A   1      47.282  27.488  27.072  1.00  0.00     0.059 A 
ATOM     99  C   UNL A   1      47.663  29.837  27.511  1.00  0.00     0.059 A 
ATOM    100  F   UNL A   1      46.038  31.097  28.632  1.00  0.00    -0.206 F 
ATOM    101  C   UNL A   1      48.088  28.622  26.979  1.00  0.00     0.060 A 
BRANCH 101 102
ATOM    102  S   UNL A   1      49.661  28.515  26.099  1.00  0.00     0.124 S 
ATOM    103  O   UNL A   1      50.386  27.520  26.882  1.00  0.00    -0.237 OA
ATOM    104  O   UNL A   1      49.250  28.094  24.762  1.00  0.00    -0.237 OA
ATOM    105  O   UNL A   1      50.189  29.875  26.177  1.00  0.00    -0.744 OA
ENDBRANCH 101 102
ENDBRANCH  69  94
ENDBRANCH  43  44
ENDBRANCH  35  38
ENDBRANCH  33  34
ENDBRANCH  32  33
ENDBRANCH   1  32
TORSDOF 17
ENDMDL
MODEL 2
REMARK VINA RESULT:     -12.6      4.557     10.785
REMARK SMILES Cc1nc(COc2ccc(/C=C3\CCc4oc(C(=O)NCCCNC(=O)c5ccc(-c6c7nc(c(-c8c(F)cc(S(=O)(=O)[O-])cc8F)c8ccc([nH]8)c(-c8c(F)cc(S(=O)(=O)[O-])cc8F)c8nc(c(-c9c(F)cc(S(=O)(=O)[O-])cc9F)c9ccc6[nH]9)C=C8)C=C7)cc5)c(C)c4C3=O)cc2)no1
REMARK SMILES IDX 21 1 20 2 18 3 19 4 17 6 11 7 12 8 13 9 96 10 14 11 95 12
REMARK SMILES IDX 97 13 15 14 93 15 16 16 94 17 10 18 7 19 8 20 99 21 9 22
REMARK SMILES IDX 98 23 6 24 5 25 4 26 1 27 2 28 3 29 101 30 100 31 22 32
REMARK SMILES IDX 23 33 24 34 25 35 26 37 27 38 28 39 92 40 29 41 91 42 30 43
REMARK SMILES IDX 31 44 32 45 85 46 33 47 90 48 84 49 86 50 34 51 89 52 83 53
REMARK SMILES IDX 82 54 35 56 69 57 48 58 68 59 49 60 52 61 67 62 87 63 50 64
REMARK SMILES IDX 51 65 66 67 88 68 53 69 36 70 37 71 46 72 38 73 39 74 45 75
REMARK SMILES IDX 47 76 40 77 41 78 42 79 43 80 44 81 70 82 71 83 80 84 72 85
REMARK SMILES IDX 73 86 79 87 81 88 74 89 75 90 76 91 77 92 78 93 54 94 55 95
REMARK SMILES IDX 64 96 56 97 57 98 63 99 65 100 58 101 59 102 60 103 61 104
REMARK SMILES IDX 62 105
REMARK H PARENT 20 5 24 36 86 55 52 66
REMARK Flexibility Score: inf
ROOT
ATOM      1  C   UNL A   1      45.985  27.276  27.714  1.00  0.00     0.118 C 
ENDROOT
BRANCH   1   2
ATOM      2  N   UNL A   1      46.296  26.795  26.369  1.00  0.00    -0.349 N 
ATOM      3  C   UNL A   1      45.589  25.948  25.536  1.00  0.00     0.287 C 
ATOM      4  O   UNL A   1      45.985  25.853  24.375  1.00  0.00    -0.266 OA
ATOM      5  H   UNL A   1      47.144  27.128  25.998  1.00  0.00     0.163 HD
BRANCH   3   6
ATOM      6  C   UNL A   1      44.417  25.247  26.035  1.00  0.00     0.195 A 
ATOM      7  C   UNL A   1      39.685  22.189  26.532  1.00  0.00     0.016 C 
ATOM      8  C   UNL A   1      40.502  23.097  27.100  1.00  0.00     0.001 C 
ATOM      9  C   UNL A   1      40.202  24.536  27.461  1.00  0.00     0.048 C 
ATOM     10  C   UNL A   1      41.976  22.721  27.239  1.00  0.00     0.192 C 
ATOM     11  C   UNL A   1      40.868  25.429  26.406  1.00  0.00     0.081 C 
ATOM     12  C   UNL A   1      42.830  23.824  26.790  1.00  0.00     0.067 A 
ATOM     13  O   UNL A   1      42.363  21.633  27.605  1.00  0.00    -0.289 OA
ATOM     14  C   UNL A   1      42.284  25.017  26.379  1.00  0.00     0.116 A 
ATOM     15  C   UNL A   1      44.246  24.008  26.670  1.00  0.00     0.012 A 
ATOM     16  O   UNL A   1      43.206  25.875  25.937  1.00  0.00    -0.455 OA
ATOM     17  C   UNL A   1      45.294  23.055  27.125  1.00  0.00     0.049 C 
BRANCH   7  18
ATOM     18  C   UNL A   1      38.295  22.361  26.054  1.00  0.00    -0.025 A 
ATOM     19  C   UNL A   1      35.699  22.644  24.933  1.00  0.00     0.120 A 
ATOM     20  C   UNL A   1      36.198  23.603  25.802  1.00  0.00     0.047 A 
ATOM     21  C   UNL A   1      36.513  21.570  24.589  1.00  0.00     0.047 A 
ATOM     22  C   UNL A   1      37.486  23.472  26.334  1.00  0.00     0.012 A 
ATOM     23  C   UNL A   1      37.790  21.423  25.150  1.00  0.00     0.012 A 
BRANCH  19  24
ATOM     24  O   UNL A   1      34.473  22.918  24.394  1.00  0.00    -0.485 OA
BRANCH  24  25
ATOM     25  C   UNL A   1      34.469  23.505  23.079  1.00  0.00     0.310 C 
BRANCH  25  26
ATOM     26  C   UNL A   1      33.776  24.821  22.993  1.00  0.00     0.209 A 
ATOM     27  C   UNL A   1      33.587  28.210  21.989  1.00  0.00     0.114 C 
ATOM     28  C   UNL A   1      33.493  26.824  22.470  1.00  0.00     0.223 A 
ATOM     29  N   UNL A   1      34.122  25.754  22.043  1.00  0.00    -0.193 NA
ATOM     30  O   UNL A   1      32.727  26.599  23.575  1.00  0.00    -0.340 OA
ATOM     31  N   UNL A   1      32.906  25.257  23.916  1.00  0.00    -0.059 NA
ENDBRANCH  25  26
ENDBRANCH  24  25
ENDBRANCH  19  24
ENDBRANCH   7  18
ENDBRANCH   3   6
ENDBRANCH   1   2
BRANCH   1  32
ATOM     32  C   UNL A   1      47.109  27.021  28.727  1.00  0.00     0.042 C 
BRANCH  32  33
ATOM     33  C   UNL A   1      46.568  26.496  30.049  1.00  0.00     0.118 C 
BRANCH  33  34
ATOM     34  N   UNL A   1      45.740  25.288  29.892  1.00  0.00    -0.352 N 
ATOM     35  C   UNL A   1      44.415  25.081  30.247  1.00  0.00     0.251 C 
ATOM     36  H   UNL A   1      46.192  24.518  29.477  1.00  0.00     0.163 HD
ATOM     37  O   UNL A   1      43.967  23.944  30.350  1.00  0.00    -0.269 OA
BRANCH  35  38
ATOM     38  C   UNL A   1      43.560  26.254  30.501  1.00  0.00     0.039 A 
ATOM     39  C   UNL A   1      43.548  26.939  31.720  1.00  0.00     0.014 A 
ATOM     40  C   UNL A   1      42.785  26.694  29.440  1.00  0.00     0.014 A 
ATOM     41  C   UNL A   1      42.814  28.122  31.815  1.00  0.00     0.010 A 
ATOM     42  C   UNL A   1      42.299  27.966  29.452  1.00  0.00     0.010 A 
ATOM     43  C   UNL A   1      42.204  28.636  30.662  1.00  0.00    -0.014 A 
BRANCH  43  44
ATOM     44  C   UNL A   1      41.489  29.905  30.644  1.00  0.00     0.031 A 
ATOM     45  C   UNL A   1      42.322  31.090  30.308  1.00  0.00     0.074 A 
ATOM     46  C   UNL A   1      40.136  29.951  30.634  1.00  0.00     0.049 A 
ATOM     47  N   UNL A   1      42.641  32.080  31.074  1.00  0.00    -0.248 NA
ATOM     48  C   UNL A   1      43.009  31.106  29.007  1.00  0.00     0.031 C 
ATOM     49  C   UNL A   1      39.177  28.836  30.593  1.00  0.00     0.029 A 
ATOM     50  N   UNL A   1      39.321  31.029  30.519  1.00  0.00    -0.354 N 
ATOM     51  C   UNL A   1      43.363  32.964  30.275  1.00  0.00     0.074 A 
ATOM     52  C   UNL A   1      43.741  32.218  29.104  1.00  0.00     0.031 C 
ATOM     53  C   UNL A   1      37.966  29.288  30.201  1.00  0.00     0.029 A 
ATOM     54  C   UNL A   1      38.012  30.735  30.154  1.00  0.00     0.049 A 
ATOM     55  H   UNL A   1      39.633  31.949  30.680  1.00  0.00     0.167 HD
ATOM     56  C   UNL A   1      43.372  34.304  30.526  1.00  0.00     0.037 A 
ATOM     57  C   UNL A   1      37.052  31.628  29.803  1.00  0.00     0.037 A 
ATOM     58  C   UNL A   1      42.852  34.585  31.844  1.00  0.00     0.049 A 
ATOM     59  C   UNL A   1      37.494  32.949  30.330  1.00  0.00     0.074 A 
ATOM     60  C   UNL A   1      43.194  34.190  33.124  1.00  0.00     0.029 A 
ATOM     61  N   UNL A   1      41.564  35.060  31.937  1.00  0.00    -0.354 N 
ATOM     62  N   UNL A   1      37.607  33.221  31.604  1.00  0.00    -0.248 NA
ATOM     63  C   UNL A   1      38.278  33.795  29.443  1.00  0.00     0.031 C 
ATOM     64  C   UNL A   1      41.949  33.967  33.783  1.00  0.00     0.029 A 
ATOM     65  C   UNL A   1      40.927  34.316  32.899  1.00  0.00     0.049 A 
ATOM     66  H   UNL A   1      41.173  35.797  31.413  1.00  0.00     0.167 HD
ATOM     67  C   UNL A   1      38.771  33.971  31.711  1.00  0.00     0.074 A 
ATOM     68  C   UNL A   1      39.099  34.354  30.337  1.00  0.00     0.031 C 
ATOM     69  C   UNL A   1      39.523  33.966  32.853  1.00  0.00     0.037 A 
BRANCH  56  70
ATOM     70  C   UNL A   1      43.498  35.384  29.473  1.00  0.00     0.058 A 
ATOM     71  C   UNL A   1      44.524  36.345  29.596  1.00  0.00     0.135 A 
ATOM     72  C   UNL A   1      42.502  35.683  28.516  1.00  0.00     0.135 A 
ATOM     73  F   UNL A   1      45.527  36.167  30.470  1.00  0.00    -0.206 F 
ATOM     74  C   UNL A   1      44.513  37.549  28.891  1.00  0.00     0.059 A 
ATOM     75  C   UNL A   1      42.503  36.851  27.760  1.00  0.00     0.059 A 
ATOM     76  F   UNL A   1      41.426  34.912  28.330  1.00  0.00    -0.206 F 
ATOM     77  C   UNL A   1      43.484  37.800  27.989  1.00  0.00     0.060 A 
BRANCH  77  78
ATOM     78  S   UNL A   1      43.398  39.399  27.167  1.00  0.00     0.124 S 
ATOM     79  O   UNL A   1      43.462  40.311  28.304  1.00  0.00    -0.237 OA
ATOM     80  O   UNL A   1      44.576  39.363  26.308  1.00  0.00    -0.237 OA
ATOM     81  O   UNL A   1      42.117  39.348  26.468  1.00  0.00    -0.744 OA
ENDBRANCH  77  78
ENDBRANCH  56  70
BRANCH  57  82
ATOM     82  C   UNL A   1      35.999  31.478  28.763  1.00  0.00     0.058 A 
ATOM     83  C   UNL A   1      36.105  30.501  27.756  1.00  0.00     0.135 A 
ATOM     84  C   UNL A   1      34.735  32.094  28.894  1.00  0.00     0.135 A 
ATOM     85  F   UNL A   1      37.265  29.852  27.569  1.00  0.00    -0.206 F 
ATOM     86  C   UNL A   1      35.015  30.118  26.966  1.00  0.00     0.059 A 
ATOM     87  C   UNL A   1      33.636  31.736  28.111  1.00  0.00     0.059 A 
ATOM     88  F   UNL A   1      34.504  33.001  29.854  1.00  0.00    -0.206 F 
ATOM     89  C   UNL A   1      33.776  30.727  27.168  1.00  0.00     0.060 A 
BRANCH  89  90
ATOM     90  S   UNL A   1      32.324  30.105  26.284  1.00  0.00     0.124 S 
ATOM     91  O   UNL A   1      31.487  31.297  26.201  1.00  0.00    -0.237 OA
ATOM     92  O   UNL A   1      32.901  29.643  25.027  1.00  0.00    -0.237 OA
ATOM     93  O   UNL A   1      31.821  29.049  27.159  1.00  0.00    -0.744 OA
ENDBRANCH  89  90
ENDBRANCH  57  82
BRANCH  69  94
ATOM     94  C   UNL A   1      38.944  33.347  34.102  1.00  0.00     0.058 A 
ATOM     95  C   UNL A   1      39.094  31.996  34.467  1.00  0.00     0.135 A 
ATOM     96  C   UNL A   1      38.369  34.200  35.056  1.00  0.00     0.135 A 
ATOM     97  F   UNL A   1      39.727  31.129  33.665  1.00  0.00    -0.206 F 
ATOM     98  C   UNL A   1      38.660  31.510  35.703  1.00  0.00     0.059 A 
ATOM     99  C   UNL A   1      37.957  33.745  36.306  1.00  0.00     0.059 A 
ATOM    100  F   UNL A   1      38.254  35.513  34.799  1.00  0.00    -0.206 F 
ATOM    101  C   UNL A   1      38.094  32.396  36.619  1.00  0.00     0.060 A 
BRANCH 101 102
ATOM    102  S   UNL A   1      37.605  31.785  38.247  1.00  0.00     0.124 S 
ATOM    103  O   UNL A   1      36.420  32.588  38.533  1.00  0.00    -0.237 OA
ATOM    104  O   UNL A   1      37.364  30.366  37.996  1.00  0.00    -0.237 OA
ATOM    105  O   UNL A   1      38.768  32.071  39.083  1.00  0.00    -0.744 OA
ENDBRANCH 101 102
ENDBRANCH  69  94
ENDBRANCH  43  44
ENDBRANCH  35  38
ENDBRANCH  33  34
ENDBRANCH  32  33
ENDBRANCH   1  32
TORSDOF 17
ENDMDL
MODEL 3
REMARK VINA RESULT:     -12.1      3.054     10.289
REMARK SMILES Cc1nc(COc2ccc(/C=C3\CCc4oc(C(=O)NCCCNC(=O)c5ccc(-c6c7nc(c(-c8c(F)cc(S(=O)(=O)[O-])cc8F)c8ccc([nH]8)c(-c8c(F)cc(S(=O)(=O)[O-])cc8F)c8nc(c(-c9c(F)cc(S(=O)(=O)[O-])cc9F)c9ccc6[nH]9)C=C8)C=C7)cc5)c(C)c4C3=O)cc2)no1
REMARK SMILES IDX 21 1 20 2 18 3 19 4 17 6 11 7 12 8 13 9 96 10 14 11 95 12
REMARK SMILES IDX 97 13 15 14 93 15 16 16 94 17 10 18 7 19 8 20 99 21 9 22
REMARK SMILES IDX 98 23 6 24 5 25 4 26 1 27 2 28 3 29 101 30 100 31 22 32
REMARK SMILES IDX 23 33 24 34 25 35 26 37 27 38 28 39 92 40 29 41 91 42 30 43
REMARK SMILES IDX 31 44 32 45 85 46 33 47 90 48 84 49 86 50 34 51 89 52 83 53
REMARK SMILES IDX 82 54 35 56 69 57 48 58 68 59 49 60 52 61 67 62 87 63 50 64
REMARK SMILES IDX 51 65 66 67 88 68 53 69 36 70 37 71 46 72 38 73 39 74 45 75
REMARK SMILES IDX 47 76 40 77 41 78 42 79 43 80 44 81 70 82 71 83 80 84 72 85
REMARK SMILES IDX 73 86 79 87 81 88 74 89 75 90 76 91 77 92 78 93 54 94 55 95
REMARK SMILES IDX 64 96 56 97 57 98 63 99 65 100 58 101 59 102 60 103 61 104
REMARK SMILES IDX 62 105
REMARK H PARENT 20 5 24 36 86 55 52 66
REMARK Flexibility Score: inf
ROOT
ATOM      1  C   UNL A   1      37.072  31.791  33.649  1.00  0.00     0.118 C 
ENDROOT
BRANCH   1   2
ATOM      2  N   UNL A   1      36.913  33.221  33.904  1.00  0.00    -0.349 N 
ATOM      3  C   UNL A   1      36.247  34.192  33.178  1.00  0.00     0.287 C 
ATOM      4  O   UNL A   1      36.108  35.290  33.716  1.00  0.00    -0.266 OA
ATOM      5  H   UNL A   1      37.349  33.545  34.725  1.00  0.00     0.163 HD
BRANCH   3   6
ATOM      6  C   UNL A   1      35.720  33.881  31.860  1.00  0.00     0.195 A 
ATOM      7  C   UNL A   1      33.018  31.549  27.471  1.00  0.00     0.016 C 
ATOM      8  C   UNL A   1      34.006  32.370  27.877  1.00  0.00     0.001 C 
ATOM      9  C   UNL A   1      35.498  32.213  27.679  1.00  0.00     0.048 C 
ATOM     10  C   UNL A   1      33.625  33.513  28.816  1.00  0.00     0.192 C 
ATOM     11  C   UNL A   1      36.099  31.753  29.014  1.00  0.00     0.081 C 
ATOM     12  C   UNL A   1      34.565  33.588  29.938  1.00  0.00     0.067 A 
ATOM     13  O   UNL A   1      32.640  34.204  28.672  1.00  0.00    -0.289 OA
ATOM     14  C   UNL A   1      35.646  32.742  30.010  1.00  0.00     0.116 A 
ATOM     15  C   UNL A   1      34.670  34.418  31.101  1.00  0.00     0.012 A 
ATOM     16  O   UNL A   1      36.347  32.904  31.135  1.00  0.00    -0.455 OA
ATOM     17  C   UNL A   1      33.816  35.594  31.417  1.00  0.00     0.049 C 
BRANCH   7  18
ATOM     18  C   UNL A   1      33.119  30.246  26.777  1.00  0.00    -0.025 A 
ATOM     19  C   UNL A   1      33.527  27.745  25.493  1.00  0.00     0.120 A 
ATOM     20  C   UNL A   1      32.814  28.752  24.859  1.00  0.00     0.047 A 
ATOM     21  C   UNL A   1      34.075  28.003  26.745  1.00  0.00     0.047 A 
ATOM     22  C   UNL A   1      32.635  29.991  25.485  1.00  0.00     0.012 A 
ATOM     23  C   UNL A   1      33.864  29.233  27.385  1.00  0.00     0.012 A 
BRANCH  19  24
ATOM     24  O   UNL A   1      33.730  26.612  24.754  1.00  0.00    -0.485 OA
BRANCH  24  25
ATOM     25  C   UNL A   1      32.804  26.376  23.676  1.00  0.00     0.310 C 
BRANCH  25  26
ATOM     26  C   UNL A   1      32.997  25.078  22.972  1.00  0.00     0.209 A 
ATOM     27  C   UNL A   1      32.225  21.669  22.405  1.00  0.00     0.114 C 
ATOM     28  C   UNL A   1      32.664  23.070  22.499  1.00  0.00     0.223 A 
ATOM     29  N   UNL A   1      32.017  24.111  22.969  1.00  0.00    -0.193 NA
ATOM     30  O   UNL A   1      33.952  23.343  22.146  1.00  0.00    -0.340 OA
ATOM     31  N   UNL A   1      34.169  24.689  22.449  1.00  0.00    -0.059 NA
ENDBRANCH  25  26
ENDBRANCH  24  25
ENDBRANCH  19  24
ENDBRANCH   7  18
ENDBRANCH   3   6
ENDBRANCH   1   2
BRANCH   1  32
ATOM     32  C   UNL A   1      38.402  31.438  32.968  1.00  0.00     0.042 C 
BRANCH  32  33
ATOM     33  C   UNL A   1      39.386  32.598  33.019  1.00  0.00     0.118 C 
BRANCH  33  34
ATOM     34  N   UNL A   1      39.290  33.485  31.846  1.00  0.00    -0.352 N 
ATOM     35  C   UNL A   1      40.020  33.460  30.667  1.00  0.00     0.251 C 
ATOM     36  H   UNL A   1      38.611  34.195  31.908  1.00  0.00     0.163 HD
ATOM     37  O   UNL A   1      40.051  34.441  29.933  1.00  0.00    -0.269 OA
BRANCH  35  38
ATOM     38  C   UNL A   1      40.761  32.235  30.319  1.00  0.00     0.039 A 
ATOM     39  C   UNL A   1      42.150  32.122  30.443  1.00  0.00     0.014 A 
ATOM     40  C   UNL A   1      40.003  31.153  29.902  1.00  0.00     0.014 A 
ATOM     41  C   UNL A   1      42.741  30.876  30.227  1.00  0.00     0.010 A 
ATOM     42  C   UNL A   1      40.539  29.902  29.956  1.00  0.00     0.010 A 
ATOM     43  C   UNL A   1      41.918  29.765  29.999  1.00  0.00    -0.014 A 
BRANCH  43  44
ATOM     44  C   UNL A   1      42.438  28.413  29.847  1.00  0.00     0.031 A 
ATOM     45  C   UNL A   1      43.122  27.865  31.048  1.00  0.00     0.074 A 
ATOM     46  C   UNL A   1      42.062  27.627  28.811  1.00  0.00     0.049 A 
ATOM     47  N   UNL A   1      44.373  27.580  31.189  1.00  0.00    -0.248 NA
ATOM     48  C   UNL A   1      42.348  27.757  32.296  1.00  0.00     0.031 C 
ATOM     49  C   UNL A   1      41.097  27.915  27.738  1.00  0.00     0.029 A 
ATOM     50  N   UNL A   1      42.368  26.326  28.575  1.00  0.00    -0.354 N 
ATOM     51  C   UNL A   1      44.498  27.027  32.462  1.00  0.00     0.074 A 
ATOM     52  C   UNL A   1      43.286  27.366  33.160  1.00  0.00     0.031 C 
ATOM     53  C   UNL A   1      40.711  26.763  27.148  1.00  0.00     0.029 A 
ATOM     54  C   UNL A   1      41.537  25.688  27.660  1.00  0.00     0.049 A 
ATOM     55  H   UNL A   1      43.119  25.869  29.017  1.00  0.00     0.167 HD
ATOM     56  C   UNL A   1      45.475  26.120  32.750  1.00  0.00     0.037 A 
ATOM     57  C   UNL A   1      41.514  24.360  27.380  1.00  0.00     0.037 A 
ATOM     58  C   UNL A   1      46.484  26.104  31.717  1.00  0.00     0.049 A 
ATOM     59  C   UNL A   1      42.815  23.809  27.850  1.00  0.00     0.074 A 
ATOM     60  C   UNL A   1      47.321  27.057  31.165  1.00  0.00     0.029 A 
ATOM     61  N   UNL A   1      46.456  25.070  30.810  1.00  0.00    -0.354 N 
ATOM     62  N   UNL A   1      43.970  24.134  27.332  1.00  0.00    -0.248 NA
ATOM     63  C   UNL A   1      42.869  23.286  29.208  1.00  0.00     0.031 C 
ATOM     64  C   UNL A   1      47.325  26.775  29.767  1.00  0.00     0.029 A 
ATOM     65  C   UNL A   1      46.561  25.625  29.559  1.00  0.00     0.049 A 
ATOM     66  H   UNL A   1      46.377  24.110  31.019  1.00  0.00     0.167 HD
ATOM     67  C   UNL A   1      44.830  24.256  28.415  1.00  0.00     0.074 A 
ATOM     68  C   UNL A   1      44.112  23.648  29.536  1.00  0.00     0.031 C 
ATOM     69  C   UNL A   1      45.911  25.093  28.380  1.00  0.00     0.037 A 
BRANCH  56  70
ATOM     70  C   UNL A   1      45.348  24.997  33.757  1.00  0.00     0.058 A 
ATOM     71  C   UNL A   1      46.231  24.959  34.857  1.00  0.00     0.135 A 
ATOM     72  C   UNL A   1      44.596  23.819  33.545  1.00  0.00     0.135 A 
ATOM     73  F   UNL A   1      46.994  26.022  35.159  1.00  0.00    -0.206 F 
ATOM     74  C   UNL A   1      46.420  23.812  35.628  1.00  0.00     0.059 A 
ATOM     75  C   UNL A   1      44.727  22.684  34.338  1.00  0.00     0.059 A 
ATOM     76  F   UNL A   1      43.771  23.668  32.504  1.00  0.00    -0.206 F 
ATOM     77  C   UNL A   1      45.675  22.672  35.346  1.00  0.00     0.060 A 
BRANCH  77  78
ATOM     78  S   UNL A   1      45.999  21.154  36.259  1.00  0.00     0.124 S 
ATOM     79  O   UNL A   1      45.583  21.532  37.604  1.00  0.00    -0.237 OA
ATOM     80  O   UNL A   1      45.143  20.197  35.569  1.00  0.00    -0.237 OA
ATOM     81  O   UNL A   1      47.434  20.952  36.073  1.00  0.00    -0.744 OA
ENDBRANCH  77  78
ENDBRANCH  56  70
BRANCH  57  82
ATOM     82  C   UNL A   1      40.331  23.510  27.077  1.00  0.00     0.058 A 
ATOM     83  C   UNL A   1      39.046  24.068  26.955  1.00  0.00     0.135 A 
ATOM     84  C   UNL A   1      40.472  22.180  26.623  1.00  0.00     0.135 A 
ATOM     85  F   UNL A   1      38.822  25.332  27.346  1.00  0.00    -0.206 F 
ATOM     86  C   UNL A   1      37.980  23.374  26.369  1.00  0.00     0.059 A 
ATOM     87  C   UNL A   1      39.423  21.465  26.045  1.00  0.00     0.059 A 
ATOM     88  F   UNL A   1      41.664  21.566  26.642  1.00  0.00    -0.206 F 
ATOM     89  C   UNL A   1      38.186  22.078  25.895  1.00  0.00     0.060 A 
BRANCH  89  90
ATOM     90  S   UNL A   1      36.869  21.250  24.969  1.00  0.00     0.124 S 
ATOM     91  O   UNL A   1      35.763  21.285  25.918  1.00  0.00    -0.237 OA
ATOM     92  O   UNL A   1      36.730  22.107  23.796  1.00  0.00    -0.237 OA
ATOM     93  O   UNL A   1      37.423  19.924  24.704  1.00  0.00    -0.744 OA
ENDBRANCH  89  90
ENDBRANCH  57  82
BRANCH  69  94
ATOM     94  C   UNL A   1      46.324  25.693  27.057  1.00  0.00     0.058 A 
ATOM     95  C   UNL A   1      45.872  26.931  26.567  1.00  0.00     0.135 A 
ATOM     96  C   UNL A   1      47.358  25.069  26.344  1.00  0.00     0.135 A 
ATOM     97  F   UNL A   1      44.963  27.651  27.238  1.00  0.00    -0.206 F 
ATOM     98  C   UNL A   1      46.395  27.503  25.404  1.00  0.00     0.059 A 
ATOM     99  C   UNL A   1      47.918  25.634  25.201  1.00  0.00     0.059 A 
ATOM    100  F   UNL A   1      47.881  23.916  26.792  1.00  0.00    -0.206 F 
ATOM    101  C   UNL A   1      47.424  26.847  24.729  1.00  0.00     0.060 A 
BRANCH 101 102
ATOM    102  S   UNL A   1      48.156  27.622  23.271  1.00  0.00     0.124 S 
ATOM    103  O   UNL A   1      47.145  28.609  22.907  1.00  0.00    -0.237 OA
ATOM    104  O   UNL A   1      49.409  28.160  23.793  1.00  0.00    -0.237 OA
ATOM    105  O   UNL A   1      48.309  26.511  22.335  1.00  0.00    -0.744 OA
ENDBRANCH 101 102
ENDBRANCH  69  94
ENDBRANCH  43  44
ENDBRANCH  35  38
ENDBRANCH  33  34
ENDBRANCH  32  33
ENDBRANCH   1  32
TORSDOF 17
ENDMDL
