MODEL 1
REMARK VINA RESULT:     -10.9      0.000      0.000
REMARK SMILES CC(C)(C(=O)NCCCNC(=O)c1ccc(-c2c3nc(c(-c4c(F)cc(S(=O)(=O)[O-])cc4F)c4ccc([nH]4)c(-c4c(F)cc(S(=O)(=O)[O-])cc4F)c4nc(c(-c5c(F)cc(S(=O)(=O)[O-])cc5F)c5ccc2[nH]5)C=C4)C=C3)cc1)c1ccc(C(=O)CCCCl)cc1
REMARK SMILES IDX 7 1 6 2 4 3 5 4 2 6 1 7 3 8 79 9 80 10 90 11 81 12 89 13
REMARK SMILES IDX 82 14 83 15 84 16 85 17 86 18 87 19 88 20 8 21 9 22 10 23
REMARK SMILES IDX 11 24 12 26 13 27 14 28 78 29 15 30 77 31 16 32 17 33 18 34
REMARK SMILES IDX 71 35 19 36 76 37 70 38 72 39 20 40 75 41 69 42 68 43 21 45
REMARK SMILES IDX 55 46 34 47 54 48 35 49 38 50 53 51 73 52 36 53 37 54 52 56
REMARK SMILES IDX 74 57 39 58 22 59 23 60 32 61 24 62 25 63 31 64 33 65 26 66
REMARK SMILES IDX 27 67 28 68 29 69 30 70 56 71 57 72 66 73 58 74 59 75 65 76
REMARK SMILES IDX 67 77 60 78 61 79 62 80 63 81 64 82 40 83 41 84 50 85 42 86
REMARK SMILES IDX 43 87 49 88 51 89 44 90 45 91 46 92 47 93 48 94
REMARK H PARENT 6 5 10 25 72 44 38 55
REMARK Flexibility Score: inf
ROOT
ATOM      1  C   UNL A   1      34.394  29.007  26.554  1.00  0.00     0.117 C 
ENDROOT
BRANCH   1   2
ATOM      2  N   UNL A   1      33.922  29.254  25.202  1.00  0.00    -0.355 N 
ATOM      3  C   UNL A   1      32.877  28.763  24.477  1.00  0.00     0.230 C 
ATOM      4  O   UNL A   1      32.686  29.336  23.398  1.00  0.00    -0.274 OA
ATOM      5  H   UNL A   1      34.468  29.908  24.709  1.00  0.00     0.163 HD
BRANCH   3   6
ATOM      6  C   UNL A   1      31.947  27.622  24.999  1.00  0.00     0.068 C 
ATOM      7  C   UNL A   1      31.522  27.852  26.462  1.00  0.00     0.026 C 
ATOM      8  C   UNL A   1      30.730  27.598  24.044  1.00  0.00     0.026 C 
BRANCH   6   9
ATOM      9  C   UNL A   1      32.650  26.231  25.009  1.00  0.00    -0.033 A 
ATOM     10  C   UNL A   1      33.404  25.782  23.909  1.00  0.00     0.005 A 
ATOM     11  C   UNL A   1      32.506  25.347  26.093  1.00  0.00     0.005 A 
ATOM     12  C   UNL A   1      34.095  24.570  23.949  1.00  0.00     0.012 A 
ATOM     13  C   UNL A   1      33.194  24.129  26.137  1.00  0.00     0.012 A 
ATOM     14  C   UNL A   1      34.039  23.767  25.088  1.00  0.00     0.018 A 
BRANCH  14  15
ATOM     15  C   UNL A   1      34.944  22.587  25.153  1.00  0.00     0.162 C 
ATOM     16  O   UNL A   1      34.726  21.619  24.426  1.00  0.00    -0.294 OA
BRANCH  15  17
ATOM     17  C   UNL A   1      36.181  22.635  26.032  1.00  0.00     0.082 C 
BRANCH  17  18
ATOM     18  C   UNL A   1      37.238  23.613  25.509  1.00  0.00     0.024 C 
BRANCH  18  19
ATOM     19  C   UNL A   1      38.337  24.007  26.494  1.00  0.00     0.110 C 
ATOM     20  Cl  UNL A   1      39.633  22.790  26.557  1.00  0.00    -0.127 Cl
ENDBRANCH  18  19
ENDBRANCH  17  18
ENDBRANCH  15  17
ENDBRANCH  14  15
ENDBRANCH   6   9
ENDBRANCH   3   6
ENDBRANCH   1   2
BRANCH   1  21
ATOM     21  C   UNL A   1      34.198  30.208  27.468  1.00  0.00     0.042 C 
BRANCH  21  22
ATOM     22  C   UNL A   1      35.494  30.756  28.054  1.00  0.00     0.118 C 
BRANCH  22  23
ATOM     23  N   UNL A   1      35.494  30.753  29.510  1.00  0.00    -0.352 N 
ATOM     24  C   UNL A   1      36.439  30.314  30.403  1.00  0.00     0.251 C 
ATOM     25  H   UNL A   1      34.682  31.130  29.922  1.00  0.00     0.163 HD
ATOM     26  O   UNL A   1      36.136  30.206  31.588  1.00  0.00    -0.269 OA
BRANCH  24  27
ATOM     27  C   UNL A   1      37.803  29.961  29.950  1.00  0.00     0.039 A 
ATOM     28  C   UNL A   1      38.795  29.739  30.910  1.00  0.00     0.014 A 
ATOM     29  C   UNL A   1      38.122  29.895  28.592  1.00  0.00     0.014 A 
ATOM     30  C   UNL A   1      40.088  29.397  30.506  1.00  0.00     0.010 A 
ATOM     31  C   UNL A   1      39.384  29.465  28.193  1.00  0.00     0.010 A 
ATOM     32  C   UNL A   1      40.386  29.229  29.144  1.00  0.00    -0.014 A 
BRANCH  32  33
ATOM     33  C   UNL A   1      41.746  28.829  28.698  1.00  0.00     0.031 A 
ATOM     34  C   UNL A   1      42.846  29.855  28.610  1.00  0.00     0.074 A 
ATOM     35  C   UNL A   1      41.976  27.556  28.322  1.00  0.00     0.049 A 
ATOM     36  N   UNL A   1      44.079  29.712  28.198  1.00  0.00    -0.248 NA
ATOM     37  C   UNL A   1      42.506  31.231  29.009  1.00  0.00     0.031 C 
ATOM     38  C   UNL A   1      40.979  26.484  28.305  1.00  0.00     0.029 A 
ATOM     39  N   UNL A   1      43.122  26.947  27.873  1.00  0.00    -0.354 N 
ATOM     40  C   UNL A   1      44.654  30.975  28.271  1.00  0.00     0.074 A 
ATOM     41  C   UNL A   1      43.619  31.884  28.712  1.00  0.00     0.031 C 
ATOM     42  C   UNL A   1      41.562  25.345  27.898  1.00  0.00     0.029 A 
ATOM     43  C   UNL A   1      42.963  25.611  27.592  1.00  0.00     0.049 A 
ATOM     44  H   UNL A   1      43.976  27.423  27.763  1.00  0.00     0.167 HD
ATOM     45  C   UNL A   1      45.935  31.341  28.022  1.00  0.00     0.037 A 
ATOM     46  C   UNL A   1      43.849  24.702  27.141  1.00  0.00     0.037 A 
ATOM     47  C   UNL A   1      46.968  30.424  27.617  1.00  0.00     0.049 A 
ATOM     48  C   UNL A   1      45.272  25.125  26.899  1.00  0.00     0.074 A 
ATOM     49  C   UNL A   1      48.309  30.682  27.393  1.00  0.00     0.029 A 
ATOM     50  N   UNL A   1      46.777  29.071  27.378  1.00  0.00    -0.354 N 
ATOM     51  N   UNL A   1      45.812  26.313  27.031  1.00  0.00    -0.248 NA
ATOM     52  C   UNL A   1      46.209  24.082  26.461  1.00  0.00     0.031 C 
ATOM     53  C   UNL A   1      48.922  29.492  26.984  1.00  0.00     0.029 A 
ATOM     54  C   UNL A   1      47.972  28.483  27.000  1.00  0.00     0.049 A 
ATOM     55  H   UNL A   1      45.918  28.598  27.466  1.00  0.00     0.167 HD
ATOM     56  C   UNL A   1      47.158  26.155  26.720  1.00  0.00     0.074 A 
ATOM     57  C   UNL A   1      47.351  24.754  26.407  1.00  0.00     0.031 C 
ATOM     58  C   UNL A   1      48.146  27.084  26.697  1.00  0.00     0.037 A 
BRANCH  45  59
ATOM     59  C   UNL A   1      46.289  32.794  28.194  1.00  0.00     0.058 A 
ATOM     60  C   UNL A   1      46.153  33.714  27.142  1.00  0.00     0.135 A 
ATOM     61  C   UNL A   1      46.747  33.277  29.430  1.00  0.00     0.135 A 
ATOM     62  F   UNL A   1      45.737  33.305  25.933  1.00  0.00    -0.206 F 
ATOM     63  C   UNL A   1      46.488  35.056  27.300  1.00  0.00     0.059 A 
ATOM     64  C   UNL A   1      47.059  34.621  29.619  1.00  0.00     0.059 A 
ATOM     65  F   UNL A   1      46.896  32.442  30.470  1.00  0.00    -0.206 F 
ATOM     66  C   UNL A   1      46.943  35.499  28.543  1.00  0.00     0.060 A 
BRANCH  66  67
ATOM     67  S   UNL A   1      47.371  37.242  28.732  1.00  0.00     0.124 S 
ATOM     68  O   UNL A   1      48.675  37.152  29.382  1.00  0.00    -0.237 OA
ATOM     69  O   UNL A   1      47.384  37.713  27.350  1.00  0.00    -0.237 OA
ATOM     70  O   UNL A   1      46.291  37.769  29.561  1.00  0.00    -0.744 OA
ENDBRANCH  66  67
ENDBRANCH  45  59
BRANCH  46  71
ATOM     71  C   UNL A   1      43.423  23.294  26.925  1.00  0.00     0.058 A 
ATOM     72  C   UNL A   1      43.201  22.798  25.631  1.00  0.00     0.135 A 
ATOM     73  C   UNL A   1      43.246  22.411  28.002  1.00  0.00     0.135 A 
ATOM     74  F   UNL A   1      43.354  23.605  24.570  1.00  0.00    -0.206 F 
ATOM     75  C   UNL A   1      42.798  21.486  25.412  1.00  0.00     0.059 A 
ATOM     76  C   UNL A   1      42.868  21.086  27.806  1.00  0.00     0.059 A 
ATOM     77  F   UNL A   1      43.466  22.829  29.258  1.00  0.00    -0.206 F 
ATOM     78  C   UNL A   1      42.636  20.635  26.507  1.00  0.00     0.060 A 
BRANCH  78  79
ATOM     79  S   UNL A   1      42.161  18.918  26.209  1.00  0.00     0.124 S 
ATOM     80  O   UNL A   1      42.285  18.344  27.543  1.00  0.00    -0.237 OA
ATOM     81  O   UNL A   1      40.801  19.062  25.699  1.00  0.00    -0.237 OA
ATOM     82  O   UNL A   1      43.145  18.465  25.230  1.00  0.00    -0.744 OA
ENDBRANCH  78  79
ENDBRANCH  46  71
BRANCH  58  83
ATOM     83  C   UNL A   1      49.531  26.605  26.361  1.00  0.00     0.058 A 
ATOM     84  C   UNL A   1      50.063  26.728  25.068  1.00  0.00     0.135 A 
ATOM     85  C   UNL A   1      50.345  26.036  27.354  1.00  0.00     0.135 A 
ATOM     86  F   UNL A   1      49.325  27.260  24.082  1.00  0.00    -0.206 F 
ATOM     87  C   UNL A   1      51.341  26.270  24.763  1.00  0.00     0.059 A 
ATOM     88  C   UNL A   1      51.636  25.598  27.078  1.00  0.00     0.059 A 
ATOM     89  F   UNL A   1      49.890  25.908  28.611  1.00  0.00    -0.206 F 
ATOM     90  C   UNL A   1      52.118  25.703  25.774  1.00  0.00     0.060 A 
BRANCH  90  91
ATOM     91  S   UNL A   1      53.777  25.117  25.368  1.00  0.00     0.124 S 
ATOM     92  O   UNL A   1      53.595  23.670  25.410  1.00  0.00    -0.237 OA
ATOM     93  O   UNL A   1      53.997  25.690  24.043  1.00  0.00    -0.237 OA
ATOM     94  O   UNL A   1      54.604  25.678  26.433  1.00  0.00    -0.744 OA
ENDBRANCH  90  91
ENDBRANCH  58  83
ENDBRANCH  32  33
ENDBRANCH  24  27
ENDBRANCH  22  23
ENDBRANCH  21  22
ENDBRANCH   1  21
TORSDOF 18
ENDMDL
MODEL 2
REMARK VINA RESULT:     -10.8      6.759     12.160
REMARK SMILES CC(C)(C(=O)NCCCNC(=O)c1ccc(-c2c3nc(c(-c4c(F)cc(S(=O)(=O)[O-])cc4F)c4ccc([nH]4)c(-c4c(F)cc(S(=O)(=O)[O-])cc4F)c4nc(c(-c5c(F)cc(S(=O)(=O)[O-])cc5F)c5ccc2[nH]5)C=C4)C=C3)cc1)c1ccc(C(=O)CCCCl)cc1
REMARK SMILES IDX 7 1 6 2 4 3 5 4 2 6 1 7 3 8 79 9 80 10 90 11 81 12 89 13
REMARK SMILES IDX 82 14 83 15 84 16 85 17 86 18 87 19 88 20 8 21 9 22 10 23
REMARK SMILES IDX 11 24 12 26 13 27 14 28 78 29 15 30 77 31 16 32 17 33 18 34
REMARK SMILES IDX 71 35 19 36 76 37 70 38 72 39 20 40 75 41 69 42 68 43 21 45
REMARK SMILES IDX 55 46 34 47 54 48 35 49 38 50 53 51 73 52 36 53 37 54 52 56
REMARK SMILES IDX 74 57 39 58 22 59 23 60 32 61 24 62 25 63 31 64 33 65 26 66
REMARK SMILES IDX 27 67 28 68 29 69 30 70 56 71 57 72 66 73 58 74 59 75 65 76
REMARK SMILES IDX 67 77 60 78 61 79 62 80 63 81 64 82 40 83 41 84 50 85 42 86
REMARK SMILES IDX 43 87 49 88 51 89 44 90 45 91 46 92 47 93 48 94
REMARK H PARENT 6 5 10 25 72 44 38 55
REMARK Flexibility Score: inf
ROOT
ATOM      1  C   UNL A   1      38.106  23.446  25.993  1.00  0.00     0.117 C 
ENDROOT
BRANCH   1   2
ATOM      2  N   UNL A   1      37.837  23.295  24.573  1.00  0.00    -0.355 N 
ATOM      3  C   UNL A   1      36.693  23.337  23.833  1.00  0.00     0.230 C 
ATOM      4  O   UNL A   1      36.872  23.331  22.610  1.00  0.00    -0.274 OA
ATOM      5  H   UNL A   1      38.646  23.130  24.036  1.00  0.00     0.163 HD
BRANCH   3   6
ATOM      6  C   UNL A   1      35.275  23.459  24.475  1.00  0.00     0.068 C 
ATOM      7  C   UNL A   1      35.345  23.944  25.935  1.00  0.00     0.026 C 
ATOM      8  C   UNL A   1      34.488  24.447  23.579  1.00  0.00     0.026 C 
BRANCH   6   9
ATOM      9  C   UNL A   1      34.529  22.093  24.550  1.00  0.00    -0.033 A 
ATOM     10  C   UNL A   1      33.133  22.008  24.391  1.00  0.00     0.005 A 
ATOM     11  C   UNL A   1      35.216  20.901  24.841  1.00  0.00     0.005 A 
ATOM     12  C   UNL A   1      32.477  20.776  24.382  1.00  0.00     0.012 A 
ATOM     13  C   UNL A   1      34.563  19.663  24.837  1.00  0.00     0.012 A 
ATOM     14  C   UNL A   1      33.200  19.594  24.548  1.00  0.00     0.018 A 
BRANCH  14  15
ATOM     15  C   UNL A   1      32.484  18.307  24.337  1.00  0.00     0.162 C 
ATOM     16  O   UNL A   1      32.002  18.058  23.232  1.00  0.00    -0.294 OA
BRANCH  15  17
ATOM     17  C   UNL A   1      32.448  17.274  25.449  1.00  0.00     0.082 C 
BRANCH  17  18
ATOM     18  C   UNL A   1      33.253  16.015  25.109  1.00  0.00     0.024 C 
BRANCH  18  19
ATOM     19  C   UNL A   1      34.644  16.243  24.521  1.00  0.00     0.110 C 
ATOM     20  Cl  UNL A   1      35.923  15.634  25.595  1.00  0.00    -0.127 Cl
ENDBRANCH  18  19
ENDBRANCH  17  18
ENDBRANCH  15  17
ENDBRANCH  14  15
ENDBRANCH   6   9
ENDBRANCH   3   6
ENDBRANCH   1   2
BRANCH   1  21
ATOM     21  C   UNL A   1      39.112  22.427  26.507  1.00  0.00     0.042 C 
BRANCH  21  22
ATOM     22  C   UNL A   1      40.305  23.046  27.226  1.00  0.00     0.118 C 
BRANCH  22  23
ATOM     23  N   UNL A   1      41.269  23.634  26.306  1.00  0.00    -0.352 N 
ATOM     24  C   UNL A   1      41.772  24.909  26.234  1.00  0.00     0.251 C 
ATOM     25  H   UNL A   1      41.618  23.015  25.624  1.00  0.00     0.163 HD
ATOM     26  O   UNL A   1      42.410  25.243  25.240  1.00  0.00    -0.269 OA
BRANCH  24  27
ATOM     27  C   UNL A   1      41.545  25.877  27.330  1.00  0.00     0.039 A 
ATOM     28  C   UNL A   1      40.424  25.714  28.151  1.00  0.00     0.014 A 
ATOM     29  C   UNL A   1      42.397  26.966  27.524  1.00  0.00     0.014 A 
ATOM     30  C   UNL A   1      40.194  26.611  29.197  1.00  0.00     0.010 A 
ATOM     31  C   UNL A   1      42.217  27.804  28.620  1.00  0.00     0.010 A 
ATOM     32  C   UNL A   1      41.105  27.647  29.459  1.00  0.00    -0.014 A 
BRANCH  32  33
ATOM     33  C   UNL A   1      40.895  28.589  30.589  1.00  0.00     0.031 A 
ATOM     34  C   UNL A   1      41.730  28.471  31.837  1.00  0.00     0.074 A 
ATOM     35  C   UNL A   1      39.919  29.514  30.513  1.00  0.00     0.049 A 
ATOM     36  N   UNL A   1      41.664  29.164  32.945  1.00  0.00    -0.248 NA
ATOM     37  C   UNL A   1      42.755  27.414  31.855  1.00  0.00     0.031 C 
ATOM     38  C   UNL A   1      39.005  29.690  29.382  1.00  0.00     0.029 A 
ATOM     39  N   UNL A   1      39.526  30.478  31.407  1.00  0.00    -0.354 N 
ATOM     40  C   UNL A   1      42.620  28.618  33.793  1.00  0.00     0.074 A 
ATOM     41  C   UNL A   1      43.215  27.500  33.095  1.00  0.00     0.031 C 
ATOM     42  C   UNL A   1      38.179  30.717  29.638  1.00  0.00     0.029 A 
ATOM     43  C   UNL A   1      38.480  31.251  30.962  1.00  0.00     0.049 A 
ATOM     44  H   UNL A   1      39.953  30.604  32.284  1.00  0.00     0.167 HD
ATOM     45  C   UNL A   1      42.992  29.028  35.030  1.00  0.00     0.037 A 
ATOM     46  C   UNL A   1      37.838  32.277  31.553  1.00  0.00     0.037 A 
ATOM     47  C   UNL A   1      42.419  30.163  35.705  1.00  0.00     0.049 A 
ATOM     48  C   UNL A   1      38.287  32.733  32.915  1.00  0.00     0.074 A 
ATOM     49  C   UNL A   1      42.762  30.696  36.936  1.00  0.00     0.029 A 
ATOM     50  N   UNL A   1      41.387  30.944  35.207  1.00  0.00    -0.354 N 
ATOM     51  N   UNL A   1      39.234  32.242  33.677  1.00  0.00    -0.248 NA
ATOM     52  C   UNL A   1      37.589  33.890  33.490  1.00  0.00     0.031 C 
ATOM     53  C   UNL A   1      41.912  31.778  37.197  1.00  0.00     0.029 A 
ATOM     54  C   UNL A   1      41.073  31.948  36.107  1.00  0.00     0.049 A 
ATOM     55  H   UNL A   1      40.943  30.806  34.338  1.00  0.00     0.167 HD
ATOM     56  C   UNL A   1      39.266  33.048  34.810  1.00  0.00     0.074 A 
ATOM     57  C   UNL A   1      38.252  34.065  34.624  1.00  0.00     0.031 C 
ATOM     58  C   UNL A   1      40.063  32.957  35.903  1.00  0.00     0.037 A 
BRANCH  45  59
ATOM     59  C   UNL A   1      44.076  28.249  35.726  1.00  0.00     0.058 A 
ATOM     60  C   UNL A   1      43.778  27.188  36.596  1.00  0.00     0.135 A 
ATOM     61  C   UNL A   1      45.429  28.549  35.501  1.00  0.00     0.135 A 
ATOM     62  F   UNL A   1      42.501  26.868  36.861  1.00  0.00    -0.206 F 
ATOM     63  C   UNL A   1      44.780  26.473  37.243  1.00  0.00     0.059 A 
ATOM     64  C   UNL A   1      46.449  27.828  36.115  1.00  0.00     0.059 A 
ATOM     65  F   UNL A   1      45.771  29.553  34.679  1.00  0.00    -0.206 F 
ATOM     66  C   UNL A   1      46.114  26.803  36.998  1.00  0.00     0.060 A 
BRANCH  66  67
ATOM     67  S   UNL A   1      47.403  25.864  37.845  1.00  0.00     0.124 S 
ATOM     68  O   UNL A   1      46.609  24.973  38.685  1.00  0.00    -0.237 OA
ATOM     69  O   UNL A   1      48.107  25.228  36.735  1.00  0.00    -0.237 OA
ATOM     70  O   UNL A   1      48.159  26.891  38.556  1.00  0.00    -0.744 OA
ENDBRANCH  66  67
ENDBRANCH  45  59
BRANCH  46  71
ATOM     71  C   UNL A   1      36.728  32.966  30.844  1.00  0.00     0.058 A 
ATOM     72  C   UNL A   1      35.388  32.693  31.165  1.00  0.00     0.135 A 
ATOM     73  C   UNL A   1      36.979  33.920  29.846  1.00  0.00     0.135 A 
ATOM     74  F   UNL A   1      35.098  31.786  32.110  1.00  0.00    -0.206 F 
ATOM     75  C   UNL A   1      34.338  33.325  30.508  1.00  0.00     0.059 A 
ATOM     76  C   UNL A   1      35.945  34.585  29.192  1.00  0.00     0.059 A 
ATOM     77  F   UNL A   1      38.242  34.233  29.516  1.00  0.00    -0.206 F 
ATOM     78  C   UNL A   1      34.627  34.272  29.524  1.00  0.00     0.060 A 
BRANCH  78  79
ATOM     79  S   UNL A   1      33.257  35.124  28.712  1.00  0.00     0.124 S 
ATOM     80  O   UNL A   1      33.961  36.126  27.922  1.00  0.00    -0.237 OA
ATOM     81  O   UNL A   1      32.628  34.042  27.958  1.00  0.00    -0.237 OA
ATOM     82  O   UNL A   1      32.471  35.635  29.831  1.00  0.00    -0.744 OA
ENDBRANCH  78  79
ENDBRANCH  46  71
BRANCH  58  83
ATOM     83  C   UNL A   1      39.897  34.008  36.964  1.00  0.00     0.058 A 
ATOM     84  C   UNL A   1      40.504  35.269  36.858  1.00  0.00     0.135 A 
ATOM     85  C   UNL A   1      39.100  33.756  38.093  1.00  0.00     0.135 A 
ATOM     86  F   UNL A   1      41.280  35.559  35.801  1.00  0.00    -0.206 F 
ATOM     87  C   UNL A   1      40.356  36.232  37.851  1.00  0.00     0.059 A 
ATOM     88  C   UNL A   1      38.915  34.715  39.085  1.00  0.00     0.059 A 
ATOM     89  F   UNL A   1      38.486  32.571  38.237  1.00  0.00    -0.206 F 
ATOM     90  C   UNL A   1      39.563  35.943  38.963  1.00  0.00     0.060 A 
BRANCH  90  91
ATOM     91  S   UNL A   1      39.373  37.202  40.243  1.00  0.00     0.124 S 
ATOM     92  O   UNL A   1      38.737  38.283  39.499  1.00  0.00    -0.237 OA
ATOM     93  O   UNL A   1      38.531  36.526  41.226  1.00  0.00    -0.237 OA
ATOM     94  O   UNL A   1      40.745  37.457  40.673  1.00  0.00    -0.744 OA
ENDBRANCH  90  91
ENDBRANCH  58  83
ENDBRANCH  32  33
ENDBRANCH  24  27
ENDBRANCH  22  23
ENDBRANCH  21  22
ENDBRANCH   1  21
TORSDOF 18
ENDMDL
MODEL 3
REMARK VINA RESULT:     -10.6      3.674      9.480
REMARK SMILES CC(C)(C(=O)NCCCNC(=O)c1ccc(-c2c3nc(c(-c4c(F)cc(S(=O)(=O)[O-])cc4F)c4ccc([nH]4)c(-c4c(F)cc(S(=O)(=O)[O-])cc4F)c4nc(c(-c5c(F)cc(S(=O)(=O)[O-])cc5F)c5ccc2[nH]5)C=C4)C=C3)cc1)c1ccc(C(=O)CCCCl)cc1
REMARK SMILES IDX 7 1 6 2 4 3 5 4 2 6 1 7 3 8 79 9 80 10 90 11 81 12 89 13
REMARK SMILES IDX 82 14 83 15 84 16 85 17 86 18 87 19 88 20 8 21 9 22 10 23
REMARK SMILES IDX 11 24 12 26 13 27 14 28 78 29 15 30 77 31 16 32 17 33 18 34
REMARK SMILES IDX 71 35 19 36 76 37 70 38 72 39 20 40 75 41 69 42 68 43 21 45
REMARK SMILES IDX 55 46 34 47 54 48 35 49 38 50 53 51 73 52 36 53 37 54 52 56
REMARK SMILES IDX 74 57 39 58 22 59 23 60 32 61 24 62 25 63 31 64 33 65 26 66
REMARK SMILES IDX 27 67 28 68 29 69 30 70 56 71 57 72 66 73 58 74 59 75 65 76
REMARK SMILES IDX 67 77 60 78 61 79 62 80 63 81 64 82 40 83 41 84 50 85 42 86
REMARK SMILES IDX 43 87 49 88 51 89 44 90 45 91 46 92 47 93 48 94
REMARK H PARENT 6 5 10 25 72 44 38 55
REMARK Flexibility Score: inf
ROOT
ATOM      1  C   UNL A   1      34.769  23.441  24.200  1.00  0.00     0.117 C 
ENDROOT
BRANCH   1   2
ATOM      2  N   UNL A   1      33.683  24.330  24.576  1.00  0.00    -0.355 N 
ATOM      3  C   UNL A   1      32.612  24.191  25.409  1.00  0.00     0.230 C 
ATOM      4  O   UNL A   1      31.981  25.234  25.611  1.00  0.00    -0.274 OA
ATOM      5  H   UNL A   1      33.730  25.212  24.142  1.00  0.00     0.163 HD
BRANCH   3   6
ATOM      6  C   UNL A   1      32.257  22.843  26.112  1.00  0.00     0.068 C 
ATOM      7  C   UNL A   1      33.132  22.595  27.355  1.00  0.00     0.026 C 
ATOM      8  C   UNL A   1      30.756  22.938  26.476  1.00  0.00     0.026 C 
BRANCH   6   9
ATOM      9  C   UNL A   1      32.511  21.605  25.200  1.00  0.00    -0.033 A 
ATOM     10  C   UNL A   1      33.308  20.528  25.629  1.00  0.00     0.005 A 
ATOM     11  C   UNL A   1      32.002  21.546  23.890  1.00  0.00     0.005 A 
ATOM     12  C   UNL A   1      33.470  19.386  24.842  1.00  0.00     0.012 A 
ATOM     13  C   UNL A   1      32.165  20.405  23.095  1.00  0.00     0.012 A 
ATOM     14  C   UNL A   1      32.851  19.298  23.595  1.00  0.00     0.018 A 
BRANCH  14  15
ATOM     15  C   UNL A   1      32.897  17.991  22.886  1.00  0.00     0.162 C 
ATOM     16  O   UNL A   1      32.160  17.802  21.918  1.00  0.00    -0.294 OA
BRANCH  15  17
ATOM     17  C   UNL A   1      33.921  16.948  23.296  1.00  0.00     0.082 C 
BRANCH  17  18
ATOM     18  C   UNL A   1      33.350  15.910  24.268  1.00  0.00     0.024 C 
BRANCH  18  19
ATOM     19  C   UNL A   1      34.025  15.825  25.635  1.00  0.00     0.110 C 
ATOM     20  Cl  UNL A   1      35.798  15.787  25.494  1.00  0.00    -0.127 Cl
ENDBRANCH  18  19
ENDBRANCH  17  18
ENDBRANCH  15  17
ENDBRANCH  14  15
ENDBRANCH   6   9
ENDBRANCH   3   6
ENDBRANCH   1   2
BRANCH   1  21
ATOM     21  C   UNL A   1      36.121  23.931  24.695  1.00  0.00     0.042 C 
BRANCH  21  22
ATOM     22  C   UNL A   1      36.480  23.448  26.095  1.00  0.00     0.118 C 
BRANCH  22  23
ATOM     23  N   UNL A   1      37.539  22.450  26.088  1.00  0.00    -0.352 N 
ATOM     24  C   UNL A   1      38.896  22.586  26.246  1.00  0.00     0.251 C 
ATOM     25  H   UNL A   1      37.233  21.524  25.947  1.00  0.00     0.163 HD
ATOM     26  O   UNL A   1      39.626  21.634  25.984  1.00  0.00    -0.269 OA
BRANCH  24  27
ATOM     27  C   UNL A   1      39.480  23.862  26.715  1.00  0.00     0.039 A 
ATOM     28  C   UNL A   1      39.637  24.067  28.090  1.00  0.00     0.014 A 
ATOM     29  C   UNL A   1      39.828  24.874  25.817  1.00  0.00     0.014 A 
ATOM     30  C   UNL A   1      40.194  25.261  28.554  1.00  0.00     0.010 A 
ATOM     31  C   UNL A   1      40.466  26.023  26.275  1.00  0.00     0.010 A 
ATOM     32  C   UNL A   1      40.640  26.237  27.649  1.00  0.00    -0.014 A 
BRANCH  32  33
ATOM     33  C   UNL A   1      41.268  27.497  28.124  1.00  0.00     0.031 A 
ATOM     34  C   UNL A   1      42.764  27.665  28.069  1.00  0.00     0.074 A 
ATOM     35  C   UNL A   1      40.497  28.467  28.654  1.00  0.00     0.049 A 
ATOM     36  N   UNL A   1      43.500  28.666  28.480  1.00  0.00    -0.248 NA
ATOM     37  C   UNL A   1      43.539  26.547  27.506  1.00  0.00     0.031 C 
ATOM     38  C   UNL A   1      39.043  28.399  28.816  1.00  0.00     0.029 A 
ATOM     39  N   UNL A   1      40.828  29.699  29.160  1.00  0.00    -0.354 N 
ATOM     40  C   UNL A   1      44.817  28.294  28.243  1.00  0.00     0.074 A 
ATOM     41  C   UNL A   1      44.785  26.951  27.705  1.00  0.00     0.031 C 
ATOM     42  C   UNL A   1      38.606  29.548  29.355  1.00  0.00     0.029 A 
ATOM     43  C   UNL A   1      39.748  30.421  29.608  1.00  0.00     0.049 A 
ATOM     44  H   UNL A   1      41.753  30.034  29.199  1.00  0.00     0.167 HD
ATOM     45  C   UNL A   1      45.950  29.013  28.428  1.00  0.00     0.037 A 
ATOM     46  C   UNL A   1      39.684  31.649  30.158  1.00  0.00     0.037 A 
ATOM     47  C   UNL A   1      45.972  30.362  28.932  1.00  0.00     0.049 A 
ATOM     48  C   UNL A   1      40.952  32.440  30.327  1.00  0.00     0.074 A 
ATOM     49  C   UNL A   1      47.060  31.199  29.105  1.00  0.00     0.029 A 
ATOM     50  N   UNL A   1      44.853  31.073  29.340  1.00  0.00    -0.354 N 
ATOM     51  N   UNL A   1      42.184  32.094  30.041  1.00  0.00    -0.248 NA
ATOM     52  C   UNL A   1      40.819  33.795  30.881  1.00  0.00     0.031 C 
ATOM     53  C   UNL A   1      46.603  32.404  29.651  1.00  0.00     0.029 A 
ATOM     54  C   UNL A   1      45.225  32.334  29.773  1.00  0.00     0.049 A 
ATOM     55  H   UNL A   1      43.930  30.731  29.323  1.00  0.00     0.167 HD
ATOM     56  C   UNL A   1      42.971  33.198  30.352  1.00  0.00     0.074 A 
ATOM     57  C   UNL A   1      42.072  34.226  30.835  1.00  0.00     0.031 C 
ATOM     58  C   UNL A   1      44.315  33.348  30.246  1.00  0.00     0.037 A 
BRANCH  45  59
ATOM     59  C   UNL A   1      47.258  28.357  28.072  1.00  0.00     0.058 A 
ATOM     60  C   UNL A   1      48.004  27.639  29.020  1.00  0.00     0.135 A 
ATOM     61  C   UNL A   1      47.759  28.426  26.762  1.00  0.00     0.135 A 
ATOM     62  F   UNL A   1      47.581  27.556  30.292  1.00  0.00    -0.206 F 
ATOM     63  C   UNL A   1      49.215  27.039  28.692  1.00  0.00     0.059 A 
ATOM     64  C   UNL A   1      48.954  27.808  26.404  1.00  0.00     0.059 A 
ATOM     65  F   UNL A   1      47.087  29.098  25.815  1.00  0.00    -0.206 F 
ATOM     66  C   UNL A   1      49.683  27.132  27.380  1.00  0.00     0.060 A 
BRANCH  66  67
ATOM     67  S   UNL A   1      51.256  26.347  26.969  1.00  0.00     0.124 S 
ATOM     68  O   UNL A   1      52.138  26.915  27.984  1.00  0.00    -0.237 OA
ATOM     69  O   UNL A   1      50.947  24.929  27.122  1.00  0.00    -0.237 OA
ATOM     70  O   UNL A   1      51.509  26.787  25.601  1.00  0.00    -0.744 OA
ENDBRANCH  66  67
ENDBRANCH  45  59
BRANCH  46  71
ATOM     71  C   UNL A   1      38.369  32.219  30.553  1.00  0.00     0.058 A 
ATOM     72  C   UNL A   1      37.817  31.949  31.815  1.00  0.00     0.135 A 
ATOM     73  C   UNL A   1      37.645  33.054  29.689  1.00  0.00     0.135 A 
ATOM     74  F   UNL A   1      38.469  31.152  32.675  1.00  0.00    -0.206 F 
ATOM     75  C   UNL A   1      36.586  32.470  32.199  1.00  0.00     0.059 A 
ATOM     76  C   UNL A   1      36.423  33.608  30.060  1.00  0.00     0.059 A 
ATOM     77  F   UNL A   1      38.139  33.360  28.479  1.00  0.00    -0.206 F 
ATOM     78  C   UNL A   1      35.897  33.301  31.314  1.00  0.00     0.060 A 
BRANCH  78  79
ATOM     79  S   UNL A   1      34.323  34.013  31.841  1.00  0.00     0.124 S 
ATOM     80  O   UNL A   1      33.675  34.271  30.561  1.00  0.00    -0.237 OA
ATOM     81  O   UNL A   1      33.751  32.933  32.641  1.00  0.00    -0.237 OA
ATOM     82  O   UNL A   1      34.727  35.195  32.596  1.00  0.00    -0.744 OA
ENDBRANCH  78  79
ENDBRANCH  46  71
BRANCH  58  83
ATOM     83  C   UNL A   1      44.888  34.686  30.622  1.00  0.00     0.058 A 
ATOM     84  C   UNL A   1      45.014  35.725  29.688  1.00  0.00     0.135 A 
ATOM     85  C   UNL A   1      45.296  34.936  31.942  1.00  0.00     0.135 A 
ATOM     86  F   UNL A   1      44.643  35.537  28.412  1.00  0.00    -0.206 F 
ATOM     87  C   UNL A   1      45.559  36.956  30.042  1.00  0.00     0.059 A 
ATOM     88  C   UNL A   1      45.817  36.169  32.324  1.00  0.00     0.059 A 
ATOM     89  F   UNL A   1      45.185  33.980  32.879  1.00  0.00    -0.206 F 
ATOM     90  C   UNL A   1      45.961  37.166  31.361  1.00  0.00     0.060 A 
BRANCH  90  91
ATOM     91  S   UNL A   1      46.661  38.769  31.810  1.00  0.00     0.124 S 
ATOM     92  O   UNL A   1      47.912  38.762  31.060  1.00  0.00    -0.237 OA
ATOM     93  O   UNL A   1      45.642  39.701  31.337  1.00  0.00    -0.237 OA
ATOM     94  O   UNL A   1      46.798  38.683  33.262  1.00  0.00    -0.744 OA
ENDBRANCH  90  91
ENDBRANCH  58  83
ENDBRANCH  32  33
ENDBRANCH  24  27
ENDBRANCH  22  23
ENDBRANCH  21  22
ENDBRANCH   1  21
TORSDOF 18
ENDMDL
