MODEL 1
REMARK VINA RESULT:     -13.1      0.000      0.000
REMARK SMILES Cc1ccccc1C(=O)Nc1cc(C(=O)NCCCNC(=O)c2ccc(-c3c4nc(c(-c5c(F)cc(S(=O)(=O)[O-])cc5F)c5ccc([nH]5)c(-c5c(F)cc(S(=O)(=O)[O-])cc5F)c5nc(c(-c6c(F)cc(S(=O)(=O)[O-])cc6F)c6ccc3[nH]6)C=C5)C=C4)cc2)ccc1N1CC[NH+](CC(=O)Nc2ccc(F)cc2)CC1
REMARK SMILES IDX 17 1 16 2 14 3 15 4 13 6 11 7 12 8 91 9 90 10 89 11 10 12
REMARK SMILES IDX 8 13 9 14 7 16 1 17 2 18 3 19 4 20 6 21 5 22 92 23 93 24
REMARK SMILES IDX 108 25 94 26 107 27 95 28 96 30 97 31 98 32 99 33 100 35
REMARK SMILES IDX 101 36 106 37 102 38 105 39 103 40 104 41 18 42 19 43 20 44
REMARK SMILES IDX 21 45 22 47 23 48 24 49 88 50 25 51 87 52 26 53 27 54 28 55
REMARK SMILES IDX 81 56 29 57 86 58 80 59 82 60 30 61 85 62 79 63 78 64 31 66
REMARK SMILES IDX 65 67 44 68 64 69 45 70 48 71 63 72 83 73 46 74 47 75 62 77
REMARK SMILES IDX 84 78 49 79 32 80 33 81 42 82 34 83 35 84 41 85 43 86 36 87
REMARK SMILES IDX 37 88 38 89 39 90 40 91 66 92 67 93 76 94 68 95 69 96 75 97
REMARK SMILES IDX 77 98 70 99 71 100 72 101 73 102 74 103 50 104 51 105 60 106
REMARK SMILES IDX 52 107 53 108 59 109 61 110 54 111 55 112 56 113 57 114
REMARK SMILES IDX 58 115
REMARK H PARENT 16 5 10 15 95 29 99 34 20 46 82 65 48 76
REMARK Flexibility Score: inf
ROOT
ATOM      1  C   UNL A   1      38.785  22.874  26.500  1.00  0.00     0.118 C 
ENDROOT
BRANCH   1   2
ATOM      2  N   UNL A   1      38.268  21.547  26.013  1.00  0.00    -0.352 N 
ATOM      3  C   UNL A   1      37.392  21.067  25.058  1.00  0.00     0.251 C 
ATOM      4  O   UNL A   1      37.345  19.887  24.717  1.00  0.00    -0.269 OA
ATOM      5  H   UNL A   1      38.669  20.805  26.522  1.00  0.00     0.163 HD
BRANCH   3   6
ATOM      6  C   UNL A   1      36.475  22.010  24.406  1.00  0.00     0.042 A 
ATOM      7  C   UNL A   1      34.213  22.679  24.349  1.00  0.00     0.065 A 
ATOM      8  C   UNL A   1      35.141  21.692  24.480  1.00  0.00     0.042 A 
ATOM      9  C   UNL A   1      34.523  23.847  23.607  1.00  0.00     0.061 A 
ATOM     10  C   UNL A   1      35.884  24.085  23.335  1.00  0.00     0.029 A 
ATOM     11  C   UNL A   1      36.872  23.206  23.804  1.00  0.00     0.016 A 
BRANCH   7  12
ATOM     12  N   UNL A   1      32.945  22.418  24.886  1.00  0.00    -0.320 N 
ATOM     13  C   UNL A   1      32.239  21.223  25.030  1.00  0.00     0.255 C 
ATOM     14  O   UNL A   1      31.263  21.284  25.796  1.00  0.00    -0.269 OA
ATOM     15  H   UNL A   1      32.472  23.215  25.218  1.00  0.00     0.170 HD
BRANCH  13  16
ATOM     16  C   UNL A   1      32.489  19.869  24.398  1.00  0.00     0.043 A 
ATOM     17  C   UNL A   1      32.037  20.310  21.884  1.00  0.00     0.045 C 
ATOM     18  C   UNL A   1      32.385  19.444  23.054  1.00  0.00    -0.038 A 
ATOM     19  C   UNL A   1      32.526  18.059  22.749  1.00  0.00     0.004 A 
ATOM     20  C   UNL A   1      32.841  17.114  23.723  1.00  0.00     0.000 A 
ATOM     21  C   UNL A   1      32.903  18.894  25.344  1.00  0.00     0.014 A 
ATOM     22  C   UNL A   1      33.066  17.541  25.019  1.00  0.00     0.001 A 
ENDBRANCH  13  16
ENDBRANCH   7  12
BRANCH   9  23
ATOM     23  N   UNL A   1      33.535  24.727  23.206  1.00  0.00    -0.359 N 
ATOM     24  C   UNL A   1      33.178  25.017  21.801  1.00  0.00     0.178 C 
ATOM     25  C   UNL A   1      33.195  25.805  24.112  1.00  0.00     0.178 C 
ATOM     26  C   UNL A   1      31.779  25.734  21.690  1.00  0.00     0.284 C 
ATOM     27  C   UNL A   1      31.678  25.989  24.046  1.00  0.00     0.284 C 
ATOM     28  N   UNL A   1      31.321  26.619  22.787  1.00  0.00    -0.324 N 
ATOM     29  H   UNL A   1      30.317  26.691  22.628  1.00  0.00     0.348 HD
BRANCH  28  30
ATOM     30  C   UNL A   1      31.625  28.070  22.776  1.00  0.00     0.364 C 
BRANCH  30  31
ATOM     31  C   UNL A   1      30.807  29.045  23.630  1.00  0.00     0.279 C 
ATOM     32  O   UNL A   1      29.666  29.350  23.238  1.00  0.00    -0.268 OA
ATOM     33  N   UNL A   1      31.141  29.570  24.853  1.00  0.00    -0.321 N 
ATOM     34  H   UNL A   1      30.319  29.868  25.304  1.00  0.00     0.170 HD
BRANCH  33  35
ATOM     35  C   UNL A   1      32.250  29.838  25.703  1.00  0.00     0.041 A 
ATOM     36  C   UNL A   1      33.295  28.896  25.646  1.00  0.00     0.029 A 
ATOM     37  C   UNL A   1      32.383  30.830  26.669  1.00  0.00     0.029 A 
ATOM     38  C   UNL A   1      34.404  28.948  26.509  1.00  0.00     0.041 A 
ATOM     39  C   UNL A   1      33.458  30.860  27.581  1.00  0.00     0.041 A 
ATOM     40  C   UNL A   1      34.469  29.926  27.485  1.00  0.00     0.123 A 
ATOM     41  F   UNL A   1      35.507  29.969  28.328  1.00  0.00    -0.207 F 
ENDBRANCH  33  35
ENDBRANCH  30  31
ENDBRANCH  28  30
ENDBRANCH   9  23
ENDBRANCH   3   6
ENDBRANCH   1   2
BRANCH   1  42
ATOM     42  C   UNL A   1      40.132  23.083  27.440  1.00  0.00     0.042 C 
BRANCH  42  43
ATOM     43  C   UNL A   1      40.643  24.618  27.593  1.00  0.00     0.118 C 
BRANCH  43  44
ATOM     44  N   UNL A   1      39.955  25.906  28.240  1.00  0.00    -0.352 N 
ATOM     45  C   UNL A   1      39.869  27.367  28.066  1.00  0.00     0.251 C 
ATOM     46  H   UNL A   1      39.408  25.634  29.012  1.00  0.00     0.163 HD
ATOM     47  O   UNL A   1      38.691  27.771  27.999  1.00  0.00    -0.269 OA
BRANCH  45  48
ATOM     48  C   UNL A   1      40.925  28.553  27.921  1.00  0.00     0.039 A 
ATOM     49  C   UNL A   1      41.497  28.934  26.671  1.00  0.00     0.014 A 
ATOM     50  C   UNL A   1      41.428  29.316  28.951  1.00  0.00     0.014 A 
ATOM     51  C   UNL A   1      42.882  29.327  26.602  1.00  0.00     0.010 A 
ATOM     52  C   UNL A   1      42.776  29.765  28.884  1.00  0.00     0.010 A 
ATOM     53  C   UNL A   1      43.601  29.495  27.779  1.00  0.00    -0.014 A 
BRANCH  53  54
ATOM     54  C   UNL A   1      45.106  29.283  27.930  1.00  0.00     0.031 A 
ATOM     55  C   UNL A   1      46.018  30.386  27.663  1.00  0.00     0.074 A 
ATOM     56  C   UNL A   1      45.803  28.226  28.462  1.00  0.00     0.049 A 
ATOM     57  N   UNL A   1      47.076  30.310  26.924  1.00  0.00    -0.248 NA
ATOM     58  C   UNL A   1      45.804  31.672  28.292  1.00  0.00     0.031 C 
ATOM     59  C   UNL A   1      47.228  28.007  28.791  1.00  0.00     0.029 A 
ATOM     60  N   UNL A   1      45.312  27.022  28.923  1.00  0.00    -0.354 N 
ATOM     61  C   UNL A   1      47.834  31.409  27.267  1.00  0.00     0.074 A 
ATOM     62  C   UNL A   1      46.905  32.314  27.908  1.00  0.00     0.031 C 
ATOM     63  C   UNL A   1      47.459  26.680  28.950  1.00  0.00     0.029 A 
ATOM     64  C   UNL A   1      46.213  25.990  28.694  1.00  0.00     0.049 A 
ATOM     65  H   UNL A   1      44.436  26.909  29.359  1.00  0.00     0.167 HD
ATOM     66  C   UNL A   1      49.203  31.359  27.252  1.00  0.00     0.037 A 
ATOM     67  C   UNL A   1      45.875  25.062  27.747  1.00  0.00     0.037 A 
ATOM     68  C   UNL A   1      49.700  29.984  27.021  1.00  0.00     0.049 A 
ATOM     69  C   UNL A   1      46.704  25.255  26.516  1.00  0.00     0.074 A 
ATOM     70  C   UNL A   1      50.367  29.056  27.812  1.00  0.00     0.029 A 
ATOM     71  N   UNL A   1      49.264  29.262  25.920  1.00  0.00    -0.354 N 
ATOM     72  N   UNL A   1      47.743  26.034  26.484  1.00  0.00    -0.248 NA
ATOM     73  C   UNL A   1      46.402  24.674  25.214  1.00  0.00     0.031 C 
ATOM     74  C   UNL A   1      50.310  27.780  27.173  1.00  0.00     0.029 A 
ATOM     75  C   UNL A   1      49.631  27.927  25.979  1.00  0.00     0.049 A 
ATOM     76  H   UNL A   1      48.749  29.655  25.177  1.00  0.00     0.167 HD
ATOM     77  C   UNL A   1      48.183  26.170  25.207  1.00  0.00     0.074 A 
ATOM     78  C   UNL A   1      47.329  25.274  24.443  1.00  0.00     0.031 C 
ATOM     79  C   UNL A   1      49.200  27.030  24.906  1.00  0.00     0.037 A 
BRANCH  66  80
ATOM     80  C   UNL A   1      50.077  32.499  27.773  1.00  0.00     0.058 A 
ATOM     81  C   UNL A   1      50.361  33.634  26.986  1.00  0.00     0.135 A 
ATOM     82  C   UNL A   1      50.644  32.553  29.067  1.00  0.00     0.135 A 
ATOM     83  F   UNL A   1      49.765  33.830  25.802  1.00  0.00    -0.206 F 
ATOM     84  C   UNL A   1      51.229  34.654  27.394  1.00  0.00     0.059 A 
ATOM     85  C   UNL A   1      51.583  33.506  29.467  1.00  0.00     0.059 A 
ATOM     86  F   UNL A   1      50.226  31.750  30.054  1.00  0.00    -0.206 F 
ATOM     87  C   UNL A   1      51.866  34.564  28.624  1.00  0.00     0.060 A 
BRANCH  87  88
ATOM     88  S   UNL A   1      52.961  35.891  29.157  1.00  0.00     0.124 S 
ATOM     89  O   UNL A   1      53.457  35.393  30.435  1.00  0.00    -0.237 OA
ATOM     90  O   UNL A   1      53.934  35.934  28.070  1.00  0.00    -0.237 OA
ATOM     91  O   UNL A   1      52.077  37.051  29.244  1.00  0.00    -0.744 OA
ENDBRANCH  87  88
ENDBRANCH  66  80
BRANCH  67  92
ATOM     92  C   UNL A   1      44.405  24.638  27.759  1.00  0.00     0.058 A 
ATOM     93  C   UNL A   1      43.765  24.908  26.544  1.00  0.00     0.135 A 
ATOM     94  C   UNL A   1      44.145  23.354  28.200  1.00  0.00     0.135 A 
ATOM     95  F   UNL A   1      43.405  26.156  26.229  1.00  0.00    -0.206 F 
ATOM     96  C   UNL A   1      43.700  23.921  25.562  1.00  0.00     0.059 A 
ATOM     97  C   UNL A   1      43.873  22.357  27.258  1.00  0.00     0.059 A 
ATOM     98  F   UNL A   1      44.222  23.036  29.502  1.00  0.00    -0.206 F 
ATOM     99  C   UNL A   1      44.002  22.608  25.907  1.00  0.00     0.060 A 
BRANCH  99 100
ATOM    100  S   UNL A   1      44.872  21.461  24.494  1.00  0.00     0.124 S 
ATOM    101  O   UNL A   1      44.088  20.267  24.701  1.00  0.00    -0.237 OA
ATOM    102  O   UNL A   1      44.549  21.968  23.168  1.00  0.00    -0.237 OA
ATOM    103  O   UNL A   1      46.271  21.317  24.773  1.00  0.00    -0.744 OA
ENDBRANCH  99 100
ENDBRANCH  67  92
BRANCH  79 104
ATOM    104  C   UNL A   1      49.852  27.108  23.555  1.00  0.00     0.058 A 
ATOM    105  C   UNL A   1      49.148  27.465  22.392  1.00  0.00     0.135 A 
ATOM    106  C   UNL A   1      51.189  26.696  23.355  1.00  0.00     0.135 A 
ATOM    107  F   UNL A   1      47.830  27.712  22.421  1.00  0.00    -0.206 F 
ATOM    108  C   UNL A   1      49.763  27.539  21.144  1.00  0.00     0.059 A 
ATOM    109  C   UNL A   1      51.806  26.710  22.114  1.00  0.00     0.059 A 
ATOM    110  F   UNL A   1      51.963  26.265  24.358  1.00  0.00    -0.206 F 
ATOM    111  C   UNL A   1      51.098  27.171  21.018  1.00  0.00     0.060 A 
BRANCH 111 112
ATOM    112  S   UNL A   1      51.891  27.265  19.410  1.00  0.00     0.124 S 
ATOM    113  O   UNL A   1      50.749  27.277  18.500  1.00  0.00    -0.237 OA
ATOM    114  O   UNL A   1      52.624  28.521  19.521  1.00  0.00    -0.237 OA
ATOM    115  O   UNL A   1      52.711  26.060  19.361  1.00  0.00    -0.744 OA
ENDBRANCH 111 112
ENDBRANCH  79 104
ENDBRANCH  53  54
ENDBRANCH  45  48
ENDBRANCH  43  44
ENDBRANCH  42  43
ENDBRANCH   1  42
TORSDOF 19
ENDMDL
MODEL 2
REMARK VINA RESULT:     -13.0      6.796     11.574
REMARK SMILES Cc1ccccc1C(=O)Nc1cc(C(=O)NCCCNC(=O)c2ccc(-c3c4nc(c(-c5c(F)cc(S(=O)(=O)[O-])cc5F)c5ccc([nH]5)c(-c5c(F)cc(S(=O)(=O)[O-])cc5F)c5nc(c(-c6c(F)cc(S(=O)(=O)[O-])cc6F)c6ccc3[nH]6)C=C5)C=C4)cc2)ccc1N1CC[NH+](CC(=O)Nc2ccc(F)cc2)CC1
REMARK SMILES IDX 17 1 16 2 14 3 15 4 13 6 11 7 12 8 91 9 90 10 89 11 10 12
REMARK SMILES IDX 8 13 9 14 7 16 1 17 2 18 3 19 4 20 6 21 5 22 92 23 93 24
REMARK SMILES IDX 108 25 94 26 107 27 95 28 96 30 97 31 98 32 99 33 100 35
REMARK SMILES IDX 101 36 106 37 102 38 105 39 103 40 104 41 18 42 19 43 20 44
REMARK SMILES IDX 21 45 22 47 23 48 24 49 88 50 25 51 87 52 26 53 27 54 28 55
REMARK SMILES IDX 81 56 29 57 86 58 80 59 82 60 30 61 85 62 79 63 78 64 31 66
REMARK SMILES IDX 65 67 44 68 64 69 45 70 48 71 63 72 83 73 46 74 47 75 62 77
REMARK SMILES IDX 84 78 49 79 32 80 33 81 42 82 34 83 35 84 41 85 43 86 36 87
REMARK SMILES IDX 37 88 38 89 39 90 40 91 66 92 67 93 76 94 68 95 69 96 75 97
REMARK SMILES IDX 77 98 70 99 71 100 72 101 73 102 74 103 50 104 51 105 60 106
REMARK SMILES IDX 52 107 53 108 59 109 61 110 54 111 55 112 56 113 57 114
REMARK SMILES IDX 58 115
REMARK H PARENT 16 5 10 15 95 29 99 34 20 46 82 65 48 76
REMARK Flexibility Score: inf
ROOT
ATOM      1  C   UNL A   1      38.854  22.615  26.356  1.00  0.00     0.118 C 
ENDROOT
BRANCH   1   2
ATOM      2  N   UNL A   1      38.277  21.279  25.970  1.00  0.00    -0.352 N 
ATOM      3  C   UNL A   1      37.339  20.774  25.089  1.00  0.00     0.251 C 
ATOM      4  O   UNL A   1      37.244  19.579  24.817  1.00  0.00    -0.269 OA
ATOM      5  H   UNL A   1      38.686  20.555  26.498  1.00  0.00     0.163 HD
BRANCH   3   6
ATOM      6  C   UNL A   1      36.414  21.706  24.434  1.00  0.00     0.042 A 
ATOM      7  C   UNL A   1      34.146  22.354  24.375  1.00  0.00     0.065 A 
ATOM      8  C   UNL A   1      35.083  21.376  24.509  1.00  0.00     0.042 A 
ATOM      9  C   UNL A   1      34.445  23.522  23.631  1.00  0.00     0.061 A 
ATOM     10  C   UNL A   1      35.804  23.773  23.358  1.00  0.00     0.029 A 
ATOM     11  C   UNL A   1      36.800  22.905  23.829  1.00  0.00     0.016 A 
BRANCH   7  12
ATOM     12  N   UNL A   1      32.881  22.083  24.912  1.00  0.00    -0.320 N 
ATOM     13  C   UNL A   1      32.143  20.899  24.970  1.00  0.00     0.255 C 
ATOM     14  O   UNL A   1      31.183  20.921  25.756  1.00  0.00    -0.269 OA
ATOM     15  H   UNL A   1      32.435  22.861  25.320  1.00  0.00     0.170 HD
BRANCH  13  16
ATOM     16  C   UNL A   1      32.344  19.597  24.221  1.00  0.00     0.043 A 
ATOM     17  C   UNL A   1      32.841  17.906  26.123  1.00  0.00     0.045 C 
ATOM     18  C   UNL A   1      32.668  18.303  24.690  1.00  0.00    -0.038 A 
ATOM     19  C   UNL A   1      32.957  17.274  23.747  1.00  0.00     0.004 A 
ATOM     20  C   UNL A   1      32.853  17.477  22.373  1.00  0.00     0.000 A 
ATOM     21  C   UNL A   1      32.157  19.739  22.821  1.00  0.00     0.014 A 
ATOM     22  C   UNL A   1      32.416  18.705  21.911  1.00  0.00     0.001 A 
ENDBRANCH  13  16
ENDBRANCH   7  12
BRANCH   9  23
ATOM     23  N   UNL A   1      33.449  24.392  23.227  1.00  0.00    -0.359 N 
ATOM     24  C   UNL A   1      33.657  25.583  22.377  1.00  0.00     0.178 C 
ATOM     25  C   UNL A   1      32.272  24.492  24.066  1.00  0.00     0.178 C 
ATOM     26  C   UNL A   1      32.300  26.118  21.778  1.00  0.00     0.284 C 
ATOM     27  C   UNL A   1      31.064  24.617  23.135  1.00  0.00     0.284 C 
ATOM     28  N   UNL A   1      31.043  25.943  22.543  1.00  0.00    -0.324 N 
ATOM     29  H   UNL A   1      30.318  26.072  21.838  1.00  0.00     0.348 HD
BRANCH  28  30
ATOM     30  C   UNL A   1      30.577  26.979  23.496  1.00  0.00     0.364 C 
BRANCH  30  31
ATOM     31  C   UNL A   1      30.695  28.467  23.150  1.00  0.00     0.279 C 
ATOM     32  O   UNL A   1      30.281  28.844  22.039  1.00  0.00    -0.268 OA
ATOM     33  N   UNL A   1      31.125  29.484  23.966  1.00  0.00    -0.321 N 
ATOM     34  H   UNL A   1      30.777  30.337  23.618  1.00  0.00     0.170 HD
BRANCH  33  35
ATOM     35  C   UNL A   1      31.892  29.748  25.134  1.00  0.00     0.041 A 
ATOM     36  C   UNL A   1      31.481  30.865  25.886  1.00  0.00     0.029 A 
ATOM     37  C   UNL A   1      33.063  29.131  25.560  1.00  0.00     0.029 A 
ATOM     38  C   UNL A   1      32.205  31.333  26.997  1.00  0.00     0.041 A 
ATOM     39  C   UNL A   1      33.832  29.624  26.635  1.00  0.00     0.041 A 
ATOM     40  C   UNL A   1      33.389  30.714  27.355  1.00  0.00     0.123 A 
ATOM     41  F   UNL A   1      34.098  31.168  28.395  1.00  0.00    -0.207 F 
ENDBRANCH  33  35
ENDBRANCH  30  31
ENDBRANCH  28  30
ENDBRANCH   9  23
ENDBRANCH   3   6
ENDBRANCH   1   2
BRANCH   1  42
ATOM     42  C   UNL A   1      40.170  22.836  27.335  1.00  0.00     0.042 C 
BRANCH  42  43
ATOM     43  C   UNL A   1      40.730  24.359  27.417  1.00  0.00     0.118 C 
BRANCH  43  44
ATOM     44  N   UNL A   1      40.039  25.763  27.095  1.00  0.00    -0.352 N 
ATOM     45  C   UNL A   1      39.886  27.118  27.653  1.00  0.00     0.251 C 
ATOM     46  H   UNL A   1      39.554  25.702  26.241  1.00  0.00     0.163 HD
ATOM     47  O   UNL A   1      40.208  28.008  26.841  1.00  0.00    -0.269 OA
BRANCH  45  48
ATOM     48  C   UNL A   1      39.425  27.717  29.057  1.00  0.00     0.039 A 
ATOM     49  C   UNL A   1      38.377  28.676  29.186  1.00  0.00     0.014 A 
ATOM     50  C   UNL A   1      39.981  27.421  30.282  1.00  0.00     0.014 A 
ATOM     51  C   UNL A   1      38.490  29.744  30.147  1.00  0.00     0.010 A 
ATOM     52  C   UNL A   1      40.055  28.440  31.272  1.00  0.00     0.010 A 
ATOM     53  C   UNL A   1      39.539  29.730  31.058  1.00  0.00    -0.014 A 
BRANCH  53  54
ATOM     54  C   UNL A   1      40.184  30.969  31.678  1.00  0.00     0.031 A 
ATOM     55  C   UNL A   1      41.338  30.818  32.551  1.00  0.00     0.074 A 
ATOM     56  C   UNL A   1      39.968  32.301  31.424  1.00  0.00     0.049 A 
ATOM     57  N   UNL A   1      41.470  31.379  33.708  1.00  0.00    -0.248 NA
ATOM     58  C   UNL A   1      42.479  30.039  32.118  1.00  0.00     0.031 C 
ATOM     59  C   UNL A   1      40.647  33.543  31.852  1.00  0.00     0.029 A 
ATOM     60  N   UNL A   1      39.030  32.872  30.589  1.00  0.00    -0.354 N 
ATOM     61  C   UNL A   1      42.818  31.312  33.990  1.00  0.00     0.074 A 
ATOM     62  C   UNL A   1      43.328  30.279  33.114  1.00  0.00     0.031 C 
ATOM     63  C   UNL A   1      39.835  34.605  31.626  1.00  0.00     0.029 A 
ATOM     64  C   UNL A   1      38.594  34.095  31.084  1.00  0.00     0.049 A 
ATOM     65  H   UNL A   1      38.710  32.466  29.751  1.00  0.00     0.167 HD
ATOM     66  C   UNL A   1      43.444  32.300  34.704  1.00  0.00     0.037 A 
ATOM     67  C   UNL A   1      37.311  34.159  31.555  1.00  0.00     0.037 A 
ATOM     68  C   UNL A   1      42.552  33.458  34.936  1.00  0.00     0.049 A 
ATOM     69  C   UNL A   1      37.314  34.233  33.050  1.00  0.00     0.074 A 
ATOM     70  C   UNL A   1      42.533  34.767  34.469  1.00  0.00     0.029 A 
ATOM     71  N   UNL A   1      41.307  33.273  35.519  1.00  0.00    -0.354 N 
ATOM     72  N   UNL A   1      38.392  34.452  33.741  1.00  0.00    -0.248 NA
ATOM     73  C   UNL A   1      36.151  33.989  33.895  1.00  0.00     0.031 C 
ATOM     74  C   UNL A   1      41.264  35.346  34.772  1.00  0.00     0.029 A 
ATOM     75  C   UNL A   1      40.511  34.405  35.447  1.00  0.00     0.049 A 
ATOM     76  H   UNL A   1      41.020  32.429  35.939  1.00  0.00     0.167 HD
ATOM     77  C   UNL A   1      38.142  34.277  35.063  1.00  0.00     0.074 A 
ATOM     78  C   UNL A   1      36.711  34.015  35.118  1.00  0.00     0.031 C 
ATOM     79  C   UNL A   1      39.150  34.345  35.981  1.00  0.00     0.037 A 
BRANCH  66  80
ATOM     80  C   UNL A   1      44.958  32.343  34.902  1.00  0.00     0.058 A 
ATOM     81  C   UNL A   1      45.813  32.918  33.939  1.00  0.00     0.135 A 
ATOM     82  C   UNL A   1      45.636  31.861  36.044  1.00  0.00     0.135 A 
ATOM     83  F   UNL A   1      45.330  33.576  32.877  1.00  0.00    -0.206 F 
ATOM     84  C   UNL A   1      47.210  32.895  34.043  1.00  0.00     0.059 A 
ATOM     85  C   UNL A   1      47.024  31.742  36.134  1.00  0.00     0.059 A 
ATOM     86  F   UNL A   1      44.989  31.589  37.185  1.00  0.00    -0.206 F 
ATOM     87  C   UNL A   1      47.810  32.271  35.128  1.00  0.00     0.060 A 
BRANCH  87  88
ATOM     88  S   UNL A   1      49.605  32.269  35.271  1.00  0.00     0.124 S 
ATOM     89  O   UNL A   1      49.981  33.447  34.497  1.00  0.00    -0.237 OA
ATOM     90  O   UNL A   1      49.794  32.370  36.714  1.00  0.00    -0.237 OA
ATOM     91  O   UNL A   1      49.994  30.990  34.681  1.00  0.00    -0.744 OA
ENDBRANCH  87  88
ENDBRANCH  66  80
BRANCH  67  92
ATOM     92  C   UNL A   1      36.280  33.403  30.715  1.00  0.00     0.058 A 
ATOM     93  C   UNL A   1      35.183  32.980  31.474  1.00  0.00     0.135 A 
ATOM     94  C   UNL A   1      35.883  34.017  29.541  1.00  0.00     0.135 A 
ATOM     95  F   UNL A   1      35.290  31.929  32.293  1.00  0.00    -0.206 F 
ATOM     96  C   UNL A   1      34.046  33.781  31.553  1.00  0.00     0.059 A 
ATOM     97  C   UNL A   1      34.648  34.671  29.505  1.00  0.00     0.059 A 
ATOM     98  F   UNL A   1      36.691  34.058  28.470  1.00  0.00    -0.206 F 
ATOM     99  C   UNL A   1      33.898  34.831  30.653  1.00  0.00     0.060 A 
BRANCH  99 100
ATOM    100  S   UNL A   1      32.941  36.480  31.309  1.00  0.00     0.124 S 
ATOM    101  O   UNL A   1      33.915  36.894  32.290  1.00  0.00    -0.237 OA
ATOM    102  O   UNL A   1      32.919  37.496  30.265  1.00  0.00    -0.237 OA
ATOM    103  O   UNL A   1      31.661  36.123  31.846  1.00  0.00    -0.744 OA
ENDBRANCH  99 100
ENDBRANCH  67  92
BRANCH  79 104
ATOM    104  C   UNL A   1      38.926  34.332  37.466  1.00  0.00     0.058 A 
ATOM    105  C   UNL A   1      39.200  35.441  38.285  1.00  0.00     0.135 A 
ATOM    106  C   UNL A   1      38.547  33.152  38.145  1.00  0.00     0.135 A 
ATOM    107  F   UNL A   1      39.728  36.567  37.783  1.00  0.00    -0.206 F 
ATOM    108  C   UNL A   1      38.983  35.419  39.661  1.00  0.00     0.059 A 
ATOM    109  C   UNL A   1      38.377  33.092  39.520  1.00  0.00     0.059 A 
ATOM    110  F   UNL A   1      38.319  31.999  37.505  1.00  0.00    -0.206 F 
ATOM    111  C   UNL A   1      38.558  34.242  40.268  1.00  0.00     0.060 A 
BRANCH 111 112
ATOM    112  S   UNL A   1      38.281  34.215  42.041  1.00  0.00     0.124 S 
ATOM    113  O   UNL A   1      39.398  33.406  42.519  1.00  0.00    -0.237 OA
ATOM    114  O   UNL A   1      38.344  35.635  42.366  1.00  0.00    -0.237 OA
ATOM    115  O   UNL A   1      36.966  33.596  42.173  1.00  0.00    -0.744 OA
ENDBRANCH 111 112
ENDBRANCH  79 104
ENDBRANCH  53  54
ENDBRANCH  45  48
ENDBRANCH  43  44
ENDBRANCH  42  43
ENDBRANCH   1  42
TORSDOF 19
ENDMDL
MODEL 3
REMARK VINA RESULT:     -12.1      5.071     10.384
REMARK SMILES Cc1ccccc1C(=O)Nc1cc(C(=O)NCCCNC(=O)c2ccc(-c3c4nc(c(-c5c(F)cc(S(=O)(=O)[O-])cc5F)c5ccc([nH]5)c(-c5c(F)cc(S(=O)(=O)[O-])cc5F)c5nc(c(-c6c(F)cc(S(=O)(=O)[O-])cc6F)c6ccc3[nH]6)C=C5)C=C4)cc2)ccc1N1CC[NH+](CC(=O)Nc2ccc(F)cc2)CC1
REMARK SMILES IDX 17 1 16 2 14 3 15 4 13 6 11 7 12 8 91 9 90 10 89 11 10 12
REMARK SMILES IDX 8 13 9 14 7 16 1 17 2 18 3 19 4 20 6 21 5 22 92 23 93 24
REMARK SMILES IDX 108 25 94 26 107 27 95 28 96 30 97 31 98 32 99 33 100 35
REMARK SMILES IDX 101 36 106 37 102 38 105 39 103 40 104 41 18 42 19 43 20 44
REMARK SMILES IDX 21 45 22 47 23 48 24 49 88 50 25 51 87 52 26 53 27 54 28 55
REMARK SMILES IDX 81 56 29 57 86 58 80 59 82 60 30 61 85 62 79 63 78 64 31 66
REMARK SMILES IDX 65 67 44 68 64 69 45 70 48 71 63 72 83 73 46 74 47 75 62 77
REMARK SMILES IDX 84 78 49 79 32 80 33 81 42 82 34 83 35 84 41 85 43 86 36 87
REMARK SMILES IDX 37 88 38 89 39 90 40 91 66 92 67 93 76 94 68 95 69 96 75 97
REMARK SMILES IDX 77 98 70 99 71 100 72 101 73 102 74 103 50 104 51 105 60 106
REMARK SMILES IDX 52 107 53 108 59 109 61 110 54 111 55 112 56 113 57 114
REMARK SMILES IDX 58 115
REMARK H PARENT 16 5 10 15 95 29 99 34 20 46 82 65 48 76
REMARK Flexibility Score: inf
ROOT
ATOM      1  C   UNL A   1      41.089  24.804  27.353  1.00  0.00     0.118 C 
ENDROOT
BRANCH   1   2
ATOM      2  N   UNL A   1      41.310  25.866  26.310  1.00  0.00    -0.352 N 
ATOM      3  C   UNL A   1      41.400  27.244  26.241  1.00  0.00     0.251 C 
ATOM      4  O   UNL A   1      41.837  27.843  25.260  1.00  0.00    -0.269 OA
ATOM      5  H   UNL A   1      41.425  25.464  25.418  1.00  0.00     0.163 HD
BRANCH   3   6
ATOM      6  C   UNL A   1      40.963  28.037  27.395  1.00  0.00     0.042 A 
ATOM      7  C   UNL A   1      41.783  29.286  29.222  1.00  0.00     0.065 A 
ATOM      8  C   UNL A   1      41.902  28.222  28.381  1.00  0.00     0.042 A 
ATOM      9  C   UNL A   1      40.506  29.844  29.481  1.00  0.00     0.061 A 
ATOM     10  C   UNL A   1      39.469  29.497  28.594  1.00  0.00     0.029 A 
ATOM     11  C   UNL A   1      39.714  28.653  27.500  1.00  0.00     0.016 A 
BRANCH   7  12
ATOM     12  N   UNL A   1      42.954  29.702  29.869  1.00  0.00    -0.320 N 
ATOM     13  C   UNL A   1      43.779  30.807  29.652  1.00  0.00     0.255 C 
ATOM     14  O   UNL A   1      44.580  31.048  30.570  1.00  0.00    -0.269 OA
ATOM     15  H   UNL A   1      43.244  29.114  30.604  1.00  0.00     0.170 HD
BRANCH  13  16
ATOM     16  C   UNL A   1      43.839  31.753  28.470  1.00  0.00     0.043 A 
ATOM     17  C   UNL A   1      44.307  30.161  26.477  1.00  0.00     0.045 C 
ATOM     18  C   UNL A   1      44.088  31.505  27.101  1.00  0.00    -0.038 A 
ATOM     19  C   UNL A   1      44.245  32.607  26.211  1.00  0.00     0.004 A 
ATOM     20  C   UNL A   1      44.083  33.926  26.630  1.00  0.00     0.000 A 
ATOM     21  C   UNL A   1      43.587  33.101  28.837  1.00  0.00     0.014 A 
ATOM     22  C   UNL A   1      43.717  34.170  27.941  1.00  0.00     0.001 A 
ENDBRANCH  13  16
ENDBRANCH   7  12
BRANCH   9  23
ATOM     23  N   UNL A   1      40.304  30.718  30.533  1.00  0.00    -0.359 N 
ATOM     24  C   UNL A   1      39.972  30.317  31.916  1.00  0.00     0.178 C 
ATOM     25  C   UNL A   1      39.860  32.059  30.209  1.00  0.00     0.178 C 
ATOM     26  C   UNL A   1      40.201  31.496  32.937  1.00  0.00     0.284 C 
ATOM     27  C   UNL A   1      40.584  33.016  31.158  1.00  0.00     0.284 C 
ATOM     28  N   UNL A   1      40.019  32.896  32.491  1.00  0.00    -0.324 N 
ATOM     29  H   UNL A   1      40.512  33.436  33.201  1.00  0.00     0.348 HD
BRANCH  28  30
ATOM     30  C   UNL A   1      38.705  33.572  32.608  1.00  0.00     0.364 C 
BRANCH  30  31
ATOM     31  C   UNL A   1      37.470  32.801  33.089  1.00  0.00     0.279 C 
ATOM     32  O   UNL A   1      37.245  32.762  34.312  1.00  0.00    -0.268 OA
ATOM     33  N   UNL A   1      36.502  32.208  32.318  1.00  0.00    -0.321 N 
ATOM     34  H   UNL A   1      35.688  32.100  32.862  1.00  0.00     0.170 HD
BRANCH  33  35
ATOM     35  C   UNL A   1      36.252  31.694  31.016  1.00  0.00     0.041 A 
ATOM     36  C   UNL A   1      36.374  30.296  30.886  1.00  0.00     0.029 A 
ATOM     37  C   UNL A   1      36.030  32.394  29.835  1.00  0.00     0.029 A 
ATOM     38  C   UNL A   1      36.281  29.645  29.643  1.00  0.00     0.041 A 
ATOM     39  C   UNL A   1      35.994  31.761  28.575  1.00  0.00     0.041 A 
ATOM     40  C   UNL A   1      36.105  30.389  28.490  1.00  0.00     0.123 A 
ATOM     41  F   UNL A   1      36.040  29.780  27.300  1.00  0.00    -0.207 F 
ENDBRANCH  33  35
ENDBRANCH  30  31
ENDBRANCH  28  30
ENDBRANCH   9  23
ENDBRANCH   3   6
ENDBRANCH   1   2
BRANCH   1  42
ATOM     42  C   UNL A   1      40.104  23.485  27.175  1.00  0.00     0.042 C 
BRANCH  42  43
ATOM     43  C   UNL A   1      40.837  22.134  26.647  1.00  0.00     0.118 C 
BRANCH  43  44
ATOM     44  N   UNL A   1      41.823  21.873  25.418  1.00  0.00    -0.352 N 
ATOM     45  C   UNL A   1      43.244  21.990  25.045  1.00  0.00     0.251 C 
ATOM     46  H   UNL A   1      41.312  21.516  24.656  1.00  0.00     0.163 HD
ATOM     47  O   UNL A   1      43.710  20.924  24.598  1.00  0.00    -0.269 OA
BRANCH  45  48
ATOM     48  C   UNL A   1      44.334  23.153  25.096  1.00  0.00     0.039 A 
ATOM     49  C   UNL A   1      45.738  22.900  25.106  1.00  0.00     0.014 A 
ATOM     50  C   UNL A   1      44.072  24.503  25.167  1.00  0.00     0.014 A 
ATOM     51  C   UNL A   1      46.611  23.712  25.916  1.00  0.00     0.010 A 
ATOM     52  C   UNL A   1      44.948  25.339  25.913  1.00  0.00     0.010 A 
ATOM     53  C   UNL A   1      46.101  24.841  26.545  1.00  0.00    -0.014 A 
BRANCH  53  54
ATOM     54  C   UNL A   1      46.619  25.429  27.856  1.00  0.00     0.031 A 
ATOM     55  C   UNL A   1      45.673  25.917  28.849  1.00  0.00     0.074 A 
ATOM     56  C   UNL A   1      47.887  25.438  28.383  1.00  0.00     0.049 A 
ATOM     57  N   UNL A   1      45.751  27.060  29.447  1.00  0.00    -0.248 NA
ATOM     58  C   UNL A   1      44.575  25.077  29.279  1.00  0.00     0.031 C 
ATOM     59  C   UNL A   1      48.443  25.834  29.695  1.00  0.00     0.029 A 
ATOM     60  N   UNL A   1      49.057  24.987  27.807  1.00  0.00    -0.354 N 
ATOM     61  C   UNL A   1      44.937  26.944  30.554  1.00  0.00     0.074 A 
ATOM     62  C   UNL A   1      44.071  25.823  30.260  1.00  0.00     0.031 C 
ATOM     63  C   UNL A   1      49.785  25.997  29.589  1.00  0.00     0.029 A 
ATOM     64  C   UNL A   1      50.143  25.753  28.208  1.00  0.00     0.049 A 
ATOM     65  H   UNL A   1      49.114  24.221  27.191  1.00  0.00     0.167 HD
ATOM     66  C   UNL A   1      45.234  27.591  31.724  1.00  0.00     0.037 A 
ATOM     67  C   UNL A   1      50.719  26.566  27.269  1.00  0.00     0.037 A 
ATOM     68  C   UNL A   1      46.571  28.224  31.677  1.00  0.00     0.049 A 
ATOM     69  C   UNL A   1      50.372  27.995  27.544  1.00  0.00     0.074 A 
ATOM     70  C   UNL A   1      47.777  27.974  32.320  1.00  0.00     0.029 A 
ATOM     71  N   UNL A   1      46.892  29.097  30.648  1.00  0.00    -0.354 N 
ATOM     72  N   UNL A   1      49.818  28.384  28.652  1.00  0.00    -0.248 NA
ATOM     73  C   UNL A   1      50.533  29.085  26.589  1.00  0.00     0.031 C 
ATOM     74  C   UNL A   1      48.813  28.696  31.653  1.00  0.00     0.029 A 
ATOM     75  C   UNL A   1      48.242  29.411  30.618  1.00  0.00     0.049 A 
ATOM     76  H   UNL A   1      46.234  29.454  30.009  1.00  0.00     0.167 HD
ATOM     77  C   UNL A   1      49.442  29.685  28.554  1.00  0.00     0.074 A 
ATOM     78  C   UNL A   1      49.939  30.096  27.250  1.00  0.00     0.031 C 
ATOM     79  C   UNL A   1      48.737  30.287  29.556  1.00  0.00     0.037 A 
BRANCH  66  80
ATOM     80  C   UNL A   1      44.448  27.365  33.015  1.00  0.00     0.058 A 
ATOM     81  C   UNL A   1      44.761  26.311  33.897  1.00  0.00     0.135 A 
ATOM     82  C   UNL A   1      43.384  28.180  33.464  1.00  0.00     0.135 A 
ATOM     83  F   UNL A   1      45.847  25.547  33.717  1.00  0.00    -0.206 F 
ATOM     84  C   UNL A   1      44.008  26.017  35.041  1.00  0.00     0.059 A 
ATOM     85  C   UNL A   1      42.560  27.860  34.545  1.00  0.00     0.059 A 
ATOM     86  F   UNL A   1      43.160  29.395  32.946  1.00  0.00    -0.206 F 
ATOM     87  C   UNL A   1      42.885  26.777  35.338  1.00  0.00     0.060 A 
BRANCH  87  88
ATOM     88  S   UNL A   1      41.935  26.413  36.825  1.00  0.00     0.124 S 
ATOM     89  O   UNL A   1      40.995  27.528  36.875  1.00  0.00    -0.237 OA
ATOM     90  O   UNL A   1      41.360  25.111  36.505  1.00  0.00    -0.237 OA
ATOM     91  O   UNL A   1      42.943  26.404  37.883  1.00  0.00    -0.744 OA
ENDBRANCH  87  88
ENDBRANCH  66  80
BRANCH  67  92
ATOM     92  C   UNL A   1      50.851  25.945  25.877  1.00  0.00     0.058 A 
ATOM     93  C   UNL A   1      50.318  26.765  24.877  1.00  0.00     0.135 A 
ATOM     94  C   UNL A   1      52.107  25.475  25.538  1.00  0.00     0.135 A 
ATOM     95  F   UNL A   1      48.995  26.860  24.711  1.00  0.00    -0.206 F 
ATOM     96  C   UNL A   1      51.147  27.657  24.198  1.00  0.00     0.059 A 
ATOM     97  C   UNL A   1      52.910  26.243  24.690  1.00  0.00     0.059 A 
ATOM     98  F   UNL A   1      52.590  24.338  26.064  1.00  0.00    -0.206 F 
ATOM     99  C   UNL A   1      52.525  27.513  24.311  1.00  0.00     0.060 A 
BRANCH  99 100
ATOM    100  S   UNL A   1      53.636  29.196  24.249  1.00  0.00     0.124 S 
ATOM    101  O   UNL A   1      53.405  29.531  22.864  1.00  0.00    -0.237 OA
ATOM    102  O   UNL A   1      53.015  30.236  25.056  1.00  0.00    -0.237 OA
ATOM    103  O   UNL A   1      54.999  28.896  24.574  1.00  0.00    -0.744 OA
ENDBRANCH  99 100
ENDBRANCH  67  92
BRANCH  79 104
ATOM    104  C   UNL A   1      48.437  31.758  29.595  1.00  0.00     0.058 A 
ATOM    105  C   UNL A   1      48.850  32.590  30.650  1.00  0.00     0.135 A 
ATOM    106  C   UNL A   1      47.605  32.367  28.629  1.00  0.00     0.135 A 
ATOM    107  F   UNL A   1      49.500  32.097  31.715  1.00  0.00    -0.206 F 
ATOM    108  C   UNL A   1      48.571  33.955  30.673  1.00  0.00     0.059 A 
ATOM    109  C   UNL A   1      47.270  33.712  28.661  1.00  0.00     0.059 A 
ATOM    110  F   UNL A   1      47.081  31.686  27.603  1.00  0.00    -0.206 F 
ATOM    111  C   UNL A   1      47.790  34.509  29.665  1.00  0.00     0.060 A 
BRANCH 111 112
ATOM    112  S   UNL A   1      47.429  36.268  29.696  1.00  0.00     0.124 S 
ATOM    113  O   UNL A   1      48.716  36.856  29.340  1.00  0.00    -0.237 OA
ATOM    114  O   UNL A   1      46.386  36.367  28.681  1.00  0.00    -0.237 OA
ATOM    115  O   UNL A   1      46.996  36.505  31.068  1.00  0.00    -0.744 OA
ENDBRANCH 111 112
ENDBRANCH  79 104
ENDBRANCH  53  54
ENDBRANCH  45  48
ENDBRANCH  43  44
ENDBRANCH  42  43
ENDBRANCH   1  42
TORSDOF 19
ENDMDL
