MODEL 1
REMARK VINA RESULT:     -12.0      0.000      0.000
REMARK SMILES C[C@H](CCc1ccco1)NC(=O)c1cccn1CC(=O)NCCCNC(=O)c1ccc(-c2c3nc(c(-c4c(F)cc(S(=O)(=O)[O-])cc4F)c4ccc([nH]4)c(-c4c(F)cc(S(=O)(=O)[O-])cc4F)c4nc(c(-c5c(F)cc(S(=O)(=O)[O-])cc5F)c5ccc2[nH]5)C=C4)C=C3)cc1
REMARK SMILES IDX 19 1 20 2 21 3 18 5 17 6 13 7 14 8 15 9 16 10 11 11 10 12
REMARK SMILES IDX 12 14 2 15 1 16 3 17 4 18 5 19 6 20 9 21 7 22 8 23 22 24
REMARK SMILES IDX 23 25 24 26 25 27 26 28 27 30 28 31 29 32 93 33 30 34 92 35
REMARK SMILES IDX 31 36 32 37 33 38 86 39 34 40 91 41 85 42 87 43 35 44 90 45
REMARK SMILES IDX 84 46 83 47 36 49 70 50 49 51 69 52 50 53 53 54 68 55 88 56
REMARK SMILES IDX 51 57 52 58 67 60 89 61 54 62 37 63 38 64 47 65 39 66 40 67
REMARK SMILES IDX 46 68 48 69 41 70 42 71 43 72 44 73 45 74 71 75 72 76 81 77
REMARK SMILES IDX 73 78 74 79 80 80 82 81 75 82 76 83 77 84 78 85 79 86 55 87
REMARK SMILES IDX 56 88 65 89 57 90 58 91 64 92 66 93 59 94 60 95 61 96 62 97
REMARK SMILES IDX 63 98
REMARK H PARENT 21 4 10 13 25 29 87 48 53 59
REMARK Flexibility Score: inf
ROOT
ATOM      1  C   UNL A   1      33.172  28.604  23.076  1.00  0.00     0.239 C 
ATOM      2  O   UNL A   1      34.075  28.259  22.311  1.00  0.00    -0.273 OA
ATOM      3  N   UNL A   1      33.515  29.196  24.258  1.00  0.00    -0.354 N 
ATOM      4  H   UNL A   1      34.475  29.366  24.393  1.00  0.00     0.163 HD
ENDROOT
BRANCH   1   5
ATOM      5  C   UNL A   1      31.714  28.460  22.685  1.00  0.00     0.222 C 
BRANCH   5   6
ATOM      6  N   UNL A   1      31.061  27.267  23.218  1.00  0.00    -0.334 N 
ATOM      7  C   UNL A   1      31.130  25.976  22.707  1.00  0.00     0.107 A 
ATOM      8  C   UNL A   1      30.432  25.175  23.602  1.00  0.00     0.033 A 
ATOM      9  C   UNL A   1      29.877  25.993  24.611  1.00  0.00     0.020 A 
ATOM     10  C   UNL A   1      30.287  27.278  24.355  1.00  0.00     0.087 A 
BRANCH   7  11
ATOM     11  C   UNL A   1      31.853  25.610  21.500  1.00  0.00     0.268 C 
ATOM     12  N   UNL A   1      32.843  24.653  21.549  1.00  0.00    -0.348 N 
ATOM     13  H   UNL A   1      33.171  24.363  20.667  1.00  0.00     0.164 HD
ATOM     14  O   UNL A   1      31.576  26.059  20.396  1.00  0.00    -0.268 OA
BRANCH  12  15
ATOM     15  C   UNL A   1      33.494  23.991  22.684  1.00  0.00     0.079 C 
ATOM     16  C   UNL A   1      32.552  22.893  23.166  1.00  0.00     0.031 C 
BRANCH  15  17
ATOM     17  C   UNL A   1      33.965  25.044  23.725  1.00  0.00     0.032 C 
BRANCH  17  18
ATOM     18  C   UNL A   1      34.542  24.575  25.063  1.00  0.00     0.077 C 
BRANCH  18  19
ATOM     19  C   UNL A   1      35.660  23.612  24.898  1.00  0.00     0.103 A 
ATOM     20  C   UNL A   1      36.293  23.059  23.805  1.00  0.00     0.045 A 
ATOM     21  O   UNL A   1      36.183  23.100  26.048  1.00  0.00    -0.469 OA
ATOM     22  C   UNL A   1      37.211  22.110  24.318  1.00  0.00     0.042 A 
ATOM     23  C   UNL A   1      37.105  22.173  25.686  1.00  0.00     0.195 A 
ENDBRANCH  18  19
ENDBRANCH  17  18
ENDBRANCH  15  17
ENDBRANCH  12  15
ENDBRANCH   7  11
ENDBRANCH   5   6
ENDBRANCH   1   5
BRANCH   3  24
ATOM     24  C   UNL A   1      32.641  29.606  25.337  1.00  0.00     0.117 C 
BRANCH  24  25
ATOM     25  C   UNL A   1      33.078  28.989  26.665  1.00  0.00     0.042 C 
BRANCH  25  26
ATOM     26  C   UNL A   1      34.581  29.082  26.880  1.00  0.00     0.118 C 
BRANCH  26  27
ATOM     27  N   UNL A   1      34.972  30.414  27.324  1.00  0.00    -0.352 N 
ATOM     28  C   UNL A   1      36.035  30.812  28.094  1.00  0.00     0.251 C 
ATOM     29  H   UNL A   1      34.381  31.142  27.024  1.00  0.00     0.163 HD
ATOM     30  O   UNL A   1      36.028  31.950  28.561  1.00  0.00    -0.269 OA
BRANCH  28  31
ATOM     31  C   UNL A   1      37.146  29.888  28.410  1.00  0.00     0.039 A 
ATOM     32  C   UNL A   1      38.234  29.850  27.529  1.00  0.00     0.014 A 
ATOM     33  C   UNL A   1      37.122  29.047  29.527  1.00  0.00     0.014 A 
ATOM     34  C   UNL A   1      39.332  29.047  27.820  1.00  0.00     0.010 A 
ATOM     35  C   UNL A   1      38.235  28.283  29.850  1.00  0.00     0.010 A 
ATOM     36  C   UNL A   1      39.348  28.299  29.005  1.00  0.00    -0.014 A 
BRANCH  36  37
ATOM     37  C   UNL A   1      40.608  27.654  29.433  1.00  0.00     0.031 A 
ATOM     38  C   UNL A   1      40.917  26.392  28.588  1.00  0.00     0.074 A 
ATOM     39  C   UNL A   1      41.273  28.250  30.471  1.00  0.00     0.049 A 
ATOM     40  N   UNL A   1      41.568  25.311  28.897  1.00  0.00    -0.248 NA
ATOM     41  C   UNL A   1      40.340  26.281  27.216  1.00  0.00     0.031 C 
ATOM     42  C   UNL A   1      40.841  29.497  31.145  1.00  0.00     0.029 A 
ATOM     43  N   UNL A   1      42.430  27.960  31.167  1.00  0.00    -0.354 N 
ATOM     44  C   UNL A   1      41.650  24.505  27.733  1.00  0.00     0.074 A 
ATOM     45  C   UNL A   1      40.773  25.098  26.771  1.00  0.00     0.031 C 
ATOM     46  C   UNL A   1      41.663  29.806  32.172  1.00  0.00     0.029 A 
ATOM     47  C   UNL A   1      42.716  28.816  32.270  1.00  0.00     0.049 A 
ATOM     48  H   UNL A   1      43.018  27.211  30.919  1.00  0.00     0.167 HD
ATOM     49  C   UNL A   1      42.535  23.468  27.592  1.00  0.00     0.037 A 
ATOM     50  C   UNL A   1      43.701  28.705  33.218  1.00  0.00     0.037 A 
ATOM     51  C   UNL A   1      43.347  23.378  28.758  1.00  0.00     0.049 A 
ATOM     52  C   UNL A   1      44.526  27.576  32.765  1.00  0.00     0.074 A 
ATOM     53  C   UNL A   1      43.094  22.926  30.024  1.00  0.00     0.029 A 
ATOM     54  N   UNL A   1      44.501  24.124  28.761  1.00  0.00    -0.354 N 
ATOM     55  N   UNL A   1      45.356  27.612  31.766  1.00  0.00    -0.248 NA
ATOM     56  C   UNL A   1      44.343  26.275  33.422  1.00  0.00     0.031 C 
ATOM     57  C   UNL A   1      43.833  23.808  30.835  1.00  0.00     0.029 A 
ATOM     58  C   UNL A   1      44.661  24.608  30.035  1.00  0.00     0.049 A 
ATOM     59  H   UNL A   1      45.100  24.282  27.995  1.00  0.00     0.167 HD
ATOM     60  C   UNL A   1      45.535  26.280  31.488  1.00  0.00     0.074 A 
ATOM     61  C   UNL A   1      45.184  25.552  32.690  1.00  0.00     0.031 C 
ATOM     62  C   UNL A   1      45.405  25.836  30.212  1.00  0.00     0.037 A 
BRANCH  49  63
ATOM     63  C   UNL A   1      42.961  22.606  26.432  1.00  0.00     0.058 A 
ATOM     64  C   UNL A   1      42.523  21.255  26.417  1.00  0.00     0.135 A 
ATOM     65  C   UNL A   1      44.019  22.917  25.569  1.00  0.00     0.135 A 
ATOM     66  F   UNL A   1      41.467  20.868  27.153  1.00  0.00    -0.206 F 
ATOM     67  C   UNL A   1      43.187  20.253  25.718  1.00  0.00     0.059 A 
ATOM     68  C   UNL A   1      44.678  21.930  24.821  1.00  0.00     0.059 A 
ATOM     69  F   UNL A   1      44.494  24.168  25.489  1.00  0.00    -0.206 F 
ATOM     70  C   UNL A   1      44.292  20.595  24.951  1.00  0.00     0.060 A 
BRANCH  70  71
ATOM     71  S   UNL A   1      45.228  19.263  24.167  1.00  0.00     0.124 S 
ATOM     72  O   UNL A   1      44.603  19.193  22.851  1.00  0.00    -0.237 OA
ATOM     73  O   UNL A   1      46.592  19.787  24.190  1.00  0.00    -0.237 OA
ATOM     74  O   UNL A   1      44.990  18.122  25.045  1.00  0.00    -0.744 OA
ENDBRANCH  70  71
ENDBRANCH  49  63
BRANCH  50  75
ATOM     75  C   UNL A   1      44.075  29.299  34.568  1.00  0.00     0.058 A 
ATOM     76  C   UNL A   1      45.266  29.959  34.895  1.00  0.00     0.135 A 
ATOM     77  C   UNL A   1      43.109  29.310  35.621  1.00  0.00     0.135 A 
ATOM     78  F   UNL A   1      46.327  29.914  34.081  1.00  0.00    -0.206 F 
ATOM     79  C   UNL A   1      45.419  30.702  36.086  1.00  0.00     0.059 A 
ATOM     80  C   UNL A   1      43.213  30.076  36.777  1.00  0.00     0.059 A 
ATOM     81  F   UNL A   1      41.984  28.586  35.561  1.00  0.00    -0.206 F 
ATOM     82  C   UNL A   1      44.365  30.802  36.993  1.00  0.00     0.060 A 
BRANCH  82  83
ATOM     83  S   UNL A   1      44.421  31.952  38.385  1.00  0.00     0.124 S 
ATOM     84  O   UNL A   1      45.727  31.666  38.966  1.00  0.00    -0.237 OA
ATOM     85  O   UNL A   1      44.284  33.249  37.729  1.00  0.00    -0.237 OA
ATOM     86  O   UNL A   1      43.270  31.551  39.192  1.00  0.00    -0.744 OA
ENDBRANCH  82  83
ENDBRANCH  50  75
BRANCH  62  87
ATOM     87  C   UNL A   1      45.709  26.868  29.142  1.00  0.00     0.058 A 
ATOM     88  C   UNL A   1      47.026  27.312  28.946  1.00  0.00     0.135 A 
ATOM     89  C   UNL A   1      44.731  27.494  28.348  1.00  0.00     0.135 A 
ATOM     90  F   UNL A   1      48.025  26.774  29.665  1.00  0.00    -0.206 F 
ATOM     91  C   UNL A   1      47.353  28.300  28.011  1.00  0.00     0.059 A 
ATOM     92  C   UNL A   1      45.027  28.475  27.398  1.00  0.00     0.059 A 
ATOM     93  F   UNL A   1      43.446  27.172  28.482  1.00  0.00    -0.206 F 
ATOM     94  C   UNL A   1      46.347  28.872  27.232  1.00  0.00     0.060 A 
BRANCH  94  95
ATOM     95  S   UNL A   1      46.790  30.113  25.995  1.00  0.00     0.124 S 
ATOM     96  O   UNL A   1      46.727  29.352  24.751  1.00  0.00    -0.237 OA
ATOM     97  O   UNL A   1      45.741  31.111  26.178  1.00  0.00    -0.237 OA
ATOM     98  O   UNL A   1      48.130  30.537  26.394  1.00  0.00    -0.744 OA
ENDBRANCH  94  95
ENDBRANCH  62  87
ENDBRANCH  36  37
ENDBRANCH  28  31
ENDBRANCH  26  27
ENDBRANCH  25  26
ENDBRANCH  24  25
ENDBRANCH   3  24
TORSDOF 19
ENDMDL
MODEL 2
REMARK VINA RESULT:     -12.0      1.314      2.855
REMARK SMILES C[C@H](CCc1ccco1)NC(=O)c1cccn1CC(=O)NCCCNC(=O)c1ccc(-c2c3nc(c(-c4c(F)cc(S(=O)(=O)[O-])cc4F)c4ccc([nH]4)c(-c4c(F)cc(S(=O)(=O)[O-])cc4F)c4nc(c(-c5c(F)cc(S(=O)(=O)[O-])cc5F)c5ccc2[nH]5)C=C4)C=C3)cc1
REMARK SMILES IDX 19 1 20 2 21 3 18 5 17 6 13 7 14 8 15 9 16 10 11 11 10 12
REMARK SMILES IDX 12 14 2 15 1 16 3 17 4 18 5 19 6 20 9 21 7 22 8 23 22 24
REMARK SMILES IDX 23 25 24 26 25 27 26 28 27 30 28 31 29 32 93 33 30 34 92 35
REMARK SMILES IDX 31 36 32 37 33 38 86 39 34 40 91 41 85 42 87 43 35 44 90 45
REMARK SMILES IDX 84 46 83 47 36 49 70 50 49 51 69 52 50 53 53 54 68 55 88 56
REMARK SMILES IDX 51 57 52 58 67 60 89 61 54 62 37 63 38 64 47 65 39 66 40 67
REMARK SMILES IDX 46 68 48 69 41 70 42 71 43 72 44 73 45 74 71 75 72 76 81 77
REMARK SMILES IDX 73 78 74 79 80 80 82 81 75 82 76 83 77 84 78 85 79 86 55 87
REMARK SMILES IDX 56 88 65 89 57 90 58 91 64 92 66 93 59 94 60 95 61 96 62 97
REMARK SMILES IDX 63 98
REMARK H PARENT 21 4 10 13 25 29 87 48 53 59
REMARK Flexibility Score: inf
ROOT
ATOM      1  C   UNL A   1      32.266  25.386  26.398  1.00  0.00     0.239 C 
ATOM      2  O   UNL A   1      31.385  24.627  26.807  1.00  0.00    -0.273 OA
ATOM      3  N   UNL A   1      31.997  26.725  26.352  1.00  0.00    -0.354 N 
ATOM      4  H   UNL A   1      31.125  27.003  26.713  1.00  0.00     0.163 HD
ENDROOT
BRANCH   1   5
ATOM      5  C   UNL A   1      33.645  24.867  26.038  1.00  0.00     0.222 C 
BRANCH   5   6
ATOM      6  N   UNL A   1      33.860  23.457  26.349  1.00  0.00    -0.334 N 
ATOM      7  C   UNL A   1      34.413  22.491  25.516  1.00  0.00     0.107 A 
ATOM      8  C   UNL A   1      34.500  21.334  26.281  1.00  0.00     0.033 A 
ATOM      9  C   UNL A   1      33.929  21.580  27.549  1.00  0.00     0.020 A 
ATOM     10  C   UNL A   1      33.549  22.900  27.568  1.00  0.00     0.087 A 
BRANCH   7  11
ATOM     11  C   UNL A   1      34.839  22.735  24.148  1.00  0.00     0.268 C 
ATOM     12  N   UNL A   1      33.907  22.992  23.168  1.00  0.00    -0.348 N 
ATOM     13  H   UNL A   1      34.290  23.292  22.311  1.00  0.00     0.164 HD
ATOM     14  O   UNL A   1      36.016  22.803  23.820  1.00  0.00    -0.268 OA
BRANCH  12  15
ATOM     15  C   UNL A   1      32.443  22.898  23.174  1.00  0.00     0.079 C 
ATOM     16  C   UNL A   1      32.073  21.593  22.477  1.00  0.00     0.031 C 
BRANCH  15  17
ATOM     17  C   UNL A   1      31.816  24.210  22.626  1.00  0.00     0.032 C 
BRANCH  17  18
ATOM     18  C   UNL A   1      30.599  24.815  23.329  1.00  0.00     0.077 C 
BRANCH  18  19
ATOM     19  C   UNL A   1      30.486  26.281  23.119  1.00  0.00     0.103 A 
ATOM     20  C   UNL A   1      30.996  27.154  22.181  1.00  0.00     0.045 A 
ATOM     21  O   UNL A   1      29.766  26.965  24.052  1.00  0.00    -0.469 OA
ATOM     22  C   UNL A   1      30.616  28.453  22.603  1.00  0.00     0.042 A 
ATOM     23  C   UNL A   1      29.871  28.283  23.745  1.00  0.00     0.195 A 
ENDBRANCH  18  19
ENDBRANCH  17  18
ENDBRANCH  15  17
ENDBRANCH  12  15
ENDBRANCH   7  11
ENDBRANCH   5   6
ENDBRANCH   1   5
BRANCH   3  24
ATOM     24  C   UNL A   1      32.838  27.786  25.839  1.00  0.00     0.117 C 
BRANCH  24  25
ATOM     25  C   UNL A   1      33.562  28.513  26.970  1.00  0.00     0.042 C 
BRANCH  25  26
ATOM     26  C   UNL A   1      34.802  29.248  26.486  1.00  0.00     0.118 C 
BRANCH  26  27
ATOM     27  N   UNL A   1      35.024  30.472  27.245  1.00  0.00    -0.352 N 
ATOM     28  C   UNL A   1      35.936  30.747  28.231  1.00  0.00     0.251 C 
ATOM     29  H   UNL A   1      34.425  31.219  27.013  1.00  0.00     0.163 HD
ATOM     30  O   UNL A   1      35.776  31.759  28.913  1.00  0.00    -0.269 OA
BRANCH  28  31
ATOM     31  C   UNL A   1      37.060  29.831  28.517  1.00  0.00     0.039 A 
ATOM     32  C   UNL A   1      38.160  29.854  27.649  1.00  0.00     0.014 A 
ATOM     33  C   UNL A   1      37.040  28.938  29.594  1.00  0.00     0.014 A 
ATOM     34  C   UNL A   1      39.269  29.059  27.916  1.00  0.00     0.010 A 
ATOM     35  C   UNL A   1      38.164  28.181  29.895  1.00  0.00     0.010 A 
ATOM     36  C   UNL A   1      39.286  28.257  29.065  1.00  0.00    -0.014 A 
BRANCH  36  37
ATOM     37  C   UNL A   1      40.554  27.617  29.478  1.00  0.00     0.031 A 
ATOM     38  C   UNL A   1      40.867  26.366  28.617  1.00  0.00     0.074 A 
ATOM     39  C   UNL A   1      41.221  28.206  30.519  1.00  0.00     0.049 A 
ATOM     40  N   UNL A   1      41.526  25.286  28.910  1.00  0.00    -0.248 NA
ATOM     41  C   UNL A   1      40.282  26.267  27.247  1.00  0.00     0.031 C 
ATOM     42  C   UNL A   1      40.784  29.442  31.210  1.00  0.00     0.029 A 
ATOM     43  N   UNL A   1      42.383  27.916  31.204  1.00  0.00    -0.354 N 
ATOM     44  C   UNL A   1      41.608  24.494  27.736  1.00  0.00     0.074 A 
ATOM     45  C   UNL A   1      40.721  25.092  26.787  1.00  0.00     0.031 C 
ATOM     46  C   UNL A   1      41.609  29.745  32.235  1.00  0.00     0.029 A 
ATOM     47  C   UNL A   1      42.670  28.761  32.315  1.00  0.00     0.049 A 
ATOM     48  H   UNL A   1      42.976  27.174  30.944  1.00  0.00     0.167 HD
ATOM     49  C   UNL A   1      42.499  23.466  27.579  1.00  0.00     0.037 A 
ATOM     50  C   UNL A   1      43.662  28.647  33.256  1.00  0.00     0.037 A 
ATOM     51  C   UNL A   1      43.318  23.368  28.739  1.00  0.00     0.049 A 
ATOM     52  C   UNL A   1      44.492  27.529  32.785  1.00  0.00     0.074 A 
ATOM     53  C   UNL A   1      43.077  22.900  30.001  1.00  0.00     0.029 A 
ATOM     54  N   UNL A   1      44.468  24.123  28.743  1.00  0.00    -0.354 N 
ATOM     55  N   UNL A   1      45.316  27.582  31.782  1.00  0.00    -0.248 NA
ATOM     56  C   UNL A   1      44.323  26.220  33.429  1.00  0.00     0.031 C 
ATOM     57  C   UNL A   1      43.815  23.778  30.817  1.00  0.00     0.029 A 
ATOM     58  C   UNL A   1      44.631  24.593  30.021  1.00  0.00     0.049 A 
ATOM     59  H   UNL A   1      45.060  24.293  27.975  1.00  0.00     0.167 HD
ATOM     60  C   UNL A   1      45.502  26.255  31.488  1.00  0.00     0.074 A 
ATOM     61  C   UNL A   1      45.165  25.511  32.683  1.00  0.00     0.031 C 
ATOM     62  C   UNL A   1      45.368  25.825  30.208  1.00  0.00     0.037 A 
BRANCH  49  63
ATOM     63  C   UNL A   1      42.924  22.619  26.406  1.00  0.00     0.058 A 
ATOM     64  C   UNL A   1      42.506  21.263  26.384  1.00  0.00     0.135 A 
ATOM     65  C   UNL A   1      43.968  22.954  25.534  1.00  0.00     0.135 A 
ATOM     66  F   UNL A   1      41.464  20.854  27.129  1.00  0.00    -0.206 F 
ATOM     67  C   UNL A   1      43.176  20.277  25.669  1.00  0.00     0.059 A 
ATOM     68  C   UNL A   1      44.632  21.983  24.769  1.00  0.00     0.059 A 
ATOM     69  F   UNL A   1      44.423  24.212  25.459  1.00  0.00    -0.206 F 
ATOM     70  C   UNL A   1      44.267  20.642  24.892  1.00  0.00     0.060 A 
BRANCH  70  71
ATOM     71  S   UNL A   1      45.213  19.330  24.086  1.00  0.00     0.124 S 
ATOM     72  O   UNL A   1      44.653  19.341  22.740  1.00  0.00    -0.237 OA
ATOM     73  O   UNL A   1      46.584  19.821  24.202  1.00  0.00    -0.237 OA
ATOM     74  O   UNL A   1      44.910  18.151  24.891  1.00  0.00    -0.744 OA
ENDBRANCH  70  71
ENDBRANCH  49  63
BRANCH  50  75
ATOM     75  C   UNL A   1      44.040  29.228  34.611  1.00  0.00     0.058 A 
ATOM     76  C   UNL A   1      44.918  30.292  34.853  1.00  0.00     0.135 A 
ATOM     77  C   UNL A   1      43.382  28.752  35.786  1.00  0.00     0.135 A 
ATOM     78  F   UNL A   1      45.723  30.757  33.891  1.00  0.00    -0.206 F 
ATOM     79  C   UNL A   1      45.006  30.931  36.110  1.00  0.00     0.059 A 
ATOM     80  C   UNL A   1      43.411  29.394  37.020  1.00  0.00     0.059 A 
ATOM     81  F   UNL A   1      42.642  27.636  35.784  1.00  0.00    -0.206 F 
ATOM     82  C   UNL A   1      44.205  30.510  37.170  1.00  0.00     0.060 A 
BRANCH  82  83
ATOM     83  S   UNL A   1      44.088  31.462  38.702  1.00  0.00     0.124 S 
ATOM     84  O   UNL A   1      44.807  32.683  38.358  1.00  0.00    -0.237 OA
ATOM     85  O   UNL A   1      42.646  31.598  38.880  1.00  0.00    -0.237 OA
ATOM     86  O   UNL A   1      44.746  30.597  39.679  1.00  0.00    -0.744 OA
ENDBRANCH  82  83
ENDBRANCH  50  75
BRANCH  62  87
ATOM     87  C   UNL A   1      45.658  26.871  29.147  1.00  0.00     0.058 A 
ATOM     88  C   UNL A   1      46.975  27.303  28.926  1.00  0.00     0.135 A 
ATOM     89  C   UNL A   1      44.669  27.521  28.388  1.00  0.00     0.135 A 
ATOM     90  F   UNL A   1      47.985  26.741  29.611  1.00  0.00    -0.206 F 
ATOM     91  C   UNL A   1      47.291  28.302  28.000  1.00  0.00     0.059 A 
ATOM     92  C   UNL A   1      44.953  28.515  27.447  1.00  0.00     0.059 A 
ATOM     93  F   UNL A   1      43.384  27.212  28.549  1.00  0.00    -0.206 F 
ATOM     94  C   UNL A   1      46.273  28.899  27.256  1.00  0.00     0.060 A 
BRANCH  94  95
ATOM     95  S   UNL A   1      46.700  30.155  26.028  1.00  0.00     0.124 S 
ATOM     96  O   UNL A   1      48.003  30.619  26.494  1.00  0.00    -0.237 OA
ATOM     97  O   UNL A   1      46.712  29.379  24.792  1.00  0.00    -0.237 OA
ATOM     98  O   UNL A   1      45.619  31.131  26.141  1.00  0.00    -0.744 OA
ENDBRANCH  94  95
ENDBRANCH  62  87
ENDBRANCH  36  37
ENDBRANCH  28  31
ENDBRANCH  26  27
ENDBRANCH  25  26
ENDBRANCH  24  25
ENDBRANCH   3  24
TORSDOF 19
ENDMDL
MODEL 3
REMARK VINA RESULT:     -11.9      4.331      9.951
REMARK SMILES C[C@H](CCc1ccco1)NC(=O)c1cccn1CC(=O)NCCCNC(=O)c1ccc(-c2c3nc(c(-c4c(F)cc(S(=O)(=O)[O-])cc4F)c4ccc([nH]4)c(-c4c(F)cc(S(=O)(=O)[O-])cc4F)c4nc(c(-c5c(F)cc(S(=O)(=O)[O-])cc5F)c5ccc2[nH]5)C=C4)C=C3)cc1
REMARK SMILES IDX 19 1 20 2 21 3 18 5 17 6 13 7 14 8 15 9 16 10 11 11 10 12
REMARK SMILES IDX 12 14 2 15 1 16 3 17 4 18 5 19 6 20 9 21 7 22 8 23 22 24
REMARK SMILES IDX 23 25 24 26 25 27 26 28 27 30 28 31 29 32 93 33 30 34 92 35
REMARK SMILES IDX 31 36 32 37 33 38 86 39 34 40 91 41 85 42 87 43 35 44 90 45
REMARK SMILES IDX 84 46 83 47 36 49 70 50 49 51 69 52 50 53 53 54 68 55 88 56
REMARK SMILES IDX 51 57 52 58 67 60 89 61 54 62 37 63 38 64 47 65 39 66 40 67
REMARK SMILES IDX 46 68 48 69 41 70 42 71 43 72 44 73 45 74 71 75 72 76 81 77
REMARK SMILES IDX 73 78 74 79 80 80 82 81 75 82 76 83 77 84 78 85 79 86 55 87
REMARK SMILES IDX 56 88 65 89 57 90 58 91 64 92 66 93 59 94 60 95 61 96 62 97
REMARK SMILES IDX 63 98
REMARK H PARENT 21 4 10 13 25 29 87 48 53 59
REMARK Flexibility Score: inf
ROOT
ATOM      1  C   UNL A   1      34.533  22.938  26.674  1.00  0.00     0.239 C 
ATOM      2  O   UNL A   1      34.062  22.672  27.782  1.00  0.00    -0.273 OA
ATOM      3  N   UNL A   1      35.529  22.141  26.185  1.00  0.00    -0.354 N 
ATOM      4  H   UNL A   1      35.765  21.359  26.733  1.00  0.00     0.163 HD
ENDROOT
BRANCH   1   5
ATOM      5  C   UNL A   1      33.966  24.064  25.830  1.00  0.00     0.222 C 
BRANCH   5   6
ATOM      6  N   UNL A   1      32.873  23.666  24.949  1.00  0.00    -0.334 N 
ATOM      7  C   UNL A   1      31.510  23.762  25.209  1.00  0.00     0.107 A 
ATOM      8  C   UNL A   1      30.871  23.355  24.044  1.00  0.00     0.033 A 
ATOM      9  C   UNL A   1      31.845  22.940  23.109  1.00  0.00     0.020 A 
ATOM     10  C   UNL A   1      33.072  23.150  23.689  1.00  0.00     0.087 A 
BRANCH   7  11
ATOM     11  C   UNL A   1      30.946  24.251  26.456  1.00  0.00     0.268 C 
ATOM     12  N   UNL A   1      30.741  25.600  26.641  1.00  0.00    -0.348 N 
ATOM     13  H   UNL A   1      30.220  25.824  27.447  1.00  0.00     0.164 HD
ATOM     14  O   UNL A   1      30.562  23.508  27.349  1.00  0.00    -0.268 OA
BRANCH  12  15
ATOM     15  C   UNL A   1      31.160  26.761  25.850  1.00  0.00     0.079 C 
ATOM     16  C   UNL A   1      31.531  27.866  26.833  1.00  0.00     0.031 C 
BRANCH  15  17
ATOM     17  C   UNL A   1      30.094  27.090  24.768  1.00  0.00     0.032 C 
BRANCH  17  18
ATOM     18  C   UNL A   1      30.525  27.770  23.467  1.00  0.00     0.077 C 
BRANCH  18  19
ATOM     19  C   UNL A   1      31.652  27.071  22.800  1.00  0.00     0.103 A 
ATOM     20  C   UNL A   1      33.014  27.030  23.016  1.00  0.00     0.045 A 
ATOM     21  O   UNL A   1      31.330  26.325  21.705  1.00  0.00    -0.469 OA
ATOM     22  C   UNL A   1      33.559  26.266  21.954  1.00  0.00     0.042 A 
ATOM     23  C   UNL A   1      32.494  25.862  21.185  1.00  0.00     0.195 A 
ENDBRANCH  18  19
ENDBRANCH  17  18
ENDBRANCH  15  17
ENDBRANCH  12  15
ENDBRANCH   7  11
ENDBRANCH   5   6
ENDBRANCH   1   5
BRANCH   3  24
ATOM     24  C   UNL A   1      36.281  22.306  24.959  1.00  0.00     0.117 C 
BRANCH  24  25
ATOM     25  C   UNL A   1      37.282  23.454  25.075  1.00  0.00     0.042 C 
BRANCH  25  26
ATOM     26  C   UNL A   1      37.673  23.737  26.517  1.00  0.00     0.118 C 
BRANCH  26  27
ATOM     27  N   UNL A   1      39.014  23.247  26.809  1.00  0.00    -0.352 N 
ATOM     28  C   UNL A   1      40.156  23.935  27.132  1.00  0.00     0.251 C 
ATOM     29  H   UNL A   1      39.117  22.268  26.768  1.00  0.00     0.163 HD
ATOM     30  O   UNL A   1      41.232  23.341  27.083  1.00  0.00    -0.269 OA
BRANCH  28  31
ATOM     31  C   UNL A   1      40.116  25.371  27.482  1.00  0.00     0.039 A 
ATOM     32  C   UNL A   1      39.742  25.716  28.787  1.00  0.00     0.014 A 
ATOM     33  C   UNL A   1      40.408  26.373  26.551  1.00  0.00     0.014 A 
ATOM     34  C   UNL A   1      39.756  27.050  29.181  1.00  0.00     0.010 A 
ATOM     35  C   UNL A   1      40.474  27.701  26.951  1.00  0.00     0.010 A 
ATOM     36  C   UNL A   1      40.166  28.035  28.273  1.00  0.00    -0.014 A 
BRANCH  36  37
ATOM     37  C   UNL A   1      40.423  29.406  28.765  1.00  0.00     0.031 A 
ATOM     38  C   UNL A   1      39.103  30.169  29.042  1.00  0.00     0.074 A 
ATOM     39  C   UNL A   1      41.737  29.770  28.890  1.00  0.00     0.049 A 
ATOM     40  N   UNL A   1      38.838  31.440  28.991  1.00  0.00    -0.248 NA
ATOM     41  C   UNL A   1      37.864  29.388  29.337  1.00  0.00     0.031 C 
ATOM     42  C   UNL A   1      42.890  28.881  28.611  1.00  0.00     0.029 A 
ATOM     43  N   UNL A   1      42.384  30.928  29.274  1.00  0.00    -0.354 N 
ATOM     44  C   UNL A   1      37.502  31.624  29.431  1.00  0.00     0.074 A 
ATOM     45  C   UNL A   1      36.922  30.319  29.509  1.00  0.00     0.031 C 
ATOM     46  C   UNL A   1      44.060  29.538  28.762  1.00  0.00     0.029 A 
ATOM     47  C   UNL A   1      43.804  30.906  29.164  1.00  0.00     0.049 A 
ATOM     48  H   UNL A   1      41.896  31.718  29.602  1.00  0.00     0.167 HD
ATOM     49  C   UNL A   1      36.996  32.835  29.824  1.00  0.00     0.037 A 
ATOM     50  C   UNL A   1      44.701  31.929  29.340  1.00  0.00     0.037 A 
ATOM     51  C   UNL A   1      38.020  33.821  29.754  1.00  0.00     0.049 A 
ATOM     52  C   UNL A   1      43.891  33.052  29.832  1.00  0.00     0.074 A 
ATOM     53  C   UNL A   1      38.609  34.465  28.700  1.00  0.00     0.029 A 
ATOM     54  N   UNL A   1      38.794  33.983  30.879  1.00  0.00    -0.354 N 
ATOM     55  N   UNL A   1      43.399  33.149  31.030  1.00  0.00    -0.248 NA
ATOM     56  C   UNL A   1      43.525  34.111  28.883  1.00  0.00     0.031 C 
ATOM     57  C   UNL A   1      39.951  34.586  29.106  1.00  0.00     0.029 A 
ATOM     58  C   UNL A   1      40.077  34.213  30.450  1.00  0.00     0.049 A 
ATOM     59  H   UNL A   1      38.487  33.942  31.813  1.00  0.00     0.167 HD
ATOM     60  C   UNL A   1      42.419  34.095  30.867  1.00  0.00     0.074 A 
ATOM     61  C   UNL A   1      42.763  34.852  29.682  1.00  0.00     0.031 C 
ATOM     62  C   UNL A   1      41.167  33.854  31.332  1.00  0.00     0.037 A 
BRANCH  49  63
ATOM     63  C   UNL A   1      35.720  33.266  30.502  1.00  0.00     0.058 A 
ATOM     64  C   UNL A   1      34.740  33.920  29.710  1.00  0.00     0.135 A 
ATOM     65  C   UNL A   1      35.571  33.391  31.889  1.00  0.00     0.135 A 
ATOM     66  F   UNL A   1      34.749  33.802  28.371  1.00  0.00    -0.206 F 
ATOM     67  C   UNL A   1      33.776  34.766  30.247  1.00  0.00     0.059 A 
ATOM     68  C   UNL A   1      34.579  34.205  32.456  1.00  0.00     0.059 A 
ATOM     69  F   UNL A   1      36.429  32.794  32.727  1.00  0.00    -0.206 F 
ATOM     70  C   UNL A   1      33.728  34.933  31.624  1.00  0.00     0.060 A 
BRANCH  70  71
ATOM     71  S   UNL A   1      32.566  36.146  32.293  1.00  0.00     0.124 S 
ATOM     72  O   UNL A   1      31.445  35.299  32.684  1.00  0.00    -0.237 OA
ATOM     73  O   UNL A   1      33.328  36.730  33.394  1.00  0.00    -0.237 OA
ATOM     74  O   UNL A   1      32.326  37.040  31.166  1.00  0.00    -0.744 OA
ENDBRANCH  70  71
ENDBRANCH  49  63
BRANCH  50  75
ATOM     75  C   UNL A   1      46.167  32.238  29.069  1.00  0.00     0.058 A 
ATOM     76  C   UNL A   1      46.753  32.506  27.825  1.00  0.00     0.135 A 
ATOM     77  C   UNL A   1      47.067  32.390  30.167  1.00  0.00     0.135 A 
ATOM     78  F   UNL A   1      46.093  32.267  26.685  1.00  0.00    -0.206 F 
ATOM     79  C   UNL A   1      48.055  33.036  27.699  1.00  0.00     0.059 A 
ATOM     80  C   UNL A   1      48.332  32.959  30.076  1.00  0.00     0.059 A 
ATOM     81  F   UNL A   1      46.741  32.013  31.411  1.00  0.00    -0.206 F 
ATOM     82  C   UNL A   1      48.814  33.314  28.835  1.00  0.00     0.060 A 
BRANCH  82  83
ATOM     83  S   UNL A   1      50.364  34.236  28.733  1.00  0.00     0.124 S 
ATOM     84  O   UNL A   1      51.334  33.258  29.210  1.00  0.00    -0.237 OA
ATOM     85  O   UNL A   1      50.440  34.572  27.315  1.00  0.00    -0.237 OA
ATOM     86  O   UNL A   1      50.130  35.374  29.620  1.00  0.00    -0.744 OA
ENDBRANCH  82  83
ENDBRANCH  50  75
BRANCH  62  87
ATOM     87  C   UNL A   1      41.095  32.903  32.513  1.00  0.00     0.058 A 
ATOM     88  C   UNL A   1      40.568  31.612  32.346  1.00  0.00     0.135 A 
ATOM     89  C   UNL A   1      41.460  33.246  33.827  1.00  0.00     0.135 A 
ATOM     90  F   UNL A   1      40.187  31.200  31.126  1.00  0.00    -0.206 F 
ATOM     91  C   UNL A   1      40.429  30.716  33.411  1.00  0.00     0.059 A 
ATOM     92  C   UNL A   1      41.344  32.370  34.909  1.00  0.00     0.059 A 
ATOM     93  F   UNL A   1      41.936  34.459  34.099  1.00  0.00    -0.206 F 
ATOM     94  C   UNL A   1      40.828  31.099  34.691  1.00  0.00     0.060 A 
BRANCH  94  95
ATOM     95  S   UNL A   1      40.687  29.915  36.049  1.00  0.00     0.124 S 
ATOM     96  O   UNL A   1      39.289  30.054  36.443  1.00  0.00    -0.237 OA
ATOM     97  O   UNL A   1      41.037  28.659  35.393  1.00  0.00    -0.237 OA
ATOM     98  O   UNL A   1      41.658  30.395  37.030  1.00  0.00    -0.744 OA
ENDBRANCH  94  95
ENDBRANCH  62  87
ENDBRANCH  36  37
ENDBRANCH  28  31
ENDBRANCH  26  27
ENDBRANCH  25  26
ENDBRANCH  24  25
ENDBRANCH   3  24
TORSDOF 19
ENDMDL
