MODEL 1
REMARK VINA RESULT:     -12.5      0.000      0.000
REMARK SMILES CCOc1ccc(-c2nn(-c3ccccc3)cc2/C=C2/SC(=S)N(CC(=O)NCCCNC(=O)c3ccc(-c4c5nc(c(-c6c(F)cc(S(=O)(=O)[O-])cc6F)c6ccc([nH]6)c(-c6c(F)cc(S(=O)(=O)[O-])cc6F)c6nc(c(-c7c(F)cc(S(=O)(=O)[O-])cc7F)c7ccc4[nH]7)C=C6)C=C5)cc3)C2=O)cc1F
REMARK SMILES IDX 29 1 28 2 26 3 27 4 25 6 24 7 19 8 20 9 21 10 101 11 22 12
REMARK SMILES IDX 102 13 23 14 18 15 8 16 9 17 10 18 17 19 7 20 4 21 5 22
REMARK SMILES IDX 104 23 6 24 103 25 105 26 3 27 2 28 1 29 11 30 12 31 16 32
REMARK SMILES IDX 13 33 15 34 14 35 30 36 31 37 32 38 33 39 34 41 35 42 36 43
REMARK SMILES IDX 100 44 37 45 99 46 38 47 39 48 40 49 93 50 41 51 98 52 92 53
REMARK SMILES IDX 94 54 42 55 97 56 91 57 90 58 43 60 77 61 56 62 76 63 57 64
REMARK SMILES IDX 60 65 75 66 95 67 58 68 59 69 74 71 96 72 61 73 44 74 45 75
REMARK SMILES IDX 54 76 46 77 47 78 53 79 55 80 48 81 49 82 50 83 51 84 52 85
REMARK SMILES IDX 78 86 79 87 88 88 80 89 81 90 87 91 89 92 82 93 83 94 84 95
REMARK SMILES IDX 85 96 86 97 62 98 63 99 72 100 64 101 65 102 71 103 73 104
REMARK SMILES IDX 66 105 67 106 68 107 69 108 70 109
REMARK H PARENT 28 5 32 40 94 59 60 70
REMARK Flexibility Score: inf
ROOT
ATOM      1  C   UNL A   1      33.386  35.355  30.433  1.00  0.00     0.117 C 
ENDROOT
BRANCH   1   2
ATOM      2  N   UNL A   1      34.278  35.201  29.298  1.00  0.00    -0.354 N 
ATOM      3  C   UNL A   1      34.248  34.266  28.303  1.00  0.00     0.240 C 
ATOM      4  O   UNL A   1      34.799  34.552  27.237  1.00  0.00    -0.273 OA
ATOM      5  H   UNL A   1      35.004  35.863  29.238  1.00  0.00     0.163 HD
BRANCH   3   6
ATOM      6  C   UNL A   1      33.423  32.978  28.444  1.00  0.00     0.227 C 
BRANCH   6   7
ATOM      7  N   UNL A   1      34.186  31.781  28.085  1.00  0.00    -0.283 N 
ATOM      8  C   UNL A   1      34.176  28.742  26.075  1.00  0.00     0.033 C 
ATOM      9  C   UNL A   1      34.453  29.737  26.932  1.00  0.00     0.081 C 
ATOM     10  S   UNL A   1      35.933  29.907  27.792  1.00  0.00    -0.054 SA
ATOM     11  C   UNL A   1      33.528  30.850  27.299  1.00  0.00     0.266 C 
ATOM     12  C   UNL A   1      35.414  31.403  28.572  1.00  0.00     0.148 C 
ATOM     13  O   UNL A   1      32.355  30.915  26.994  1.00  0.00    -0.268 OA
ATOM     14  S   UNL A   1      36.344  32.155  29.734  1.00  0.00    -0.052 S 
BRANCH   8  15
ATOM     15  C   UNL A   1      32.926  28.603  25.412  1.00  0.00     0.022 A 
ATOM     16  C   UNL A   1      32.041  27.498  25.406  1.00  0.00     0.100 A 
ATOM     17  N   UNL A   1      30.866  27.840  24.866  1.00  0.00    -0.167 NA
ATOM     18  N   UNL A   1      31.037  29.103  24.410  1.00  0.00    -0.240 N 
ATOM     19  C   UNL A   1      32.305  29.577  24.668  1.00  0.00     0.123 A 
BRANCH  16  20
ATOM     20  C   UNL A   1      32.279  26.132  25.843  1.00  0.00     0.006 A 
ATOM     21  C   UNL A   1      32.610  23.458  26.597  1.00  0.00     0.154 A 
ATOM     22  C   UNL A   1      33.718  24.211  26.203  1.00  0.00     0.050 A 
ATOM     23  C   UNL A   1      31.356  24.061  26.670  1.00  0.00     0.165 A 
ATOM     24  C   UNL A   1      33.552  25.549  25.821  1.00  0.00     0.014 A 
ATOM     25  C   UNL A   1      31.182  25.381  26.282  1.00  0.00     0.053 A 
ATOM     26  F   UNL A   1      30.295  23.387  27.132  1.00  0.00    -0.203 F 
BRANCH  21  27
ATOM     27  O   UNL A   1      32.811  22.172  27.023  1.00  0.00    -0.491 OA
BRANCH  27  28
ATOM     28  C   UNL A   1      33.786  21.471  26.239  1.00  0.00     0.226 C 
ATOM     29  C   UNL A   1      33.243  20.185  25.637  1.00  0.00     0.049 C 
ENDBRANCH  27  28
ENDBRANCH  21  27
ENDBRANCH  16  20
BRANCH  18  30
ATOM     30  C   UNL A   1      30.010  29.759  23.700  1.00  0.00     0.065 A 
ATOM     31  C   UNL A   1      29.612  31.040  24.101  1.00  0.00     0.028 A 
ATOM     32  C   UNL A   1      29.364  29.107  22.642  1.00  0.00     0.028 A 
ATOM     33  C   UNL A   1      28.552  31.664  23.448  1.00  0.00     0.002 A 
ATOM     34  C   UNL A   1      28.273  29.719  22.029  1.00  0.00     0.002 A 
ATOM     35  C   UNL A   1      27.865  30.988  22.440  1.00  0.00     0.000 A 
ENDBRANCH  18  30
ENDBRANCH   8  15
ENDBRANCH   6   7
ENDBRANCH   3   6
ENDBRANCH   1   2
BRANCH   1  36
ATOM     36  C   UNL A   1      33.801  34.539  31.657  1.00  0.00     0.042 C 
BRANCH  36  37
ATOM     37  C   UNL A   1      35.200  34.882  32.133  1.00  0.00     0.118 C 
BRANCH  37  38
ATOM     38  N   UNL A   1      35.375  34.735  33.584  1.00  0.00    -0.352 N 
ATOM     39  C   UNL A   1      36.170  33.824  34.267  1.00  0.00     0.251 C 
ATOM     40  H   UNL A   1      34.864  35.362  34.144  1.00  0.00     0.163 HD
ATOM     41  O   UNL A   1      35.967  33.582  35.451  1.00  0.00    -0.269 OA
BRANCH  39  42
ATOM     42  C   UNL A   1      37.267  33.165  33.534  1.00  0.00     0.039 A 
ATOM     43  C   UNL A   1      38.391  33.843  33.058  1.00  0.00     0.014 A 
ATOM     44  C   UNL A   1      37.158  31.790  33.384  1.00  0.00     0.014 A 
ATOM     45  C   UNL A   1      39.422  33.095  32.489  1.00  0.00     0.010 A 
ATOM     46  C   UNL A   1      38.270  31.055  33.111  1.00  0.00     0.010 A 
ATOM     47  C   UNL A   1      39.352  31.693  32.534  1.00  0.00    -0.014 A 
BRANCH  47  48
ATOM     48  C   UNL A   1      40.421  30.824  32.071  1.00  0.00     0.031 A 
ATOM     49  C   UNL A   1      41.346  30.398  33.148  1.00  0.00     0.074 A 
ATOM     50  C   UNL A   1      40.400  30.250  30.844  1.00  0.00     0.049 A 
ATOM     51  N   UNL A   1      42.574  30.754  33.316  1.00  0.00    -0.248 NA
ATOM     52  C   UNL A   1      40.788  29.634  34.278  1.00  0.00     0.031 C 
ATOM     53  C   UNL A   1      39.364  30.329  29.803  1.00  0.00     0.029 A 
ATOM     54  N   UNL A   1      41.287  29.375  30.297  1.00  0.00    -0.354 N 
ATOM     55  C   UNL A   1      43.016  30.060  34.436  1.00  0.00     0.074 A 
ATOM     56  C   UNL A   1      41.836  29.578  35.104  1.00  0.00     0.031 C 
ATOM     57  C   UNL A   1      39.577  29.376  28.867  1.00  0.00     0.029 A 
ATOM     58  C   UNL A   1      40.846  28.733  29.137  1.00  0.00     0.049 A 
ATOM     59  H   UNL A   1      42.174  29.208  30.689  1.00  0.00     0.167 HD
ATOM     60  C   UNL A   1      44.325  29.718  34.584  1.00  0.00     0.037 A 
ATOM     61  C   UNL A   1      41.493  27.738  28.472  1.00  0.00     0.037 A 
ATOM     62  C   UNL A   1      45.161  30.448  33.663  1.00  0.00     0.049 A 
ATOM     63  C   UNL A   1      42.917  27.815  28.905  1.00  0.00     0.074 A 
ATOM     64  C   UNL A   1      45.412  31.793  33.457  1.00  0.00     0.029 A 
ATOM     65  N   UNL A   1      45.526  29.817  32.497  1.00  0.00    -0.354 N 
ATOM     66  N   UNL A   1      43.698  28.828  28.637  1.00  0.00    -0.248 NA
ATOM     67  C   UNL A   1      43.307  27.014  30.055  1.00  0.00     0.031 C 
ATOM     68  C   UNL A   1      45.432  31.950  32.040  1.00  0.00     0.029 A 
ATOM     69  C   UNL A   1      45.291  30.688  31.459  1.00  0.00     0.049 A 
ATOM     70  H   UNL A   1      45.891  28.906  32.418  1.00  0.00     0.167 HD
ATOM     71  C   UNL A   1      44.421  29.043  29.802  1.00  0.00     0.074 A 
ATOM     72  C   UNL A   1      44.174  27.857  30.623  1.00  0.00     0.031 C 
ATOM     73  C   UNL A   1      44.909  30.279  30.121  1.00  0.00     0.037 A 
BRANCH  60  74
ATOM     74  C   UNL A   1      44.796  28.497  35.327  1.00  0.00     0.058 A 
ATOM     75  C   UNL A   1      45.312  28.533  36.642  1.00  0.00     0.135 A 
ATOM     76  C   UNL A   1      44.524  27.214  34.815  1.00  0.00     0.135 A 
ATOM     77  F   UNL A   1      45.488  29.682  37.309  1.00  0.00    -0.206 F 
ATOM     78  C   UNL A   1      45.588  27.388  37.376  1.00  0.00     0.059 A 
ATOM     79  C   UNL A   1      44.737  26.050  35.559  1.00  0.00     0.059 A 
ATOM     80  F   UNL A   1      43.991  27.067  33.592  1.00  0.00    -0.206 F 
ATOM     81  C   UNL A   1      45.280  26.150  36.835  1.00  0.00     0.060 A 
BRANCH  81  82
ATOM     82  S   UNL A   1      45.536  24.699  37.870  1.00  0.00     0.124 S 
ATOM     83  O   UNL A   1      44.822  25.082  39.085  1.00  0.00    -0.237 OA
ATOM     84  O   UNL A   1      44.917  23.647  37.072  1.00  0.00    -0.237 OA
ATOM     85  O   UNL A   1      46.988  24.624  37.992  1.00  0.00    -0.744 OA
ENDBRANCH  81  82
ENDBRANCH  60  74
BRANCH  61  86
ATOM     86  C   UNL A   1      40.930  26.535  27.787  1.00  0.00     0.058 A 
ATOM     87  C   UNL A   1      39.948  25.726  28.392  1.00  0.00     0.135 A 
ATOM     88  C   UNL A   1      41.570  25.980  26.659  1.00  0.00     0.135 A 
ATOM     89  F   UNL A   1      39.297  26.130  29.492  1.00  0.00    -0.206 F 
ATOM     90  C   UNL A   1      39.679  24.425  27.962  1.00  0.00     0.059 A 
ATOM     91  C   UNL A   1      41.333  24.667  26.225  1.00  0.00     0.059 A 
ATOM     92  F   UNL A   1      42.511  26.680  26.007  1.00  0.00    -0.206 F 
ATOM     93  C   UNL A   1      40.419  23.881  26.919  1.00  0.00     0.060 A 
BRANCH  93  94
ATOM     94  S   UNL A   1      40.258  22.110  26.591  1.00  0.00     0.124 S 
ATOM     95  O   UNL A   1      38.905  22.039  26.050  1.00  0.00    -0.237 OA
ATOM     96  O   UNL A   1      41.332  21.871  25.632  1.00  0.00    -0.237 OA
ATOM     97  O   UNL A   1      40.444  21.499  27.903  1.00  0.00    -0.744 OA
ENDBRANCH  93  94
ENDBRANCH  61  86
BRANCH  73  98
ATOM     98  C   UNL A   1      44.864  31.369  29.071  1.00  0.00     0.058 A 
ATOM     99  C   UNL A   1      46.012  31.578  28.293  1.00  0.00     0.135 A 
ATOM    100  C   UNL A   1      43.825  32.311  28.931  1.00  0.00     0.135 A 
ATOM    101  F   UNL A   1      47.062  30.750  28.412  1.00  0.00    -0.206 F 
ATOM    102  C   UNL A   1      46.137  32.664  27.432  1.00  0.00     0.059 A 
ATOM    103  C   UNL A   1      43.913  33.392  28.046  1.00  0.00     0.059 A 
ATOM    104  F   UNL A   1      42.728  32.244  29.696  1.00  0.00    -0.206 F 
ATOM    105  C   UNL A   1      45.082  33.568  27.312  1.00  0.00     0.060 A 
BRANCH 105 106
ATOM    106  S   UNL A   1      45.294  34.976  26.202  1.00  0.00     0.124 S 
ATOM    107  O   UNL A   1      46.513  35.590  26.720  1.00  0.00    -0.237 OA
ATOM    108  O   UNL A   1      45.421  34.328  24.900  1.00  0.00    -0.237 OA
ATOM    109  O   UNL A   1      44.075  35.758  26.390  1.00  0.00    -0.744 OA
ENDBRANCH 105 106
ENDBRANCH  73  98
ENDBRANCH  47  48
ENDBRANCH  39  42
ENDBRANCH  37  38
ENDBRANCH  36  37
ENDBRANCH   1  36
TORSDOF 19
ENDMDL
MODEL 2
REMARK VINA RESULT:     -11.7      4.968     11.197
REMARK SMILES CCOc1ccc(-c2nn(-c3ccccc3)cc2/C=C2/SC(=S)N(CC(=O)NCCCNC(=O)c3ccc(-c4c5nc(c(-c6c(F)cc(S(=O)(=O)[O-])cc6F)c6ccc([nH]6)c(-c6c(F)cc(S(=O)(=O)[O-])cc6F)c6nc(c(-c7c(F)cc(S(=O)(=O)[O-])cc7F)c7ccc4[nH]7)C=C6)C=C5)cc3)C2=O)cc1F
REMARK SMILES IDX 29 1 28 2 26 3 27 4 25 6 24 7 19 8 20 9 21 10 101 11 22 12
REMARK SMILES IDX 102 13 23 14 18 15 8 16 9 17 10 18 17 19 7 20 4 21 5 22
REMARK SMILES IDX 104 23 6 24 103 25 105 26 3 27 2 28 1 29 11 30 12 31 16 32
REMARK SMILES IDX 13 33 15 34 14 35 30 36 31 37 32 38 33 39 34 41 35 42 36 43
REMARK SMILES IDX 100 44 37 45 99 46 38 47 39 48 40 49 93 50 41 51 98 52 92 53
REMARK SMILES IDX 94 54 42 55 97 56 91 57 90 58 43 60 77 61 56 62 76 63 57 64
REMARK SMILES IDX 60 65 75 66 95 67 58 68 59 69 74 71 96 72 61 73 44 74 45 75
REMARK SMILES IDX 54 76 46 77 47 78 53 79 55 80 48 81 49 82 50 83 51 84 52 85
REMARK SMILES IDX 78 86 79 87 88 88 80 89 81 90 87 91 89 92 82 93 83 94 84 95
REMARK SMILES IDX 85 96 86 97 62 98 63 99 72 100 64 101 65 102 71 103 73 104
REMARK SMILES IDX 66 105 67 106 68 107 69 108 70 109
REMARK H PARENT 28 5 32 40 94 59 60 70
REMARK Flexibility Score: inf
ROOT
ATOM      1  C   UNL A   1      44.258  24.285  32.662  1.00  0.00     0.117 C 
ENDROOT
BRANCH   1   2
ATOM      2  N   UNL A   1      44.773  25.607  32.972  1.00  0.00    -0.354 N 
ATOM      3  C   UNL A   1      45.741  26.324  32.328  1.00  0.00     0.240 C 
ATOM      4  O   UNL A   1      45.729  27.549  32.470  1.00  0.00    -0.273 OA
ATOM      5  H   UNL A   1      44.367  26.046  33.754  1.00  0.00     0.163 HD
BRANCH   3   6
ATOM      6  C   UNL A   1      46.704  25.653  31.339  1.00  0.00     0.227 C 
BRANCH   6   7
ATOM      7  N   UNL A   1      46.631  26.239  29.999  1.00  0.00    -0.283 N 
ATOM      8  C   UNL A   1      45.103  25.945  26.705  1.00  0.00     0.033 C 
ATOM      9  C   UNL A   1      45.836  26.287  27.775  1.00  0.00     0.081 C 
ATOM     10  S   UNL A   1      46.857  27.667  27.865  1.00  0.00    -0.054 SA
ATOM     11  C   UNL A   1      45.906  25.527  29.059  1.00  0.00     0.266 C 
ATOM     12  C   UNL A   1      47.333  27.323  29.529  1.00  0.00     0.148 C 
ATOM     13  O   UNL A   1      45.437  24.423  29.246  1.00  0.00    -0.268 OA
ATOM     14  S   UNL A   1      48.490  28.230  30.316  1.00  0.00    -0.052 S 
BRANCH   8  15
ATOM     15  C   UNL A   1      44.302  24.772  26.645  1.00  0.00     0.022 A 
ATOM     16  C   UNL A   1      42.904  24.639  26.826  1.00  0.00     0.100 A 
ATOM     17  N   UNL A   1      42.495  23.420  26.455  1.00  0.00    -0.167 NA
ATOM     18  N   UNL A   1      43.629  22.736  26.169  1.00  0.00    -0.240 N 
ATOM     19  C   UNL A   1      44.755  23.511  26.338  1.00  0.00     0.123 A 
BRANCH  16  20
ATOM     20  C   UNL A   1      41.957  25.596  27.376  1.00  0.00     0.006 A 
ATOM     21  C   UNL A   1      40.257  27.524  28.482  1.00  0.00     0.154 A 
ATOM     22  C   UNL A   1      39.998  27.018  27.206  1.00  0.00     0.050 A 
ATOM     23  C   UNL A   1      41.327  27.019  29.219  1.00  0.00     0.165 A 
ATOM     24  C   UNL A   1      40.851  26.056  26.649  1.00  0.00     0.014 A 
ATOM     25  C   UNL A   1      42.183  26.077  28.670  1.00  0.00     0.053 A 
ATOM     26  F   UNL A   1      41.543  27.421  30.479  1.00  0.00    -0.203 F 
BRANCH  21  27
ATOM     27  O   UNL A   1      39.373  28.417  29.024  1.00  0.00    -0.491 OA
BRANCH  27  28
ATOM     28  C   UNL A   1      39.665  29.776  28.669  1.00  0.00     0.226 C 
ATOM     29  C   UNL A   1      40.224  30.580  29.833  1.00  0.00     0.049 C 
ENDBRANCH  27  28
ENDBRANCH  21  27
ENDBRANCH  16  20
BRANCH  18  30
ATOM     30  C   UNL A   1      43.577  21.371  25.818  1.00  0.00     0.065 A 
ATOM     31  C   UNL A   1      42.458  20.613  26.185  1.00  0.00     0.028 A 
ATOM     32  C   UNL A   1      44.659  20.777  25.158  1.00  0.00     0.028 A 
ATOM     33  C   UNL A   1      42.431  19.250  25.901  1.00  0.00     0.002 A 
ATOM     34  C   UNL A   1      44.644  19.403  24.924  1.00  0.00     0.002 A 
ATOM     35  C   UNL A   1      43.538  18.645  25.306  1.00  0.00     0.000 A 
ENDBRANCH  18  30
ENDBRANCH   8  15
ENDBRANCH   6   7
ENDBRANCH   3   6
ENDBRANCH   1   2
BRANCH   1  36
ATOM     36  C   UNL A   1      43.912  23.454  33.898  1.00  0.00     0.042 C 
BRANCH  36  37
ATOM     37  C   UNL A   1      44.263  24.168  35.190  1.00  0.00     0.118 C 
BRANCH  37  38
ATOM     38  N   UNL A   1      43.181  24.139  36.185  1.00  0.00    -0.352 N 
ATOM     39  C   UNL A   1      42.345  25.176  36.577  1.00  0.00     0.251 C 
ATOM     40  H   UNL A   1      43.029  23.274  36.628  1.00  0.00     0.163 HD
ATOM     41  O   UNL A   1      41.732  25.117  37.636  1.00  0.00    -0.269 OA
BRANCH  39  42
ATOM     42  C   UNL A   1      42.212  26.343  35.686  1.00  0.00     0.039 A 
ATOM     43  C   UNL A   1      41.512  26.312  34.477  1.00  0.00     0.014 A 
ATOM     44  C   UNL A   1      42.779  27.524  36.140  1.00  0.00     0.014 A 
ATOM     45  C   UNL A   1      41.347  27.508  33.778  1.00  0.00     0.010 A 
ATOM     46  C   UNL A   1      42.364  28.711  35.620  1.00  0.00     0.010 A 
ATOM     47  C   UNL A   1      41.770  28.708  34.372  1.00  0.00    -0.014 A 
BRANCH  47  48
ATOM     48  C   UNL A   1      41.545  30.017  33.779  1.00  0.00     0.031 A 
ATOM     49  C   UNL A   1      42.664  30.479  32.924  1.00  0.00     0.074 A 
ATOM     50  C   UNL A   1      40.328  30.611  33.791  1.00  0.00     0.049 A 
ATOM     51  N   UNL A   1      43.492  31.438  33.163  1.00  0.00    -0.248 NA
ATOM     52  C   UNL A   1      43.023  29.661  31.751  1.00  0.00     0.031 C 
ATOM     53  C   UNL A   1      39.054  30.099  34.319  1.00  0.00     0.029 A 
ATOM     54  N   UNL A   1      39.950  31.791  33.231  1.00  0.00    -0.354 N 
ATOM     55  C   UNL A   1      44.322  31.503  32.051  1.00  0.00     0.074 A 
ATOM     56  C   UNL A   1      44.138  30.267  31.337  1.00  0.00     0.031 C 
ATOM     57  C   UNL A   1      38.028  30.854  33.862  1.00  0.00     0.029 A 
ATOM     58  C   UNL A   1      38.570  31.996  33.155  1.00  0.00     0.049 A 
ATOM     59  H   UNL A   1      40.601  32.453  32.905  1.00  0.00     0.167 HD
ATOM     60  C   UNL A   1      44.901  32.675  31.669  1.00  0.00     0.037 A 
ATOM     61  C   UNL A   1      37.943  33.034  32.539  1.00  0.00     0.037 A 
ATOM     62  C   UNL A   1      44.822  33.660  32.718  1.00  0.00     0.049 A 
ATOM     63  C   UNL A   1      38.964  34.112  32.411  1.00  0.00     0.074 A 
ATOM     64  C   UNL A   1      45.291  33.715  34.018  1.00  0.00     0.029 A 
ATOM     65  N   UNL A   1      43.806  34.585  32.649  1.00  0.00    -0.354 N 
ATOM     66  N   UNL A   1      39.495  34.728  33.435  1.00  0.00    -0.248 NA
ATOM     67  C   UNL A   1      39.754  34.138  31.190  1.00  0.00     0.031 C 
ATOM     68  C   UNL A   1      44.223  34.286  34.771  1.00  0.00     0.029 A 
ATOM     69  C   UNL A   1      43.203  34.637  33.884  1.00  0.00     0.049 A 
ATOM     70  H   UNL A   1      43.555  35.115  31.858  1.00  0.00     0.167 HD
ATOM     71  C   UNL A   1      40.841  34.853  33.121  1.00  0.00     0.074 A 
ATOM     72  C   UNL A   1      40.929  34.519  31.699  1.00  0.00     0.031 C 
ATOM     73  C   UNL A   1      41.798  34.924  34.095  1.00  0.00     0.037 A 
BRANCH  60  74
ATOM     74  C   UNL A   1      45.236  33.020  30.242  1.00  0.00     0.058 A 
ATOM     75  C   UNL A   1      44.269  33.134  29.218  1.00  0.00     0.135 A 
ATOM     76  C   UNL A   1      46.527  33.477  29.915  1.00  0.00     0.135 A 
ATOM     77  F   UNL A   1      42.973  32.870  29.427  1.00  0.00    -0.206 F 
ATOM     78  C   UNL A   1      44.566  33.612  27.950  1.00  0.00     0.059 A 
ATOM     79  C   UNL A   1      46.834  34.018  28.663  1.00  0.00     0.059 A 
ATOM     80  F   UNL A   1      47.510  33.455  30.828  1.00  0.00    -0.206 F 
ATOM     81  C   UNL A   1      45.847  34.070  27.685  1.00  0.00     0.060 A 
BRANCH  81  82
ATOM     82  S   UNL A   1      46.156  34.799  26.068  1.00  0.00     0.124 S 
ATOM     83  O   UNL A   1      47.308  34.025  25.617  1.00  0.00    -0.237 OA
ATOM     84  O   UNL A   1      44.900  34.535  25.375  1.00  0.00    -0.237 OA
ATOM     85  O   UNL A   1      46.421  36.200  26.375  1.00  0.00    -0.744 OA
ENDBRANCH  81  82
ENDBRANCH  60  74
BRANCH  61  86
ATOM     86  C   UNL A   1      36.672  33.042  31.754  1.00  0.00     0.058 A 
ATOM     87  C   UNL A   1      36.439  32.127  30.708  1.00  0.00     0.135 A 
ATOM     88  C   UNL A   1      35.794  34.144  31.809  1.00  0.00     0.135 A 
ATOM     89  F   UNL A   1      37.229  31.059  30.530  1.00  0.00    -0.206 F 
ATOM     90  C   UNL A   1      35.460  32.335  29.734  1.00  0.00     0.059 A 
ATOM     91  C   UNL A   1      34.820  34.385  30.829  1.00  0.00     0.059 A 
ATOM     92  F   UNL A   1      35.927  35.063  32.778  1.00  0.00    -0.206 F 
ATOM     93  C   UNL A   1      34.697  33.496  29.766  1.00  0.00     0.060 A 
BRANCH  93  94
ATOM     94  S   UNL A   1      33.660  33.876  28.334  1.00  0.00     0.124 S 
ATOM     95  O   UNL A   1      33.308  32.538  27.870  1.00  0.00    -0.237 OA
ATOM     96  O   UNL A   1      32.570  34.642  28.931  1.00  0.00    -0.237 OA
ATOM     97  O   UNL A   1      34.548  34.633  27.457  1.00  0.00    -0.744 OA
ENDBRANCH  93  94
ENDBRANCH  61  86
BRANCH  73  98
ATOM     98  C   UNL A   1      41.356  35.109  35.532  1.00  0.00     0.058 A 
ATOM     99  C   UNL A   1      41.097  33.958  36.291  1.00  0.00     0.135 A 
ATOM    100  C   UNL A   1      41.011  36.344  36.116  1.00  0.00     0.135 A 
ATOM    101  F   UNL A   1      41.352  32.744  35.777  1.00  0.00    -0.206 F 
ATOM    102  C   UNL A   1      40.517  34.019  37.554  1.00  0.00     0.059 A 
ATOM    103  C   UNL A   1      40.459  36.432  37.399  1.00  0.00     0.059 A 
ATOM    104  F   UNL A   1      41.140  37.488  35.433  1.00  0.00    -0.206 F 
ATOM    105  C   UNL A   1      40.200  35.261  38.105  1.00  0.00     0.060 A 
BRANCH 105 106
ATOM    106  S   UNL A   1      39.427  35.294  39.735  1.00  0.00     0.124 S 
ATOM    107  O   UNL A   1      38.452  34.212  39.631  1.00  0.00    -0.237 OA
ATOM    108  O   UNL A   1      40.560  35.036  40.620  1.00  0.00    -0.237 OA
ATOM    109  O   UNL A   1      38.859  36.636  39.827  1.00  0.00    -0.744 OA
ENDBRANCH 105 106
ENDBRANCH  73  98
ENDBRANCH  47  48
ENDBRANCH  39  42
ENDBRANCH  37  38
ENDBRANCH  36  37
ENDBRANCH   1  36
TORSDOF 19
ENDMDL
MODEL 3
REMARK VINA RESULT:     -11.3      4.646      8.152
REMARK SMILES CCOc1ccc(-c2nn(-c3ccccc3)cc2/C=C2/SC(=S)N(CC(=O)NCCCNC(=O)c3ccc(-c4c5nc(c(-c6c(F)cc(S(=O)(=O)[O-])cc6F)c6ccc([nH]6)c(-c6c(F)cc(S(=O)(=O)[O-])cc6F)c6nc(c(-c7c(F)cc(S(=O)(=O)[O-])cc7F)c7ccc4[nH]7)C=C6)C=C5)cc3)C2=O)cc1F
REMARK SMILES IDX 29 1 28 2 26 3 27 4 25 6 24 7 19 8 20 9 21 10 101 11 22 12
REMARK SMILES IDX 102 13 23 14 18 15 8 16 9 17 10 18 17 19 7 20 4 21 5 22
REMARK SMILES IDX 104 23 6 24 103 25 105 26 3 27 2 28 1 29 11 30 12 31 16 32
REMARK SMILES IDX 13 33 15 34 14 35 30 36 31 37 32 38 33 39 34 41 35 42 36 43
REMARK SMILES IDX 100 44 37 45 99 46 38 47 39 48 40 49 93 50 41 51 98 52 92 53
REMARK SMILES IDX 94 54 42 55 97 56 91 57 90 58 43 60 77 61 56 62 76 63 57 64
REMARK SMILES IDX 60 65 75 66 95 67 58 68 59 69 74 71 96 72 61 73 44 74 45 75
REMARK SMILES IDX 54 76 46 77 47 78 53 79 55 80 48 81 49 82 50 83 51 84 52 85
REMARK SMILES IDX 78 86 79 87 88 88 80 89 81 90 87 91 89 92 82 93 83 94 84 95
REMARK SMILES IDX 85 96 86 97 62 98 63 99 72 100 64 101 65 102 71 103 73 104
REMARK SMILES IDX 66 105 67 106 68 107 69 108 70 109
REMARK H PARENT 28 5 32 40 94 59 60 70
REMARK Flexibility Score: inf
ROOT
ATOM      1  C   UNL A   1      41.654  33.821  30.052  1.00  0.00     0.117 C 
ENDROOT
BRANCH   1   2
ATOM      2  N   UNL A   1      41.305  34.503  31.285  1.00  0.00    -0.354 N 
ATOM      3  C   UNL A   1      41.417  34.061  32.573  1.00  0.00     0.240 C 
ATOM      4  O   UNL A   1      41.479  34.913  33.462  1.00  0.00    -0.273 OA
ATOM      5  H   UNL A   1      40.938  35.410  31.177  1.00  0.00     0.163 HD
BRANCH   3   6
ATOM      6  C   UNL A   1      41.622  32.572  32.889  1.00  0.00     0.227 C 
BRANCH   6   7
ATOM      7  N   UNL A   1      40.364  31.883  33.182  1.00  0.00    -0.283 N 
ATOM      8  C   UNL A   1      37.804  29.670  31.833  1.00  0.00     0.033 C 
ATOM      9  C   UNL A   1      38.545  30.501  32.580  1.00  0.00     0.081 C 
ATOM     10  S   UNL A   1      38.222  30.895  34.223  1.00  0.00    -0.054 SA
ATOM     11  C   UNL A   1      39.758  31.238  32.117  1.00  0.00     0.266 C 
ATOM     12  C   UNL A   1      39.639  31.942  34.347  1.00  0.00     0.148 C 
ATOM     13  O   UNL A   1      40.140  31.305  30.966  1.00  0.00    -0.268 OA
ATOM     14  S   UNL A   1      39.945  32.844  35.716  1.00  0.00    -0.052 S 
BRANCH   8  15
ATOM     15  C   UNL A   1      38.069  29.399  30.463  1.00  0.00     0.022 A 
ATOM     16  C   UNL A   1      37.563  30.050  29.313  1.00  0.00     0.100 A 
ATOM     17  N   UNL A   1      38.231  29.663  28.220  1.00  0.00    -0.167 NA
ATOM     18  N   UNL A   1      39.061  28.680  28.640  1.00  0.00    -0.240 N 
ATOM     19  C   UNL A   1      38.941  28.447  29.992  1.00  0.00     0.123 A 
BRANCH  16  20
ATOM     20  C   UNL A   1      36.450  30.980  29.202  1.00  0.00     0.006 A 
ATOM     21  C   UNL A   1      34.387  32.866  29.089  1.00  0.00     0.154 A 
ATOM     22  C   UNL A   1      34.856  32.278  27.913  1.00  0.00     0.050 A 
ATOM     23  C   UNL A   1      34.909  32.464  30.317  1.00  0.00     0.165 A 
ATOM     24  C   UNL A   1      35.892  31.336  27.968  1.00  0.00     0.014 A 
ATOM     25  C   UNL A   1      35.943  31.543  30.379  1.00  0.00     0.053 A 
ATOM     26  F   UNL A   1      34.414  32.946  31.465  1.00  0.00    -0.203 F 
BRANCH  21  27
ATOM     27  O   UNL A   1      33.332  33.736  29.010  1.00  0.00    -0.491 OA
BRANCH  27  28
ATOM     28  C   UNL A   1      33.710  35.095  29.273  1.00  0.00     0.226 C 
ATOM     29  C   UNL A   1      32.841  35.752  30.333  1.00  0.00     0.049 C 
ENDBRANCH  27  28
ENDBRANCH  21  27
ENDBRANCH  16  20
BRANCH  18  30
ATOM     30  C   UNL A   1      39.869  27.977  27.721  1.00  0.00     0.065 A 
ATOM     31  C   UNL A   1      40.671  28.697  26.827  1.00  0.00     0.028 A 
ATOM     32  C   UNL A   1      39.822  26.578  27.675  1.00  0.00     0.028 A 
ATOM     33  C   UNL A   1      41.418  28.011  25.872  1.00  0.00     0.002 A 
ATOM     34  C   UNL A   1      40.534  25.905  26.684  1.00  0.00     0.002 A 
ATOM     35  C   UNL A   1      41.318  26.623  25.781  1.00  0.00     0.000 A 
ENDBRANCH  18  30
ENDBRANCH   8  15
ENDBRANCH   6   7
ENDBRANCH   3   6
ENDBRANCH   1   2
BRANCH   1  36
ATOM     36  C   UNL A   1      43.155  33.581  29.885  1.00  0.00     0.042 C 
BRANCH  36  37
ATOM     37  C   UNL A   1      43.830  34.682  29.090  1.00  0.00     0.118 C 
BRANCH  37  38
ATOM     38  N   UNL A   1      43.242  34.885  27.758  1.00  0.00    -0.352 N 
ATOM     39  C   UNL A   1      43.596  34.281  26.560  1.00  0.00     0.251 C 
ATOM     40  H   UNL A   1      42.501  35.531  27.711  1.00  0.00     0.163 HD
ATOM     41  O   UNL A   1      43.271  34.779  25.489  1.00  0.00    -0.269 OA
BRANCH  39  42
ATOM     42  C   UNL A   1      44.366  33.025  26.610  1.00  0.00     0.039 A 
ATOM     43  C   UNL A   1      45.762  32.978  26.632  1.00  0.00     0.014 A 
ATOM     44  C   UNL A   1      43.622  31.857  26.694  1.00  0.00     0.014 A 
ATOM     45  C   UNL A   1      46.380  31.739  26.805  1.00  0.00     0.010 A 
ATOM     46  C   UNL A   1      44.209  30.720  27.155  1.00  0.00     0.010 A 
ATOM     47  C   UNL A   1      45.585  30.614  27.079  1.00  0.00    -0.014 A 
BRANCH  47  48
ATOM     48  C   UNL A   1      46.133  29.302  27.384  1.00  0.00     0.031 A 
ATOM     49  C   UNL A   1      46.689  29.198  28.754  1.00  0.00     0.074 A 
ATOM     50  C   UNL A   1      45.903  28.226  26.595  1.00  0.00     0.049 A 
ATOM     51  N   UNL A   1      47.928  29.089  29.093  1.00  0.00    -0.248 NA
ATOM     52  C   UNL A   1      45.779  29.430  29.891  1.00  0.00     0.031 C 
ATOM     53  C   UNL A   1      45.083  28.130  25.378  1.00  0.00     0.029 A 
ATOM     54  N   UNL A   1      46.292  26.936  26.778  1.00  0.00    -0.354 N 
ATOM     55  C   UNL A   1      47.930  28.987  30.479  1.00  0.00     0.074 A 
ATOM     56  C   UNL A   1      46.631  29.425  30.918  1.00  0.00     0.031 C 
ATOM     57  C   UNL A   1      44.862  26.831  25.071  1.00  0.00     0.029 A 
ATOM     58  C   UNL A   1      45.657  26.003  25.955  1.00  0.00     0.049 A 
ATOM     59  H   UNL A   1      46.972  26.679  27.441  1.00  0.00     0.167 HD
ATOM     60  C   UNL A   1      48.910  28.308  31.137  1.00  0.00     0.037 A 
ATOM     61  C   UNL A   1      45.784  24.650  26.023  1.00  0.00     0.037 A 
ATOM     62  C   UNL A   1      50.037  28.055  30.273  1.00  0.00     0.049 A 
ATOM     63  C   UNL A   1      47.050  24.395  26.767  1.00  0.00     0.074 A 
ATOM     64  C   UNL A   1      50.907  28.870  29.572  1.00  0.00     0.029 A 
ATOM     65  N   UNL A   1      50.115  26.821  29.672  1.00  0.00    -0.354 N 
ATOM     66  N   UNL A   1      48.232  24.723  26.315  1.00  0.00    -0.248 NA
ATOM     67  C   UNL A   1      46.954  24.249  28.212  1.00  0.00     0.031 C 
ATOM     68  C   UNL A   1      51.071  28.231  28.308  1.00  0.00     0.029 A 
ATOM     69  C   UNL A   1      50.375  27.021  28.337  1.00  0.00     0.049 A 
ATOM     70  H   UNL A   1      50.006  25.949  30.118  1.00  0.00     0.167 HD
ATOM     71  C   UNL A   1      48.911  25.228  27.415  1.00  0.00     0.074 A 
ATOM     72  C   UNL A   1      48.088  24.858  28.567  1.00  0.00     0.031 C 
ATOM     73  C   UNL A   1      49.912  26.148  27.276  1.00  0.00     0.037 A 
BRANCH  60  74
ATOM     74  C   UNL A   1      48.705  27.596  32.447  1.00  0.00     0.058 A 
ATOM     75  C   UNL A   1      48.944  28.192  33.706  1.00  0.00     0.135 A 
ATOM     76  C   UNL A   1      48.036  26.357  32.477  1.00  0.00     0.135 A 
ATOM     77  F   UNL A   1      49.444  29.429  33.827  1.00  0.00    -0.206 F 
ATOM     78  C   UNL A   1      48.597  27.587  34.905  1.00  0.00     0.059 A 
ATOM     79  C   UNL A   1      47.624  25.758  33.670  1.00  0.00     0.059 A 
ATOM     80  F   UNL A   1      47.721  25.725  31.336  1.00  0.00    -0.206 F 
ATOM     81  C   UNL A   1      47.919  26.378  34.879  1.00  0.00     0.060 A 
BRANCH  81  82
ATOM     82  S   UNL A   1      47.376  25.691  36.452  1.00  0.00     0.124 S 
ATOM     83  O   UNL A   1      45.940  25.947  36.399  1.00  0.00    -0.237 OA
ATOM     84  O   UNL A   1      47.779  24.295  36.326  1.00  0.00    -0.237 OA
ATOM     85  O   UNL A   1      48.118  26.473  37.435  1.00  0.00    -0.744 OA
ENDBRANCH  81  82
ENDBRANCH  60  74
BRANCH  61  86
ATOM     86  C   UNL A   1      44.752  23.590  25.816  1.00  0.00     0.058 A 
ATOM     87  C   UNL A   1      43.703  23.385  26.733  1.00  0.00     0.135 A 
ATOM     88  C   UNL A   1      44.955  22.557  24.877  1.00  0.00     0.135 A 
ATOM     89  F   UNL A   1      43.436  24.279  27.695  1.00  0.00    -0.206 F 
ATOM     90  C   UNL A   1      42.962  22.202  26.773  1.00  0.00     0.059 A 
ATOM     91  C   UNL A   1      44.240  21.351  24.914  1.00  0.00     0.059 A 
ATOM     92  F   UNL A   1      45.922  22.666  23.955  1.00  0.00    -0.206 F 
ATOM     93  C   UNL A   1      43.277  21.166  25.902  1.00  0.00     0.060 A 
BRANCH  93  94
ATOM     94  S   UNL A   1      42.509  19.552  26.180  1.00  0.00     0.124 S 
ATOM     95  O   UNL A   1      41.350  19.629  25.298  1.00  0.00    -0.237 OA
ATOM     96  O   UNL A   1      43.559  18.630  25.761  1.00  0.00    -0.237 OA
ATOM     97  O   UNL A   1      42.214  19.555  27.609  1.00  0.00    -0.744 OA
ENDBRANCH  93  94
ENDBRANCH  61  86
BRANCH  73  98
ATOM     98  C   UNL A   1      50.443  26.436  25.887  1.00  0.00     0.058 A 
ATOM     99  C   UNL A   1      51.631  25.803  25.496  1.00  0.00     0.135 A 
ATOM    100  C   UNL A   1      49.938  27.426  25.020  1.00  0.00     0.135 A 
ATOM    101  F   UNL A   1      52.198  24.886  26.297  1.00  0.00    -0.206 F 
ATOM    102  C   UNL A   1      52.296  26.135  24.320  1.00  0.00     0.059 A 
ATOM    103  C   UNL A   1      50.570  27.753  23.815  1.00  0.00     0.059 A 
ATOM    104  F   UNL A   1      48.858  28.145  25.351  1.00  0.00    -0.206 F 
ATOM    105  C   UNL A   1      51.759  27.112  23.481  1.00  0.00     0.060 A 
BRANCH 105 106
ATOM    106  S   UNL A   1      52.665  27.530  21.977  1.00  0.00     0.124 S 
ATOM    107  O   UNL A   1      51.598  27.569  20.981  1.00  0.00    -0.237 OA
ATOM    108  O   UNL A   1      53.254  28.821  22.319  1.00  0.00    -0.237 OA
ATOM    109  O   UNL A   1      53.617  26.433  21.824  1.00  0.00    -0.744 OA
ENDBRANCH 105 106
ENDBRANCH  73  98
ENDBRANCH  47  48
ENDBRANCH  39  42
ENDBRANCH  37  38
ENDBRANCH  36  37
ENDBRANCH   1  36
TORSDOF 19
ENDMDL
