MODEL 1
REMARK VINA RESULT:     -13.2      0.000      0.000
REMARK SMILES CC(C)(C)OC(=O)N1CCC2(CC1)CNc1ccc(C(=O)NCCCNC(=O)c3ccc(-c4c5nc(c(-c6c(F)cc(S(=O)(=O)[O-])cc6F)c6ccc([nH]6)c(-c6c(F)cc(S(=O)(=O)[O-])cc6F)c6nc(c(-c7c(F)cc(S(=O)(=O)[O-])cc7F)c7ccc4[nH]7)C=C6)C=C5)cc3)cc12
REMARK SMILES IDX 24 1 23 2 22 3 20 4 21 5 19 7 6 8 7 9 8 10 9 11 13 12 10 13
REMARK SMILES IDX 12 14 11 15 14 16 96 17 15 18 16 19 95 20 17 22 18 23 5 24
REMARK SMILES IDX 2 25 1 26 3 27 4 28 25 29 26 30 27 31 28 33 29 34 30 35
REMARK SMILES IDX 94 36 31 37 93 38 32 39 33 40 34 41 87 42 35 43 92 44 86 45
REMARK SMILES IDX 88 46 36 47 91 48 85 49 84 50 37 52 71 53 50 54 70 55 51 56
REMARK SMILES IDX 54 57 69 58 89 59 52 60 53 61 68 63 90 64 55 65 38 66 39 67
REMARK SMILES IDX 48 68 40 69 41 70 47 71 49 72 42 73 43 74 44 75 45 76 46 77
REMARK SMILES IDX 72 78 73 79 82 80 74 81 75 82 81 83 83 84 76 85 77 86 78 87
REMARK SMILES IDX 79 88 80 89 56 90 57 91 66 92 58 93 59 94 65 95 67 96 60 97
REMARK SMILES IDX 61 98 62 99 63 100 64 101
REMARK H PARENT 22 6 15 21 26 32 88 51 54 62
REMARK Flexibility Score: inf
ROOT
ATOM      1  C   UNL A   1      39.441  22.151  26.426  1.00  0.00     0.042 C 
ENDROOT
BRANCH   1   2
ATOM      2  C   UNL A   1      38.067  22.736  26.105  1.00  0.00     0.118 C 
BRANCH   2   3
ATOM      3  N   UNL A   1      37.839  22.793  24.673  1.00  0.00    -0.352 N 
ATOM      4  C   UNL A   1      36.750  22.534  23.882  1.00  0.00     0.251 C 
ATOM      5  O   UNL A   1      36.883  22.746  22.674  1.00  0.00    -0.269 OA
ATOM      6  H   UNL A   1      38.632  23.077  24.163  1.00  0.00     0.163 HD
BRANCH   4   7
ATOM      7  C   UNL A   1      35.422  22.070  24.388  1.00  0.00     0.040 A 
ATOM      8  C   UNL A   1      30.158  27.241  24.061  1.00  0.00     0.410 C 
ATOM      9  O   UNL A   1      29.443  27.448  23.094  1.00  0.00    -0.224 OA
ATOM     10  N   UNL A   1      30.418  25.976  24.560  1.00  0.00    -0.308 N 
ATOM     11  C   UNL A   1      30.129  24.817  23.732  1.00  0.00     0.124 C 
ATOM     12  C   UNL A   1      30.921  25.715  25.903  1.00  0.00     0.124 C 
ATOM     13  C   UNL A   1      31.373  23.934  23.628  1.00  0.00     0.035 C 
ATOM     14  C   UNL A   1      32.133  24.789  25.882  1.00  0.00     0.035 C 
ATOM     15  C   UNL A   1      31.893  23.530  25.025  1.00  0.00     0.018 C 
ATOM     16  C   UNL A   1      30.906  22.514  25.703  1.00  0.00     0.124 C 
ATOM     17  C   UNL A   1      33.143  22.688  24.917  1.00  0.00    -0.016 A 
ATOM     18  N   UNL A   1      31.626  21.268  25.930  1.00  0.00    -0.384 N 
ATOM     19  C   UNL A   1      32.884  21.400  25.366  1.00  0.00     0.038 A 
ATOM     20  C   UNL A   1      34.401  23.039  24.437  1.00  0.00     0.020 A 
ATOM     21  H   UNL A   1      31.281  20.474  26.401  1.00  0.00     0.160 HD
ATOM     22  C   UNL A   1      33.861  20.427  25.306  1.00  0.00     0.027 A 
ATOM     23  C   UNL A   1      35.118  20.757  24.778  1.00  0.00     0.016 A 
BRANCH   8  24
ATOM     24  O   UNL A   1      30.831  28.204  24.742  1.00  0.00    -0.444 OA
BRANCH  24  25
ATOM     25  C   UNL A   1      32.054  28.779  24.213  1.00  0.00     0.106 C 
ATOM     26  C   UNL A   1      32.430  29.880  25.216  1.00  0.00     0.056 C 
ATOM     27  C   UNL A   1      31.765  29.411  22.850  1.00  0.00     0.056 C 
ATOM     28  C   UNL A   1      33.225  27.789  24.141  1.00  0.00     0.056 C 
ENDBRANCH  24  25
ENDBRANCH   8  24
ENDBRANCH   4   7
ENDBRANCH   2   3
ENDBRANCH   1   2
BRANCH   1  29
ATOM     29  C   UNL A   1      40.416  23.174  27.005  1.00  0.00     0.118 C 
BRANCH  29  30
ATOM     30  N   UNL A   1      40.957  24.068  25.986  1.00  0.00    -0.352 N 
ATOM     31  C   UNL A   1      41.223  25.416  26.042  1.00  0.00     0.251 C 
ATOM     32  H   UNL A   1      41.163  23.638  25.124  1.00  0.00     0.163 HD
ATOM     33  O   UNL A   1      41.511  26.018  25.012  1.00  0.00    -0.269 OA
BRANCH  31  34
ATOM     34  C   UNL A   1      41.137  26.145  27.328  1.00  0.00     0.039 A 
ATOM     35  C   UNL A   1      40.082  25.915  28.212  1.00  0.00     0.014 A 
ATOM     36  C   UNL A   1      42.130  27.074  27.653  1.00  0.00     0.014 A 
ATOM     37  C   UNL A   1      39.924  26.735  29.325  1.00  0.00     0.010 A 
ATOM     38  C   UNL A   1      42.015  27.840  28.819  1.00  0.00     0.010 A 
ATOM     39  C   UNL A   1      40.879  27.716  29.636  1.00  0.00    -0.014 A 
BRANCH  39  40
ATOM     40  C   UNL A   1      40.646  28.624  30.793  1.00  0.00     0.031 A 
ATOM     41  C   UNL A   1      41.544  28.566  32.002  1.00  0.00     0.074 A 
ATOM     42  C   UNL A   1      39.673  29.554  30.721  1.00  0.00     0.049 A 
ATOM     43  N   UNL A   1      41.519  29.304  33.083  1.00  0.00    -0.248 NA
ATOM     44  C   UNL A   1      42.606  27.546  32.001  1.00  0.00     0.031 C 
ATOM     45  C   UNL A   1      38.746  29.717  29.599  1.00  0.00     0.029 A 
ATOM     46  N   UNL A   1      39.319  30.554  31.591  1.00  0.00    -0.354 N 
ATOM     47  C   UNL A   1      42.549  28.833  33.892  1.00  0.00     0.074 A 
ATOM     48  C   UNL A   1      43.156  27.721  33.195  1.00  0.00     0.031 C 
ATOM     49  C   UNL A   1      37.972  30.791  29.821  1.00  0.00     0.029 A 
ATOM     50  C   UNL A   1      38.304  31.356  31.125  1.00  0.00     0.049 A 
ATOM     51  H   UNL A   1      39.751  30.686  32.466  1.00  0.00     0.167 HD
ATOM     52  C   UNL A   1      42.964  29.299  35.095  1.00  0.00     0.037 A 
ATOM     53  C   UNL A   1      37.698  32.421  31.685  1.00  0.00     0.037 A 
ATOM     54  C   UNL A   1      42.375  30.425  35.773  1.00  0.00     0.049 A 
ATOM     55  C   UNL A   1      38.144  32.886  33.043  1.00  0.00     0.074 A 
ATOM     56  C   UNL A   1      42.739  30.985  36.984  1.00  0.00     0.029 A 
ATOM     57  N   UNL A   1      41.301  31.164  35.297  1.00  0.00    -0.354 N 
ATOM     58  N   UNL A   1      39.122  32.430  33.789  1.00  0.00    -0.248 NA
ATOM     59  C   UNL A   1      37.396  33.999  33.644  1.00  0.00     0.031 C 
ATOM     60  C   UNL A   1      41.861  32.037  37.262  1.00  0.00     0.029 A 
ATOM     61  C   UNL A   1      40.976  32.161  36.203  1.00  0.00     0.049 A 
ATOM     62  H   UNL A   1      40.840  31.005  34.442  1.00  0.00     0.167 HD
ATOM     63  C   UNL A   1      39.109  33.202  34.945  1.00  0.00     0.074 A 
ATOM     64  C   UNL A   1      38.043  34.171  34.789  1.00  0.00     0.031 C 
ATOM     65  C   UNL A   1      39.905  33.112  36.038  1.00  0.00     0.037 A 
BRANCH  52  66
ATOM     66  C   UNL A   1      44.112  28.593  35.763  1.00  0.00     0.058 A 
ATOM     67  C   UNL A   1      45.444  28.967  35.524  1.00  0.00     0.135 A 
ATOM     68  C   UNL A   1      43.877  27.569  36.696  1.00  0.00     0.135 A 
ATOM     69  F   UNL A   1      45.726  29.928  34.630  1.00  0.00    -0.206 F 
ATOM     70  C   UNL A   1      46.503  28.337  36.170  1.00  0.00     0.059 A 
ATOM     71  C   UNL A   1      44.920  26.942  37.372  1.00  0.00     0.059 A 
ATOM     72  F   UNL A   1      42.623  27.173  36.962  1.00  0.00    -0.206 F 
ATOM     73  C   UNL A   1      46.230  27.326  37.094  1.00  0.00     0.060 A 
BRANCH  73  74
ATOM     74  S   UNL A   1      47.619  26.528  37.928  1.00  0.00     0.124 S 
ATOM     75  O   UNL A   1      48.023  25.536  36.936  1.00  0.00    -0.237 OA
ATOM     76  O   UNL A   1      48.544  27.640  38.125  1.00  0.00    -0.237 OA
ATOM     77  O   UNL A   1      47.022  25.989  39.146  1.00  0.00    -0.744 OA
ENDBRANCH  73  74
ENDBRANCH  52  66
BRANCH  53  78
ATOM     78  C   UNL A   1      36.602  33.114  30.958  1.00  0.00     0.058 A 
ATOM     79  C   UNL A   1      35.263  32.935  31.329  1.00  0.00     0.135 A 
ATOM     80  C   UNL A   1      36.875  33.993  29.898  1.00  0.00     0.135 A 
ATOM     81  F   UNL A   1      34.949  32.097  32.329  1.00  0.00    -0.206 F 
ATOM     82  C   UNL A   1      34.231  33.603  30.677  1.00  0.00     0.059 A 
ATOM     83  C   UNL A   1      35.864  34.692  29.248  1.00  0.00     0.059 A 
ATOM     84  F   UNL A   1      38.143  34.207  29.511  1.00  0.00    -0.206 F 
ATOM     85  C   UNL A   1      34.543  34.486  29.642  1.00  0.00     0.060 A 
BRANCH  85  86
ATOM     86  S   UNL A   1      33.202  35.396  28.846  1.00  0.00     0.124 S 
ATOM     87  O   UNL A   1      32.480  35.923  29.998  1.00  0.00    -0.237 OA
ATOM     88  O   UNL A   1      33.930  36.375  28.045  1.00  0.00    -0.237 OA
ATOM     89  O   UNL A   1      32.505  34.366  28.081  1.00  0.00    -0.744 OA
ENDBRANCH  85  86
ENDBRANCH  53  78
BRANCH  65  90
ATOM     90  C   UNL A   1      39.654  34.077  37.161  1.00  0.00     0.058 A 
ATOM     91  C   UNL A   1      38.882  33.713  38.274  1.00  0.00     0.135 A 
ATOM     92  C   UNL A   1      40.252  35.347  37.162  1.00  0.00     0.135 A 
ATOM     93  F   UNL A   1      38.283  32.513  38.318  1.00  0.00    -0.206 F 
ATOM     94  C   UNL A   1      38.706  34.578  39.349  1.00  0.00     0.059 A 
ATOM     95  C   UNL A   1      40.109  36.220  38.237  1.00  0.00     0.059 A 
ATOM     96  F   UNL A   1      41.007  35.740  36.123  1.00  0.00    -0.206 F 
ATOM     97  C   UNL A   1      39.329  35.827  39.324  1.00  0.00     0.060 A 
BRANCH  97  98
ATOM     98  S   UNL A   1      39.136  36.915  40.752  1.00  0.00     0.124 S 
ATOM     99  O   UNL A   1      40.522  37.249  41.058  1.00  0.00    -0.237 OA
ATOM    100  O   UNL A   1      38.327  38.001  40.208  1.00  0.00    -0.237 OA
ATOM    101  O   UNL A   1      38.462  36.071  41.734  1.00  0.00    -0.744 OA
ENDBRANCH  97  98
ENDBRANCH  65  90
ENDBRANCH  39  40
ENDBRANCH  31  34
ENDBRANCH  29  30
ENDBRANCH   1  29
TORSDOF 15
ENDMDL
MODEL 2
REMARK VINA RESULT:     -13.0      6.555     12.094
REMARK SMILES CC(C)(C)OC(=O)N1CCC2(CC1)CNc1ccc(C(=O)NCCCNC(=O)c3ccc(-c4c5nc(c(-c6c(F)cc(S(=O)(=O)[O-])cc6F)c6ccc([nH]6)c(-c6c(F)cc(S(=O)(=O)[O-])cc6F)c6nc(c(-c7c(F)cc(S(=O)(=O)[O-])cc7F)c7ccc4[nH]7)C=C6)C=C5)cc3)cc12
REMARK SMILES IDX 24 1 23 2 22 3 20 4 21 5 19 7 6 8 7 9 8 10 9 11 13 12 10 13
REMARK SMILES IDX 12 14 11 15 14 16 96 17 15 18 16 19 95 20 17 22 18 23 5 24
REMARK SMILES IDX 2 25 1 26 3 27 4 28 25 29 26 30 27 31 28 33 29 34 30 35
REMARK SMILES IDX 94 36 31 37 93 38 32 39 33 40 34 41 87 42 35 43 92 44 86 45
REMARK SMILES IDX 88 46 36 47 91 48 85 49 84 50 37 52 71 53 50 54 70 55 51 56
REMARK SMILES IDX 54 57 69 58 89 59 52 60 53 61 68 63 90 64 55 65 38 66 39 67
REMARK SMILES IDX 48 68 40 69 41 70 47 71 49 72 42 73 43 74 44 75 45 76 46 77
REMARK SMILES IDX 72 78 73 79 82 80 74 81 75 82 81 83 83 84 76 85 77 86 78 87
REMARK SMILES IDX 79 88 80 89 56 90 57 91 66 92 58 93 59 94 65 95 67 96 60 97
REMARK SMILES IDX 61 98 62 99 63 100 64 101
REMARK H PARENT 22 6 15 21 26 32 88 51 54 62
REMARK Flexibility Score: inf
ROOT
ATOM      1  C   UNL A   1      34.264  31.735  27.814  1.00  0.00     0.042 C 
ENDROOT
BRANCH   1   2
ATOM      2  C   UNL A   1      33.855  30.557  26.932  1.00  0.00     0.118 C 
BRANCH   2   3
ATOM      3  N   UNL A   1      32.875  29.716  27.596  1.00  0.00    -0.352 N 
ATOM      4  C   UNL A   1      31.918  28.846  27.141  1.00  0.00     0.251 C 
ATOM      5  O   UNL A   1      31.279  28.232  28.000  1.00  0.00    -0.269 OA
ATOM      6  H   UNL A   1      32.903  29.786  28.578  1.00  0.00     0.163 HD
BRANCH   4   7
ATOM      7  C   UNL A   1      31.644  28.561  25.700  1.00  0.00     0.040 A 
ATOM      8  C   UNL A   1      32.985  21.562  23.757  1.00  0.00     0.410 C 
ATOM      9  O   UNL A   1      32.179  20.649  23.839  1.00  0.00    -0.224 OA
ATOM     10  N   UNL A   1      32.679  22.804  23.228  1.00  0.00    -0.308 N 
ATOM     11  C   UNL A   1      31.284  23.181  23.071  1.00  0.00     0.124 C 
ATOM     12  C   UNL A   1      33.674  23.759  22.757  1.00  0.00     0.124 C 
ATOM     13  C   UNL A   1      31.032  24.527  23.751  1.00  0.00     0.035 C 
ATOM     14  C   UNL A   1      33.451  25.146  23.351  1.00  0.00     0.035 C 
ATOM     15  C   UNL A   1      31.988  25.615  23.213  1.00  0.00     0.018 C 
ATOM     16  C   UNL A   1      31.610  25.991  21.736  1.00  0.00     0.124 C 
ATOM     17  C   UNL A   1      31.761  26.933  23.913  1.00  0.00    -0.016 A 
ATOM     18  N   UNL A   1      31.242  27.401  21.709  1.00  0.00    -0.384 N 
ATOM     19  C   UNL A   1      31.255  27.863  23.015  1.00  0.00     0.038 A 
ATOM     20  C   UNL A   1      31.967  27.267  25.248  1.00  0.00     0.020 A 
ATOM     21  H   UNL A   1      31.024  27.931  20.908  1.00  0.00     0.160 HD
ATOM     22  C   UNL A   1      30.908  29.130  23.439  1.00  0.00     0.027 A 
ATOM     23  C   UNL A   1      31.066  29.462  24.793  1.00  0.00     0.016 A 
BRANCH   8  24
ATOM     24  O   UNL A   1      34.262  21.506  24.216  1.00  0.00    -0.444 OA
BRANCH  24  25
ATOM     25  C   UNL A   1      34.552  21.588  25.636  1.00  0.00     0.106 C 
ATOM     26  C   UNL A   1      36.040  21.223  25.749  1.00  0.00     0.056 C 
ATOM     27  C   UNL A   1      33.716  20.547  26.382  1.00  0.00     0.056 C 
ATOM     28  C   UNL A   1      34.366  22.993  26.226  1.00  0.00     0.056 C 
ENDBRANCH  24  25
ENDBRANCH   8  24
ENDBRANCH   4   7
ENDBRANCH   2   3
ENDBRANCH   1   2
BRANCH   1  29
ATOM     29  C   UNL A   1      35.649  31.572  28.438  1.00  0.00     0.118 C 
BRANCH  29  30
ATOM     30  N   UNL A   1      35.595  30.968  29.765  1.00  0.00    -0.352 N 
ATOM     31  C   UNL A   1      36.539  30.231  30.442  1.00  0.00     0.251 C 
ATOM     32  H   UNL A   1      34.751  31.111  30.252  1.00  0.00     0.163 HD
ATOM     33  O   UNL A   1      36.228  29.661  31.483  1.00  0.00    -0.269 OA
BRANCH  31  34
ATOM     34  C   UNL A   1      37.914  30.102  29.906  1.00  0.00     0.039 A 
ATOM     35  C   UNL A   1      38.139  29.977  28.535  1.00  0.00     0.014 A 
ATOM     36  C   UNL A   1      38.994  30.104  30.794  1.00  0.00     0.014 A 
ATOM     37  C   UNL A   1      39.416  29.677  28.070  1.00  0.00     0.010 A 
ATOM     38  C   UNL A   1      40.291  29.887  30.315  1.00  0.00     0.010 A 
ATOM     39  C   UNL A   1      40.506  29.614  28.954  1.00  0.00    -0.014 A 
BRANCH  39  40
ATOM     40  C   UNL A   1      41.845  29.222  28.437  1.00  0.00     0.031 A 
ATOM     41  C   UNL A   1      42.978  30.217  28.418  1.00  0.00     0.074 A 
ATOM     42  C   UNL A   1      42.063  27.947  28.057  1.00  0.00     0.049 A 
ATOM     43  N   UNL A   1      44.220  30.044  28.043  1.00  0.00    -0.248 NA
ATOM     44  C   UNL A   1      42.679  31.583  28.875  1.00  0.00     0.031 C 
ATOM     45  C   UNL A   1      41.050  26.889  28.042  1.00  0.00     0.029 A 
ATOM     46  N   UNL A   1      43.207  27.315  27.641  1.00  0.00    -0.354 N 
ATOM     47  C   UNL A   1      44.845  31.276  28.208  1.00  0.00     0.074 A 
ATOM     48  C   UNL A   1      43.837  32.199  28.680  1.00  0.00     0.031 C 
ATOM     49  C   UNL A   1      41.631  25.729  27.696  1.00  0.00     0.029 A 
ATOM     50  C   UNL A   1      43.041  25.970  27.407  1.00  0.00     0.049 A 
ATOM     51  H   UNL A   1      44.067  27.780  27.522  1.00  0.00     0.167 HD
ATOM     52  C   UNL A   1      46.144  31.603  28.005  1.00  0.00     0.037 A 
ATOM     53  C   UNL A   1      43.920  25.035  26.997  1.00  0.00     0.037 A 
ATOM     54  C   UNL A   1      47.152  30.674  27.562  1.00  0.00     0.049 A 
ATOM     55  C   UNL A   1      45.344  25.435  26.730  1.00  0.00     0.074 A 
ATOM     56  C   UNL A   1      48.499  30.905  27.348  1.00  0.00     0.029 A 
ATOM     57  N   UNL A   1      46.924  29.337  27.268  1.00  0.00    -0.354 N 
ATOM     58  N   UNL A   1      45.914  26.604  26.896  1.00  0.00    -0.248 NA
ATOM     59  C   UNL A   1      46.239  24.394  26.206  1.00  0.00     0.031 C 
ATOM     60  C   UNL A   1      49.079  29.719  26.885  1.00  0.00     0.029 A 
ATOM     61  C   UNL A   1      48.102  28.738  26.852  1.00  0.00     0.049 A 
ATOM     62  H   UNL A   1      46.055  28.881  27.345  1.00  0.00     0.167 HD
ATOM     63  C   UNL A   1      47.237  26.440  26.501  1.00  0.00     0.074 A 
ATOM     64  C   UNL A   1      47.388  25.052  26.110  1.00  0.00     0.031 C 
ATOM     65  C   UNL A   1      48.234  27.357  26.458  1.00  0.00     0.037 A 
BRANCH  52  66
ATOM     66  C   UNL A   1      46.558  33.027  28.258  1.00  0.00     0.058 A 
ATOM     67  C   UNL A   1      47.028  33.443  29.514  1.00  0.00     0.135 A 
ATOM     68  C   UNL A   1      46.538  33.972  27.220  1.00  0.00     0.135 A 
ATOM     69  F   UNL A   1      47.053  32.584  30.545  1.00  0.00    -0.206 F 
ATOM     70  C   UNL A   1      47.445  34.751  29.737  1.00  0.00     0.059 A 
ATOM     71  C   UNL A   1      46.973  35.281  27.415  1.00  0.00     0.059 A 
ATOM     72  F   UNL A   1      46.098  33.628  26.000  1.00  0.00    -0.206 F 
ATOM     73  C   UNL A   1      47.414  35.663  28.680  1.00  0.00     0.060 A 
BRANCH  73  74
ATOM     74  S   UNL A   1      47.968  37.354  28.989  1.00  0.00     0.124 S 
ATOM     75  O   UNL A   1      49.418  37.185  29.018  1.00  0.00    -0.237 OA
ATOM     76  O   UNL A   1      47.437  38.071  27.833  1.00  0.00    -0.237 OA
ATOM     77  O   UNL A   1      47.350  37.688  30.267  1.00  0.00    -0.744 OA
ENDBRANCH  73  74
ENDBRANCH  52  66
BRANCH  53  78
ATOM     78  C   UNL A   1      43.469  23.630  26.812  1.00  0.00     0.058 A 
ATOM     79  C   UNL A   1      43.257  22.789  27.913  1.00  0.00     0.135 A 
ATOM     80  C   UNL A   1      43.209  23.111  25.533  1.00  0.00     0.135 A 
ATOM     81  F   UNL A   1      43.502  23.234  29.155  1.00  0.00    -0.206 F 
ATOM     82  C   UNL A   1      42.805  21.483  27.755  1.00  0.00     0.059 A 
ATOM     83  C   UNL A   1      42.731  21.818  25.352  1.00  0.00     0.059 A 
ATOM     84  F   UNL A   1      43.385  23.881  24.448  1.00  0.00    -0.206 F 
ATOM     85  C   UNL A   1      42.537  21.009  26.469  1.00  0.00     0.060 A 
BRANCH  85  86
ATOM     86  S   UNL A   1      41.888  19.335  26.281  1.00  0.00     0.124 S 
ATOM     87  O   UNL A   1      42.256  18.731  27.556  1.00  0.00    -0.237 OA
ATOM     88  O   UNL A   1      40.463  19.581  26.078  1.00  0.00    -0.237 OA
ATOM     89  O   UNL A   1      42.601  18.828  25.113  1.00  0.00    -0.744 OA
ENDBRANCH  85  86
ENDBRANCH  53  78
BRANCH  65  90
ATOM     90  C   UNL A   1      49.577  26.900  25.966  1.00  0.00     0.058 A 
ATOM     91  C   UNL A   1      49.942  27.033  24.618  1.00  0.00     0.135 A 
ATOM     92  C   UNL A   1      50.536  26.399  26.860  1.00  0.00     0.135 A 
ATOM     93  F   UNL A   1      49.059  27.500  23.722  1.00  0.00    -0.206 F 
ATOM     94  C   UNL A   1      51.210  26.678  24.172  1.00  0.00     0.059 A 
ATOM     95  C   UNL A   1      51.818  26.059  26.440  1.00  0.00     0.059 A 
ATOM     96  F   UNL A   1      50.239  26.260  28.162  1.00  0.00    -0.206 F 
ATOM     97  C   UNL A   1      52.144  26.197  25.091  1.00  0.00     0.060 A 
BRANCH  97  98
ATOM     98  S   UNL A   1      53.803  25.794  24.504  1.00  0.00     0.124 S 
ATOM     99  O   UNL A   1      53.650  25.944  23.061  1.00  0.00    -0.237 OA
ATOM    100  O   UNL A   1      54.620  26.807  25.165  1.00  0.00    -0.237 OA
ATOM    101  O   UNL A   1      54.008  24.428  24.975  1.00  0.00    -0.744 OA
ENDBRANCH  97  98
ENDBRANCH  65  90
ENDBRANCH  39  40
ENDBRANCH  31  34
ENDBRANCH  29  30
ENDBRANCH   1  29
TORSDOF 15
ENDMDL
MODEL 3
REMARK VINA RESULT:     -12.8      6.471     12.025
REMARK SMILES CC(C)(C)OC(=O)N1CCC2(CC1)CNc1ccc(C(=O)NCCCNC(=O)c3ccc(-c4c5nc(c(-c6c(F)cc(S(=O)(=O)[O-])cc6F)c6ccc([nH]6)c(-c6c(F)cc(S(=O)(=O)[O-])cc6F)c6nc(c(-c7c(F)cc(S(=O)(=O)[O-])cc7F)c7ccc4[nH]7)C=C6)C=C5)cc3)cc12
REMARK SMILES IDX 24 1 23 2 22 3 20 4 21 5 19 7 6 8 7 9 8 10 9 11 13 12 10 13
REMARK SMILES IDX 12 14 11 15 14 16 96 17 15 18 16 19 95 20 17 22 18 23 5 24
REMARK SMILES IDX 2 25 1 26 3 27 4 28 25 29 26 30 27 31 28 33 29 34 30 35
REMARK SMILES IDX 94 36 31 37 93 38 32 39 33 40 34 41 87 42 35 43 92 44 86 45
REMARK SMILES IDX 88 46 36 47 91 48 85 49 84 50 37 52 71 53 50 54 70 55 51 56
REMARK SMILES IDX 54 57 69 58 89 59 52 60 53 61 68 63 90 64 55 65 38 66 39 67
REMARK SMILES IDX 48 68 40 69 41 70 47 71 49 72 42 73 43 74 44 75 45 76 46 77
REMARK SMILES IDX 72 78 73 79 82 80 74 81 75 82 81 83 83 84 76 85 77 86 78 87
REMARK SMILES IDX 79 88 80 89 56 90 57 91 66 92 58 93 59 94 65 95 67 96 60 97
REMARK SMILES IDX 61 98 62 99 63 100 64 101
REMARK H PARENT 22 6 15 21 26 32 88 51 54 62
REMARK Flexibility Score: inf
ROOT
ATOM      1  C   UNL A   1      34.686  33.053  29.004  1.00  0.00     0.042 C 
ENDROOT
BRANCH   1   2
ATOM      2  C   UNL A   1      34.035  32.036  28.069  1.00  0.00     0.118 C 
BRANCH   2   3
ATOM      3  N   UNL A   1      34.865  30.856  27.912  1.00  0.00    -0.352 N 
ATOM      4  C   UNL A   1      34.710  29.679  27.225  1.00  0.00     0.251 C 
ATOM      5  O   UNL A   1      35.660  28.894  27.257  1.00  0.00    -0.269 OA
ATOM      6  H   UNL A   1      35.718  30.912  28.400  1.00  0.00     0.163 HD
BRANCH   4   7
ATOM      7  C   UNL A   1      33.506  29.320  26.416  1.00  0.00     0.040 A 
ATOM      8  C   UNL A   1      33.313  22.221  24.385  1.00  0.00     0.410 C 
ATOM      9  O   UNL A   1      32.833  21.319  25.051  1.00  0.00    -0.224 OA
ATOM     10  N   UNL A   1      32.681  23.435  24.177  1.00  0.00    -0.308 N 
ATOM     11  C   UNL A   1      31.572  23.811  25.039  1.00  0.00     0.124 C 
ATOM     12  C   UNL A   1      33.018  24.359  23.101  1.00  0.00     0.124 C 
ATOM     13  C   UNL A   1      31.830  25.192  25.641  1.00  0.00     0.035 C 
ATOM     14  C   UNL A   1      33.234  25.777  23.621  1.00  0.00     0.035 C 
ATOM     15  C   UNL A   1      32.087  26.245  24.540  1.00  0.00     0.018 C 
ATOM     16  C   UNL A   1      30.763  26.545  23.752  1.00  0.00     0.124 C 
ATOM     17  C   UNL A   1      32.379  27.599  25.141  1.00  0.00    -0.016 A 
ATOM     18  N   UNL A   1      30.437  27.953  23.936  1.00  0.00    -0.384 N 
ATOM     19  C   UNL A   1      31.355  28.484  24.828  1.00  0.00     0.038 A 
ATOM     20  C   UNL A   1      33.458  28.002  25.921  1.00  0.00     0.020 A 
ATOM     21  H   UNL A   1      29.699  28.441  23.504  1.00  0.00     0.160 HD
ATOM     22  C   UNL A   1      31.367  29.773  25.320  1.00  0.00     0.027 A 
ATOM     23  C   UNL A   1      32.425  30.175  26.148  1.00  0.00     0.016 A 
BRANCH   8  24
ATOM     24  O   UNL A   1      34.541  22.183  23.805  1.00  0.00    -0.444 OA
BRANCH  24  25
ATOM     25  C   UNL A   1      35.745  22.387  24.589  1.00  0.00     0.106 C 
ATOM     26  C   UNL A   1      36.735  23.042  23.614  1.00  0.00     0.056 C 
ATOM     27  C   UNL A   1      36.293  21.030  25.034  1.00  0.00     0.056 C 
ATOM     28  C   UNL A   1      35.557  23.340  25.779  1.00  0.00     0.056 C 
ENDBRANCH  24  25
ENDBRANCH   8  24
ENDBRANCH   4   7
ENDBRANCH   2   3
ENDBRANCH   1   2
BRANCH   1  29
ATOM     29  C   UNL A   1      36.030  32.588  29.562  1.00  0.00     0.118 C 
BRANCH  29  30
ATOM     30  N   UNL A   1      35.880  31.648  30.668  1.00  0.00    -0.352 N 
ATOM     31  C   UNL A   1      36.700  30.620  31.073  1.00  0.00     0.251 C 
ATOM     32  H   UNL A   1      35.065  31.768  31.207  1.00  0.00     0.163 HD
ATOM     33  O   UNL A   1      36.302  29.830  31.923  1.00  0.00    -0.269 OA
BRANCH  31  34
ATOM     34  C   UNL A   1      38.042  30.450  30.471  1.00  0.00     0.039 A 
ATOM     35  C   UNL A   1      38.194  30.301  29.092  1.00  0.00     0.014 A 
ATOM     36  C   UNL A   1      39.166  30.437  31.303  1.00  0.00     0.014 A 
ATOM     37  C   UNL A   1      39.438  29.963  28.568  1.00  0.00     0.010 A 
ATOM     38  C   UNL A   1      40.431  30.181  30.762  1.00  0.00     0.010 A 
ATOM     39  C   UNL A   1      40.569  29.885  29.397  1.00  0.00    -0.014 A 
BRANCH  39  40
ATOM     40  C   UNL A   1      41.871  29.453  28.818  1.00  0.00     0.031 A 
ATOM     41  C   UNL A   1      43.040  30.405  28.771  1.00  0.00     0.074 A 
ATOM     42  C   UNL A   1      42.024  28.179  28.406  1.00  0.00     0.049 A 
ATOM     43  N   UNL A   1      44.259  30.192  28.343  1.00  0.00    -0.248 NA
ATOM     44  C   UNL A   1      42.812  31.772  29.265  1.00  0.00     0.031 C 
ATOM     45  C   UNL A   1      40.971  27.160  28.412  1.00  0.00     0.029 A 
ATOM     46  N   UNL A   1      43.125  27.512  27.932  1.00  0.00    -0.354 N 
ATOM     47  C   UNL A   1      44.937  31.396  28.505  1.00  0.00     0.074 A 
ATOM     48  C   UNL A   1      43.985  32.347  29.035  1.00  0.00     0.031 C 
ATOM     49  C   UNL A   1      41.492  25.986  28.022  1.00  0.00     0.029 A 
ATOM     50  C   UNL A   1      42.898  26.180  27.680  1.00  0.00     0.049 A 
ATOM     51  H   UNL A   1      43.998  27.946  27.787  1.00  0.00     0.167 HD
ATOM     52  C   UNL A   1      46.238  31.678  28.255  1.00  0.00     0.037 A 
ATOM     53  C   UNL A   1      43.723  25.220  27.217  1.00  0.00     0.037 A 
ATOM     54  C   UNL A   1      47.190  30.720  27.754  1.00  0.00     0.049 A 
ATOM     55  C   UNL A   1      45.149  25.571  26.899  1.00  0.00     0.074 A 
ATOM     56  C   UNL A   1      48.536  30.904  27.490  1.00  0.00     0.029 A 
ATOM     57  N   UNL A   1      46.900  29.399  27.445  1.00  0.00    -0.354 N 
ATOM     58  N   UNL A   1      45.771  26.714  27.064  1.00  0.00    -0.248 NA
ATOM     59  C   UNL A   1      45.983  24.509  26.320  1.00  0.00     0.031 C 
ATOM     60  C   UNL A   1      49.051  29.707  26.982  1.00  0.00     0.029 A 
ATOM     61  C   UNL A   1      48.036  28.764  26.971  1.00  0.00     0.049 A 
ATOM     62  H   UNL A   1      46.018  28.975  27.549  1.00  0.00     0.167 HD
ATOM     63  C   UNL A   1      47.069  26.508  26.612  1.00  0.00     0.074 A 
ATOM     64  C   UNL A   1      47.151  25.124  26.190  1.00  0.00     0.031 C 
ATOM     65  C   UNL A   1      48.099  27.388  26.547  1.00  0.00     0.037 A 
BRANCH  52  66
ATOM     66  C   UNL A   1      46.716  33.079  28.518  1.00  0.00     0.058 A 
ATOM     67  C   UNL A   1      47.245  33.455  29.764  1.00  0.00     0.135 A 
ATOM     68  C   UNL A   1      46.699  34.044  27.497  1.00  0.00     0.135 A 
ATOM     69  F   UNL A   1      47.271  32.576  30.779  1.00  0.00    -0.206 F 
ATOM     70  C   UNL A   1      47.721  34.741  29.994  1.00  0.00     0.059 A 
ATOM     71  C   UNL A   1      47.192  35.331  27.698  1.00  0.00     0.059 A 
ATOM     72  F   UNL A   1      46.204  33.739  26.288  1.00  0.00    -0.206 F 
ATOM     73  C   UNL A   1      47.691  35.673  28.954  1.00  0.00     0.060 A 
BRANCH  73  74
ATOM     74  S   UNL A   1      48.321  37.335  29.271  1.00  0.00     0.124 S 
ATOM     75  O   UNL A   1      48.267  37.926  27.938  1.00  0.00    -0.237 OA
ATOM     76  O   UNL A   1      47.354  37.856  30.234  1.00  0.00    -0.237 OA
ATOM     77  O   UNL A   1      49.660  37.098  29.799  1.00  0.00    -0.744 OA
ENDBRANCH  73  74
ENDBRANCH  52  66
BRANCH  53  78
ATOM     78  C   UNL A   1      43.211  23.838  27.025  1.00  0.00     0.058 A 
ATOM     79  C   UNL A   1      42.867  23.366  25.750  1.00  0.00     0.135 A 
ATOM     80  C   UNL A   1      43.087  22.951  28.106  1.00  0.00     0.135 A 
ATOM     81  F   UNL A   1      42.957  24.179  24.686  1.00  0.00    -0.206 F 
ATOM     82  C   UNL A   1      42.417  22.064  25.553  1.00  0.00     0.059 A 
ATOM     83  C   UNL A   1      42.665  21.637  27.930  1.00  0.00     0.059 A 
ATOM     84  F   UNL A   1      43.415  23.351  29.344  1.00  0.00    -0.206 F 
ATOM     85  C   UNL A   1      42.327  21.205  26.649  1.00  0.00     0.060 A 
BRANCH  85  86
ATOM     86  S   UNL A   1      41.805  19.499  26.371  1.00  0.00     0.124 S 
ATOM     87  O   UNL A   1      40.361  19.651  26.235  1.00  0.00    -0.237 OA
ATOM     88  O   UNL A   1      42.530  19.153  25.152  1.00  0.00    -0.237 OA
ATOM     89  O   UNL A   1      42.257  18.809  27.576  1.00  0.00    -0.744 OA
ENDBRANCH  85  86
ENDBRANCH  53  78
BRANCH  65  90
ATOM     90  C   UNL A   1      49.403  26.890  25.992  1.00  0.00     0.058 A 
ATOM     91  C   UNL A   1      49.700  26.998  24.625  1.00  0.00     0.135 A 
ATOM     92  C   UNL A   1      50.394  26.375  26.842  1.00  0.00     0.135 A 
ATOM     93  F   UNL A   1      48.783  27.477  23.769  1.00  0.00    -0.206 F 
ATOM     94  C   UNL A   1      50.934  26.604  24.118  1.00  0.00     0.059 A 
ATOM     95  C   UNL A   1      51.643  25.996  26.360  1.00  0.00     0.059 A 
ATOM     96  F   UNL A   1      50.161  26.259  28.159  1.00  0.00    -0.206 F 
ATOM     97  C   UNL A   1      51.902  26.110  24.994  1.00  0.00     0.060 A 
BRANCH  97  98
ATOM     98  S   UNL A   1      53.517  25.657  24.328  1.00  0.00     0.124 S 
ATOM     99  O   UNL A   1      54.407  26.516  25.102  1.00  0.00    -0.237 OA
ATOM    100  O   UNL A   1      53.589  24.231  24.631  1.00  0.00    -0.237 OA
ATOM    101  O   UNL A   1      53.405  25.985  22.910  1.00  0.00    -0.744 OA
ENDBRANCH  97  98
ENDBRANCH  65  90
ENDBRANCH  39  40
ENDBRANCH  31  34
ENDBRANCH  29  30
ENDBRANCH   1  29
TORSDOF 15
ENDMDL
