MODEL 1
REMARK VINA RESULT:     -13.3      0.000      0.000
REMARK SMILES O=C(NCCCNC(=O)[C@H]1CCCC[C@H]1C(=O)N1CCN(S(=O)(=O)c2ccc(F)cc2)CC1)c1ccc(-c2c3nc(c(-c4c(F)cc(S(=O)(=O)[O-])cc4F)c4ccc([nH]4)c(-c4c(F)cc(S(=O)(=O)[O-])cc4F)c4nc(c(-c5c(F)cc(S(=O)(=O)[O-])cc5F)c5ccc2[nH]5)C=C4)C=C3)cc1
REMARK SMILES IDX 5 1 4 2 3 3 1 4 2 5 34 7 35 8 99 9 36 10 98 11 37 12 38 13
REMARK SMILES IDX 39 14 92 15 40 16 97 17 91 18 93 19 41 20 96 21 90 22 89 23
REMARK SMILES IDX 42 25 76 26 55 27 75 28 56 29 59 30 74 31 94 32 57 33 58 34
REMARK SMILES IDX 73 36 95 37 60 38 43 39 44 40 53 41 45 42 46 43 52 44 54 45
REMARK SMILES IDX 47 46 48 47 49 48 50 49 51 50 77 51 78 52 87 53 79 54 80 55
REMARK SMILES IDX 86 56 88 57 81 58 82 59 83 60 84 61 85 62 61 63 62 64 71 65
REMARK SMILES IDX 63 66 64 67 70 68 72 69 65 70 66 71 67 72 68 73 69 74 6 75
REMARK SMILES IDX 7 76 8 77 9 79 10 80 11 81 15 82 12 83 14 84 13 85 16 86
REMARK SMILES IDX 17 87 18 88 19 89 33 90 20 91 32 92 21 93 22 94 23 95 24 96
REMARK SMILES IDX 25 97 26 98 31 99 27 100 30 101 28 102 29 103
REMARK H PARENT 3 6 93 24 59 35 7 78
REMARK Flexibility Score: inf
ROOT
ATOM      1  C   UNL A   1      33.835  29.413  27.615  1.00  0.00     0.042 C 
ENDROOT
BRANCH   1   2
ATOM      2  C   UNL A   1      35.282  29.647  28.036  1.00  0.00     0.118 C 
BRANCH   2   3
ATOM      3  N   UNL A   1      35.397  30.278  29.341  1.00  0.00    -0.352 N 
ATOM      4  O   UNL A   1      36.284  30.836  31.326  1.00  0.00    -0.269 OA
ATOM      5  C   UNL A   1      36.476  30.420  30.185  1.00  0.00     0.251 C 
ATOM      6  H   UNL A   1      34.561  30.672  29.678  1.00  0.00     0.163 HD
BRANCH   5   7
ATOM      7  C   UNL A   1      37.846  30.044  29.758  1.00  0.00     0.039 A 
ATOM      8  C   UNL A   1      38.253  30.191  28.437  1.00  0.00     0.014 A 
ATOM      9  C   UNL A   1      38.767  29.580  30.706  1.00  0.00     0.014 A 
ATOM     10  C   UNL A   1      39.484  29.700  28.026  1.00  0.00     0.010 A 
ATOM     11  C   UNL A   1      40.067  29.221  30.315  1.00  0.00     0.010 A 
ATOM     12  C   UNL A   1      40.430  29.250  28.962  1.00  0.00    -0.014 A 
BRANCH  12  13
ATOM     13  C   UNL A   1      41.800  28.925  28.471  1.00  0.00     0.031 A 
ATOM     14  C   UNL A   1      42.939  29.901  28.592  1.00  0.00     0.074 A 
ATOM     15  C   UNL A   1      42.026  27.676  28.008  1.00  0.00     0.049 A 
ATOM     16  N   UNL A   1      44.202  29.721  28.296  1.00  0.00    -0.248 NA
ATOM     17  C   UNL A   1      42.633  31.249  29.096  1.00  0.00     0.031 C 
ATOM     18  C   UNL A   1      40.991  26.650  27.824  1.00  0.00     0.029 A 
ATOM     19  N   UNL A   1      43.187  27.026  27.675  1.00  0.00    -0.354 N 
ATOM     20  C   UNL A   1      44.834  30.933  28.551  1.00  0.00     0.074 A 
ATOM     21  C   UNL A   1      43.815  31.848  29.015  1.00  0.00     0.031 C 
ATOM     22  C   UNL A   1      41.574  25.479  27.540  1.00  0.00     0.029 A 
ATOM     23  C   UNL A   1      43.011  25.684  27.421  1.00  0.00     0.049 A 
ATOM     24  H   UNL A   1      44.062  27.476  27.624  1.00  0.00     0.167 HD
ATOM     25  C   UNL A   1      46.145  31.245  28.412  1.00  0.00     0.037 A 
ATOM     26  C   UNL A   1      43.901  24.721  27.118  1.00  0.00     0.037 A 
ATOM     27  C   UNL A   1      47.158  30.313  27.982  1.00  0.00     0.049 A 
ATOM     28  C   UNL A   1      45.347  25.095  26.985  1.00  0.00     0.074 A 
ATOM     29  C   UNL A   1      48.516  30.534  27.817  1.00  0.00     0.029 A 
ATOM     30  N   UNL A   1      46.931  28.982  27.665  1.00  0.00    -0.354 N 
ATOM     31  N   UNL A   1      45.915  26.257  27.204  1.00  0.00    -0.248 NA
ATOM     32  C   UNL A   1      46.266  24.044  26.535  1.00  0.00     0.031 C 
ATOM     33  C   UNL A   1      49.104  29.346  27.369  1.00  0.00     0.029 A 
ATOM     34  C   UNL A   1      48.120  28.374  27.292  1.00  0.00     0.049 A 
ATOM     35  H   UNL A   1      46.055  28.535  27.698  1.00  0.00     0.167 HD
ATOM     36  C   UNL A   1      47.258  26.081  26.899  1.00  0.00     0.074 A 
ATOM     37  C   UNL A   1      47.424  24.691  26.524  1.00  0.00     0.031 C 
ATOM     38  C   UNL A   1      48.259  26.994  26.907  1.00  0.00     0.037 A 
BRANCH  25  39
ATOM     39  C   UNL A   1      46.582  32.649  28.722  1.00  0.00     0.058 A 
ATOM     40  C   UNL A   1      46.911  33.017  30.038  1.00  0.00     0.135 A 
ATOM     41  C   UNL A   1      46.570  33.656  27.745  1.00  0.00     0.135 A 
ATOM     42  F   UNL A   1      46.946  32.092  31.010  1.00  0.00    -0.206 F 
ATOM     43  C   UNL A   1      47.181  34.339  30.380  1.00  0.00     0.059 A 
ATOM     44  C   UNL A   1      46.856  34.983  28.060  1.00  0.00     0.059 A 
ATOM     45  F   UNL A   1      46.286  33.354  26.468  1.00  0.00    -0.206 F 
ATOM     46  C   UNL A   1      47.140  35.318  29.386  1.00  0.00     0.060 A 
BRANCH  46  47
ATOM     47  S   UNL A   1      47.482  37.030  29.847  1.00  0.00     0.124 S 
ATOM     48  O   UNL A   1      47.919  36.886  31.231  1.00  0.00    -0.237 OA
ATOM     49  O   UNL A   1      48.517  37.404  28.887  1.00  0.00    -0.237 OA
ATOM     50  O   UNL A   1      46.196  37.694  29.658  1.00  0.00    -0.744 OA
ENDBRANCH  46  47
ENDBRANCH  25  39
BRANCH  26  51
ATOM     51  C   UNL A   1      43.442  23.324  26.894  1.00  0.00     0.058 A 
ATOM     52  C   UNL A   1      43.192  22.462  27.973  1.00  0.00     0.135 A 
ATOM     53  C   UNL A   1      43.273  22.814  25.598  1.00  0.00     0.135 A 
ATOM     54  F   UNL A   1      43.346  22.897  29.232  1.00  0.00    -0.206 F 
ATOM     55  C   UNL A   1      42.823  21.136  27.777  1.00  0.00     0.059 A 
ATOM     56  C   UNL A   1      42.873  21.499  25.376  1.00  0.00     0.059 A 
ATOM     57  F   UNL A   1      43.486  23.604  24.534  1.00  0.00    -0.206 F 
ATOM     58  C   UNL A   1      42.670  20.663  26.474  1.00  0.00     0.060 A 
BRANCH  58  59
ATOM     59  S   UNL A   1      42.181  18.941  26.240  1.00  0.00     0.124 S 
ATOM     60  O   UNL A   1      42.301  18.419  27.597  1.00  0.00    -0.237 OA
ATOM     61  O   UNL A   1      40.821  19.072  25.727  1.00  0.00    -0.237 OA
ATOM     62  O   UNL A   1      43.163  18.442  25.282  1.00  0.00    -0.744 OA
ENDBRANCH  58  59
ENDBRANCH  26  51
BRANCH  38  63
ATOM     63  C   UNL A   1      49.615  26.514  26.482  1.00  0.00     0.058 A 
ATOM     64  C   UNL A   1      50.053  26.677  25.161  1.00  0.00     0.135 A 
ATOM     65  C   UNL A   1      50.471  25.866  27.388  1.00  0.00     0.135 A 
ATOM     66  F   UNL A   1      49.268  27.287  24.258  1.00  0.00    -0.206 F 
ATOM     67  C   UNL A   1      51.296  26.212  24.747  1.00  0.00     0.059 A 
ATOM     68  C   UNL A   1      51.728  25.413  27.001  1.00  0.00     0.059 A 
ATOM     69  F   UNL A   1      50.101  25.700  28.667  1.00  0.00    -0.206 F 
ATOM     70  C   UNL A   1      52.126  25.581  25.674  1.00  0.00     0.060 A 
BRANCH  70  71
ATOM     71  S   UNL A   1      53.757  25.026  25.137  1.00  0.00     0.124 S 
ATOM     72  O   UNL A   1      53.583  23.578  25.105  1.00  0.00    -0.237 OA
ATOM     73  O   UNL A   1      53.895  25.677  23.838  1.00  0.00    -0.237 OA
ATOM     74  O   UNL A   1      54.646  25.532  26.179  1.00  0.00    -0.744 OA
ENDBRANCH  70  71
ENDBRANCH  38  63
ENDBRANCH  12  13
ENDBRANCH   5   7
ENDBRANCH   2   3
ENDBRANCH   1   2
BRANCH   1  75
ATOM     75  C   UNL A   1      33.273  30.549  26.761  1.00  0.00     0.117 C 
BRANCH  75  76
ATOM     76  N   UNL A   1      33.328  30.210  25.347  1.00  0.00    -0.356 N 
ATOM     77  C   UNL A   1      32.729  29.187  24.692  1.00  0.00     0.223 C 
ATOM     78  H   UNL A   1      33.877  30.807  24.789  1.00  0.00     0.163 HD
ATOM     79  O   UNL A   1      33.460  28.578  23.900  1.00  0.00    -0.275 OA
BRANCH  77  80
ATOM     80  C   UNL A   1      31.250  28.827  24.785  1.00  0.00     0.091 C 
ATOM     81  C   UNL A   1      30.365  29.572  23.763  1.00  0.00     0.014 C 
ATOM     82  C   UNL A   1      30.824  27.351  24.925  1.00  0.00     0.091 C 
ATOM     83  C   UNL A   1      29.973  28.800  22.496  1.00  0.00     0.001 C 
ATOM     84  C   UNL A   1      30.715  26.646  23.572  1.00  0.00     0.014 C 
ATOM     85  C   UNL A   1      29.648  27.333  22.727  1.00  0.00     0.001 C 
BRANCH  82  86
ATOM     86  C   UNL A   1      31.356  26.371  25.998  1.00  0.00     0.226 C 
ATOM     87  O   UNL A   1      31.149  26.606  27.192  1.00  0.00    -0.275 OA
ATOM     88  N   UNL A   1      31.777  25.122  25.595  1.00  0.00    -0.340 N 
ATOM     89  C   UNL A   1      31.312  23.923  26.299  1.00  0.00     0.136 C 
ATOM     90  C   UNL A   1      33.087  24.930  25.011  1.00  0.00     0.136 C 
ATOM     91  C   UNL A   1      31.304  22.695  25.357  1.00  0.00     0.124 C 
ATOM     92  C   UNL A   1      33.000  23.827  23.964  1.00  0.00     0.124 C 
ATOM     93  N   UNL A   1      32.602  22.523  24.588  1.00  0.00    -0.194 NA
BRANCH  93  94
ATOM     94  S   UNL A   1      33.796  21.642  25.441  1.00  0.00     0.243 S 
ATOM     95  O   UNL A   1      35.091  22.227  25.154  1.00  0.00    -0.207 OA
ATOM     96  O   UNL A   1      33.338  21.521  26.806  1.00  0.00    -0.207 OA
BRANCH  94  97
ATOM     97  C   UNL A   1      33.775  20.017  24.706  1.00  0.00     0.082 A 
ATOM     98  C   UNL A   1      34.880  19.169  24.868  1.00  0.00     0.025 A 
ATOM     99  C   UNL A   1      32.626  19.562  24.050  1.00  0.00     0.025 A 
ATOM    100  C   UNL A   1      34.869  17.896  24.297  1.00  0.00     0.040 A 
ATOM    101  C   UNL A   1      32.607  18.272  23.514  1.00  0.00     0.040 A 
ATOM    102  C   UNL A   1      33.731  17.457  23.629  1.00  0.00     0.123 A 
ATOM    103  F   UNL A   1      33.712  16.228  23.101  1.00  0.00    -0.207 F 
ENDBRANCH  94  97
ENDBRANCH  93  94
ENDBRANCH  82  86
ENDBRANCH  77  80
ENDBRANCH  75  76
ENDBRANCH   1  75
TORSDOF 16
ENDMDL
MODEL 2
REMARK VINA RESULT:     -13.3      1.591      2.275
REMARK SMILES O=C(NCCCNC(=O)[C@H]1CCCC[C@H]1C(=O)N1CCN(S(=O)(=O)c2ccc(F)cc2)CC1)c1ccc(-c2c3nc(c(-c4c(F)cc(S(=O)(=O)[O-])cc4F)c4ccc([nH]4)c(-c4c(F)cc(S(=O)(=O)[O-])cc4F)c4nc(c(-c5c(F)cc(S(=O)(=O)[O-])cc5F)c5ccc2[nH]5)C=C4)C=C3)cc1
REMARK SMILES IDX 5 1 4 2 3 3 1 4 2 5 34 7 35 8 99 9 36 10 98 11 37 12 38 13
REMARK SMILES IDX 39 14 92 15 40 16 97 17 91 18 93 19 41 20 96 21 90 22 89 23
REMARK SMILES IDX 42 25 76 26 55 27 75 28 56 29 59 30 74 31 94 32 57 33 58 34
REMARK SMILES IDX 73 36 95 37 60 38 43 39 44 40 53 41 45 42 46 43 52 44 54 45
REMARK SMILES IDX 47 46 48 47 49 48 50 49 51 50 77 51 78 52 87 53 79 54 80 55
REMARK SMILES IDX 86 56 88 57 81 58 82 59 83 60 84 61 85 62 61 63 62 64 71 65
REMARK SMILES IDX 63 66 64 67 70 68 72 69 65 70 66 71 67 72 68 73 69 74 6 75
REMARK SMILES IDX 7 76 8 77 9 79 10 80 11 81 15 82 12 83 14 84 13 85 16 86
REMARK SMILES IDX 17 87 18 88 19 89 33 90 20 91 32 92 21 93 22 94 23 95 24 96
REMARK SMILES IDX 25 97 26 98 31 99 27 100 30 101 28 102 29 103
REMARK H PARENT 3 6 93 24 59 35 7 78
REMARK Flexibility Score: inf
ROOT
ATOM      1  C   UNL A   1      34.841  29.191  27.220  1.00  0.00     0.042 C 
ENDROOT
BRANCH   1   2
ATOM      2  C   UNL A   1      35.251  30.550  27.777  1.00  0.00     0.118 C 
BRANCH   2   3
ATOM      3  N   UNL A   1      35.258  30.587  29.232  1.00  0.00    -0.352 N 
ATOM      4  O   UNL A   1      35.935  30.184  31.333  1.00  0.00    -0.269 OA
ATOM      5  C   UNL A   1      36.231  30.237  30.141  1.00  0.00     0.251 C 
ATOM      6  H   UNL A   1      34.424  30.921  29.635  1.00  0.00     0.163 HD
BRANCH   5   7
ATOM      7  C   UNL A   1      37.604  29.884  29.704  1.00  0.00     0.039 A 
ATOM      8  C   UNL A   1      38.010  30.069  28.388  1.00  0.00     0.014 A 
ATOM      9  C   UNL A   1      38.530  29.406  30.641  1.00  0.00     0.014 A 
ATOM     10  C   UNL A   1      39.246  29.600  27.966  1.00  0.00     0.010 A 
ATOM     11  C   UNL A   1      39.834  29.070  30.242  1.00  0.00     0.010 A 
ATOM     12  C   UNL A   1      40.197  29.137  28.890  1.00  0.00    -0.014 A 
BRANCH  12  13
ATOM     13  C   UNL A   1      41.570  28.838  28.391  1.00  0.00     0.031 A 
ATOM     14  C   UNL A   1      42.688  29.839  28.495  1.00  0.00     0.074 A 
ATOM     15  C   UNL A   1      41.820  27.589  27.938  1.00  0.00     0.049 A 
ATOM     16  N   UNL A   1      43.952  29.685  28.192  1.00  0.00    -0.248 NA
ATOM     17  C   UNL A   1      42.356  31.184  28.990  1.00  0.00     0.031 C 
ATOM     18  C   UNL A   1      40.807  26.540  27.771  1.00  0.00     0.029 A 
ATOM     19  N   UNL A   1      42.992  26.963  27.602  1.00  0.00    -0.354 N 
ATOM     20  C   UNL A   1      44.559  30.912  28.432  1.00  0.00     0.074 A 
ATOM     21  C   UNL A   1      43.523  31.809  28.895  1.00  0.00     0.031 C 
ATOM     22  C   UNL A   1      41.413  25.379  27.492  1.00  0.00     0.029 A 
ATOM     23  C   UNL A   1      42.844  25.615  27.361  1.00  0.00     0.049 A 
ATOM     24  H   UNL A   1      43.857  27.431  27.540  1.00  0.00     0.167 HD
ATOM     25  C   UNL A   1      45.862  31.252  28.280  1.00  0.00     0.037 A 
ATOM     26  C   UNL A   1      43.753  24.669  27.059  1.00  0.00     0.037 A 
ATOM     27  C   UNL A   1      46.892  30.339  27.850  1.00  0.00     0.049 A 
ATOM     28  C   UNL A   1      45.189  25.074  26.912  1.00  0.00     0.074 A 
ATOM     29  C   UNL A   1      48.243  30.589  27.673  1.00  0.00     0.029 A 
ATOM     30  N   UNL A   1      46.692  29.000  27.546  1.00  0.00    -0.354 N 
ATOM     31  N   UNL A   1      45.733  26.250  27.116  1.00  0.00    -0.248 NA
ATOM     32  C   UNL A   1      46.128  24.039  26.464  1.00  0.00     0.031 C 
ATOM     33  C   UNL A   1      48.854  29.410  27.231  1.00  0.00     0.029 A 
ATOM     34  C   UNL A   1      47.891  28.416  27.170  1.00  0.00     0.049 A 
ATOM     35  H   UNL A   1      45.827  28.534  27.590  1.00  0.00     0.167 HD
ATOM     36  C   UNL A   1      47.077  26.101  26.803  1.00  0.00     0.074 A 
ATOM     37  C   UNL A   1      47.271  24.711  26.439  1.00  0.00     0.031 C 
ATOM     38  C   UNL A   1      48.058  27.035  26.795  1.00  0.00     0.037 A 
BRANCH  25  39
ATOM     39  C   UNL A   1      46.270  32.668  28.575  1.00  0.00     0.058 A 
ATOM     40  C   UNL A   1      46.273  33.634  27.554  1.00  0.00     0.135 A 
ATOM     41  C   UNL A   1      46.764  33.045  29.833  1.00  0.00     0.135 A 
ATOM     42  F   UNL A   1      45.804  33.329  26.334  1.00  0.00    -0.206 F 
ATOM     43  C   UNL A   1      46.780  34.913  27.762  1.00  0.00     0.059 A 
ATOM     44  C   UNL A   1      47.258  34.326  30.070  1.00  0.00     0.059 A 
ATOM     45  F   UNL A   1      46.762  32.167  30.850  1.00  0.00    -0.206 F 
ATOM     46  C   UNL A   1      47.281  35.247  29.021  1.00  0.00     0.060 A 
BRANCH  46  47
ATOM     47  S   UNL A   1      47.944  36.908  29.273  1.00  0.00     0.124 S 
ATOM     48  O   UNL A   1      49.208  36.840  28.547  1.00  0.00    -0.237 OA
ATOM     49  O   UNL A   1      46.908  37.745  28.674  1.00  0.00    -0.237 OA
ATOM     50  O   UNL A   1      48.057  37.010  30.725  1.00  0.00    -0.744 OA
ENDBRANCH  46  47
ENDBRANCH  25  39
BRANCH  26  51
ATOM     51  C   UNL A   1      43.323  23.261  26.851  1.00  0.00     0.058 A 
ATOM     52  C   UNL A   1      42.992  22.436  27.937  1.00  0.00     0.135 A 
ATOM     53  C   UNL A   1      43.264  22.702  25.565  1.00  0.00     0.135 A 
ATOM     54  F   UNL A   1      43.039  22.918  29.188  1.00  0.00    -0.206 F 
ATOM     55  C   UNL A   1      42.649  21.100  27.761  1.00  0.00     0.059 A 
ATOM     56  C   UNL A   1      42.893  21.376  25.361  1.00  0.00     0.059 A 
ATOM     57  F   UNL A   1      43.559  23.455  24.493  1.00  0.00    -0.206 F 
ATOM     58  C   UNL A   1      42.606  20.578  26.469  1.00  0.00     0.060 A 
BRANCH  58  59
ATOM     59  S   UNL A   1      42.149  18.844  26.259  1.00  0.00     0.124 S 
ATOM     60  O   UNL A   1      40.786  18.964  25.754  1.00  0.00    -0.237 OA
ATOM     61  O   UNL A   1      43.144  18.375  25.301  1.00  0.00    -0.237 OA
ATOM     62  O   UNL A   1      42.277  18.300  27.608  1.00  0.00    -0.744 OA
ENDBRANCH  58  59
ENDBRANCH  26  51
BRANCH  38  63
ATOM     63  C   UNL A   1      49.421  26.582  26.365  1.00  0.00     0.058 A 
ATOM     64  C   UNL A   1      49.854  26.765  25.044  1.00  0.00     0.135 A 
ATOM     65  C   UNL A   1      50.288  25.939  27.263  1.00  0.00     0.135 A 
ATOM     66  F   UNL A   1      49.059  27.370  24.149  1.00  0.00    -0.206 F 
ATOM     67  C   UNL A   1      51.104  26.324  24.625  1.00  0.00     0.059 A 
ATOM     68  C   UNL A   1      51.553  25.510  26.870  1.00  0.00     0.059 A 
ATOM     69  F   UNL A   1      49.923  25.756  28.541  1.00  0.00    -0.206 F 
ATOM     70  C   UNL A   1      51.946  25.698  25.545  1.00  0.00     0.060 A 
BRANCH  70  71
ATOM     71  S   UNL A   1      53.585  25.174  25.000  1.00  0.00     0.124 S 
ATOM     72  O   UNL A   1      53.533  23.736  25.239  1.00  0.00    -0.237 OA
ATOM     73  O   UNL A   1      53.594  25.586  23.600  1.00  0.00    -0.237 OA
ATOM     74  O   UNL A   1      54.486  25.925  25.871  1.00  0.00    -0.744 OA
ENDBRANCH  70  71
ENDBRANCH  38  63
ENDBRANCH  12  13
ENDBRANCH   5   7
ENDBRANCH   2   3
ENDBRANCH   1   2
BRANCH   1  75
ATOM     75  C   UNL A   1      33.403  29.171  26.701  1.00  0.00     0.117 C 
BRANCH  75  76
ATOM     76  N   UNL A   1      33.327  29.739  25.363  1.00  0.00    -0.356 N 
ATOM     77  C   UNL A   1      32.633  29.296  24.288  1.00  0.00     0.223 C 
ATOM     78  H   UNL A   1      33.854  30.558  25.221  1.00  0.00     0.163 HD
ATOM     79  O   UNL A   1      33.271  29.287  23.227  1.00  0.00    -0.275 OA
BRANCH  77  80
ATOM     80  C   UNL A   1      31.153  28.929  24.284  1.00  0.00     0.091 C 
ATOM     81  C   UNL A   1      30.224  30.099  24.675  1.00  0.00     0.014 C 
ATOM     82  C   UNL A   1      30.565  28.112  23.115  1.00  0.00     0.091 C 
ATOM     83  C   UNL A   1      29.540  30.853  23.526  1.00  0.00     0.001 C 
ATOM     84  C   UNL A   1      30.154  28.997  21.936  1.00  0.00     0.014 C 
ATOM     85  C   UNL A   1      29.066  29.966  22.385  1.00  0.00     0.001 C 
BRANCH  82  86
ATOM     86  C   UNL A   1      31.126  26.764  22.604  1.00  0.00     0.226 C 
ATOM     87  O   UNL A   1      31.028  26.480  21.406  1.00  0.00    -0.275 OA
ATOM     88  N   UNL A   1      31.980  26.057  23.421  1.00  0.00    -0.340 N 
ATOM     89  C   UNL A   1      33.245  25.535  22.894  1.00  0.00     0.136 C 
ATOM     90  C   UNL A   1      31.471  25.242  24.504  1.00  0.00     0.136 C 
ATOM     91  C   UNL A   1      34.304  25.411  24.016  1.00  0.00     0.124 C 
ATOM     92  C   UNL A   1      32.464  25.283  25.658  1.00  0.00     0.124 C 
ATOM     93  N   UNL A   1      33.784  24.700  25.252  1.00  0.00    -0.194 NA
BRANCH  93  94
ATOM     94  S   UNL A   1      33.921  22.996  25.175  1.00  0.00     0.243 S 
ATOM     95  O   UNL A   1      33.252  22.429  26.330  1.00  0.00    -0.207 OA
ATOM     96  O   UNL A   1      33.532  22.600  23.841  1.00  0.00    -0.207 OA
BRANCH  94  97
ATOM     97  C   UNL A   1      35.664  22.670  25.361  1.00  0.00     0.082 A 
ATOM     98  C   UNL A   1      36.487  23.624  25.976  1.00  0.00     0.025 A 
ATOM     99  C   UNL A   1      36.187  21.431  24.975  1.00  0.00     0.025 A 
ATOM    100  C   UNL A   1      37.852  23.373  26.126  1.00  0.00     0.040 A 
ATOM    101  C   UNL A   1      37.547  21.171  25.164  1.00  0.00     0.040 A 
ATOM    102  C   UNL A   1      38.368  22.147  25.723  1.00  0.00     0.123 A 
ATOM    103  F   UNL A   1      39.673  21.898  25.887  1.00  0.00    -0.207 F 
ENDBRANCH  94  97
ENDBRANCH  93  94
ENDBRANCH  82  86
ENDBRANCH  77  80
ENDBRANCH  75  76
ENDBRANCH   1  75
TORSDOF 16
ENDMDL
MODEL 3
REMARK VINA RESULT:     -13.2      0.479      7.957
REMARK SMILES O=C(NCCCNC(=O)[C@H]1CCCC[C@H]1C(=O)N1CCN(S(=O)(=O)c2ccc(F)cc2)CC1)c1ccc(-c2c3nc(c(-c4c(F)cc(S(=O)(=O)[O-])cc4F)c4ccc([nH]4)c(-c4c(F)cc(S(=O)(=O)[O-])cc4F)c4nc(c(-c5c(F)cc(S(=O)(=O)[O-])cc5F)c5ccc2[nH]5)C=C4)C=C3)cc1
REMARK SMILES IDX 5 1 4 2 3 3 1 4 2 5 34 7 35 8 99 9 36 10 98 11 37 12 38 13
REMARK SMILES IDX 39 14 92 15 40 16 97 17 91 18 93 19 41 20 96 21 90 22 89 23
REMARK SMILES IDX 42 25 76 26 55 27 75 28 56 29 59 30 74 31 94 32 57 33 58 34
REMARK SMILES IDX 73 36 95 37 60 38 43 39 44 40 53 41 45 42 46 43 52 44 54 45
REMARK SMILES IDX 47 46 48 47 49 48 50 49 51 50 77 51 78 52 87 53 79 54 80 55
REMARK SMILES IDX 86 56 88 57 81 58 82 59 83 60 84 61 85 62 61 63 62 64 71 65
REMARK SMILES IDX 63 66 64 67 70 68 72 69 65 70 66 71 67 72 68 73 69 74 6 75
REMARK SMILES IDX 7 76 8 77 9 79 10 80 11 81 15 82 12 83 14 84 13 85 16 86
REMARK SMILES IDX 17 87 18 88 19 89 33 90 20 91 32 92 21 93 22 94 23 95 24 96
REMARK SMILES IDX 25 97 26 98 31 99 27 100 30 101 28 102 29 103
REMARK H PARENT 3 6 93 24 59 35 7 78
REMARK Flexibility Score: inf
ROOT
ATOM      1  C   UNL A   1      33.814  29.197  27.279  1.00  0.00     0.042 C 
ENDROOT
BRANCH   1   2
ATOM      2  C   UNL A   1      35.232  29.331  27.825  1.00  0.00     0.118 C 
BRANCH   2   3
ATOM      3  N   UNL A   1      35.304  30.164  29.016  1.00  0.00    -0.352 N 
ATOM      4  O   UNL A   1      36.130  31.044  30.907  1.00  0.00    -0.269 OA
ATOM      5  C   UNL A   1      36.358  30.456  29.852  1.00  0.00     0.251 C 
ATOM      6  H   UNL A   1      34.454  30.591  29.266  1.00  0.00     0.163 HD
BRANCH   5   7
ATOM      7  C   UNL A   1      37.744  30.041  29.522  1.00  0.00     0.039 A 
ATOM      8  C   UNL A   1      38.600  29.549  30.500  1.00  0.00     0.014 A 
ATOM      9  C   UNL A   1      38.187  30.094  28.194  1.00  0.00     0.014 A 
ATOM     10  C   UNL A   1      39.933  29.304  30.203  1.00  0.00     0.010 A 
ATOM     11  C   UNL A   1      39.495  29.703  27.867  1.00  0.00     0.010 A 
ATOM     12  C   UNL A   1      40.393  29.330  28.876  1.00  0.00    -0.014 A 
BRANCH  12  13
ATOM     13  C   UNL A   1      41.784  28.863  28.609  1.00  0.00     0.031 A 
ATOM     14  C   UNL A   1      42.076  27.458  28.155  1.00  0.00     0.074 A 
ATOM     15  C   UNL A   1      42.781  29.772  28.677  1.00  0.00     0.049 A 
ATOM     16  N   UNL A   1      43.222  26.939  27.794  1.00  0.00    -0.248 NA
ATOM     17  C   UNL A   1      40.953  26.509  28.106  1.00  0.00     0.031 C 
ATOM     18  C   UNL A   1      42.619  31.160  29.128  1.00  0.00     0.029 A 
ATOM     19  N   UNL A   1      44.100  29.704  28.310  1.00  0.00    -0.354 N 
ATOM     20  C   UNL A   1      42.967  25.604  27.502  1.00  0.00     0.074 A 
ATOM     21  C   UNL A   1      41.557  25.385  27.738  1.00  0.00     0.031 C 
ATOM     22  C   UNL A   1      43.749  31.838  28.891  1.00  0.00     0.029 A 
ATOM     23  C   UNL A   1      44.749  30.918  28.367  1.00  0.00     0.049 A 
ATOM     24  H   UNL A   1      44.541  28.868  28.032  1.00  0.00     0.167 HD
ATOM     25  C   UNL A   1      43.833  24.655  27.072  1.00  0.00     0.037 A 
ATOM     26  C   UNL A   1      46.010  31.257  28.041  1.00  0.00     0.037 A 
ATOM     27  C   UNL A   1      45.230  24.894  26.807  1.00  0.00     0.049 A 
ATOM     28  C   UNL A   1      46.940  30.187  27.556  1.00  0.00     0.074 A 
ATOM     29  C   UNL A   1      46.187  23.996  26.362  1.00  0.00     0.029 A 
ATOM     30  N   UNL A   1      45.868  26.119  26.943  1.00  0.00    -0.354 N 
ATOM     31  N   UNL A   1      46.681  28.924  27.315  1.00  0.00    -0.248 NA
ATOM     32  C   UNL A   1      48.337  30.575  27.328  1.00  0.00     0.031 C 
ATOM     33  C   UNL A   1      47.409  24.670  26.261  1.00  0.00     0.029 A 
ATOM     34  C   UNL A   1      47.206  25.997  26.605  1.00  0.00     0.049 A 
ATOM     35  H   UNL A   1      45.434  26.951  27.238  1.00  0.00     0.167 HD
ATOM     36  C   UNL A   1      47.888  28.360  26.926  1.00  0.00     0.074 A 
ATOM     37  C   UNL A   1      48.867  29.429  26.920  1.00  0.00     0.031 C 
ATOM     38  C   UNL A   1      48.166  27.070  26.623  1.00  0.00     0.037 A 
BRANCH  25  39
ATOM     39  C   UNL A   1      43.316  23.260  26.858  1.00  0.00     0.058 A 
ATOM     40  C   UNL A   1      43.052  22.423  27.955  1.00  0.00     0.135 A 
ATOM     41  C   UNL A   1      43.188  22.712  25.572  1.00  0.00     0.135 A 
ATOM     42  F   UNL A   1      43.151  22.899  29.207  1.00  0.00    -0.206 F 
ATOM     43  C   UNL A   1      42.710  21.085  27.786  1.00  0.00     0.059 A 
ATOM     44  C   UNL A   1      42.828  21.381  25.378  1.00  0.00     0.059 A 
ATOM     45  F   UNL A   1      43.406  23.475  24.489  1.00  0.00    -0.206 F 
ATOM     46  C   UNL A   1      42.611  20.569  26.493  1.00  0.00     0.060 A 
BRANCH  46  47
ATOM     47  S   UNL A   1      42.176  18.828  26.290  1.00  0.00     0.124 S 
ATOM     48  O   UNL A   1      43.204  18.368  25.364  1.00  0.00    -0.237 OA
ATOM     49  O   UNL A   1      42.277  18.326  27.658  1.00  0.00    -0.237 OA
ATOM     50  O   UNL A   1      40.820  18.880  25.751  1.00  0.00    -0.744 OA
ENDBRANCH  46  47
ENDBRANCH  25  39
BRANCH  26  51
ATOM     51  C   UNL A   1      46.465  32.666  28.193  1.00  0.00     0.058 A 
ATOM     52  C   UNL A   1      46.316  33.592  27.149  1.00  0.00     0.135 A 
ATOM     53  C   UNL A   1      47.085  33.105  29.372  1.00  0.00     0.135 A 
ATOM     54  F   UNL A   1      45.737  33.221  25.997  1.00  0.00    -0.206 F 
ATOM     55  C   UNL A   1      46.794  34.893  27.254  1.00  0.00     0.059 A 
ATOM     56  C   UNL A   1      47.544  34.412  29.513  1.00  0.00     0.059 A 
ATOM     57  F   UNL A   1      47.238  32.260  30.404  1.00  0.00    -0.206 F 
ATOM     58  C   UNL A   1      47.410  35.293  28.439  1.00  0.00     0.060 A 
BRANCH  58  59
ATOM     59  S   UNL A   1      48.014  36.989  28.561  1.00  0.00     0.124 S 
ATOM     60  O   UNL A   1      47.246  37.489  29.696  1.00  0.00    -0.237 OA
ATOM     61  O   UNL A   1      49.441  36.794  28.796  1.00  0.00    -0.237 OA
ATOM     62  O   UNL A   1      47.668  37.561  27.264  1.00  0.00    -0.744 OA
ENDBRANCH  58  59
ENDBRANCH  26  51
BRANCH  38  63
ATOM     63  C   UNL A   1      49.589  26.748  26.276  1.00  0.00     0.058 A 
ATOM     64  C   UNL A   1      50.064  26.916  24.968  1.00  0.00     0.135 A 
ATOM     65  C   UNL A   1      50.476  26.247  27.242  1.00  0.00     0.135 A 
ATOM     66  F   UNL A   1      49.254  27.390  24.008  1.00  0.00    -0.206 F 
ATOM     67  C   UNL A   1      51.373  26.596  24.626  1.00  0.00     0.059 A 
ATOM     68  C   UNL A   1      51.796  25.941  26.928  1.00  0.00     0.059 A 
ATOM     69  F   UNL A   1      50.070  26.083  28.511  1.00  0.00    -0.206 F 
ATOM     70  C   UNL A   1      52.231  26.109  25.613  1.00  0.00     0.060 A 
BRANCH  70  71
ATOM     71  S   UNL A   1      53.942  25.743  25.168  1.00  0.00     0.124 S 
ATOM     72  O   UNL A   1      53.844  25.577  23.722  1.00  0.00    -0.237 OA
ATOM     73  O   UNL A   1      54.645  26.938  25.625  1.00  0.00    -0.237 OA
ATOM     74  O   UNL A   1      54.234  24.527  25.923  1.00  0.00    -0.744 OA
ENDBRANCH  70  71
ENDBRANCH  38  63
ENDBRANCH  12  13
ENDBRANCH   5   7
ENDBRANCH   2   3
ENDBRANCH   1   2
BRANCH   1  75
ATOM     75  C   UNL A   1      33.374  30.412  26.462  1.00  0.00     0.117 C 
BRANCH  75  76
ATOM     76  N   UNL A   1      33.276  30.078  25.049  1.00  0.00    -0.356 N 
ATOM     77  C   UNL A   1      32.579  29.080  24.456  1.00  0.00     0.223 C 
ATOM     78  H   UNL A   1      33.788  30.658  24.441  1.00  0.00     0.163 HD
ATOM     79  O   UNL A   1      33.206  28.449  23.595  1.00  0.00    -0.275 OA
BRANCH  77  80
ATOM     80  C   UNL A   1      31.105  28.771  24.696  1.00  0.00     0.091 C 
ATOM     81  C   UNL A   1      30.155  29.473  23.702  1.00  0.00     0.014 C 
ATOM     82  C   UNL A   1      30.657  27.321  24.971  1.00  0.00     0.091 C 
ATOM     83  C   UNL A   1      29.639  28.630  22.527  1.00  0.00     0.001 C 
ATOM     84  C   UNL A   1      30.417  26.531  23.683  1.00  0.00     0.014 C 
ATOM     85  C   UNL A   1      29.299  27.192  22.885  1.00  0.00     0.001 C 
BRANCH  82  86
ATOM     86  C   UNL A   1      31.254  26.399  26.061  1.00  0.00     0.226 C 
ATOM     87  O   UNL A   1      31.110  26.693  27.252  1.00  0.00    -0.275 OA
ATOM     88  N   UNL A   1      31.661  25.133  25.699  1.00  0.00    -0.340 N 
ATOM     89  C   UNL A   1      31.244  23.969  26.488  1.00  0.00     0.136 C 
ATOM     90  C   UNL A   1      32.938  24.917  25.054  1.00  0.00     0.136 C 
ATOM     91  C   UNL A   1      31.193  22.695  25.610  1.00  0.00     0.124 C 
ATOM     92  C   UNL A   1      32.802  23.762  24.071  1.00  0.00     0.124 C 
ATOM     93  N   UNL A   1      32.448  22.490  24.781  1.00  0.00    -0.194 NA
BRANCH  93  94
ATOM     94  S   UNL A   1      33.692  21.658  25.610  1.00  0.00     0.243 S 
ATOM     95  O   UNL A   1      34.960  22.277  25.276  1.00  0.00    -0.207 OA
ATOM     96  O   UNL A   1      33.279  21.545  26.991  1.00  0.00    -0.207 OA
BRANCH  94  97
ATOM     97  C   UNL A   1      33.699  20.022  24.901  1.00  0.00     0.082 A 
ATOM     98  C   UNL A   1      32.528  19.514  24.319  1.00  0.00     0.025 A 
ATOM     99  C   UNL A   1      34.889  19.289  24.847  1.00  0.00     0.025 A 
ATOM    100  C   UNL A   1      32.528  18.235  23.761  1.00  0.00     0.040 A 
ATOM    101  C   UNL A   1      34.891  18.025  24.251  1.00  0.00     0.040 A 
ATOM    102  C   UNL A   1      33.710  17.505  23.728  1.00  0.00     0.123 A 
ATOM    103  F   UNL A   1      33.715  16.287  23.172  1.00  0.00    -0.207 F 
ENDBRANCH  94  97
ENDBRANCH  93  94
ENDBRANCH  82  86
ENDBRANCH  77  80
ENDBRANCH  75  76
ENDBRANCH   1  75
TORSDOF 16
ENDMDL
