MODEL 1
REMARK VINA RESULT:     -12.6      0.000      0.000
REMARK SMILES C[C@@H](C(=O)NCCCNC(=O)c1ccc(-c2c3nc(c(-c4c(F)cc(S(=O)(=O)[O-])cc4F)c4ccc([nH]4)c(-c4c(F)cc(S(=O)(=O)[O-])cc4F)c4nc(c(-c5c(F)cc(S(=O)(=O)[O-])cc5F)c5ccc2[nH]5)C=C4)C=C3)cc1)c1ccc(O[C@H]2CCCC2=O)cc1F
REMARK SMILES IDX 7 1 6 2 5 3 3 4 4 5 2 7 1 8 78 9 79 10 90 11 80 12 89 13
REMARK SMILES IDX 91 14 81 15 82 16 83 17 84 18 87 19 85 20 86 21 88 22 8 23
REMARK SMILES IDX 9 24 10 25 11 27 12 28 13 29 77 30 14 31 76 32 15 33 16 34
REMARK SMILES IDX 17 35 70 36 18 37 75 38 69 39 71 40 19 41 74 42 68 43 67 44
REMARK SMILES IDX 20 46 54 47 33 48 53 49 34 50 37 51 52 52 72 53 35 54 36 55
REMARK SMILES IDX 51 57 73 58 38 59 21 60 22 61 31 62 23 63 24 64 30 65 32 66
REMARK SMILES IDX 25 67 26 68 27 69 28 70 29 71 55 72 56 73 65 74 57 75 58 76
REMARK SMILES IDX 64 77 66 78 59 79 60 80 61 81 62 82 63 83 39 84 40 85 49 86
REMARK SMILES IDX 41 87 42 88 48 89 50 90 43 91 44 92 45 93 46 94 47 95
REMARK H PARENT 5 6 9 26 71 45 37 56
REMARK Flexibility Score: inf
ROOT
ATOM      1  C   UNL A   1      39.147  22.275  26.501  1.00  0.00     0.042 C 
ENDROOT
BRANCH   1   2
ATOM      2  C   UNL A   1      37.962  23.041  25.916  1.00  0.00     0.117 C 
BRANCH   2   3
ATOM      3  N   UNL A   1      37.727  22.749  24.516  1.00  0.00    -0.356 N 
ATOM      4  C   UNL A   1      36.644  22.996  23.723  1.00  0.00     0.227 C 
ATOM      5  O   UNL A   1      36.846  22.927  22.508  1.00  0.00    -0.274 OA
ATOM      6  H   UNL A   1      38.475  22.296  24.061  1.00  0.00     0.163 HD
BRANCH   4   7
ATOM      7  C   UNL A   1      35.296  23.436  24.330  1.00  0.00     0.108 C 
ATOM      8  C   UNL A   1      35.415  24.177  25.665  1.00  0.00     0.023 C 
BRANCH   7   9
ATOM      9  C   UNL A   1      34.324  22.280  24.550  1.00  0.00     0.000 A 
ATOM     10  C   UNL A   1      34.672  21.215  25.389  1.00  0.00     0.011 A 
ATOM     11  C   UNL A   1      33.122  22.183  23.836  1.00  0.00     0.130 A 
ATOM     12  C   UNL A   1      33.824  20.109  25.512  1.00  0.00     0.047 A 
ATOM     13  C   UNL A   1      32.262  21.094  23.979  1.00  0.00     0.086 A 
ATOM     14  F   UNL A   1      32.795  23.124  22.939  1.00  0.00    -0.207 F 
ATOM     15  C   UNL A   1      32.606  20.049  24.826  1.00  0.00     0.123 A 
BRANCH  15  16
ATOM     16  O   UNL A   1      31.905  18.898  25.024  1.00  0.00    -0.483 OA
BRANCH  16  17
ATOM     17  C   UNL A   1      32.280  17.693  24.401  1.00  0.00     0.239 C 
ATOM     18  C   UNL A   1      32.762  17.867  22.954  1.00  0.00     0.054 C 
ATOM     19  C   UNL A   1      33.265  16.685  24.988  1.00  0.00     0.173 C 
ATOM     20  C   UNL A   1      34.145  17.228  22.870  1.00  0.00     0.012 C 
ATOM     21  C   UNL A   1      34.194  16.146  23.937  1.00  0.00     0.080 C 
ATOM     22  O   UNL A   1      33.273  16.309  26.155  1.00  0.00    -0.296 OA
ENDBRANCH  16  17
ENDBRANCH  15  16
ENDBRANCH   7   9
ENDBRANCH   4   7
ENDBRANCH   2   3
ENDBRANCH   1   2
BRANCH   1  23
ATOM     23  C   UNL A   1      40.258  23.145  27.083  1.00  0.00     0.118 C 
BRANCH  23  24
ATOM     24  N   UNL A   1      40.945  23.941  26.079  1.00  0.00    -0.352 N 
ATOM     25  C   UNL A   1      41.282  25.269  26.069  1.00  0.00     0.251 C 
ATOM     26  H   UNL A   1      41.213  23.443  25.273  1.00  0.00     0.163 HD
ATOM     27  O   UNL A   1      41.721  25.760  25.025  1.00  0.00    -0.269 OA
BRANCH  25  28
ATOM     28  C   UNL A   1      41.114  26.124  27.266  1.00  0.00     0.039 A 
ATOM     29  C   UNL A   1      42.073  27.110  27.521  1.00  0.00     0.014 A 
ATOM     30  C   UNL A   1      40.058  25.941  28.164  1.00  0.00     0.014 A 
ATOM     31  C   UNL A   1      41.944  27.942  28.636  1.00  0.00     0.010 A 
ATOM     32  C   UNL A   1      39.889  26.820  29.236  1.00  0.00     0.010 A 
ATOM     33  C   UNL A   1      40.832  27.826  29.488  1.00  0.00    -0.014 A 
BRANCH  33  34
ATOM     34  C   UNL A   1      40.653  28.758  30.633  1.00  0.00     0.031 A 
ATOM     35  C   UNL A   1      41.497  28.622  31.873  1.00  0.00     0.074 A 
ATOM     36  C   UNL A   1      39.700  29.709  30.571  1.00  0.00     0.049 A 
ATOM     37  N   UNL A   1      41.473  29.336  32.971  1.00  0.00    -0.248 NA
ATOM     38  C   UNL A   1      42.482  27.529  31.894  1.00  0.00     0.031 C 
ATOM     39  C   UNL A   1      38.776  29.905  29.451  1.00  0.00     0.029 A 
ATOM     40  N   UNL A   1      39.345  30.686  31.467  1.00  0.00    -0.354 N 
ATOM     41  C   UNL A   1      42.429  28.778  33.810  1.00  0.00     0.074 A 
ATOM     42  C   UNL A   1      42.977  27.631  33.118  1.00  0.00     0.031 C 
ATOM     43  C   UNL A   1      37.979  30.953  29.716  1.00  0.00     0.029 A 
ATOM     44  C   UNL A   1      38.312  31.484  31.034  1.00  0.00     0.049 A 
ATOM     45  H   UNL A   1      39.788  30.804  32.337  1.00  0.00     0.167 HD
ATOM     46  C   UNL A   1      42.836  29.197  35.034  1.00  0.00     0.037 A 
ATOM     47  C   UNL A   1      37.701  32.526  31.629  1.00  0.00     0.037 A 
ATOM     48  C   UNL A   1      42.300  30.350  35.713  1.00  0.00     0.049 A 
ATOM     49  C   UNL A   1      38.180  32.985  32.980  1.00  0.00     0.074 A 
ATOM     50  C   UNL A   1      42.675  30.883  36.934  1.00  0.00     0.029 A 
ATOM     51  N   UNL A   1      41.273  31.149  35.229  1.00  0.00    -0.354 N 
ATOM     52  N   UNL A   1      39.131  32.482  33.730  1.00  0.00    -0.248 NA
ATOM     53  C   UNL A   1      37.512  34.159  33.557  1.00  0.00     0.031 C 
ATOM     54  C   UNL A   1      41.853  31.981  37.205  1.00  0.00     0.029 A 
ATOM     55  C   UNL A   1      40.994  32.162  36.133  1.00  0.00     0.049 A 
ATOM     56  H   UNL A   1      40.812  31.016  34.370  1.00  0.00     0.167 HD
ATOM     57  C   UNL A   1      39.190  33.291  34.859  1.00  0.00     0.074 A 
ATOM     58  C   UNL A   1      38.193  34.327  34.683  1.00  0.00     0.031 C 
ATOM     59  C   UNL A   1      39.997  33.185  35.945  1.00  0.00     0.037 A 
BRANCH  46  60
ATOM     60  C   UNL A   1      43.924  28.411  35.713  1.00  0.00     0.058 A 
ATOM     61  C   UNL A   1      43.628  27.364  36.601  1.00  0.00     0.135 A 
ATOM     62  C   UNL A   1      45.277  28.681  35.451  1.00  0.00     0.135 A 
ATOM     63  F   UNL A   1      42.352  27.071  36.900  1.00  0.00    -0.206 F 
ATOM     64  C   UNL A   1      44.632  26.634  37.229  1.00  0.00     0.059 A 
ATOM     65  C   UNL A   1      46.299  27.945  36.047  1.00  0.00     0.059 A 
ATOM     66  F   UNL A   1      45.619  29.668  34.608  1.00  0.00    -0.206 F 
ATOM     67  C   UNL A   1      45.966  26.934  36.947  1.00  0.00     0.060 A 
BRANCH  67  68
ATOM     68  S   UNL A   1      47.257  25.975  37.768  1.00  0.00     0.124 S 
ATOM     69  O   UNL A   1      47.647  26.879  38.846  1.00  0.00    -0.237 OA
ATOM     70  O   UNL A   1      46.541  24.772  38.180  1.00  0.00    -0.237 OA
ATOM     71  O   UNL A   1      48.254  25.781  36.721  1.00  0.00    -0.744 OA
ENDBRANCH  67  68
ENDBRANCH  46  60
BRANCH  47  72
ATOM     72  C   UNL A   1      36.586  33.225  30.937  1.00  0.00     0.058 A 
ATOM     73  C   UNL A   1      36.827  34.056  29.833  1.00  0.00     0.135 A 
ATOM     74  C   UNL A   1      35.256  33.059  31.353  1.00  0.00     0.135 A 
ATOM     75  F   UNL A   1      38.082  34.250  29.400  1.00  0.00    -0.206 F 
ATOM     76  C   UNL A   1      35.791  34.712  29.174  1.00  0.00     0.059 A 
ATOM     77  C   UNL A   1      34.200  33.685  30.696  1.00  0.00     0.059 A 
ATOM     78  F   UNL A   1      34.970  32.259  32.392  1.00  0.00    -0.206 F 
ATOM     79  C   UNL A   1      34.479  34.518  29.613  1.00  0.00     0.060 A 
BRANCH  79  80
ATOM     80  S   UNL A   1      33.137  35.331  28.720  1.00  0.00     0.124 S 
ATOM     81  O   UNL A   1      32.346  35.880  29.815  1.00  0.00    -0.237 OA
ATOM     82  O   UNL A   1      33.855  36.302  27.901  1.00  0.00    -0.237 OA
ATOM     83  O   UNL A   1      32.517  34.235  27.980  1.00  0.00    -0.744 OA
ENDBRANCH  79  80
ENDBRANCH  47  72
BRANCH  59  84
ATOM     84  C   UNL A   1      39.849  34.232  37.015  1.00  0.00     0.058 A 
ATOM     85  C   UNL A   1      39.073  34.009  38.163  1.00  0.00     0.135 A 
ATOM     86  C   UNL A   1      40.513  35.464  36.901  1.00  0.00     0.135 A 
ATOM     87  F   UNL A   1      38.413  32.850  38.317  1.00  0.00    -0.206 F 
ATOM     88  C   UNL A   1      38.933  34.984  39.145  1.00  0.00     0.059 A 
ATOM     89  C   UNL A   1      40.409  36.443  37.885  1.00  0.00     0.059 A 
ATOM     90  F   UNL A   1      41.277  35.724  35.829  1.00  0.00    -0.206 F 
ATOM     91  C   UNL A   1      39.603  36.200  38.996  1.00  0.00     0.060 A 
BRANCH  91  92
ATOM     92  S   UNL A   1      39.421  37.453  40.281  1.00  0.00     0.124 S 
ATOM     93  O   UNL A   1      38.817  36.680  41.362  1.00  0.00    -0.237 OA
ATOM     94  O   UNL A   1      40.800  37.880  40.501  1.00  0.00    -0.237 OA
ATOM     95  O   UNL A   1      38.555  38.452  39.662  1.00  0.00    -0.744 OA
ENDBRANCH  91  92
ENDBRANCH  59  84
ENDBRANCH  33  34
ENDBRANCH  25  28
ENDBRANCH  23  24
ENDBRANCH   1  23
TORSDOF 16
ENDMDL
MODEL 2
REMARK VINA RESULT:     -12.5      7.329     12.830
REMARK SMILES C[C@@H](C(=O)NCCCNC(=O)c1ccc(-c2c3nc(c(-c4c(F)cc(S(=O)(=O)[O-])cc4F)c4ccc([nH]4)c(-c4c(F)cc(S(=O)(=O)[O-])cc4F)c4nc(c(-c5c(F)cc(S(=O)(=O)[O-])cc5F)c5ccc2[nH]5)C=C4)C=C3)cc1)c1ccc(O[C@H]2CCCC2=O)cc1F
REMARK SMILES IDX 7 1 6 2 5 3 3 4 4 5 2 7 1 8 78 9 79 10 90 11 80 12 89 13
REMARK SMILES IDX 91 14 81 15 82 16 83 17 84 18 87 19 85 20 86 21 88 22 8 23
REMARK SMILES IDX 9 24 10 25 11 27 12 28 13 29 77 30 14 31 76 32 15 33 16 34
REMARK SMILES IDX 17 35 70 36 18 37 75 38 69 39 71 40 19 41 74 42 68 43 67 44
REMARK SMILES IDX 20 46 54 47 33 48 53 49 34 50 37 51 52 52 72 53 35 54 36 55
REMARK SMILES IDX 51 57 73 58 38 59 21 60 22 61 31 62 23 63 24 64 30 65 32 66
REMARK SMILES IDX 25 67 26 68 27 69 28 70 29 71 55 72 56 73 65 74 57 75 58 76
REMARK SMILES IDX 64 77 66 78 59 79 60 80 61 81 62 82 63 83 39 84 40 85 49 86
REMARK SMILES IDX 41 87 42 88 48 89 50 90 43 91 44 92 45 93 46 94 47 95
REMARK H PARENT 5 6 9 26 71 45 37 56
REMARK Flexibility Score: inf
ROOT
ATOM      1  C   UNL A   1      34.181  31.249  27.625  1.00  0.00     0.042 C 
ENDROOT
BRANCH   1   2
ATOM      2  C   UNL A   1      33.897  29.849  27.086  1.00  0.00     0.117 C 
BRANCH   2   3
ATOM      3  N   UNL A   1      32.692  29.258  27.634  1.00  0.00    -0.356 N 
ATOM      4  C   UNL A   1      32.021  28.120  27.291  1.00  0.00     0.227 C 
ATOM      5  O   UNL A   1      31.217  27.702  28.129  1.00  0.00    -0.274 OA
ATOM      6  H   UNL A   1      32.291  29.763  28.379  1.00  0.00     0.163 HD
BRANCH   4   7
ATOM      7  C   UNL A   1      32.344  27.369  25.983  1.00  0.00     0.108 C 
ATOM      8  C   UNL A   1      33.799  27.496  25.523  1.00  0.00     0.023 C 
BRANCH   7   9
ATOM      9  C   UNL A   1      31.469  27.795  24.806  1.00  0.00     0.000 A 
ATOM     10  C   UNL A   1      31.818  28.908  24.035  1.00  0.00     0.011 A 
ATOM     11  C   UNL A   1      30.242  27.173  24.540  1.00  0.00     0.130 A 
ATOM     12  C   UNL A   1      30.964  29.357  23.020  1.00  0.00     0.047 A 
ATOM     13  C   UNL A   1      29.403  27.602  23.511  1.00  0.00     0.086 A 
ATOM     14  F   UNL A   1      29.812  26.171  25.320  1.00  0.00    -0.207 F 
ATOM     15  C   UNL A   1      29.763  28.697  22.738  1.00  0.00     0.123 A 
BRANCH  15  16
ATOM     16  O   UNL A   1      29.028  29.269  21.744  1.00  0.00    -0.483 OA
BRANCH  16  17
ATOM     17  C   UNL A   1      28.198  30.379  21.989  1.00  0.00     0.239 C 
ATOM     18  C   UNL A   1      28.366  30.980  23.392  1.00  0.00     0.054 C 
ATOM     19  C   UNL A   1      28.102  31.605  21.083  1.00  0.00     0.173 C 
ATOM     20  C   UNL A   1      28.677  32.462  23.202  1.00  0.00     0.012 C 
ATOM     21  C   UNL A   1      28.049  32.877  21.881  1.00  0.00     0.080 C 
ATOM     22  O   UNL A   1      28.021  31.569  19.861  1.00  0.00    -0.296 OA
ENDBRANCH  16  17
ENDBRANCH  15  16
ENDBRANCH   7   9
ENDBRANCH   4   7
ENDBRANCH   2   3
ENDBRANCH   1   2
BRANCH   1  23
ATOM     23  C   UNL A   1      35.533  31.416  28.314  1.00  0.00     0.118 C 
BRANCH  23  24
ATOM     24  N   UNL A   1      35.499  31.085  29.729  1.00  0.00    -0.352 N 
ATOM     25  C   UNL A   1      36.423  30.455  30.522  1.00  0.00     0.251 C 
ATOM     26  H   UNL A   1      34.675  31.357  30.195  1.00  0.00     0.163 HD
ATOM     27  O   UNL A   1      36.098  30.135  31.668  1.00  0.00    -0.269 OA
BRANCH  25  28
ATOM     28  C   UNL A   1      37.782  30.136  30.030  1.00  0.00     0.039 A 
ATOM     29  C   UNL A   1      38.792  29.900  30.968  1.00  0.00     0.014 A 
ATOM     30  C   UNL A   1      38.090  30.112  28.666  1.00  0.00     0.014 A 
ATOM     31  C   UNL A   1      40.086  29.588  30.542  1.00  0.00     0.010 A 
ATOM     32  C   UNL A   1      39.362  29.726  28.240  1.00  0.00     0.010 A 
ATOM     33  C   UNL A   1      40.376  29.466  29.173  1.00  0.00    -0.014 A 
BRANCH  33  34
ATOM     34  C   UNL A   1      41.733  29.062  28.718  1.00  0.00     0.031 A 
ATOM     35  C   UNL A   1      42.850  30.069  28.640  1.00  0.00     0.074 A 
ATOM     36  C   UNL A   1      41.952  27.787  28.338  1.00  0.00     0.049 A 
ATOM     37  N   UNL A   1      44.091  29.899  28.257  1.00  0.00    -0.248 NA
ATOM     38  C   UNL A   1      42.527  31.454  29.019  1.00  0.00     0.031 C 
ATOM     39  C   UNL A   1      40.938  26.729  28.309  1.00  0.00     0.029 A 
ATOM     40  N   UNL A   1      43.093  27.163  27.900  1.00  0.00    -0.354 N 
ATOM     41  C   UNL A   1      44.692  31.149  28.344  1.00  0.00     0.074 A 
ATOM     42  C   UNL A   1      43.666  32.080  28.762  1.00  0.00     0.031 C 
ATOM     43  C   UNL A   1      41.508  25.584  27.902  1.00  0.00     0.029 A 
ATOM     44  C   UNL A   1      42.918  25.829  27.611  1.00  0.00     0.049 A 
ATOM     45  H   UNL A   1      43.956  27.626  27.802  1.00  0.00     0.167 HD
ATOM     46  C   UNL A   1      45.986  31.487  28.124  1.00  0.00     0.037 A 
ATOM     47  C   UNL A   1      43.791  24.907  27.163  1.00  0.00     0.037 A 
ATOM     48  C   UNL A   1      47.010  30.554  27.725  1.00  0.00     0.049 A 
ATOM     49  C   UNL A   1      45.226  25.301  26.943  1.00  0.00     0.074 A 
ATOM     50  C   UNL A   1      48.358  30.789  27.520  1.00  0.00     0.029 A 
ATOM     51  N   UNL A   1      46.797  29.206  27.469  1.00  0.00    -0.354 N 
ATOM     52  N   UNL A   1      45.789  26.476  27.093  1.00  0.00    -0.248 NA
ATOM     53  C   UNL A   1      46.145  24.242  26.505  1.00  0.00     0.031 C 
ATOM     54  C   UNL A   1      48.955  29.593  27.107  1.00  0.00     0.029 A 
ATOM     55  C   UNL A   1      47.988  28.601  27.098  1.00  0.00     0.049 A 
ATOM     56  H   UNL A   1      45.930  28.749  27.542  1.00  0.00     0.167 HD
ATOM     57  C   UNL A   1      47.134  26.293  26.789  1.00  0.00     0.074 A 
ATOM     58  C   UNL A   1      47.301  24.891  26.466  1.00  0.00     0.031 C 
ATOM     59  C   UNL A   1      48.139  27.204  26.776  1.00  0.00     0.037 A 
BRANCH  46  60
ATOM     60  C   UNL A   1      46.372  32.928  28.324  1.00  0.00     0.058 A 
ATOM     61  C   UNL A   1      46.311  33.857  27.273  1.00  0.00     0.135 A 
ATOM     62  C   UNL A   1      46.777  33.396  29.585  1.00  0.00     0.135 A 
ATOM     63  F   UNL A   1      45.945  33.462  26.042  1.00  0.00    -0.206 F 
ATOM     64  C   UNL A   1      46.666  35.189  27.456  1.00  0.00     0.059 A 
ATOM     65  C   UNL A   1      47.110  34.732  29.798  1.00  0.00     0.059 A 
ATOM     66  F   UNL A   1      46.851  32.553  30.627  1.00  0.00    -0.206 F 
ATOM     67  C   UNL A   1      47.067  35.617  28.722  1.00  0.00     0.060 A 
BRANCH  67  68
ATOM     68  S   UNL A   1      47.522  37.351  28.943  1.00  0.00     0.124 S 
ATOM     69  O   UNL A   1      48.558  37.250  29.965  1.00  0.00    -0.237 OA
ATOM     70  O   UNL A   1      47.981  37.726  27.609  1.00  0.00    -0.237 OA
ATOM     71  O   UNL A   1      46.275  37.977  29.373  1.00  0.00    -0.744 OA
ENDBRANCH  67  68
ENDBRANCH  46  60
BRANCH  47  72
ATOM     72  C   UNL A   1      43.336  23.512  26.921  1.00  0.00     0.058 A 
ATOM     73  C   UNL A   1      43.135  23.032  25.619  1.00  0.00     0.135 A 
ATOM     74  C   UNL A   1      43.114  22.626  27.986  1.00  0.00     0.135 A 
ATOM     75  F   UNL A   1      43.331  23.842  24.567  1.00  0.00    -0.206 F 
ATOM     76  C   UNL A   1      42.713  21.728  25.379  1.00  0.00     0.059 A 
ATOM     77  C   UNL A   1      42.715  21.310  27.772  1.00  0.00     0.059 A 
ATOM     78  F   UNL A   1      43.310  23.030  29.251  1.00  0.00    -0.206 F 
ATOM     79  C   UNL A   1      42.507  20.873  26.464  1.00  0.00     0.060 A 
BRANCH  79  80
ATOM     80  S   UNL A   1      42.012  19.166  26.142  1.00  0.00     0.124 S 
ATOM     81  O   UNL A   1      42.830  18.839  24.980  1.00  0.00    -0.237 OA
ATOM     82  O   UNL A   1      42.377  18.500  27.388  1.00  0.00    -0.237 OA
ATOM     83  O   UNL A   1      40.578  19.276  25.896  1.00  0.00    -0.744 OA
ENDBRANCH  79  80
ENDBRANCH  47  72
BRANCH  59  84
ATOM     84  C   UNL A   1      49.514  26.706  26.426  1.00  0.00     0.058 A 
ATOM     85  C   UNL A   1      50.338  26.084  27.378  1.00  0.00     0.135 A 
ATOM     86  C   UNL A   1      50.003  26.829  25.116  1.00  0.00     0.135 A 
ATOM     87  F   UNL A   1      49.919  25.947  28.646  1.00  0.00    -0.206 F 
ATOM     88  C   UNL A   1      51.612  25.633  27.050  1.00  0.00     0.059 A 
ATOM     89  C   UNL A   1      51.264  26.359  24.760  1.00  0.00     0.059 A 
ATOM     90  F   UNL A   1      49.252  27.405  24.164  1.00  0.00    -0.206 F 
ATOM     91  C   UNL A   1      52.068  25.778  25.739  1.00  0.00     0.060 A 
BRANCH  91  92
ATOM     92  S   UNL A   1      53.719  25.179  25.324  1.00  0.00     0.124 S 
ATOM     93  O   UNL A   1      53.548  23.735  25.448  1.00  0.00    -0.237 OA
ATOM     94  O   UNL A   1      53.904  25.681  23.966  1.00  0.00    -0.237 OA
ATOM     95  O   UNL A   1      54.569  25.801  26.335  1.00  0.00    -0.744 OA
ENDBRANCH  91  92
ENDBRANCH  59  84
ENDBRANCH  33  34
ENDBRANCH  25  28
ENDBRANCH  23  24
ENDBRANCH   1  23
TORSDOF 16
ENDMDL
MODEL 3
REMARK VINA RESULT:     -12.4      3.467      9.235
REMARK SMILES C[C@@H](C(=O)NCCCNC(=O)c1ccc(-c2c3nc(c(-c4c(F)cc(S(=O)(=O)[O-])cc4F)c4ccc([nH]4)c(-c4c(F)cc(S(=O)(=O)[O-])cc4F)c4nc(c(-c5c(F)cc(S(=O)(=O)[O-])cc5F)c5ccc2[nH]5)C=C4)C=C3)cc1)c1ccc(O[C@H]2CCCC2=O)cc1F
REMARK SMILES IDX 7 1 6 2 5 3 3 4 4 5 2 7 1 8 78 9 79 10 90 11 80 12 89 13
REMARK SMILES IDX 91 14 81 15 82 16 83 17 84 18 87 19 85 20 86 21 88 22 8 23
REMARK SMILES IDX 9 24 10 25 11 27 12 28 13 29 77 30 14 31 76 32 15 33 16 34
REMARK SMILES IDX 17 35 70 36 18 37 75 38 69 39 71 40 19 41 74 42 68 43 67 44
REMARK SMILES IDX 20 46 54 47 33 48 53 49 34 50 37 51 52 52 72 53 35 54 36 55
REMARK SMILES IDX 51 57 73 58 38 59 21 60 22 61 31 62 23 63 24 64 30 65 32 66
REMARK SMILES IDX 25 67 26 68 27 69 28 70 29 71 55 72 56 73 65 74 57 75 58 76
REMARK SMILES IDX 64 77 66 78 59 79 60 80 61 81 62 82 63 83 39 84 40 85 49 86
REMARK SMILES IDX 41 87 42 88 48 89 50 90 43 91 44 92 45 93 46 94 47 95
REMARK H PARENT 5 6 9 26 71 45 37 56
REMARK Flexibility Score: inf
ROOT
ATOM      1  C   UNL A   1      33.266  27.491  26.533  1.00  0.00     0.042 C 
ENDROOT
BRANCH   1   2
ATOM      2  C   UNL A   1      31.763  27.470  26.267  1.00  0.00     0.117 C 
BRANCH   2   3
ATOM      3  N   UNL A   1      31.118  26.253  26.718  1.00  0.00    -0.356 N 
ATOM      4  C   UNL A   1      31.126  24.992  26.195  1.00  0.00     0.227 C 
ATOM      5  O   UNL A   1      30.755  24.096  26.958  1.00  0.00    -0.274 OA
ATOM      6  H   UNL A   1      30.586  26.352  27.541  1.00  0.00     0.163 HD
BRANCH   4   7
ATOM      7  C   UNL A   1      31.668  24.723  24.776  1.00  0.00     0.108 C 
ATOM      8  C   UNL A   1      30.599  24.724  23.679  1.00  0.00     0.023 C 
BRANCH   7   9
ATOM      9  C   UNL A   1      32.424  23.402  24.656  1.00  0.00     0.000 A 
ATOM     10  C   UNL A   1      31.815  22.292  24.061  1.00  0.00     0.011 A 
ATOM     11  C   UNL A   1      33.686  23.221  25.239  1.00  0.00     0.130 A 
ATOM     12  C   UNL A   1      32.471  21.056  24.041  1.00  0.00     0.047 A 
ATOM     13  C   UNL A   1      34.352  21.997  25.195  1.00  0.00     0.086 A 
ATOM     14  F   UNL A   1      34.264  24.224  25.915  1.00  0.00    -0.207 F 
ATOM     15  C   UNL A   1      33.749  20.903  24.589  1.00  0.00     0.123 A 
BRANCH  15  16
ATOM     16  O   UNL A   1      34.243  19.636  24.519  1.00  0.00    -0.483 OA
BRANCH  16  17
ATOM     17  C   UNL A   1      33.405  18.533  24.270  1.00  0.00     0.239 C 
ATOM     18  C   UNL A   1      33.932  17.589  23.180  1.00  0.00     0.054 C 
ATOM     19  C   UNL A   1      32.881  17.583  25.345  1.00  0.00     0.173 C 
ATOM     20  C   UNL A   1      33.986  16.193  23.795  1.00  0.00     0.012 C 
ATOM     21  C   UNL A   1      32.928  16.153  24.887  1.00  0.00     0.080 C 
ATOM     22  O   UNL A   1      32.423  17.932  26.426  1.00  0.00    -0.296 OA
ENDBRANCH  16  17
ENDBRANCH  15  16
ENDBRANCH   7   9
ENDBRANCH   4   7
ENDBRANCH   2   3
ENDBRANCH   1   2
BRANCH   1  23
ATOM     23  C   UNL A   1      34.040  28.580  25.794  1.00  0.00     0.118 C 
BRANCH  23  24
ATOM     24  N   UNL A   1      33.731  29.920  26.265  1.00  0.00    -0.352 N 
ATOM     25  C   UNL A   1      34.310  30.675  27.252  1.00  0.00     0.251 C 
ATOM     26  H   UNL A   1      32.982  30.357  25.799  1.00  0.00     0.163 HD
ATOM     27  O   UNL A   1      33.764  31.730  27.586  1.00  0.00    -0.269 OA
BRANCH  25  28
ATOM     28  C   UNL A   1      35.552  30.246  27.934  1.00  0.00     0.039 A 
ATOM     29  C   UNL A   1      36.774  30.454  27.285  1.00  0.00     0.014 A 
ATOM     30  C   UNL A   1      35.532  29.600  29.174  1.00  0.00     0.014 A 
ATOM     31  C   UNL A   1      37.968  30.069  27.900  1.00  0.00     0.010 A 
ATOM     32  C   UNL A   1      36.728  29.285  29.820  1.00  0.00     0.010 A 
ATOM     33  C   UNL A   1      37.960  29.510  29.188  1.00  0.00    -0.014 A 
BRANCH  33  34
ATOM     34  C   UNL A   1      39.233  29.168  29.876  1.00  0.00     0.031 A 
ATOM     35  C   UNL A   1      39.668  29.921  31.106  1.00  0.00     0.074 A 
ATOM     36  C   UNL A   1      40.020  28.198  29.370  1.00  0.00     0.049 A 
ATOM     37  N   UNL A   1      40.749  29.767  31.829  1.00  0.00    -0.248 NA
ATOM     38  C   UNL A   1      38.787  31.002  31.573  1.00  0.00     0.031 C 
ATOM     39  C   UNL A   1      39.741  27.435  28.150  1.00  0.00     0.029 A 
ATOM     40  N   UNL A   1      41.215  27.687  29.812  1.00  0.00    -0.354 N 
ATOM     41  C   UNL A   1      40.681  30.730  32.828  1.00  0.00     0.074 A 
ATOM     42  C   UNL A   1      39.480  31.502  32.585  1.00  0.00     0.031 C 
ATOM     43  C   UNL A   1      40.722  26.540  27.957  1.00  0.00     0.029 A 
ATOM     44  C   UNL A   1      41.714  26.681  29.018  1.00  0.00     0.049 A 
ATOM     45  H   UNL A   1      41.672  28.011  30.621  1.00  0.00     0.167 HD
ATOM     46  C   UNL A   1      41.524  30.938  33.869  1.00  0.00     0.037 A 
ATOM     47  C   UNL A   1      42.843  25.955  29.129  1.00  0.00     0.037 A 
ATOM     48  C   UNL A   1      42.710  30.157  34.118  1.00  0.00     0.049 A 
ATOM     49  C   UNL A   1      43.755  26.191  30.302  1.00  0.00     0.074 A 
ATOM     50  C   UNL A   1      43.604  30.260  35.169  1.00  0.00     0.029 A 
ATOM     51  N   UNL A   1      43.166  29.129  33.305  1.00  0.00    -0.354 N 
ATOM     52  N   UNL A   1      43.639  27.065  31.272  1.00  0.00    -0.248 NA
ATOM     53  C   UNL A   1      44.943  25.333  30.401  1.00  0.00     0.031 C 
ATOM     54  C   UNL A   1      44.620  29.318  34.973  1.00  0.00     0.029 A 
ATOM     55  C   UNL A   1      44.336  28.598  33.825  1.00  0.00     0.049 A 
ATOM     56  H   UNL A   1      42.724  28.823  32.481  1.00  0.00     0.167 HD
ATOM     57  C   UNL A   1      44.727  26.849  32.110  1.00  0.00     0.074 A 
ATOM     58  C   UNL A   1      45.478  25.748  31.541  1.00  0.00     0.031 C 
ATOM     59  C   UNL A   1      45.075  27.504  33.246  1.00  0.00     0.037 A 
BRANCH  46  60
ATOM     60  C   UNL A   1      41.186  32.048  34.828  1.00  0.00     0.058 A 
ATOM     61  C   UNL A   1      41.694  33.346  34.657  1.00  0.00     0.135 A 
ATOM     62  C   UNL A   1      40.319  31.824  35.910  1.00  0.00     0.135 A 
ATOM     63  F   UNL A   1      42.539  33.614  33.647  1.00  0.00    -0.206 F 
ATOM     64  C   UNL A   1      41.383  34.373  35.541  1.00  0.00     0.059 A 
ATOM     65  C   UNL A   1      39.971  32.845  36.792  1.00  0.00     0.059 A 
ATOM     66  F   UNL A   1      39.801  30.604  36.121  1.00  0.00    -0.206 F 
ATOM     67  C   UNL A   1      40.521  34.113  36.607  1.00  0.00     0.060 A 
BRANCH  67  68
ATOM     68  S   UNL A   1      40.124  35.459  37.744  1.00  0.00     0.124 S 
ATOM     69  O   UNL A   1      38.946  34.927  38.421  1.00  0.00    -0.237 OA
ATOM     70  O   UNL A   1      41.334  35.550  38.556  1.00  0.00    -0.237 OA
ATOM     71  O   UNL A   1      39.881  36.592  36.857  1.00  0.00    -0.744 OA
ENDBRANCH  67  68
ENDBRANCH  46  60
BRANCH  47  72
ATOM     72  C   UNL A   1      43.157  24.915  28.114  1.00  0.00     0.058 A 
ATOM     73  C   UNL A   1      43.820  25.243  26.922  1.00  0.00     0.135 A 
ATOM     74  C   UNL A   1      42.820  23.569  28.325  1.00  0.00     0.135 A 
ATOM     75  F   UNL A   1      44.159  26.517  26.673  1.00  0.00    -0.206 F 
ATOM     76  C   UNL A   1      44.123  24.278  25.966  1.00  0.00     0.059 A 
ATOM     77  C   UNL A   1      43.134  22.582  27.396  1.00  0.00     0.059 A 
ATOM     78  F   UNL A   1      42.202  23.200  29.458  1.00  0.00    -0.206 F 
ATOM     79  C   UNL A   1      43.777  22.948  26.214  1.00  0.00     0.060 A 
BRANCH  79  80
ATOM     80  S   UNL A   1      44.222  21.694  24.993  1.00  0.00     0.124 S 
ATOM     81  O   UNL A   1      44.044  22.426  23.744  1.00  0.00    -0.237 OA
ATOM     82  O   UNL A   1      45.600  21.383  25.360  1.00  0.00    -0.237 OA
ATOM     83  O   UNL A   1      43.259  20.627  25.244  1.00  0.00    -0.744 OA
ENDBRANCH  79  80
ENDBRANCH  47  72
BRANCH  59  84
ATOM     84  C   UNL A   1      46.309  27.028  33.963  1.00  0.00     0.058 A 
ATOM     85  C   UNL A   1      47.575  27.570  33.689  1.00  0.00     0.135 A 
ATOM     86  C   UNL A   1      46.220  26.037  34.952  1.00  0.00     0.135 A 
ATOM     87  F   UNL A   1      47.715  28.517  32.747  1.00  0.00    -0.206 F 
ATOM     88  C   UNL A   1      48.715  27.121  34.349  1.00  0.00     0.059 A 
ATOM     89  C   UNL A   1      47.343  25.592  35.643  1.00  0.00     0.059 A 
ATOM     90  F   UNL A   1      45.032  25.493  35.261  1.00  0.00    -0.206 F 
ATOM     91  C   UNL A   1      48.589  26.129  35.322  1.00  0.00     0.060 A 
BRANCH  91  92
ATOM     92  S   UNL A   1      50.073  25.561  36.178  1.00  0.00     0.124 S 
ATOM     93  O   UNL A   1      51.128  26.127  35.343  1.00  0.00    -0.237 OA
ATOM     94  O   UNL A   1      49.922  26.159  37.501  1.00  0.00    -0.237 OA
ATOM     95  O   UNL A   1      49.952  24.107  36.138  1.00  0.00    -0.744 OA
ENDBRANCH  91  92
ENDBRANCH  59  84
ENDBRANCH  33  34
ENDBRANCH  25  28
ENDBRANCH  23  24
ENDBRANCH   1  23
TORSDOF 16
ENDMDL
