MODEL 1
REMARK VINA RESULT:     -11.1      0.000      0.000
REMARK SMILES O=C(CSc1ccnc(C(=O)NCCCNC(=O)c2ccc(-c3c4nc(c(-c5c(F)cc(S(=O)(=O)[O-])cc5F)c5ccc([nH]5)c(-c5c(F)cc(S(=O)(=O)[O-])cc5F)c5nc(c(-c6c(F)cc(S(=O)(=O)[O-])cc6F)c6ccc3[nH]6)C=C5)C=C4)cc2)c1)NNc1ccccn1
REMARK SMILES IDX 13 1 12 2 10 3 11 4 9 6 5 7 6 8 85 9 7 10 8 11 4 12 3 13
REMARK SMILES IDX 2 14 1 15 86 16 87 18 88 20 89 21 93 22 90 23 92 24 91 25
REMARK SMILES IDX 14 26 15 27 16 28 17 29 18 31 19 32 20 33 84 34 21 35 83 36
REMARK SMILES IDX 22 37 23 38 24 39 77 40 25 41 82 42 76 43 78 44 26 45 81 46
REMARK SMILES IDX 75 47 74 48 27 50 61 51 40 52 60 53 41 54 44 55 59 56 79 57
REMARK SMILES IDX 42 58 43 59 58 61 80 62 45 63 28 64 29 65 38 66 30 67 31 68
REMARK SMILES IDX 37 69 39 70 32 71 33 72 34 73 35 74 36 75 62 76 63 77 72 78
REMARK SMILES IDX 64 79 65 80 71 81 73 82 66 83 67 84 68 85 69 86 70 87 46 88
REMARK SMILES IDX 47 89 56 90 48 91 49 92 55 93 57 94 50 95 51 96 52 97 53 98
REMARK SMILES IDX 54 99
REMARK H PARENT 12 5 86 17 87 19 16 30 78 49 44 60
REMARK Flexibility Score: inf
ROOT
ATOM      1  C   UNL A   1      41.820  21.282  26.751  1.00  0.00     0.118 C 
ENDROOT
BRANCH   1   2
ATOM      2  N   UNL A   1      41.753  19.874  26.407  1.00  0.00    -0.351 N 
ATOM      3  C   UNL A   1      42.653  18.984  25.864  1.00  0.00     0.269 C 
ATOM      4  O   UNL A   1      42.258  17.819  25.764  1.00  0.00    -0.268 OA
ATOM      5  H   UNL A   1      40.877  19.469  26.604  1.00  0.00     0.163 HD
BRANCH   3   6
ATOM      6  C   UNL A   1      44.059  19.335  25.445  1.00  0.00     0.129 A 
ATOM      7  C   UNL A   1      45.791  20.804  24.655  1.00  0.00     0.012 A 
ATOM      8  C   UNL A   1      46.703  19.763  24.820  1.00  0.00     0.035 A 
ATOM      9  C   UNL A   1      44.444  20.569  24.937  1.00  0.00     0.049 A 
ATOM     10  C   UNL A   1      46.235  18.546  25.275  1.00  0.00     0.113 A 
ATOM     11  N   UNL A   1      44.952  18.321  25.609  1.00  0.00    -0.251 NA
BRANCH   7  12
ATOM     12  S   UNL A   1      46.453  22.400  24.179  1.00  0.00    -0.116 SA
BRANCH  12  13
ATOM     13  C   UNL A   1      45.227  23.589  24.834  1.00  0.00     0.176 C 
BRANCH  13  14
ATOM     14  C   UNL A   1      45.677  24.133  26.175  1.00  0.00     0.248 C 
ATOM     15  O   UNL A   1      46.701  23.733  26.724  1.00  0.00    -0.272 OA
ATOM     16  N   UNL A   1      44.828  25.101  26.677  1.00  0.00    -0.268 N 
ATOM     17  H   UNL A   1      44.049  25.399  26.157  1.00  0.00     0.191 HD
BRANCH  16  18
ATOM     18  N   UNL A   1      45.089  25.645  27.924  1.00  0.00    -0.282 N 
ATOM     19  H   UNL A   1      45.568  26.501  28.014  1.00  0.00     0.190 HD
BRANCH  18  20
ATOM     20  C   UNL A   1      44.650  24.946  29.050  1.00  0.00     0.144 A 
ATOM     21  C   UNL A   1      45.091  25.258  30.335  1.00  0.00     0.048 A 
ATOM     22  N   UNL A   1      43.781  23.941  28.828  1.00  0.00    -0.238 NA
ATOM     23  C   UNL A   1      44.649  24.498  31.416  1.00  0.00     0.005 A 
ATOM     24  C   UNL A   1      43.370  23.210  29.888  1.00  0.00     0.113 A 
ATOM     25  C   UNL A   1      43.776  23.445  31.189  1.00  0.00     0.020 A 
ENDBRANCH  18  20
ENDBRANCH  16  18
ENDBRANCH  13  14
ENDBRANCH  12  13
ENDBRANCH   7  12
ENDBRANCH   3   6
ENDBRANCH   1   2
BRANCH   1  26
ATOM     26  C   UNL A   1      40.588  21.726  27.540  1.00  0.00     0.042 C 
BRANCH  26  27
ATOM     27  C   UNL A   1      40.140  23.152  27.216  1.00  0.00     0.118 C 
BRANCH  27  28
ATOM     28  N   UNL A   1      41.046  23.800  26.277  1.00  0.00    -0.352 N 
ATOM     29  C   UNL A   1      41.459  25.106  26.194  1.00  0.00     0.251 C 
ATOM     30  H   UNL A   1      41.424  23.204  25.591  1.00  0.00     0.163 HD
ATOM     31  O   UNL A   1      42.029  25.480  25.172  1.00  0.00    -0.269 OA
BRANCH  29  32
ATOM     32  C   UNL A   1      41.235  26.060  27.304  1.00  0.00     0.039 A 
ATOM     33  C   UNL A   1      41.962  27.256  27.314  1.00  0.00     0.014 A 
ATOM     34  C   UNL A   1      40.386  25.756  28.372  1.00  0.00     0.014 A 
ATOM     35  C   UNL A   1      41.816  28.154  28.375  1.00  0.00     0.010 A 
ATOM     36  C   UNL A   1      40.191  26.682  29.396  1.00  0.00     0.010 A 
ATOM     37  C   UNL A   1      40.916  27.883  29.418  1.00  0.00    -0.014 A 
BRANCH  37  38
ATOM     38  C   UNL A   1      40.747  28.830  30.550  1.00  0.00     0.031 A 
ATOM     39  C   UNL A   1      41.609  28.703  31.778  1.00  0.00     0.074 A 
ATOM     40  C   UNL A   1      39.785  29.773  30.492  1.00  0.00     0.049 A 
ATOM     41  N   UNL A   1      41.571  29.391  32.890  1.00  0.00    -0.248 NA
ATOM     42  C   UNL A   1      42.632  27.645  31.764  1.00  0.00     0.031 C 
ATOM     43  C   UNL A   1      38.856  29.965  29.376  1.00  0.00     0.029 A 
ATOM     44  N   UNL A   1      39.422  30.738  31.396  1.00  0.00    -0.354 N 
ATOM     45  C   UNL A   1      42.546  28.838  33.714  1.00  0.00     0.074 A 
ATOM     46  C   UNL A   1      43.128  27.729  32.990  1.00  0.00     0.031 C 
ATOM     47  C   UNL A   1      38.044  30.998  29.653  1.00  0.00     0.029 A 
ATOM     48  C   UNL A   1      38.370  31.520  30.977  1.00  0.00     0.049 A 
ATOM     49  H   UNL A   1      39.871  30.861  32.263  1.00  0.00     0.167 HD
ATOM     50  C   UNL A   1      42.935  29.232  34.950  1.00  0.00     0.037 A 
ATOM     51  C   UNL A   1      37.741  32.540  31.591  1.00  0.00     0.037 A 
ATOM     52  C   UNL A   1      42.374  30.358  35.651  1.00  0.00     0.049 A 
ATOM     53  C   UNL A   1      38.211  32.979  32.950  1.00  0.00     0.074 A 
ATOM     54  C   UNL A   1      42.730  30.870  36.887  1.00  0.00     0.029 A 
ATOM     55  N   UNL A   1      41.340  31.151  35.174  1.00  0.00    -0.354 N 
ATOM     56  N   UNL A   1      39.169  32.474  33.693  1.00  0.00    -0.248 NA
ATOM     57  C   UNL A   1      37.528  34.133  33.550  1.00  0.00     0.031 C 
ATOM     58  C   UNL A   1      41.892  31.955  37.169  1.00  0.00     0.029 A 
ATOM     59  C   UNL A   1      41.043  32.145  36.091  1.00  0.00     0.049 A 
ATOM     60  H   UNL A   1      40.885  31.025  34.310  1.00  0.00     0.167 HD
ATOM     61  C   UNL A   1      39.221  33.269  34.834  1.00  0.00     0.074 A 
ATOM     62  C   UNL A   1      38.207  34.291  34.677  1.00  0.00     0.031 C 
ATOM     63  C   UNL A   1      40.038  33.163  35.912  1.00  0.00     0.037 A 
BRANCH  50  64
ATOM     64  C   UNL A   1      44.028  28.443  35.621  1.00  0.00     0.058 A 
ATOM     65  C   UNL A   1      43.741  27.370  36.479  1.00  0.00     0.135 A 
ATOM     66  C   UNL A   1      45.379  28.745  35.383  1.00  0.00     0.135 A 
ATOM     67  F   UNL A   1      42.467  27.046  36.753  1.00  0.00    -0.206 F 
ATOM     68  C   UNL A   1      44.751  26.645  37.103  1.00  0.00     0.059 A 
ATOM     69  C   UNL A   1      46.407  28.016  35.976  1.00  0.00     0.059 A 
ATOM     70  F   UNL A   1      45.712  29.761  34.571  1.00  0.00    -0.206 F 
ATOM     71  C   UNL A   1      46.082  26.977  36.846  1.00  0.00     0.060 A 
BRANCH  71  72
ATOM     72  S   UNL A   1      47.382  26.026  37.661  1.00  0.00     0.124 S 
ATOM     73  O   UNL A   1      48.364  27.065  37.954  1.00  0.00    -0.237 OA
ATOM     74  O   UNL A   1      46.686  25.471  38.818  1.00  0.00    -0.237 OA
ATOM     75  O   UNL A   1      47.779  25.054  36.647  1.00  0.00    -0.744 OA
ENDBRANCH  71  72
ENDBRANCH  50  64
BRANCH  51  76
ATOM     76  C   UNL A   1      36.621  33.239  30.907  1.00  0.00     0.058 A 
ATOM     77  C   UNL A   1      35.293  33.033  31.307  1.00  0.00     0.135 A 
ATOM     78  C   UNL A   1      36.855  34.140  29.856  1.00  0.00     0.135 A 
ATOM     79  F   UNL A   1      35.018  32.179  32.306  1.00  0.00    -0.206 F 
ATOM     80  C   UNL A   1      34.232  33.679  30.679  1.00  0.00     0.059 A 
ATOM     81  C   UNL A   1      35.814  34.816  29.227  1.00  0.00     0.059 A 
ATOM     82  F   UNL A   1      38.109  34.387  29.449  1.00  0.00    -0.206 F 
ATOM     83  C   UNL A   1      34.504  34.571  29.640  1.00  0.00     0.060 A 
BRANCH  83  84
ATOM     84  S   UNL A   1      33.125  35.444  28.865  1.00  0.00     0.124 S 
ATOM     85  O   UNL A   1      32.481  34.370  28.118  1.00  0.00    -0.237 OA
ATOM     86  O   UNL A   1      32.391  35.949  30.021  1.00  0.00    -0.237 OA
ATOM     87  O   UNL A   1      33.788  36.466  28.060  1.00  0.00    -0.744 OA
ENDBRANCH  83  84
ENDBRANCH  51  76
BRANCH  63  88
ATOM     88  C   UNL A   1      39.899  34.206  36.984  1.00  0.00     0.058 A 
ATOM     89  C   UNL A   1      39.067  34.016  38.098  1.00  0.00     0.135 A 
ATOM     90  C   UNL A   1      40.637  35.399  36.911  1.00  0.00     0.135 A 
ATOM     91  F   UNL A   1      38.336  32.896  38.212  1.00  0.00    -0.206 F 
ATOM     92  C   UNL A   1      38.949  34.986  39.089  1.00  0.00     0.059 A 
ATOM     93  C   UNL A   1      40.554  36.370  37.902  1.00  0.00     0.059 A 
ATOM     94  F   UNL A   1      41.457  35.625  35.871  1.00  0.00    -0.206 F 
ATOM     95  C   UNL A   1      39.694  36.161  38.980  1.00  0.00     0.060 A 
BRANCH  95  96
ATOM     96  S   UNL A   1      39.548  37.406  40.279  1.00  0.00     0.124 S 
ATOM     97  O   UNL A   1      40.692  38.264  39.992  1.00  0.00    -0.237 OA
ATOM     98  O   UNL A   1      38.236  37.988  40.012  1.00  0.00    -0.237 OA
ATOM     99  O   UNL A   1      39.640  36.625  41.510  1.00  0.00    -0.744 OA
ENDBRANCH  95  96
ENDBRANCH  63  88
ENDBRANCH  37  38
ENDBRANCH  29  32
ENDBRANCH  27  28
ENDBRANCH  26  27
ENDBRANCH   1  26
TORSDOF 18
ENDMDL
MODEL 2
REMARK VINA RESULT:     -10.9      1.841      3.640
REMARK SMILES O=C(CSc1ccnc(C(=O)NCCCNC(=O)c2ccc(-c3c4nc(c(-c5c(F)cc(S(=O)(=O)[O-])cc5F)c5ccc([nH]5)c(-c5c(F)cc(S(=O)(=O)[O-])cc5F)c5nc(c(-c6c(F)cc(S(=O)(=O)[O-])cc6F)c6ccc3[nH]6)C=C5)C=C4)cc2)c1)NNc1ccccn1
REMARK SMILES IDX 13 1 12 2 10 3 11 4 9 6 5 7 6 8 85 9 7 10 8 11 4 12 3 13
REMARK SMILES IDX 2 14 1 15 86 16 87 18 88 20 89 21 93 22 90 23 92 24 91 25
REMARK SMILES IDX 14 26 15 27 16 28 17 29 18 31 19 32 20 33 84 34 21 35 83 36
REMARK SMILES IDX 22 37 23 38 24 39 77 40 25 41 82 42 76 43 78 44 26 45 81 46
REMARK SMILES IDX 75 47 74 48 27 50 61 51 40 52 60 53 41 54 44 55 59 56 79 57
REMARK SMILES IDX 42 58 43 59 58 61 80 62 45 63 28 64 29 65 38 66 30 67 31 68
REMARK SMILES IDX 37 69 39 70 32 71 33 72 34 73 35 74 36 75 62 76 63 77 72 78
REMARK SMILES IDX 64 79 65 80 71 81 73 82 66 83 67 84 68 85 69 86 70 87 46 88
REMARK SMILES IDX 47 89 56 90 48 91 49 92 55 93 57 94 50 95 51 96 52 97 53 98
REMARK SMILES IDX 54 99
REMARK H PARENT 12 5 86 17 87 19 16 30 78 49 44 60
REMARK Flexibility Score: inf
ROOT
ATOM      1  C   UNL A   1      45.632  23.559  27.072  1.00  0.00     0.118 C 
ENDROOT
BRANCH   1   2
ATOM      2  N   UNL A   1      45.653  23.565  25.622  1.00  0.00    -0.351 N 
ATOM      3  C   UNL A   1      45.244  22.666  24.662  1.00  0.00     0.269 C 
ATOM      4  O   UNL A   1      45.366  23.042  23.492  1.00  0.00    -0.268 OA
ATOM      5  H   UNL A   1      46.043  24.387  25.244  1.00  0.00     0.163 HD
BRANCH   3   6
ATOM      6  C   UNL A   1      44.633  21.318  24.954  1.00  0.00     0.129 A 
ATOM      7  C   UNL A   1      43.042  19.822  25.960  1.00  0.00     0.012 A 
ATOM      8  C   UNL A   1      43.640  18.773  25.266  1.00  0.00     0.035 A 
ATOM      9  C   UNL A   1      43.576  21.106  25.828  1.00  0.00     0.049 A 
ATOM     10  C   UNL A   1      44.726  19.052  24.460  1.00  0.00     0.113 A 
ATOM     11  N   UNL A   1      45.213  20.292  24.274  1.00  0.00    -0.251 NA
BRANCH   7  12
ATOM     12  S   UNL A   1      41.564  19.442  26.901  1.00  0.00    -0.116 SA
BRANCH  12  13
ATOM     13  C   UNL A   1      40.204  19.972  25.800  1.00  0.00     0.176 C 
BRANCH  13  14
ATOM     14  C   UNL A   1      39.685  21.334  26.213  1.00  0.00     0.248 C 
ATOM     15  O   UNL A   1      40.028  21.865  27.268  1.00  0.00    -0.272 OA
ATOM     16  N   UNL A   1      38.819  21.886  25.288  1.00  0.00    -0.268 N 
ATOM     17  H   UNL A   1      38.627  21.418  24.445  1.00  0.00     0.191 HD
BRANCH  16  18
ATOM     18  N   UNL A   1      38.225  23.107  25.565  1.00  0.00    -0.282 N 
ATOM     19  H   UNL A   1      38.690  23.788  26.103  1.00  0.00     0.190 HD
BRANCH  18  20
ATOM     20  C   UNL A   1      36.947  23.344  25.055  1.00  0.00     0.144 A 
ATOM     21  C   UNL A   1      36.393  22.553  24.048  1.00  0.00     0.048 A 
ATOM     22  N   UNL A   1      36.277  24.387  25.581  1.00  0.00    -0.238 NA
ATOM     23  C   UNL A   1      35.129  22.864  23.550  1.00  0.00     0.005 A 
ATOM     24  C   UNL A   1      35.056  24.677  25.079  1.00  0.00     0.113 A 
ATOM     25  C   UNL A   1      34.447  23.953  24.069  1.00  0.00     0.020 A 
ENDBRANCH  18  20
ENDBRANCH  16  18
ENDBRANCH  13  14
ENDBRANCH  12  13
ENDBRANCH   7  12
ENDBRANCH   3   6
ENDBRANCH   1   2
BRANCH   1  26
ATOM     26  C   UNL A   1      44.496  24.424  27.620  1.00  0.00     0.042 C 
BRANCH  26  27
ATOM     27  C   UNL A   1      43.144  23.709  27.644  1.00  0.00     0.118 C 
BRANCH  27  28
ATOM     28  N   UNL A   1      42.299  24.117  26.530  1.00  0.00    -0.352 N 
ATOM     29  C   UNL A   1      41.287  25.041  26.470  1.00  0.00     0.251 C 
ATOM     30  H   UNL A   1      42.486  23.656  25.681  1.00  0.00     0.163 HD
ATOM     31  O   UNL A   1      40.546  25.042  25.491  1.00  0.00    -0.269 OA
BRANCH  29  32
ATOM     32  C   UNL A   1      41.076  26.028  27.554  1.00  0.00     0.039 A 
ATOM     33  C   UNL A   1      41.950  27.118  27.644  1.00  0.00     0.014 A 
ATOM     34  C   UNL A   1      40.089  25.850  28.527  1.00  0.00     0.014 A 
ATOM     35  C   UNL A   1      41.814  28.039  28.687  1.00  0.00     0.010 A 
ATOM     36  C   UNL A   1      39.912  26.804  29.528  1.00  0.00     0.010 A 
ATOM     37  C   UNL A   1      40.783  27.899  29.629  1.00  0.00    -0.014 A 
BRANCH  37  38
ATOM     38  C   UNL A   1      40.623  28.872  30.741  1.00  0.00     0.031 A 
ATOM     39  C   UNL A   1      41.482  28.761  31.973  1.00  0.00     0.074 A 
ATOM     40  C   UNL A   1      39.673  29.825  30.662  1.00  0.00     0.049 A 
ATOM     41  N   UNL A   1      41.451  29.473  33.070  1.00  0.00    -0.248 NA
ATOM     42  C   UNL A   1      42.493  27.691  31.983  1.00  0.00     0.031 C 
ATOM     43  C   UNL A   1      38.749  30.005  29.540  1.00  0.00     0.029 A 
ATOM     44  N   UNL A   1      39.320  30.814  31.544  1.00  0.00    -0.354 N 
ATOM     45  C   UNL A   1      42.418  28.926  33.907  1.00  0.00     0.074 A 
ATOM     46  C   UNL A   1      42.988  27.795  33.208  1.00  0.00     0.031 C 
ATOM     47  C   UNL A   1      37.949  31.053  29.793  1.00  0.00     0.029 A 
ATOM     48  C   UNL A   1      38.279  31.599  31.106  1.00  0.00     0.049 A 
ATOM     49  H   UNL A   1      39.769  30.949  32.409  1.00  0.00     0.167 HD
ATOM     50  C   UNL A   1      42.810  29.341  35.135  1.00  0.00     0.037 A 
ATOM     51  C   UNL A   1      37.661  32.639  31.697  1.00  0.00     0.037 A 
ATOM     52  C   UNL A   1      42.261  30.489  35.811  1.00  0.00     0.049 A 
ATOM     53  C   UNL A   1      38.135  33.102  33.048  1.00  0.00     0.074 A 
ATOM     54  C   UNL A   1      42.621  31.023  37.036  1.00  0.00     0.029 A 
ATOM     55  N   UNL A   1      41.238  31.284  35.315  1.00  0.00    -0.354 N 
ATOM     56  N   UNL A   1      39.085  32.601  33.803  1.00  0.00    -0.248 NA
ATOM     57  C   UNL A   1      37.464  34.276  33.622  1.00  0.00     0.031 C 
ATOM     58  C   UNL A   1      41.797  32.123  37.294  1.00  0.00     0.029 A 
ATOM     59  C   UNL A   1      40.951  32.301  36.211  1.00  0.00     0.049 A 
ATOM     60  H   UNL A   1      40.783  31.145  34.454  1.00  0.00     0.167 HD
ATOM     61  C   UNL A   1      39.145  33.419  34.927  1.00  0.00     0.074 A 
ATOM     62  C   UNL A   1      38.143  34.450  34.747  1.00  0.00     0.031 C 
ATOM     63  C   UNL A   1      39.959  33.326  36.008  1.00  0.00     0.037 A 
BRANCH  50  64
ATOM     64  C   UNL A   1      43.892  28.554  35.825  1.00  0.00     0.058 A 
ATOM     65  C   UNL A   1      43.591  27.510  36.713  1.00  0.00     0.135 A 
ATOM     66  C   UNL A   1      45.247  28.828  35.575  1.00  0.00     0.135 A 
ATOM     67  F   UNL A   1      42.313  27.214  36.999  1.00  0.00    -0.206 F 
ATOM     68  C   UNL A   1      44.591  26.786  37.353  1.00  0.00     0.059 A 
ATOM     69  C   UNL A   1      46.265  28.099  36.185  1.00  0.00     0.059 A 
ATOM     70  F   UNL A   1      45.594  29.815  34.734  1.00  0.00    -0.206 F 
ATOM     71  C   UNL A   1      45.927  27.090  37.084  1.00  0.00     0.060 A 
BRANCH  71  72
ATOM     72  S   UNL A   1      47.214  26.141  37.922  1.00  0.00     0.124 S 
ATOM     73  O   UNL A   1      46.791  24.771  37.648  1.00  0.00    -0.237 OA
ATOM     74  O   UNL A   1      48.425  26.578  37.235  1.00  0.00    -0.237 OA
ATOM     75  O   UNL A   1      47.099  26.567  39.314  1.00  0.00    -0.744 OA
ENDBRANCH  71  72
ENDBRANCH  50  64
BRANCH  51  76
ATOM     76  C   UNL A   1      36.551  33.337  30.997  1.00  0.00     0.058 A 
ATOM     77  C   UNL A   1      35.223  33.180  31.418  1.00  0.00     0.135 A 
ATOM     78  C   UNL A   1      36.795  34.188  29.908  1.00  0.00     0.135 A 
ATOM     79  F   UNL A   1      34.939  32.375  32.454  1.00  0.00    -0.206 F 
ATOM     80  C   UNL A   1      34.171  33.826  30.775  1.00  0.00     0.059 A 
ATOM     81  C   UNL A   1      35.763  34.863  29.262  1.00  0.00     0.059 A 
ATOM     82  F   UNL A   1      38.049  34.388  29.478  1.00  0.00    -0.206 F 
ATOM     83  C   UNL A   1      34.453  34.667  29.698  1.00  0.00     0.060 A 
BRANCH  83  84
ATOM     84  S   UNL A   1      33.086  35.541  28.902  1.00  0.00     0.124 S 
ATOM     85  O   UNL A   1      32.459  34.471  28.137  1.00  0.00    -0.237 OA
ATOM     86  O   UNL A   1      32.328  36.038  30.047  1.00  0.00    -0.237 OA
ATOM     87  O   UNL A   1      33.761  36.570  28.116  1.00  0.00    -0.744 OA
ENDBRANCH  83  84
ENDBRANCH  51  76
BRANCH  63  88
ATOM     88  C   UNL A   1      39.831  34.394  37.058  1.00  0.00     0.058 A 
ATOM     89  C   UNL A   1      40.546  35.598  36.979  1.00  0.00     0.135 A 
ATOM     90  C   UNL A   1      38.952  34.221  38.139  1.00  0.00     0.135 A 
ATOM     91  F   UNL A   1      41.403  35.810  35.967  1.00  0.00    -0.206 F 
ATOM     92  C   UNL A   1      40.417  36.584  37.953  1.00  0.00     0.059 A 
ATOM     93  C   UNL A   1      38.789  35.203  39.111  1.00  0.00     0.059 A 
ATOM     94  F   UNL A   1      38.235  33.091  38.255  1.00  0.00    -0.206 F 
ATOM     95  C   UNL A   1      39.538  36.375  39.017  1.00  0.00     0.060 A 
BRANCH  95  96
ATOM     96  S   UNL A   1      39.365  37.666  40.267  1.00  0.00     0.124 S 
ATOM     97  O   UNL A   1      38.185  38.379  39.788  1.00  0.00    -0.237 OA
ATOM     98  O   UNL A   1      39.185  36.895  41.493  1.00  0.00    -0.237 OA
ATOM     99  O   UNL A   1      40.624  38.399  40.174  1.00  0.00    -0.744 OA
ENDBRANCH  95  96
ENDBRANCH  63  88
ENDBRANCH  37  38
ENDBRANCH  29  32
ENDBRANCH  27  28
ENDBRANCH  26  27
ENDBRANCH   1  26
TORSDOF 18
ENDMDL
MODEL 3
REMARK VINA RESULT:     -10.9      3.155      5.158
REMARK SMILES O=C(CSc1ccnc(C(=O)NCCCNC(=O)c2ccc(-c3c4nc(c(-c5c(F)cc(S(=O)(=O)[O-])cc5F)c5ccc([nH]5)c(-c5c(F)cc(S(=O)(=O)[O-])cc5F)c5nc(c(-c6c(F)cc(S(=O)(=O)[O-])cc6F)c6ccc3[nH]6)C=C5)C=C4)cc2)c1)NNc1ccccn1
REMARK SMILES IDX 13 1 12 2 10 3 11 4 9 6 5 7 6 8 85 9 7 10 8 11 4 12 3 13
REMARK SMILES IDX 2 14 1 15 86 16 87 18 88 20 89 21 93 22 90 23 92 24 91 25
REMARK SMILES IDX 14 26 15 27 16 28 17 29 18 31 19 32 20 33 84 34 21 35 83 36
REMARK SMILES IDX 22 37 23 38 24 39 77 40 25 41 82 42 76 43 78 44 26 45 81 46
REMARK SMILES IDX 75 47 74 48 27 50 61 51 40 52 60 53 41 54 44 55 59 56 79 57
REMARK SMILES IDX 42 58 43 59 58 61 80 62 45 63 28 64 29 65 38 66 30 67 31 68
REMARK SMILES IDX 37 69 39 70 32 71 33 72 34 73 35 74 36 75 62 76 63 77 72 78
REMARK SMILES IDX 64 79 65 80 71 81 73 82 66 83 67 84 68 85 69 86 70 87 46 88
REMARK SMILES IDX 47 89 56 90 48 91 49 92 55 93 57 94 50 95 51 96 52 97 53 98
REMARK SMILES IDX 54 99
REMARK H PARENT 12 5 86 17 87 19 16 30 78 49 44 60
REMARK Flexibility Score: inf
ROOT
ATOM      1  C   UNL A   1      43.902  21.899  25.731  1.00  0.00     0.118 C 
ENDROOT
BRANCH   1   2
ATOM      2  N   UNL A   1      43.360  20.732  26.401  1.00  0.00    -0.351 N 
ATOM      3  C   UNL A   1      42.092  20.365  26.793  1.00  0.00     0.269 C 
ATOM      4  O   UNL A   1      41.993  19.243  27.298  1.00  0.00    -0.268 OA
ATOM      5  H   UNL A   1      44.045  20.060  26.623  1.00  0.00     0.163 HD
BRANCH   3   6
ATOM      6  C   UNL A   1      40.857  21.210  26.603  1.00  0.00     0.129 A 
ATOM      7  C   UNL A   1      38.643  21.675  25.787  1.00  0.00     0.012 A 
ATOM      8  C   UNL A   1      38.684  22.890  26.469  1.00  0.00     0.035 A 
ATOM      9  C   UNL A   1      39.765  20.845  25.827  1.00  0.00     0.049 A 
ATOM     10  C   UNL A   1      39.827  23.211  27.172  1.00  0.00     0.113 A 
ATOM     11  N   UNL A   1      40.892  22.395  27.272  1.00  0.00    -0.251 NA
BRANCH   7  12
ATOM     12  S   UNL A   1      37.100  21.240  24.986  1.00  0.00    -0.116 SA
BRANCH  12  13
ATOM     13  C   UNL A   1      35.841  22.153  25.949  1.00  0.00     0.176 C 
BRANCH  13  14
ATOM     14  C   UNL A   1      34.537  21.383  25.985  1.00  0.00     0.248 C 
ATOM     15  O   UNL A   1      33.851  21.321  27.003  1.00  0.00    -0.272 OA
ATOM     16  N   UNL A   1      34.227  20.788  24.776  1.00  0.00    -0.268 N 
ATOM     17  H   UNL A   1      34.808  20.920  23.993  1.00  0.00     0.191 HD
BRANCH  16  18
ATOM     18  N   UNL A   1      33.089  20.004  24.682  1.00  0.00    -0.282 N 
ATOM     19  H   UNL A   1      32.198  20.413  24.586  1.00  0.00     0.190 HD
BRANCH  18  20
ATOM     20  C   UNL A   1      33.243  18.618  24.726  1.00  0.00     0.144 A 
ATOM     21  C   UNL A   1      34.014  17.928  23.791  1.00  0.00     0.048 A 
ATOM     22  N   UNL A   1      32.596  17.974  25.717  1.00  0.00    -0.238 NA
ATOM     23  C   UNL A   1      34.097  16.539  23.860  1.00  0.00     0.005 A 
ATOM     24  C   UNL A   1      32.683  16.627  25.763  1.00  0.00     0.113 A 
ATOM     25  C   UNL A   1      33.411  15.871  24.862  1.00  0.00     0.020 A 
ENDBRANCH  18  20
ENDBRANCH  16  18
ENDBRANCH  13  14
ENDBRANCH  12  13
ENDBRANCH   7  12
ENDBRANCH   3   6
ENDBRANCH   1   2
BRANCH   1  26
ATOM     26  C   UNL A   1      44.761  22.740  26.677  1.00  0.00     0.042 C 
BRANCH  26  27
ATOM     27  C   UNL A   1      44.137  24.093  27.024  1.00  0.00     0.118 C 
BRANCH  27  28
ATOM     28  N   UNL A   1      43.254  24.565  25.966  1.00  0.00    -0.352 N 
ATOM     29  C   UNL A   1      42.221  25.467  26.003  1.00  0.00     0.251 C 
ATOM     30  H   UNL A   1      43.427  24.174  25.080  1.00  0.00     0.163 HD
ATOM     31  O   UNL A   1      41.454  25.525  25.046  1.00  0.00    -0.269 OA
BRANCH  29  32
ATOM     32  C   UNL A   1      42.019  26.364  27.164  1.00  0.00     0.039 A 
ATOM     33  C   UNL A   1      41.120  25.972  28.163  1.00  0.00     0.014 A 
ATOM     34  C   UNL A   1      42.634  27.617  27.239  1.00  0.00     0.014 A 
ATOM     35  C   UNL A   1      40.864  26.819  29.245  1.00  0.00     0.010 A 
ATOM     36  C   UNL A   1      42.428  28.433  28.351  1.00  0.00     0.010 A 
ATOM     37  C   UNL A   1      41.529  28.050  29.357  1.00  0.00    -0.014 A 
BRANCH  37  38
ATOM     38  C   UNL A   1      41.270  28.960  30.504  1.00  0.00     0.031 A 
ATOM     39  C   UNL A   1      42.116  28.870  31.746  1.00  0.00     0.074 A 
ATOM     40  C   UNL A   1      40.244  29.831  30.445  1.00  0.00     0.049 A 
ATOM     41  N   UNL A   1      42.008  29.531  32.870  1.00  0.00    -0.248 NA
ATOM     42  C   UNL A   1      43.214  27.889  31.732  1.00  0.00     0.031 C 
ATOM     43  C   UNL A   1      39.324  29.979  29.314  1.00  0.00     0.029 A 
ATOM     44  N   UNL A   1      39.794  30.750  31.359  1.00  0.00    -0.354 N 
ATOM     45  C   UNL A   1      43.006  29.033  33.702  1.00  0.00     0.074 A 
ATOM     46  C   UNL A   1      43.680  27.984  32.969  1.00  0.00     0.031 C 
ATOM     47  C   UNL A   1      38.434  30.944  29.594  1.00  0.00     0.029 A 
ATOM     48  C   UNL A   1      38.697  31.461  30.933  1.00  0.00     0.049 A 
ATOM     49  H   UNL A   1      40.217  30.886  32.237  1.00  0.00     0.167 HD
ATOM     50  C   UNL A   1      43.343  29.429  34.953  1.00  0.00     0.037 A 
ATOM     51  C   UNL A   1      37.984  32.421  31.554  1.00  0.00     0.037 A 
ATOM     52  C   UNL A   1      42.688  30.498  35.663  1.00  0.00     0.049 A 
ATOM     53  C   UNL A   1      38.396  32.865  32.931  1.00  0.00     0.074 A 
ATOM     54  C   UNL A   1      42.982  31.009  36.915  1.00  0.00     0.029 A 
ATOM     55  N   UNL A   1      41.608  31.223  35.181  1.00  0.00    -0.354 N 
ATOM     56  N   UNL A   1      39.374  32.416  33.683  1.00  0.00    -0.248 NA
ATOM     57  C   UNL A   1      37.620  33.954  33.538  1.00  0.00     0.031 C 
ATOM     58  C   UNL A   1      42.063  32.025  37.201  1.00  0.00     0.029 A 
ATOM     59  C   UNL A   1      41.223  32.175  36.111  1.00  0.00     0.049 A 
ATOM     60  H   UNL A   1      41.180  31.083  34.306  1.00  0.00     0.167 HD
ATOM     61  C   UNL A   1      39.348  33.189  34.839  1.00  0.00     0.074 A 
ATOM     62  C   UNL A   1      38.265  34.138  34.682  1.00  0.00     0.031 C 
ATOM     63  C   UNL A   1      40.149  33.121  35.931  1.00  0.00     0.037 A 
BRANCH  50  64
ATOM     64  C   UNL A   1      44.477  28.708  35.630  1.00  0.00     0.058 A 
ATOM     65  C   UNL A   1      44.257  27.575  36.428  1.00  0.00     0.135 A 
ATOM     66  C   UNL A   1      45.803  29.138  35.459  1.00  0.00     0.135 A 
ATOM     67  F   UNL A   1      43.008  27.128  36.638  1.00  0.00    -0.206 F 
ATOM     68  C   UNL A   1      45.305  26.912  37.058  1.00  0.00     0.059 A 
ATOM     69  C   UNL A   1      46.871  28.475  36.058  1.00  0.00     0.059 A 
ATOM     70  F   UNL A   1      46.073  30.216  34.706  1.00  0.00    -0.206 F 
ATOM     71  C   UNL A   1      46.610  27.371  36.868  1.00  0.00     0.060 A 
BRANCH  71  72
ATOM     72  S   UNL A   1      47.960  26.500  37.691  1.00  0.00     0.124 S 
ATOM     73  O   UNL A   1      49.088  26.825  36.825  1.00  0.00    -0.237 OA
ATOM     74  O   UNL A   1      47.977  27.121  39.012  1.00  0.00    -0.237 OA
ATOM     75  O   UNL A   1      47.530  25.105  37.665  1.00  0.00    -0.744 OA
ENDBRANCH  71  72
ENDBRANCH  50  64
BRANCH  51  76
ATOM     76  C   UNL A   1      36.829  33.051  30.862  1.00  0.00     0.058 A 
ATOM     77  C   UNL A   1      35.515  32.801  31.282  1.00  0.00     0.135 A 
ATOM     78  C   UNL A   1      37.015  33.928  29.782  1.00  0.00     0.135 A 
ATOM     79  F   UNL A   1      35.286  31.968  32.309  1.00  0.00    -0.206 F 
ATOM     80  C   UNL A   1      34.422  33.383  30.646  1.00  0.00     0.059 A 
ATOM     81  C   UNL A   1      35.940  34.540  29.143  1.00  0.00     0.059 A 
ATOM     82  F   UNL A   1      38.253  34.215  29.354  1.00  0.00    -0.206 F 
ATOM     83  C   UNL A   1      34.646  34.253  29.578  1.00  0.00     0.060 A 
BRANCH  83  84
ATOM     84  S   UNL A   1      33.224  35.042  28.791  1.00  0.00     0.124 S 
ATOM     85  O   UNL A   1      32.314  35.199  29.919  1.00  0.00    -0.237 OA
ATOM     86  O   UNL A   1      33.807  36.273  28.264  1.00  0.00    -0.237 OA
ATOM     87  O   UNL A   1      32.819  34.069  27.781  1.00  0.00    -0.744 OA
ENDBRANCH  83  84
ENDBRANCH  51  76
BRANCH  63  88
ATOM     88  C   UNL A   1      39.916  34.129  37.019  1.00  0.00     0.058 A 
ATOM     89  C   UNL A   1      40.422  35.436  36.939  1.00  0.00     0.135 A 
ATOM     90  C   UNL A   1      39.143  33.792  38.143  1.00  0.00     0.135 A 
ATOM     91  F   UNL A   1      41.170  35.806  35.888  1.00  0.00    -0.206 F 
ATOM     92  C   UNL A   1      40.195  36.365  37.950  1.00  0.00     0.059 A 
ATOM     93  C   UNL A   1      38.883  34.712  39.152  1.00  0.00     0.059 A 
ATOM     94  F   UNL A   1      38.626  32.558  38.262  1.00  0.00    -0.206 F 
ATOM     95  C   UNL A   1      39.428  35.992  39.055  1.00  0.00     0.060 A 
BRANCH  95  96
ATOM     96  S   UNL A   1      39.125  37.209  40.352  1.00  0.00     0.124 S 
ATOM     97  O   UNL A   1      38.225  36.476  41.236  1.00  0.00    -0.237 OA
ATOM     98  O   UNL A   1      40.466  37.454  40.875  1.00  0.00    -0.237 OA
ATOM     99  O   UNL A   1      38.526  38.330  39.633  1.00  0.00    -0.744 OA
ENDBRANCH  95  96
ENDBRANCH  63  88
ENDBRANCH  37  38
ENDBRANCH  29  32
ENDBRANCH  27  28
ENDBRANCH  26  27
ENDBRANCH   1  26
TORSDOF 18
ENDMDL
