MODEL 1
REMARK VINA RESULT:     -12.4      0.000      0.000
REMARK SMILES CC[C@@H](C)[C@@H](C(=O)NCCCNC(=O)c1ccc(-c2c3nc(c(-c4c(F)cc(S(=O)(=O)[O-])cc4F)c4ccc([nH]4)c(-c4c(F)cc(S(=O)(=O)[O-])cc4F)c4nc(c(-c5c(F)cc(S(=O)(=O)[O-])cc5F)c5ccc2[nH]5)C=C4)C=C3)cc1)N1C(=O)/C(=C\c2ccn(C)c2)SC1=S
REMARK SMILES IDX 10 1 9 2 8 3 6 4 7 5 5 7 3 8 4 9 2 10 1 11 81 12 82 13 93 14
REMARK SMILES IDX 83 15 84 16 92 17 94 18 85 19 86 20 87 21 91 22 88 23 89 24
REMARK SMILES IDX 90 25 11 26 12 27 13 28 14 30 15 31 16 32 80 33 17 34 79 35
REMARK SMILES IDX 18 36 19 37 20 38 73 39 21 40 78 41 72 42 74 43 22 44 77 45
REMARK SMILES IDX 71 46 70 47 23 49 57 50 36 51 56 52 37 53 40 54 55 55 75 56
REMARK SMILES IDX 38 57 39 58 54 60 76 61 41 62 24 63 25 64 34 65 26 66 27 67
REMARK SMILES IDX 33 68 35 69 28 70 29 71 30 72 31 73 32 74 58 75 59 76 68 77
REMARK SMILES IDX 60 78 61 79 67 80 69 81 62 82 63 83 64 84 65 85 66 86 42 87
REMARK SMILES IDX 43 88 52 89 44 90 45 91 51 92 53 93 46 94 47 95 48 96 49 97
REMARK SMILES IDX 50 98
REMARK H PARENT 8 6 12 29 74 48 40 59
REMARK Flexibility Score: inf
ROOT
ATOM      1  C   UNL A   1      37.626  23.858  26.130  1.00  0.00     0.042 C 
ENDROOT
BRANCH   1   2
ATOM      2  C   UNL A   1      37.108  22.572  25.475  1.00  0.00     0.117 C 
BRANCH   2   3
ATOM      3  N   UNL A   1      36.125  21.885  26.301  1.00  0.00    -0.354 N 
ATOM      4  C   UNL A   1      34.778  22.048  26.451  1.00  0.00     0.243 C 
ATOM      5  O   UNL A   1      34.238  21.444  27.386  1.00  0.00    -0.273 OA
ATOM      6  H   UNL A   1      36.504  21.167  26.858  1.00  0.00     0.163 HD
BRANCH   4   7
ATOM      7  C   UNL A   1      33.953  22.996  25.529  1.00  0.00     0.184 C 
BRANCH   7   8
ATOM      8  C   UNL A   1      32.880  23.634  26.522  1.00  0.00     0.018 C 
ATOM      9  C   UNL A   1      31.462  23.070  26.460  1.00  0.00     0.010 C 
BRANCH   8  10
ATOM     10  C   UNL A   1      32.848  25.172  26.338  1.00  0.00     0.002 C 
ATOM     11  C   UNL A   1      34.055  25.807  25.663  1.00  0.00     0.004 C 
ENDBRANCH   8  10
ENDBRANCH   7   8
BRANCH   7  12
ATOM     12  N   UNL A   1      33.335  22.217  24.405  1.00  0.00    -0.280 N 
ATOM     13  C   UNL A   1      33.558  20.852  24.269  1.00  0.00     0.266 C 
ATOM     14  C   UNL A   1      32.938  22.728  23.193  1.00  0.00     0.149 C 
ATOM     15  O   UNL A   1      34.539  20.248  24.675  1.00  0.00    -0.268 OA
ATOM     16  C   UNL A   1      32.572  20.270  23.308  1.00  0.00     0.081 C 
ATOM     17  S   UNL A   1      31.892  21.557  22.386  1.00  0.00    -0.054 SA
ATOM     18  S   UNL A   1      33.431  24.128  22.423  1.00  0.00    -0.052 S 
ATOM     19  C   UNL A   1      32.292  18.978  23.097  1.00  0.00     0.031 C 
BRANCH  19  20
ATOM     20  C   UNL A   1      32.882  17.875  23.767  1.00  0.00    -0.007 A 
ATOM     21  C   UNL A   1      34.110  17.226  23.492  1.00  0.00     0.027 A 
ATOM     22  C   UNL A   1      32.292  17.225  24.830  1.00  0.00     0.093 A 
ATOM     23  C   UNL A   1      34.217  16.173  24.375  1.00  0.00     0.086 A 
ATOM     24  N   UNL A   1      33.088  16.159  25.152  1.00  0.00    -0.357 N 
ATOM     25  C   UNL A   1      32.764  15.136  26.118  1.00  0.00     0.149 C 
ENDBRANCH  19  20
ENDBRANCH   7  12
ENDBRANCH   4   7
ENDBRANCH   2   3
ENDBRANCH   1   2
BRANCH   1  26
ATOM     26  C   UNL A   1      38.933  23.700  26.909  1.00  0.00     0.118 C 
BRANCH  26  27
ATOM     27  N   UNL A   1      40.086  24.075  26.107  1.00  0.00    -0.352 N 
ATOM     28  C   UNL A   1      40.878  25.196  26.165  1.00  0.00     0.251 C 
ATOM     29  H   UNL A   1      40.339  23.423  25.415  1.00  0.00     0.163 HD
ATOM     30  O   UNL A   1      41.649  25.420  25.232  1.00  0.00    -0.269 OA
BRANCH  28  31
ATOM     31  C   UNL A   1      40.824  26.142  27.311  1.00  0.00     0.039 A 
ATOM     32  C   UNL A   1      39.894  25.901  28.331  1.00  0.00     0.014 A 
ATOM     33  C   UNL A   1      41.596  27.307  27.354  1.00  0.00     0.014 A 
ATOM     34  C   UNL A   1      39.762  26.800  29.397  1.00  0.00     0.010 A 
ATOM     35  C   UNL A   1      41.503  28.176  28.449  1.00  0.00     0.010 A 
ATOM     36  C   UNL A   1      40.574  27.942  29.475  1.00  0.00    -0.014 A 
BRANCH  36  37
ATOM     37  C   UNL A   1      40.439  28.906  30.602  1.00  0.00     0.031 A 
ATOM     38  C   UNL A   1      41.285  28.755  31.842  1.00  0.00     0.074 A 
ATOM     39  C   UNL A   1      39.522  29.894  30.542  1.00  0.00     0.049 A 
ATOM     40  N   UNL A   1      41.264  29.457  32.948  1.00  0.00    -0.248 NA
ATOM     41  C   UNL A   1      42.267  27.659  31.849  1.00  0.00     0.031 C 
ATOM     42  C   UNL A   1      38.602  30.127  29.427  1.00  0.00     0.029 A 
ATOM     43  N   UNL A   1      39.201  30.876  31.447  1.00  0.00    -0.354 N 
ATOM     44  C   UNL A   1      42.200  28.869  33.792  1.00  0.00     0.074 A 
ATOM     45  C   UNL A   1      42.757  27.740  33.079  1.00  0.00     0.031 C 
ATOM     46  C   UNL A   1      37.823  31.184  29.713  1.00  0.00     0.029 A 
ATOM     47  C   UNL A   1      38.170  31.690  31.038  1.00  0.00     0.049 A 
ATOM     48  H   UNL A   1      39.666  30.987  32.308  1.00  0.00     0.167 HD
ATOM     49  C   UNL A   1      42.572  29.243  35.040  1.00  0.00     0.037 A 
ATOM     50  C   UNL A   1      37.565  32.721  31.661  1.00  0.00     0.037 A 
ATOM     51  C   UNL A   1      42.067  30.402  35.730  1.00  0.00     0.049 A 
ATOM     52  C   UNL A   1      38.038  33.152  33.023  1.00  0.00     0.074 A 
ATOM     53  C   UNL A   1      42.460  30.909  36.957  1.00  0.00     0.029 A 
ATOM     54  N   UNL A   1      41.065  31.232  35.257  1.00  0.00    -0.354 N 
ATOM     55  N   UNL A   1      38.979  32.628  33.770  1.00  0.00    -0.248 NA
ATOM     56  C   UNL A   1      37.374  34.319  33.621  1.00  0.00     0.031 C 
ATOM     57  C   UNL A   1      41.676  32.035  37.238  1.00  0.00     0.029 A 
ATOM     58  C   UNL A   1      40.816  32.242  36.172  1.00  0.00     0.049 A 
ATOM     59  H   UNL A   1      40.598  31.122  34.396  1.00  0.00     0.167 HD
ATOM     60  C   UNL A   1      39.033  33.414  34.917  1.00  0.00     0.074 A 
ATOM     61  C   UNL A   1      38.040  34.455  34.760  1.00  0.00     0.031 C 
ATOM     62  C   UNL A   1      39.834  33.281  36.002  1.00  0.00     0.037 A 
BRANCH  49  63
ATOM     63  C   UNL A   1      43.591  28.396  35.750  1.00  0.00     0.058 A 
ATOM     64  C   UNL A   1      44.966  28.636  35.621  1.00  0.00     0.135 A 
ATOM     65  C   UNL A   1      43.180  27.374  36.621  1.00  0.00     0.135 A 
ATOM     66  F   UNL A   1      45.411  29.594  34.791  1.00  0.00    -0.206 F 
ATOM     67  C   UNL A   1      45.903  27.880  36.317  1.00  0.00     0.059 A 
ATOM     68  C   UNL A   1      44.100  26.619  37.343  1.00  0.00     0.059 A 
ATOM     69  F   UNL A   1      41.875  27.106  36.781  1.00  0.00    -0.206 F 
ATOM     70  C   UNL A   1      45.460  26.872  37.176  1.00  0.00     0.060 A 
BRANCH  70  71
ATOM     71  S   UNL A   1      46.685  25.911  38.090  1.00  0.00     0.124 S 
ATOM     72  O   UNL A   1      47.785  26.865  38.192  1.00  0.00    -0.237 OA
ATOM     73  O   UNL A   1      45.987  25.614  39.337  1.00  0.00    -0.237 OA
ATOM     74  O   UNL A   1      46.928  24.762  37.224  1.00  0.00    -0.744 OA
ENDBRANCH  70  71
ENDBRANCH  49  63
BRANCH  50  75
ATOM     75  C   UNL A   1      36.442  33.432  30.998  1.00  0.00     0.058 A 
ATOM     76  C   UNL A   1      36.667  34.277  29.902  1.00  0.00     0.135 A 
ATOM     77  C   UNL A   1      35.123  33.286  31.454  1.00  0.00     0.135 A 
ATOM     78  F   UNL A   1      37.913  34.454  29.437  1.00  0.00    -0.206 F 
ATOM     79  C   UNL A   1      35.627  34.969  29.291  1.00  0.00     0.059 A 
ATOM     80  C   UNL A   1      34.063  33.952  30.847  1.00  0.00     0.059 A 
ATOM     81  F   UNL A   1      34.855  32.476  32.490  1.00  0.00    -0.206 F 
ATOM     82  C   UNL A   1      34.327  34.803  29.773  1.00  0.00     0.060 A 
BRANCH  82  83
ATOM     83  S   UNL A   1      32.973  35.670  28.953  1.00  0.00     0.124 S 
ATOM     84  O   UNL A   1      32.193  36.138  30.092  1.00  0.00    -0.237 OA
ATOM     85  O   UNL A   1      33.676  36.700  28.193  1.00  0.00    -0.237 OA
ATOM     86  O   UNL A   1      32.351  34.624  28.145  1.00  0.00    -0.744 OA
ENDBRANCH  82  83
ENDBRANCH  50  75
BRANCH  62  87
ATOM     87  C   UNL A   1      39.695  34.302  37.094  1.00  0.00     0.058 A 
ATOM     88  C   UNL A   1      38.944  34.041  38.251  1.00  0.00     0.135 A 
ATOM     89  C   UNL A   1      40.357  35.536  37.005  1.00  0.00     0.135 A 
ATOM     90  F   UNL A   1      38.287  32.878  38.380  1.00  0.00    -0.206 F 
ATOM     91  C   UNL A   1      38.839  34.976  39.275  1.00  0.00     0.059 A 
ATOM     92  C   UNL A   1      40.283  36.479  38.025  1.00  0.00     0.059 A 
ATOM     93  F   UNL A   1      41.095  35.830  35.923  1.00  0.00    -0.206 F 
ATOM     94  C   UNL A   1      39.511  36.195  39.152  1.00  0.00     0.060 A 
BRANCH  94  95
ATOM     95  S   UNL A   1      39.399  37.391  40.499  1.00  0.00     0.124 S 
ATOM     96  O   UNL A   1      39.008  36.538  41.617  1.00  0.00    -0.237 OA
ATOM     97  O   UNL A   1      40.754  37.931  40.559  1.00  0.00    -0.237 OA
ATOM     98  O   UNL A   1      38.380  38.327  40.035  1.00  0.00    -0.744 OA
ENDBRANCH  94  95
ENDBRANCH  62  87
ENDBRANCH  36  37
ENDBRANCH  28  31
ENDBRANCH  26  27
ENDBRANCH   1  26
TORSDOF 17
ENDMDL
MODEL 2
REMARK VINA RESULT:     -11.6      1.849      4.100
REMARK SMILES CC[C@@H](C)[C@@H](C(=O)NCCCNC(=O)c1ccc(-c2c3nc(c(-c4c(F)cc(S(=O)(=O)[O-])cc4F)c4ccc([nH]4)c(-c4c(F)cc(S(=O)(=O)[O-])cc4F)c4nc(c(-c5c(F)cc(S(=O)(=O)[O-])cc5F)c5ccc2[nH]5)C=C4)C=C3)cc1)N1C(=O)/C(=C\c2ccn(C)c2)SC1=S
REMARK SMILES IDX 10 1 9 2 8 3 6 4 7 5 5 7 3 8 4 9 2 10 1 11 81 12 82 13 93 14
REMARK SMILES IDX 83 15 84 16 92 17 94 18 85 19 86 20 87 21 91 22 88 23 89 24
REMARK SMILES IDX 90 25 11 26 12 27 13 28 14 30 15 31 16 32 80 33 17 34 79 35
REMARK SMILES IDX 18 36 19 37 20 38 73 39 21 40 78 41 72 42 74 43 22 44 77 45
REMARK SMILES IDX 71 46 70 47 23 49 57 50 36 51 56 52 37 53 40 54 55 55 75 56
REMARK SMILES IDX 38 57 39 58 54 60 76 61 41 62 24 63 25 64 34 65 26 66 27 67
REMARK SMILES IDX 33 68 35 69 28 70 29 71 30 72 31 73 32 74 58 75 59 76 68 77
REMARK SMILES IDX 60 78 61 79 67 80 69 81 62 82 63 83 64 84 65 85 66 86 42 87
REMARK SMILES IDX 43 88 52 89 44 90 45 91 51 92 53 93 46 94 47 95 48 96 49 97
REMARK SMILES IDX 50 98
REMARK H PARENT 8 6 12 29 74 48 40 59
REMARK Flexibility Score: inf
ROOT
ATOM      1  C   UNL A   1      37.648  23.035  25.832  1.00  0.00     0.042 C 
ENDROOT
BRANCH   1   2
ATOM      2  C   UNL A   1      36.820  23.543  24.645  1.00  0.00     0.117 C 
BRANCH   2   3
ATOM      3  N   UNL A   1      35.786  22.599  24.245  1.00  0.00    -0.354 N 
ATOM      4  C   UNL A   1      34.450  22.532  24.518  1.00  0.00     0.243 C 
ATOM      5  O   UNL A   1      33.862  21.491  24.200  1.00  0.00    -0.273 OA
ATOM      6  H   UNL A   1      36.112  21.870  23.668  1.00  0.00     0.163 HD
BRANCH   4   7
ATOM      7  C   UNL A   1      33.698  23.684  25.251  1.00  0.00     0.184 C 
BRANCH   7   8
ATOM      8  C   UNL A   1      32.341  22.994  25.726  1.00  0.00     0.018 C 
ATOM      9  C   UNL A   1      31.040  23.590  25.190  1.00  0.00     0.010 C 
BRANCH   8  10
ATOM     10  C   UNL A   1      32.299  22.935  27.273  1.00  0.00     0.002 C 
ATOM     11  C   UNL A   1      33.481  22.274  27.967  1.00  0.00     0.004 C 
ENDBRANCH   8  10
ENDBRANCH   7   8
BRANCH   7  12
ATOM     12  N   UNL A   1      33.484  24.840  24.317  1.00  0.00    -0.280 N 
ATOM     13  C   UNL A   1      33.096  26.086  24.794  1.00  0.00     0.266 C 
ATOM     14  C   UNL A   1      33.161  24.750  22.985  1.00  0.00     0.149 C 
ATOM     15  O   UNL A   1      32.472  26.290  25.825  1.00  0.00    -0.268 OA
ATOM     16  C   UNL A   1      33.292  27.119  23.732  1.00  0.00     0.081 C 
ATOM     17  S   UNL A   1      33.440  26.314  22.216  1.00  0.00    -0.054 SA
ATOM     18  S   UNL A   1      32.451  23.486  22.152  1.00  0.00    -0.052 S 
ATOM     19  C   UNL A   1      33.278  28.451  23.866  1.00  0.00     0.031 C 
BRANCH  19  20
ATOM     20  C   UNL A   1      33.077  29.167  25.076  1.00  0.00    -0.007 A 
ATOM     21  C   UNL A   1      31.872  29.684  25.608  1.00  0.00     0.027 A 
ATOM     22  C   UNL A   1      34.097  29.501  25.941  1.00  0.00     0.093 A 
ATOM     23  C   UNL A   1      32.198  30.353  26.770  1.00  0.00     0.086 A 
ATOM     24  N   UNL A   1      33.555  30.269  26.937  1.00  0.00    -0.357 N 
ATOM     25  C   UNL A   1      34.302  30.944  27.972  1.00  0.00     0.149 C 
ENDBRANCH  19  20
ENDBRANCH   7  12
ENDBRANCH   4   7
ENDBRANCH   2   3
ENDBRANCH   1   2
BRANCH   1  26
ATOM     26  C   UNL A   1      38.522  24.094  26.506  1.00  0.00     0.118 C 
BRANCH  26  27
ATOM     27  N   UNL A   1      39.916  23.969  26.118  1.00  0.00    -0.352 N 
ATOM     28  C   UNL A   1      41.004  24.734  26.464  1.00  0.00     0.251 C 
ATOM     29  H   UNL A   1      40.113  23.218  25.512  1.00  0.00     0.163 HD
ATOM     30  O   UNL A   1      42.047  24.595  25.826  1.00  0.00    -0.269 OA
BRANCH  28  31
ATOM     31  C   UNL A   1      40.952  25.722  27.573  1.00  0.00     0.039 A 
ATOM     32  C   UNL A   1      39.902  25.634  28.497  1.00  0.00     0.014 A 
ATOM     33  C   UNL A   1      41.854  26.787  27.667  1.00  0.00     0.014 A 
ATOM     34  C   UNL A   1      39.775  26.582  29.520  1.00  0.00     0.010 A 
ATOM     35  C   UNL A   1      41.759  27.702  28.724  1.00  0.00     0.010 A 
ATOM     36  C   UNL A   1      40.710  27.620  29.653  1.00  0.00    -0.014 A 
BRANCH  36  37
ATOM     37  C   UNL A   1      40.582  28.636  30.735  1.00  0.00     0.031 A 
ATOM     38  C   UNL A   1      41.428  28.536  31.980  1.00  0.00     0.074 A 
ATOM     39  C   UNL A   1      39.672  29.626  30.630  1.00  0.00     0.049 A 
ATOM     40  N   UNL A   1      41.412  29.287  33.053  1.00  0.00    -0.248 NA
ATOM     41  C   UNL A   1      42.402  27.434  32.037  1.00  0.00     0.031 C 
ATOM     42  C   UNL A   1      38.754  29.815  29.506  1.00  0.00     0.029 A 
ATOM     43  N   UNL A   1      39.359  30.651  31.489  1.00  0.00    -0.354 N 
ATOM     44  C   UNL A   1      42.344  28.732  33.923  1.00  0.00     0.074 A 
ATOM     45  C   UNL A   1      42.894  27.568  33.262  1.00  0.00     0.031 C 
ATOM     46  C   UNL A   1      37.982  30.889  29.744  1.00  0.00     0.029 A 
ATOM     47  C   UNL A   1      38.334  31.453  31.044  1.00  0.00     0.049 A 
ATOM     48  H   UNL A   1      39.825  30.798  32.344  1.00  0.00     0.167 HD
ATOM     49  C   UNL A   1      42.720  29.160  35.152  1.00  0.00     0.037 A 
ATOM     50  C   UNL A   1      37.736  32.515  31.620  1.00  0.00     0.037 A 
ATOM     51  C   UNL A   1      42.224  30.352  35.789  1.00  0.00     0.049 A 
ATOM     52  C   UNL A   1      38.213  33.005  32.960  1.00  0.00     0.074 A 
ATOM     53  C   UNL A   1      42.621  30.913  36.991  1.00  0.00     0.029 A 
ATOM     54  N   UNL A   1      41.227  31.167  35.278  1.00  0.00    -0.354 N 
ATOM     55  N   UNL A   1      39.150  32.509  33.730  1.00  0.00    -0.248 NA
ATOM     56  C   UNL A   1      37.557  34.203  33.505  1.00  0.00     0.031 C 
ATOM     57  C   UNL A   1      41.846  32.055  37.221  1.00  0.00     0.029 A 
ATOM     58  C   UNL A   1      40.986  32.220  36.147  1.00  0.00     0.049 A 
ATOM     59  H   UNL A   1      40.759  31.021  34.424  1.00  0.00     0.167 HD
ATOM     60  C   UNL A   1      39.211  33.346  34.840  1.00  0.00     0.074 A 
ATOM     61  C   UNL A   1      38.225  34.385  34.636  1.00  0.00     0.031 C 
ATOM     62  C   UNL A   1      40.011  33.257  35.930  1.00  0.00     0.037 A 
BRANCH  49  63
ATOM     63  C   UNL A   1      43.733  28.339  35.900  1.00  0.00     0.058 A 
ATOM     64  C   UNL A   1      45.110  28.577  35.776  1.00  0.00     0.135 A 
ATOM     65  C   UNL A   1      43.316  27.346  36.801  1.00  0.00     0.135 A 
ATOM     66  F   UNL A   1      45.561  29.507  34.919  1.00  0.00    -0.206 F 
ATOM     67  C   UNL A   1      46.041  27.846  36.506  1.00  0.00     0.059 A 
ATOM     68  C   UNL A   1      44.230  26.617  37.557  1.00  0.00     0.059 A 
ATOM     69  F   UNL A   1      42.009  27.081  36.958  1.00  0.00    -0.206 F 
ATOM     70  C   UNL A   1      45.591  26.867  37.395  1.00  0.00     0.060 A 
BRANCH  70  71
ATOM     71  S   UNL A   1      46.809  25.939  38.352  1.00  0.00     0.124 S 
ATOM     72  O   UNL A   1      47.716  27.001  38.775  1.00  0.00    -0.237 OA
ATOM     73  O   UNL A   1      45.994  25.345  39.407  1.00  0.00    -0.237 OA
ATOM     74  O   UNL A   1      47.355  24.996  37.381  1.00  0.00    -0.744 OA
ENDBRANCH  70  71
ENDBRANCH  49  63
BRANCH  50  75
ATOM     75  C   UNL A   1      36.618  33.204  30.925  1.00  0.00     0.058 A 
ATOM     76  C   UNL A   1      35.296  33.069  31.370  1.00  0.00     0.135 A 
ATOM     77  C   UNL A   1      36.852  34.004  29.796  1.00  0.00     0.135 A 
ATOM     78  F   UNL A   1      35.023  32.305  32.440  1.00  0.00    -0.206 F 
ATOM     79  C   UNL A   1      34.239  33.686  30.711  1.00  0.00     0.059 A 
ATOM     80  C   UNL A   1      35.814  34.650  29.132  1.00  0.00     0.059 A 
ATOM     81  F   UNL A   1      38.102  34.178  29.342  1.00  0.00    -0.206 F 
ATOM     82  C   UNL A   1      34.507  34.473  29.589  1.00  0.00     0.060 A 
BRANCH  82  83
ATOM     83  S   UNL A   1      33.138  35.309  28.759  1.00  0.00     0.124 S 
ATOM     84  O   UNL A   1      33.844  36.314  27.973  1.00  0.00    -0.237 OA
ATOM     85  O   UNL A   1      32.523  34.222  28.002  1.00  0.00    -0.237 OA
ATOM     86  O   UNL A   1      32.339  35.817  29.869  1.00  0.00    -0.744 OA
ENDBRANCH  82  83
ENDBRANCH  50  75
BRANCH  62  87
ATOM     87  C   UNL A   1      39.880  34.328  36.974  1.00  0.00     0.058 A 
ATOM     88  C   UNL A   1      40.526  35.566  36.840  1.00  0.00     0.135 A 
ATOM     89  C   UNL A   1      39.063  34.131  38.098  1.00  0.00     0.135 A 
ATOM     90  F   UNL A   1      41.324  35.800  35.786  1.00  0.00    -0.206 F 
ATOM     91  C   UNL A   1      40.381  36.568  37.794  1.00  0.00     0.059 A 
ATOM     92  C   UNL A   1      38.887  35.125  39.055  1.00  0.00     0.059 A 
ATOM     93  F   UNL A   1      38.417  32.967  38.268  1.00  0.00    -0.206 F 
ATOM     94  C   UNL A   1      39.560  36.337  38.901  1.00  0.00     0.060 A 
BRANCH  94  95
ATOM     95  S   UNL A   1      39.349  37.653  40.119  1.00  0.00     0.124 S 
ATOM     96  O   UNL A   1      39.079  36.889  41.332  1.00  0.00    -0.237 OA
ATOM     97  O   UNL A   1      40.639  38.337  40.075  1.00  0.00    -0.237 OA
ATOM     98  O   UNL A   1      38.223  38.420  39.595  1.00  0.00    -0.744 OA
ENDBRANCH  94  95
ENDBRANCH  62  87
ENDBRANCH  36  37
ENDBRANCH  28  31
ENDBRANCH  26  27
ENDBRANCH   1  26
TORSDOF 17
ENDMDL
MODEL 3
REMARK VINA RESULT:     -11.3      1.715      8.963
REMARK SMILES CC[C@@H](C)[C@@H](C(=O)NCCCNC(=O)c1ccc(-c2c3nc(c(-c4c(F)cc(S(=O)(=O)[O-])cc4F)c4ccc([nH]4)c(-c4c(F)cc(S(=O)(=O)[O-])cc4F)c4nc(c(-c5c(F)cc(S(=O)(=O)[O-])cc5F)c5ccc2[nH]5)C=C4)C=C3)cc1)N1C(=O)/C(=C\c2ccn(C)c2)SC1=S
REMARK SMILES IDX 10 1 9 2 8 3 6 4 7 5 5 7 3 8 4 9 2 10 1 11 81 12 82 13 93 14
REMARK SMILES IDX 83 15 84 16 92 17 94 18 85 19 86 20 87 21 91 22 88 23 89 24
REMARK SMILES IDX 90 25 11 26 12 27 13 28 14 30 15 31 16 32 80 33 17 34 79 35
REMARK SMILES IDX 18 36 19 37 20 38 73 39 21 40 78 41 72 42 74 43 22 44 77 45
REMARK SMILES IDX 71 46 70 47 23 49 57 50 36 51 56 52 37 53 40 54 55 55 75 56
REMARK SMILES IDX 38 57 39 58 54 60 76 61 41 62 24 63 25 64 34 65 26 66 27 67
REMARK SMILES IDX 33 68 35 69 28 70 29 71 30 72 31 73 32 74 58 75 59 76 68 77
REMARK SMILES IDX 60 78 61 79 67 80 69 81 62 82 63 83 64 84 65 85 66 86 42 87
REMARK SMILES IDX 43 88 52 89 44 90 45 91 51 92 53 93 46 94 47 95 48 96 49 97
REMARK SMILES IDX 50 98
REMARK H PARENT 8 6 12 29 74 48 40 59
REMARK Flexibility Score: inf
ROOT
ATOM      1  C   UNL A   1      37.573  22.996  25.865  1.00  0.00     0.042 C 
ENDROOT
BRANCH   1   2
ATOM      2  C   UNL A   1      36.863  23.096  24.509  1.00  0.00     0.117 C 
BRANCH   2   3
ATOM      3  N   UNL A   1      35.936  21.995  24.286  1.00  0.00    -0.354 N 
ATOM      4  C   UNL A   1      34.635  21.803  24.651  1.00  0.00     0.243 C 
ATOM      5  O   UNL A   1      34.166  20.670  24.491  1.00  0.00    -0.273 OA
ATOM      6  H   UNL A   1      36.322  21.246  23.776  1.00  0.00     0.163 HD
BRANCH   4   7
ATOM      7  C   UNL A   1      33.782  22.938  25.296  1.00  0.00     0.184 C 
BRANCH   7   8
ATOM      8  C   UNL A   1      32.551  22.153  25.939  1.00  0.00     0.018 C 
ATOM      9  C   UNL A   1      31.153  22.662  25.593  1.00  0.00     0.010 C 
BRANCH   8  10
ATOM     10  C   UNL A   1      32.725  22.081  27.477  1.00  0.00     0.002 C 
ATOM     11  C   UNL A   1      34.064  22.535  28.039  1.00  0.00     0.004 C 
ENDBRANCH   8  10
ENDBRANCH   7   8
BRANCH   7  12
ATOM     12  N   UNL A   1      33.373  23.936  24.252  1.00  0.00    -0.280 N 
ATOM     13  C   UNL A   1      32.933  25.206  24.606  1.00  0.00     0.266 C 
ATOM     14  C   UNL A   1      32.918  23.641  22.990  1.00  0.00     0.149 C 
ATOM     15  O   UNL A   1      32.408  25.506  25.668  1.00  0.00    -0.268 OA
ATOM     16  C   UNL A   1      32.927  26.094  23.404  1.00  0.00     0.081 C 
ATOM     17  S   UNL A   1      32.980  25.100  21.998  1.00  0.00    -0.054 SA
ATOM     18  S   UNL A   1      32.233  22.228  22.416  1.00  0.00    -0.052 S 
ATOM     19  C   UNL A   1      32.814  27.427  23.365  1.00  0.00     0.031 C 
BRANCH  19  20
ATOM     20  C   UNL A   1      32.684  28.287  24.487  1.00  0.00    -0.007 A 
ATOM     21  C   UNL A   1      31.519  28.914  24.991  1.00  0.00     0.027 A 
ATOM     22  C   UNL A   1      33.745  28.677  25.276  1.00  0.00     0.093 A 
ATOM     23  C   UNL A   1      31.911  29.699  26.055  1.00  0.00     0.086 A 
ATOM     24  N   UNL A   1      33.269  29.579  26.189  1.00  0.00    -0.357 N 
ATOM     25  C   UNL A   1      34.077  30.337  27.114  1.00  0.00     0.149 C 
ENDBRANCH  19  20
ENDBRANCH   7  12
ENDBRANCH   4   7
ENDBRANCH   2   3
ENDBRANCH   1   2
BRANCH   1  26
ATOM     26  C   UNL A   1      38.295  24.271  26.307  1.00  0.00     0.118 C 
BRANCH  26  27
ATOM     27  N   UNL A   1      39.715  24.218  26.005  1.00  0.00    -0.352 N 
ATOM     28  C   UNL A   1      40.744  25.017  26.442  1.00  0.00     0.251 C 
ATOM     29  H   UNL A   1      39.982  23.496  25.392  1.00  0.00     0.163 HD
ATOM     30  O   UNL A   1      41.830  24.944  25.869  1.00  0.00    -0.269 OA
BRANCH  28  31
ATOM     31  C   UNL A   1      40.578  25.966  27.575  1.00  0.00     0.039 A 
ATOM     32  C   UNL A   1      41.460  27.050  27.671  1.00  0.00     0.014 A 
ATOM     33  C   UNL A   1      39.642  25.758  28.592  1.00  0.00     0.014 A 
ATOM     34  C   UNL A   1      41.384  27.932  28.756  1.00  0.00     0.010 A 
ATOM     35  C   UNL A   1      39.529  26.672  29.647  1.00  0.00     0.010 A 
ATOM     36  C   UNL A   1      40.409  27.760  29.751  1.00  0.00    -0.014 A 
BRANCH  36  37
ATOM     37  C   UNL A   1      40.322  28.691  30.912  1.00  0.00     0.031 A 
ATOM     38  C   UNL A   1      39.289  29.790  30.933  1.00  0.00     0.074 A 
ATOM     39  C   UNL A   1      41.201  28.586  31.930  1.00  0.00     0.049 A 
ATOM     40  N   UNL A   1      39.103  30.732  31.825  1.00  0.00    -0.248 NA
ATOM     41  C   UNL A   1      38.360  29.853  29.794  1.00  0.00     0.031 C 
ATOM     42  C   UNL A   1      42.282  27.604  32.017  1.00  0.00     0.029 A 
ATOM     43  N   UNL A   1      41.332  29.326  33.080  1.00  0.00    -0.354 N 
ATOM     44  C   UNL A   1      38.063  31.517  31.339  1.00  0.00     0.074 A 
ATOM     45  C   UNL A   1      37.671  30.954  30.065  1.00  0.00     0.031 C 
ATOM     46  C   UNL A   1      42.965  27.801  33.157  1.00  0.00     0.029 A 
ATOM     47  C   UNL A   1      42.386  28.935  33.872  1.00  0.00     0.049 A 
ATOM     48  H   UNL A   1      40.728  30.067  33.315  1.00  0.00     0.167 HD
ATOM     49  C   UNL A   1      37.476  32.598  31.909  1.00  0.00     0.037 A 
ATOM     50  C   UNL A   1      42.843  29.436  35.037  1.00  0.00     0.037 A 
ATOM     51  C   UNL A   1      37.818  33.124  33.205  1.00  0.00     0.049 A 
ATOM     52  C   UNL A   1      42.137  30.601  35.677  1.00  0.00     0.074 A 
ATOM     53  C   UNL A   1      37.211  34.156  33.900  1.00  0.00     0.029 A 
ATOM     54  N   UNL A   1      38.855  32.663  34.000  1.00  0.00    -0.354 N 
ATOM     55  N   UNL A   1      41.106  31.279  35.236  1.00  0.00    -0.248 NA
ATOM     56  C   UNL A   1      42.651  31.062  36.975  1.00  0.00     0.031 C 
ATOM     57  C   UNL A   1      37.897  34.335  35.107  1.00  0.00     0.029 A 
ATOM     58  C   UNL A   1      38.913  33.396  35.174  1.00  0.00     0.049 A 
ATOM     59  H   UNL A   1      39.460  31.922  33.766  1.00  0.00     0.167 HD
ATOM     60  C   UNL A   1      40.835  32.233  36.213  1.00  0.00     0.074 A 
ATOM     61  C   UNL A   1      41.802  32.037  37.271  1.00  0.00     0.031 C 
ATOM     62  C   UNL A   1      39.872  33.186  36.227  1.00  0.00     0.037 A 
BRANCH  49  63
ATOM     63  C   UNL A   1      36.386  33.289  31.140  1.00  0.00     0.058 A 
ATOM     64  C   UNL A   1      35.042  33.205  31.532  1.00  0.00     0.135 A 
ATOM     65  C   UNL A   1      36.700  34.099  30.036  1.00  0.00     0.135 A 
ATOM     66  F   UNL A   1      34.688  32.435  32.573  1.00  0.00    -0.206 F 
ATOM     67  C   UNL A   1      34.042  33.885  30.844  1.00  0.00     0.059 A 
ATOM     68  C   UNL A   1      35.718  34.805  29.347  1.00  0.00     0.059 A 
ATOM     69  F   UNL A   1      37.972  34.214  29.622  1.00  0.00    -0.206 F 
ATOM     70  C   UNL A   1      34.390  34.683  29.752  1.00  0.00     0.060 A 
BRANCH  70  71
ATOM     71  S   UNL A   1      33.086  35.577  28.881  1.00  0.00     0.124 S 
ATOM     72  O   UNL A   1      32.319  36.129  29.994  1.00  0.00    -0.237 OA
ATOM     73  O   UNL A   1      33.840  36.545  28.091  1.00  0.00    -0.237 OA
ATOM     74  O   UNL A   1      32.415  34.534  28.112  1.00  0.00    -0.744 OA
ENDBRANCH  70  71
ENDBRANCH  49  63
BRANCH  50  75
ATOM     75  C   UNL A   1      44.034  28.832  35.689  1.00  0.00     0.058 A 
ATOM     76  C   UNL A   1      43.901  27.785  36.611  1.00  0.00     0.135 A 
ATOM     77  C   UNL A   1      45.327  29.297  35.406  1.00  0.00     0.135 A 
ATOM     78  F   UNL A   1      42.683  27.314  36.918  1.00  0.00    -0.206 F 
ATOM     79  C   UNL A   1      45.005  27.231  37.247  1.00  0.00     0.059 A 
ATOM     80  C   UNL A   1      46.450  28.745  36.014  1.00  0.00     0.059 A 
ATOM     81  F   UNL A   1      45.507  30.287  34.518  1.00  0.00    -0.206 F 
ATOM     82  C   UNL A   1      46.278  27.720  36.944  1.00  0.00     0.060 A 
BRANCH  82  83
ATOM     83  S   UNL A   1      47.715  26.971  37.740  1.00  0.00     0.124 S 
ATOM     84  O   UNL A   1      47.939  25.802  36.898  1.00  0.00    -0.237 OA
ATOM     85  O   UNL A   1      48.715  28.031  37.642  1.00  0.00    -0.237 OA
ATOM     86  O   UNL A   1      47.239  26.696  39.093  1.00  0.00    -0.744 OA
ENDBRANCH  82  83
ENDBRANCH  50  75
BRANCH  62  87
ATOM     87  C   UNL A   1      39.792  34.072  37.437  1.00  0.00     0.058 A 
ATOM     88  C   UNL A   1      40.420  35.326  37.470  1.00  0.00     0.135 A 
ATOM     89  C   UNL A   1      39.041  33.683  38.557  1.00  0.00     0.135 A 
ATOM     90  F   UNL A   1      41.155  35.740  36.425  1.00  0.00    -0.206 F 
ATOM     91  C   UNL A   1      40.322  36.158  38.579  1.00  0.00     0.059 A 
ATOM     92  C   UNL A   1      38.913  34.506  39.671  1.00  0.00     0.059 A 
ATOM     93  F   UNL A   1      38.414  32.496  38.571  1.00  0.00    -0.206 F 
ATOM     94  C   UNL A   1      39.567  35.739  39.678  1.00  0.00     0.060 A 
BRANCH  94  95
ATOM     95  S   UNL A   1      39.416  36.838  41.102  1.00  0.00     0.124 S 
ATOM     96  O   UNL A   1      38.563  36.052  41.988  1.00  0.00    -0.237 OA
ATOM     97  O   UNL A   1      40.802  36.994  41.532  1.00  0.00    -0.237 OA
ATOM     98  O   UNL A   1      38.803  38.037  40.540  1.00  0.00    -0.744 OA
ENDBRANCH  94  95
ENDBRANCH  62  87
ENDBRANCH  36  37
ENDBRANCH  28  31
ENDBRANCH  26  27
ENDBRANCH   1  26
TORSDOF 17
ENDMDL
