MODEL 1
REMARK VINA RESULT:     -13.1      0.000      0.000
REMARK SMILES O=C(NCCCNC(=O)[C@H]1Cc2[nH]cnc2CN1C(=O)NCc1nc[nH]n1)c1ccc(-c2c3nc(c(-c4c(F)cc(S(=O)(=O)[O-])cc4F)c4ccc([nH]4)c(-c4c(F)cc(S(=O)(=O)[O-])cc4F)c4nc(c(-c5c(F)cc(S(=O)(=O)[O-])cc5F)c5ccc2[nH]5)C=C4)C=C3)cc1
REMARK SMILES IDX 5 1 4 2 3 3 1 4 2 5 28 7 29 8 93 9 30 10 92 11 31 12 32 13
REMARK SMILES IDX 33 14 86 15 34 16 91 17 85 18 87 19 35 20 90 21 84 22 83 23
REMARK SMILES IDX 36 25 70 26 49 27 69 28 50 29 53 30 68 31 88 32 51 33 52 34
REMARK SMILES IDX 67 36 89 37 54 38 37 39 38 40 47 41 39 42 40 43 46 44 48 45
REMARK SMILES IDX 41 46 42 47 43 48 44 49 45 50 71 51 72 52 81 53 73 54 74 55
REMARK SMILES IDX 80 56 82 57 75 58 76 59 77 60 78 61 79 62 55 63 56 64 65 65
REMARK SMILES IDX 57 66 58 67 64 68 66 69 59 70 60 71 61 72 62 73 63 74 6 75
REMARK SMILES IDX 7 76 8 77 9 79 10 80 11 81 18 82 12 83 17 84 13 85 16 86
REMARK SMILES IDX 14 87 15 89 19 90 20 91 21 92 22 94 23 95 24 96 27 97 25 98
REMARK SMILES IDX 26 99
REMARK H PARENT 3 6 87 24 53 35 7 78 13 88 21 93 26 100
REMARK Flexibility Score: inf
ROOT
ATOM      1  C   UNL A   1      32.093  29.474  26.987  1.00  0.00     0.042 C 
ENDROOT
BRANCH   1   2
ATOM      2  C   UNL A   1      33.352  30.316  26.848  1.00  0.00     0.118 C 
BRANCH   2   3
ATOM      3  N   UNL A   1      33.398  31.548  27.613  1.00  0.00    -0.352 N 
ATOM      4  O   UNL A   1      34.150  33.262  28.839  1.00  0.00    -0.269 OA
ATOM      5  C   UNL A   1      34.400  32.185  28.297  1.00  0.00     0.251 C 
ATOM      6  H   UNL A   1      32.535  32.022  27.649  1.00  0.00     0.163 HD
BRANCH   5   7
ATOM      7  C   UNL A   1      35.743  31.582  28.457  1.00  0.00     0.039 A 
ATOM      8  C   UNL A   1      36.852  32.309  28.882  1.00  0.00     0.014 A 
ATOM      9  C   UNL A   1      35.872  30.207  28.211  1.00  0.00     0.014 A 
ATOM     10  C   UNL A   1      38.104  31.710  28.912  1.00  0.00     0.010 A 
ATOM     11  C   UNL A   1      37.118  29.587  28.297  1.00  0.00     0.010 A 
ATOM     12  C   UNL A   1      38.242  30.349  28.613  1.00  0.00    -0.014 A 
BRANCH  12  13
ATOM     13  C   UNL A   1      39.560  29.757  28.845  1.00  0.00     0.031 A 
ATOM     14  C   UNL A   1      39.960  29.683  30.281  1.00  0.00     0.074 A 
ATOM     15  C   UNL A   1      40.350  29.200  27.908  1.00  0.00     0.049 A 
ATOM     16  N   UNL A   1      40.924  30.305  30.876  1.00  0.00    -0.248 NA
ATOM     17  C   UNL A   1      39.103  28.903  31.185  1.00  0.00     0.031 C 
ATOM     18  C   UNL A   1      40.027  28.892  26.515  1.00  0.00     0.029 A 
ATOM     19  N   UNL A   1      41.612  28.701  28.053  1.00  0.00    -0.354 N 
ATOM     20  C   UNL A   1      40.918  29.856  32.196  1.00  0.00     0.074 A 
ATOM     21  C   UNL A   1      39.699  29.107  32.361  1.00  0.00     0.031 C 
ATOM     22  C   UNL A   1      40.978  28.073  26.011  1.00  0.00     0.029 A 
ATOM     23  C   UNL A   1      42.038  27.908  26.995  1.00  0.00     0.049 A 
ATOM     24  H   UNL A   1      42.174  28.888  28.839  1.00  0.00     0.167 HD
ATOM     25  C   UNL A   1      42.006  29.973  33.007  1.00  0.00     0.037 A 
ATOM     26  C   UNL A   1      43.145  27.124  26.963  1.00  0.00     0.037 A 
ATOM     27  C   UNL A   1      42.960  30.915  32.488  1.00  0.00     0.049 A 
ATOM     28  C   UNL A   1      44.086  27.627  27.997  1.00  0.00     0.074 A 
ATOM     29  C   UNL A   1      42.933  32.261  32.176  1.00  0.00     0.029 A 
ATOM     30  N   UNL A   1      44.097  30.419  31.899  1.00  0.00    -0.354 N 
ATOM     31  N   UNL A   1      44.716  28.765  27.929  1.00  0.00    -0.248 NA
ATOM     32  C   UNL A   1      44.040  27.022  29.321  1.00  0.00     0.031 C 
ATOM     33  C   UNL A   1      43.775  32.394  31.034  1.00  0.00     0.029 A 
ATOM     34  C   UNL A   1      44.292  31.130  30.744  1.00  0.00     0.049 A 
ATOM     35  H   UNL A   1      44.663  29.691  32.241  1.00  0.00     0.167 HD
ATOM     36  C   UNL A   1      44.770  29.221  29.237  1.00  0.00     0.074 A 
ATOM     37  C   UNL A   1      44.442  28.060  30.056  1.00  0.00     0.031 C 
ATOM     38  C   UNL A   1      44.807  30.557  29.521  1.00  0.00     0.037 A 
BRANCH  25  39
ATOM     39  C   UNL A   1      42.368  28.996  34.101  1.00  0.00     0.058 A 
ATOM     40  C   UNL A   1      42.496  27.624  33.796  1.00  0.00     0.135 A 
ATOM     41  C   UNL A   1      42.307  29.311  35.476  1.00  0.00     0.135 A 
ATOM     42  F   UNL A   1      42.555  27.209  32.521  1.00  0.00    -0.206 F 
ATOM     43  C   UNL A   1      42.482  26.634  34.780  1.00  0.00     0.059 A 
ATOM     44  C   UNL A   1      42.348  28.344  36.476  1.00  0.00     0.059 A 
ATOM     45  F   UNL A   1      42.100  30.560  35.912  1.00  0.00    -0.206 F 
ATOM     46  C   UNL A   1      42.389  27.007  36.118  1.00  0.00     0.060 A 
BRANCH  46  47
ATOM     47  S   UNL A   1      42.251  25.733  37.383  1.00  0.00     0.124 S 
ATOM     48  O   UNL A   1      40.829  25.792  37.699  1.00  0.00    -0.237 OA
ATOM     49  O   UNL A   1      42.699  24.542  36.669  1.00  0.00    -0.237 OA
ATOM     50  O   UNL A   1      43.153  26.203  38.431  1.00  0.00    -0.744 OA
ENDBRANCH  46  47
ENDBRANCH  25  39
BRANCH  26  51
ATOM     51  C   UNL A   1      43.326  25.802  26.306  1.00  0.00     0.058 A 
ATOM     52  C   UNL A   1      44.390  25.574  25.414  1.00  0.00     0.135 A 
ATOM     53  C   UNL A   1      42.638  24.659  26.758  1.00  0.00     0.135 A 
ATOM     54  F   UNL A   1      45.116  26.601  24.948  1.00  0.00    -0.206 F 
ATOM     55  C   UNL A   1      44.785  24.284  25.040  1.00  0.00     0.059 A 
ATOM     56  C   UNL A   1      43.005  23.366  26.386  1.00  0.00     0.059 A 
ATOM     57  F   UNL A   1      41.646  24.755  27.655  1.00  0.00    -0.206 F 
ATOM     58  C   UNL A   1      44.099  23.184  25.550  1.00  0.00     0.060 A 
BRANCH  58  59
ATOM     59  S   UNL A   1      44.720  21.518  25.227  1.00  0.00     0.124 S 
ATOM     60  O   UNL A   1      46.082  21.598  25.744  1.00  0.00    -0.237 OA
ATOM     61  O   UNL A   1      43.795  20.689  25.992  1.00  0.00    -0.237 OA
ATOM     62  O   UNL A   1      44.610  21.390  23.776  1.00  0.00    -0.744 OA
ENDBRANCH  58  59
ENDBRANCH  26  51
BRANCH  38  63
ATOM     63  C   UNL A   1      45.166  31.516  28.420  1.00  0.00     0.058 A 
ATOM     64  C   UNL A   1      44.295  31.914  27.389  1.00  0.00     0.135 A 
ATOM     65  C   UNL A   1      46.407  32.169  28.501  1.00  0.00     0.135 A 
ATOM     66  F   UNL A   1      43.052  31.420  27.305  1.00  0.00    -0.206 F 
ATOM     67  C   UNL A   1      44.665  32.883  26.455  1.00  0.00     0.059 A 
ATOM     68  C   UNL A   1      46.780  33.162  27.600  1.00  0.00     0.059 A 
ATOM     69  F   UNL A   1      47.258  31.877  29.499  1.00  0.00    -0.206 F 
ATOM     70  C   UNL A   1      45.909  33.502  26.569  1.00  0.00     0.060 A 
BRANCH  70  71
ATOM     71  S   UNL A   1      46.359  34.810  25.406  1.00  0.00     0.124 S 
ATOM     72  O   UNL A   1      47.791  34.569  25.218  1.00  0.00    -0.237 OA
ATOM     73  O   UNL A   1      45.515  34.507  24.248  1.00  0.00    -0.237 OA
ATOM     74  O   UNL A   1      46.019  36.031  26.112  1.00  0.00    -0.744 OA
ENDBRANCH  70  71
ENDBRANCH  38  63
ENDBRANCH  12  13
ENDBRANCH   5   7
ENDBRANCH   2   3
ENDBRANCH   1   2
BRANCH   1  75
ATOM     75  C   UNL A   1      32.209  27.946  27.101  1.00  0.00     0.117 C 
BRANCH  75  76
ATOM     76  N   UNL A   1      33.046  27.209  26.162  1.00  0.00    -0.354 N 
ATOM     77  C   UNL A   1      33.129  27.223  24.794  1.00  0.00     0.243 C 
ATOM     78  H   UNL A   1      33.672  26.582  26.594  1.00  0.00     0.163 HD
ATOM     79  O   UNL A   1      34.191  26.889  24.259  1.00  0.00    -0.273 OA
BRANCH  77  80
ATOM     80  C   UNL A   1      31.973  27.754  23.956  1.00  0.00     0.182 C 
ATOM     81  C   UNL A   1      32.241  28.886  22.913  1.00  0.00     0.091 C 
ATOM     82  N   UNL A   1      31.123  26.732  23.322  1.00  0.00    -0.306 N 
ATOM     83  C   UNL A   1      30.890  29.292  22.398  1.00  0.00     0.042 A 
ATOM     84  C   UNL A   1      29.706  27.182  23.210  1.00  0.00     0.180 C 
ATOM     85  N   UNL A   1      30.512  30.404  21.708  1.00  0.00    -0.348 N 
ATOM     86  C   UNL A   1      29.740  28.534  22.542  1.00  0.00     0.081 A 
ATOM     87  C   UNL A   1      29.149  30.333  21.566  1.00  0.00     0.197 A 
ATOM     88  H   UNL A   1      31.101  31.120  21.376  1.00  0.00     0.167 HD
ATOM     89  N   UNL A   1      28.658  29.219  22.063  1.00  0.00    -0.240 NA
BRANCH  82  90
ATOM     90  C   UNL A   1      31.514  25.654  22.582  1.00  0.00     0.318 C 
ATOM     91  O   UNL A   1      31.724  25.759  21.369  1.00  0.00    -0.249 OA
ATOM     92  N   UNL A   1      31.579  24.389  23.043  1.00  0.00    -0.331 N 
ATOM     93  H   UNL A   1      31.297  23.743  22.355  1.00  0.00     0.165 HD
BRANCH  92  94
ATOM     94  C   UNL A   1      31.955  23.710  24.285  1.00  0.00     0.197 C 
BRANCH  94  95
ATOM     95  C   UNL A   1      30.930  23.708  25.401  1.00  0.00     0.169 A 
ATOM     96  N   UNL A   1      30.580  22.526  26.024  1.00  0.00    -0.218 NA
ATOM     97  N   UNL A   1      30.342  24.786  25.951  1.00  0.00    -0.157 NA
ATOM     98  C   UNL A   1      29.813  22.911  27.016  1.00  0.00     0.216 A 
ATOM     99  N   UNL A   1      29.668  24.256  26.983  1.00  0.00    -0.266 N 
ATOM    100  H   UNL A   1      29.140  24.777  27.629  1.00  0.00     0.191 HD
ENDBRANCH  94  95
ENDBRANCH  92  94
ENDBRANCH  82  90
ENDBRANCH  77  80
ENDBRANCH  75  76
ENDBRANCH   1  75
TORSDOF 16
ENDMDL
MODEL 2
REMARK VINA RESULT:     -13.0      3.052      9.549
REMARK SMILES O=C(NCCCNC(=O)[C@H]1Cc2[nH]cnc2CN1C(=O)NCc1nc[nH]n1)c1ccc(-c2c3nc(c(-c4c(F)cc(S(=O)(=O)[O-])cc4F)c4ccc([nH]4)c(-c4c(F)cc(S(=O)(=O)[O-])cc4F)c4nc(c(-c5c(F)cc(S(=O)(=O)[O-])cc5F)c5ccc2[nH]5)C=C4)C=C3)cc1
REMARK SMILES IDX 5 1 4 2 3 3 1 4 2 5 28 7 29 8 93 9 30 10 92 11 31 12 32 13
REMARK SMILES IDX 33 14 86 15 34 16 91 17 85 18 87 19 35 20 90 21 84 22 83 23
REMARK SMILES IDX 36 25 70 26 49 27 69 28 50 29 53 30 68 31 88 32 51 33 52 34
REMARK SMILES IDX 67 36 89 37 54 38 37 39 38 40 47 41 39 42 40 43 46 44 48 45
REMARK SMILES IDX 41 46 42 47 43 48 44 49 45 50 71 51 72 52 81 53 73 54 74 55
REMARK SMILES IDX 80 56 82 57 75 58 76 59 77 60 78 61 79 62 55 63 56 64 65 65
REMARK SMILES IDX 57 66 58 67 64 68 66 69 59 70 60 71 61 72 62 73 63 74 6 75
REMARK SMILES IDX 7 76 8 77 9 79 10 80 11 81 18 82 12 83 17 84 13 85 16 86
REMARK SMILES IDX 14 87 15 89 19 90 20 91 21 92 22 94 23 95 24 96 27 97 25 98
REMARK SMILES IDX 26 99
REMARK H PARENT 3 6 87 24 53 35 7 78 13 88 21 93 26 100
REMARK Flexibility Score: inf
ROOT
ATOM      1  C   UNL A   1      37.039  22.558  23.920  1.00  0.00     0.042 C 
ENDROOT
BRANCH   1   2
ATOM      2  C   UNL A   1      37.522  22.453  25.358  1.00  0.00     0.118 C 
BRANCH   2   3
ATOM      3  N   UNL A   1      38.744  21.702  25.580  1.00  0.00    -0.352 N 
ATOM      4  O   UNL A   1      40.773  21.115  26.316  1.00  0.00    -0.269 OA
ATOM      5  C   UNL A   1      39.894  21.976  26.273  1.00  0.00     0.251 C 
ATOM      6  H   UNL A   1      38.749  20.819  25.144  1.00  0.00     0.163 HD
BRANCH   5   7
ATOM      7  C   UNL A   1      40.131  23.293  26.906  1.00  0.00     0.039 A 
ATOM      8  C   UNL A   1      39.257  24.369  26.764  1.00  0.00     0.014 A 
ATOM      9  C   UNL A   1      41.266  23.429  27.719  1.00  0.00     0.014 A 
ATOM     10  C   UNL A   1      39.589  25.607  27.297  1.00  0.00     0.010 A 
ATOM     11  C   UNL A   1      41.573  24.655  28.307  1.00  0.00     0.010 A 
ATOM     12  C   UNL A   1      40.751  25.756  28.064  1.00  0.00    -0.014 A 
BRANCH  12  13
ATOM     13  C   UNL A   1      40.932  27.042  28.738  1.00  0.00     0.031 A 
ATOM     14  C   UNL A   1      42.042  27.876  28.191  1.00  0.00     0.074 A 
ATOM     15  C   UNL A   1      40.135  27.548  29.698  1.00  0.00     0.049 A 
ATOM     16  N   UNL A   1      43.142  28.225  28.772  1.00  0.00    -0.248 NA
ATOM     17  C   UNL A   1      41.959  28.273  26.778  1.00  0.00     0.031 C 
ATOM     18  C   UNL A   1      38.839  27.048  30.157  1.00  0.00     0.029 A 
ATOM     19  N   UNL A   1      40.294  28.701  30.410  1.00  0.00    -0.354 N 
ATOM     20  C   UNL A   1      43.815  29.045  27.867  1.00  0.00     0.074 A 
ATOM     21  C   UNL A   1      43.112  28.925  26.616  1.00  0.00     0.031 C 
ATOM     22  C   UNL A   1      38.239  28.000  30.908  1.00  0.00     0.029 A 
ATOM     23  C   UNL A   1      39.156  29.115  31.090  1.00  0.00     0.049 A 
ATOM     24  H   UNL A   1      41.144  29.197  30.440  1.00  0.00     0.167 HD
ATOM     25  C   UNL A   1      44.792  29.909  28.258  1.00  0.00     0.037 A 
ATOM     26  C   UNL A   1      38.965  30.313  31.696  1.00  0.00     0.037 A 
ATOM     27  C   UNL A   1      45.283  29.600  29.575  1.00  0.00     0.049 A 
ATOM     28  C   UNL A   1      40.301  30.901  31.970  1.00  0.00     0.074 A 
ATOM     29  C   UNL A   1      45.890  28.505  30.158  1.00  0.00     0.029 A 
ATOM     30  N   UNL A   1      44.876  30.399  30.615  1.00  0.00    -0.354 N 
ATOM     31  N   UNL A   1      41.147  30.434  32.844  1.00  0.00    -0.248 NA
ATOM     32  C   UNL A   1      40.868  31.810  30.984  1.00  0.00     0.031 C 
ATOM     33  C   UNL A   1      45.391  28.471  31.492  1.00  0.00     0.029 A 
ATOM     34  C   UNL A   1      44.541  29.566  31.651  1.00  0.00     0.049 A 
ATOM     35  H   UNL A   1      44.833  31.382  30.616  1.00  0.00     0.167 HD
ATOM     36  C   UNL A   1      42.395  30.637  32.277  1.00  0.00     0.074 A 
ATOM     37  C   UNL A   1      42.167  31.585  31.191  1.00  0.00     0.031 C 
ATOM     38  C   UNL A   1      43.447  29.814  32.562  1.00  0.00     0.037 A 
BRANCH  25  39
ATOM     39  C   UNL A   1      45.079  31.236  27.595  1.00  0.00     0.058 A 
ATOM     40  C   UNL A   1      46.333  31.454  26.986  1.00  0.00     0.135 A 
ATOM     41  C   UNL A   1      44.287  32.389  27.789  1.00  0.00     0.135 A 
ATOM     42  F   UNL A   1      47.172  30.430  26.760  1.00  0.00    -0.206 F 
ATOM     43  C   UNL A   1      46.798  32.731  26.668  1.00  0.00     0.059 A 
ATOM     44  C   UNL A   1      44.708  33.665  27.428  1.00  0.00     0.059 A 
ATOM     45  F   UNL A   1      43.113  32.346  28.431  1.00  0.00    -0.206 F 
ATOM     46  C   UNL A   1      45.982  33.832  26.911  1.00  0.00     0.060 A 
BRANCH  46  47
ATOM     47  S   UNL A   1      46.622  35.490  26.614  1.00  0.00     0.124 S 
ATOM     48  O   UNL A   1      47.361  35.296  25.373  1.00  0.00    -0.237 OA
ATOM     49  O   UNL A   1      45.397  36.276  26.515  1.00  0.00    -0.237 OA
ATOM     50  O   UNL A   1      47.433  35.752  27.800  1.00  0.00    -0.744 OA
ENDBRANCH  46  47
ENDBRANCH  25  39
BRANCH  26  51
ATOM     51  C   UNL A   1      37.715  31.114  31.794  1.00  0.00     0.058 A 
ATOM     52  C   UNL A   1      37.156  31.439  33.044  1.00  0.00     0.135 A 
ATOM     53  C   UNL A   1      37.207  31.818  30.685  1.00  0.00     0.135 A 
ATOM     54  F   UNL A   1      37.592  30.835  34.159  1.00  0.00    -0.206 F 
ATOM     55  C   UNL A   1      36.193  32.444  33.191  1.00  0.00     0.059 A 
ATOM     56  C   UNL A   1      36.237  32.812  30.806  1.00  0.00     0.059 A 
ATOM     57  F   UNL A   1      37.707  31.631  29.455  1.00  0.00    -0.206 F 
ATOM     58  C   UNL A   1      35.756  33.141  32.067  1.00  0.00     0.060 A 
BRANCH  58  59
ATOM     59  S   UNL A   1      34.661  34.565  32.272  1.00  0.00     0.124 S 
ATOM     60  O   UNL A   1      33.538  33.981  32.997  1.00  0.00    -0.237 OA
ATOM     61  O   UNL A   1      35.497  35.491  33.028  1.00  0.00    -0.237 OA
ATOM     62  O   UNL A   1      34.374  34.972  30.899  1.00  0.00    -0.744 OA
ENDBRANCH  58  59
ENDBRANCH  26  51
BRANCH  38  63
ATOM     63  C   UNL A   1      43.353  28.920  33.769  1.00  0.00     0.058 A 
ATOM     64  C   UNL A   1      43.737  29.290  35.071  1.00  0.00     0.135 A 
ATOM     65  C   UNL A   1      42.711  27.681  33.616  1.00  0.00     0.135 A 
ATOM     66  F   UNL A   1      44.257  30.500  35.321  1.00  0.00    -0.206 F 
ATOM     67  C   UNL A   1      43.533  28.441  36.160  1.00  0.00     0.059 A 
ATOM     68  C   UNL A   1      42.467  26.836  34.694  1.00  0.00     0.059 A 
ATOM     69  F   UNL A   1      42.266  27.297  32.407  1.00  0.00    -0.206 F 
ATOM     70  C   UNL A   1      42.896  27.217  35.962  1.00  0.00     0.060 A 
BRANCH  70  71
ATOM     71  S   UNL A   1      42.563  26.151  37.382  1.00  0.00     0.124 S 
ATOM     72  O   UNL A   1      41.145  26.413  37.633  1.00  0.00    -0.237 OA
ATOM     73  O   UNL A   1      42.869  24.819  36.855  1.00  0.00    -0.237 OA
ATOM     74  O   UNL A   1      43.477  26.634  38.400  1.00  0.00    -0.744 OA
ENDBRANCH  70  71
ENDBRANCH  38  63
ENDBRANCH  12  13
ENDBRANCH   5   7
ENDBRANCH   2   3
ENDBRANCH   1   2
BRANCH   1  75
ATOM     75  C   UNL A   1      35.811  23.422  23.591  1.00  0.00     0.117 C 
BRANCH  75  76
ATOM     76  N   UNL A   1      35.013  23.991  24.671  1.00  0.00    -0.354 N 
ATOM     77  C   UNL A   1      34.170  23.423  25.591  1.00  0.00     0.243 C 
ATOM     78  H   UNL A   1      35.097  24.968  24.756  1.00  0.00     0.163 HD
ATOM     79  O   UNL A   1      33.985  24.004  26.665  1.00  0.00    -0.273 OA
BRANCH  77  80
ATOM     80  C   UNL A   1      33.567  22.047  25.340  1.00  0.00     0.182 C 
ATOM     81  C   UNL A   1      33.447  21.037  26.526  1.00  0.00     0.091 C 
ATOM     82  N   UNL A   1      32.299  22.034  24.590  1.00  0.00    -0.306 N 
ATOM     83  C   UNL A   1      32.986  19.746  25.914  1.00  0.00     0.042 A 
ATOM     84  C   UNL A   1      32.169  20.813  23.745  1.00  0.00     0.180 C 
ATOM     85  N   UNL A   1      32.998  18.481  26.421  1.00  0.00    -0.348 N 
ATOM     86  C   UNL A   1      32.422  19.635  24.654  1.00  0.00     0.081 A 
ATOM     87  C   UNL A   1      32.556  17.652  25.421  1.00  0.00     0.197 A 
ATOM     88  H   UNL A   1      33.270  18.213  27.329  1.00  0.00     0.167 HD
ATOM     89  N   UNL A   1      32.207  18.322  24.343  1.00  0.00    -0.240 NA
BRANCH  82  90
ATOM     90  C   UNL A   1      31.177  22.777  24.820  1.00  0.00     0.318 C 
ATOM     91  O   UNL A   1      30.454  22.549  25.795  1.00  0.00    -0.249 OA
ATOM     92  N   UNL A   1      30.687  23.707  23.976  1.00  0.00    -0.331 N 
ATOM     93  H   UNL A   1      29.702  23.697  23.968  1.00  0.00     0.165 HD
BRANCH  92  94
ATOM     94  C   UNL A   1      31.214  24.728  23.070  1.00  0.00     0.197 C 
BRANCH  94  95
ATOM     95  C   UNL A   1      32.079  25.810  23.687  1.00  0.00     0.169 A 
ATOM     96  N   UNL A   1      31.797  26.292  24.950  1.00  0.00    -0.218 NA
ATOM     97  N   UNL A   1      33.201  26.334  23.162  1.00  0.00    -0.157 NA
ATOM     98  C   UNL A   1      32.814  27.077  25.218  1.00  0.00     0.216 A 
ATOM     99  N   UNL A   1      33.658  27.106  24.160  1.00  0.00    -0.266 N 
ATOM    100  H   UNL A   1      34.494  27.623  24.127  1.00  0.00     0.191 HD
ENDBRANCH  94  95
ENDBRANCH  92  94
ENDBRANCH  82  90
ENDBRANCH  77  80
ENDBRANCH  75  76
ENDBRANCH   1  75
TORSDOF 16
ENDMDL
MODEL 3
REMARK VINA RESULT:     -12.9      2.048      3.483
REMARK SMILES O=C(NCCCNC(=O)[C@H]1Cc2[nH]cnc2CN1C(=O)NCc1nc[nH]n1)c1ccc(-c2c3nc(c(-c4c(F)cc(S(=O)(=O)[O-])cc4F)c4ccc([nH]4)c(-c4c(F)cc(S(=O)(=O)[O-])cc4F)c4nc(c(-c5c(F)cc(S(=O)(=O)[O-])cc5F)c5ccc2[nH]5)C=C4)C=C3)cc1
REMARK SMILES IDX 5 1 4 2 3 3 1 4 2 5 28 7 29 8 93 9 30 10 92 11 31 12 32 13
REMARK SMILES IDX 33 14 86 15 34 16 91 17 85 18 87 19 35 20 90 21 84 22 83 23
REMARK SMILES IDX 36 25 70 26 49 27 69 28 50 29 53 30 68 31 88 32 51 33 52 34
REMARK SMILES IDX 67 36 89 37 54 38 37 39 38 40 47 41 39 42 40 43 46 44 48 45
REMARK SMILES IDX 41 46 42 47 43 48 44 49 45 50 71 51 72 52 81 53 73 54 74 55
REMARK SMILES IDX 80 56 82 57 75 58 76 59 77 60 78 61 79 62 55 63 56 64 65 65
REMARK SMILES IDX 57 66 58 67 64 68 66 69 59 70 60 71 61 72 62 73 63 74 6 75
REMARK SMILES IDX 7 76 8 77 9 79 10 80 11 81 18 82 12 83 17 84 13 85 16 86
REMARK SMILES IDX 14 87 15 89 19 90 20 91 21 92 22 94 23 95 24 96 27 97 25 98
REMARK SMILES IDX 26 99
REMARK H PARENT 3 6 87 24 53 35 7 78 13 88 21 93 26 100
REMARK Flexibility Score: inf
ROOT
ATOM      1  C   UNL A   1      32.773  28.666  27.266  1.00  0.00     0.042 C 
ENDROOT
BRANCH   1   2
ATOM      2  C   UNL A   1      33.650  29.851  26.892  1.00  0.00     0.118 C 
BRANCH   2   3
ATOM      3  N   UNL A   1      33.600  31.002  27.776  1.00  0.00    -0.352 N 
ATOM      4  O   UNL A   1      34.208  32.606  29.211  1.00  0.00    -0.269 OA
ATOM      5  C   UNL A   1      34.532  31.597  28.584  1.00  0.00     0.251 C 
ATOM      6  H   UNL A   1      32.720  31.442  27.801  1.00  0.00     0.163 HD
BRANCH   5   7
ATOM      7  C   UNL A   1      35.884  31.024  28.773  1.00  0.00     0.039 A 
ATOM      8  C   UNL A   1      36.163  29.670  28.600  1.00  0.00     0.014 A 
ATOM      9  C   UNL A   1      36.926  31.907  29.095  1.00  0.00     0.014 A 
ATOM     10  C   UNL A   1      37.428  29.180  28.894  1.00  0.00     0.010 A 
ATOM     11  C   UNL A   1      38.213  31.426  29.333  1.00  0.00     0.010 A 
ATOM     12  C   UNL A   1      38.454  30.054  29.269  1.00  0.00    -0.014 A 
BRANCH  12  13
ATOM     13  C   UNL A   1      39.796  29.481  29.382  1.00  0.00     0.031 A 
ATOM     14  C   UNL A   1      40.247  29.237  30.784  1.00  0.00     0.074 A 
ATOM     15  C   UNL A   1      40.570  29.077  28.358  1.00  0.00     0.049 A 
ATOM     16  N   UNL A   1      41.212  29.809  31.425  1.00  0.00    -0.248 NA
ATOM     17  C   UNL A   1      39.444  28.318  31.604  1.00  0.00     0.031 C 
ATOM     18  C   UNL A   1      40.208  28.939  26.947  1.00  0.00     0.029 A 
ATOM     19  N   UNL A   1      41.850  28.605  28.399  1.00  0.00    -0.354 N 
ATOM     20  C   UNL A   1      41.265  29.194  32.675  1.00  0.00     0.074 A 
ATOM     21  C   UNL A   1      40.074  28.389  32.779  1.00  0.00     0.031 C 
ATOM     22  C   UNL A   1      41.166  28.225  26.313  1.00  0.00     0.029 A 
ATOM     23  C   UNL A   1      42.263  27.970  27.235  1.00  0.00     0.049 A 
ATOM     24  H   UNL A   1      42.433  28.708  29.185  1.00  0.00     0.167 HD
ATOM     25  C   UNL A   1      42.375  29.242  33.462  1.00  0.00     0.037 A 
ATOM     26  C   UNL A   1      43.390  27.234  27.068  1.00  0.00     0.037 A 
ATOM     27  C   UNL A   1      43.283  30.275  33.041  1.00  0.00     0.049 A 
ATOM     28  C   UNL A   1      44.351  27.631  28.130  1.00  0.00     0.074 A 
ATOM     29  C   UNL A   1      43.206  31.647  32.907  1.00  0.00     0.029 A 
ATOM     30  N   UNL A   1      44.413  29.897  32.358  1.00  0.00    -0.354 N 
ATOM     31  N   UNL A   1      44.945  28.789  28.191  1.00  0.00    -0.248 NA
ATOM     32  C   UNL A   1      44.369  26.859  29.364  1.00  0.00     0.031 C 
ATOM     33  C   UNL A   1      44.004  31.954  31.767  1.00  0.00     0.029 A 
ATOM     34  C   UNL A   1      44.548  30.757  31.300  1.00  0.00     0.049 A 
ATOM     35  H   UNL A   1      45.012  29.150  32.587  1.00  0.00     0.167 HD
ATOM     36  C   UNL A   1      45.030  29.075  29.544  1.00  0.00     0.074 A 
ATOM     37  C   UNL A   1      44.764  27.807  30.216  1.00  0.00     0.031 C 
ATOM     38  C   UNL A   1      45.038  30.363  29.998  1.00  0.00     0.037 A 
BRANCH  25  39
ATOM     39  C   UNL A   1      42.803  28.145  34.409  1.00  0.00     0.058 A 
ATOM     40  C   UNL A   1      42.991  28.438  35.776  1.00  0.00     0.135 A 
ATOM     41  C   UNL A   1      43.314  26.901  33.977  1.00  0.00     0.135 A 
ATOM     42  F   UNL A   1      42.554  29.597  36.294  1.00  0.00    -0.206 F 
ATOM     43  C   UNL A   1      43.704  27.595  36.631  1.00  0.00     0.059 A 
ATOM     44  C   UNL A   1      43.977  26.021  34.825  1.00  0.00     0.059 A 
ATOM     45  F   UNL A   1      43.284  26.527  32.691  1.00  0.00    -0.206 F 
ATOM     46  C   UNL A   1      44.208  26.396  36.137  1.00  0.00     0.060 A 
BRANCH  46  47
ATOM     47  S   UNL A   1      45.229  25.361  37.202  1.00  0.00     0.124 S 
ATOM     48  O   UNL A   1      45.589  24.279  36.294  1.00  0.00    -0.237 OA
ATOM     49  O   UNL A   1      46.306  26.273  37.572  1.00  0.00    -0.237 OA
ATOM     50  O   UNL A   1      44.321  25.002  38.288  1.00  0.00    -0.744 OA
ENDBRANCH  46  47
ENDBRANCH  25  39
BRANCH  26  51
ATOM     51  C   UNL A   1      43.588  26.015  26.240  1.00  0.00     0.058 A 
ATOM     52  C   UNL A   1      44.729  25.862  25.431  1.00  0.00     0.135 A 
ATOM     53  C   UNL A   1      42.814  24.856  26.446  1.00  0.00     0.135 A 
ATOM     54  F   UNL A   1      45.537  26.907  25.196  1.00  0.00    -0.206 F 
ATOM     55  C   UNL A   1      45.111  24.622  24.906  1.00  0.00     0.059 A 
ATOM     56  C   UNL A   1      43.167  23.613  25.921  1.00  0.00     0.059 A 
ATOM     57  F   UNL A   1      41.739  24.872  27.247  1.00  0.00    -0.206 F 
ATOM     58  C   UNL A   1      44.334  23.498  25.176  1.00  0.00     0.060 A 
BRANCH  58  59
ATOM     59  S   UNL A   1      44.921  21.866  24.667  1.00  0.00     0.124 S 
ATOM     60  O   UNL A   1      44.149  20.983  25.534  1.00  0.00    -0.237 OA
ATOM     61  O   UNL A   1      44.569  21.838  23.252  1.00  0.00    -0.237 OA
ATOM     62  O   UNL A   1      46.353  21.919  24.947  1.00  0.00    -0.744 OA
ENDBRANCH  58  59
ENDBRANCH  26  51
BRANCH  38  63
ATOM     63  C   UNL A   1      45.330  31.468  29.021  1.00  0.00     0.058 A 
ATOM     64  C   UNL A   1      46.615  31.958  28.726  1.00  0.00     0.135 A 
ATOM     65  C   UNL A   1      44.265  31.951  28.243  1.00  0.00     0.135 A 
ATOM     66  F   UNL A   1      47.700  31.471  29.346  1.00  0.00    -0.206 F 
ATOM     67  C   UNL A   1      46.820  32.921  27.737  1.00  0.00     0.059 A 
ATOM     68  C   UNL A   1      44.453  32.884  27.229  1.00  0.00     0.059 A 
ATOM     69  F   UNL A   1      43.022  31.476  28.435  1.00  0.00    -0.206 F 
ATOM     70  C   UNL A   1      45.733  33.377  26.992  1.00  0.00     0.060 A 
BRANCH  70  71
ATOM     71  S   UNL A   1      46.007  34.566  25.660  1.00  0.00     0.124 S 
ATOM     72  O   UNL A   1      47.420  34.350  25.345  1.00  0.00    -0.237 OA
ATOM     73  O   UNL A   1      45.061  34.117  24.637  1.00  0.00    -0.237 OA
ATOM     74  O   UNL A   1      45.692  35.846  26.269  1.00  0.00    -0.744 OA
ENDBRANCH  70  71
ENDBRANCH  38  63
ENDBRANCH  12  13
ENDBRANCH   5   7
ENDBRANCH   2   3
ENDBRANCH   1   2
BRANCH   1  75
ATOM     75  C   UNL A   1      32.959  27.323  26.542  1.00  0.00     0.117 C 
BRANCH  75  76
ATOM     76  N   UNL A   1      31.940  26.288  26.661  1.00  0.00    -0.354 N 
ATOM     77  C   UNL A   1      32.007  24.919  26.613  1.00  0.00     0.243 C 
ATOM     78  H   UNL A   1      31.031  26.638  26.804  1.00  0.00     0.163 HD
ATOM     79  O   UNL A   1      31.137  24.261  27.191  1.00  0.00    -0.273 OA
BRANCH  77  80
ATOM     80  C   UNL A   1      33.196  24.227  25.958  1.00  0.00     0.182 C 
ATOM     81  C   UNL A   1      33.874  23.023  26.686  1.00  0.00     0.091 C 
ATOM     82  N   UNL A   1      33.026  23.875  24.538  1.00  0.00    -0.306 N 
ATOM     83  C   UNL A   1      35.095  22.694  25.875  1.00  0.00     0.042 A 
ATOM     84  C   UNL A   1      34.315  23.946  23.793  1.00  0.00     0.180 C 
ATOM     85  N   UNL A   1      36.186  21.945  26.197  1.00  0.00    -0.348 N 
ATOM     86  C   UNL A   1      35.306  23.120  24.574  1.00  0.00     0.081 A 
ATOM     87  C   UNL A   1      37.055  22.042  25.139  1.00  0.00     0.197 A 
ATOM     88  H   UNL A   1      36.326  21.434  27.026  1.00  0.00     0.167 HD
ATOM     89  N   UNL A   1      36.551  22.748  24.149  1.00  0.00    -0.240 NA
BRANCH  82  90
ATOM     90  C   UNL A   1      31.982  23.218  23.953  1.00  0.00     0.318 C 
ATOM     91  O   UNL A   1      30.995  23.835  23.541  1.00  0.00    -0.249 OA
ATOM     92  N   UNL A   1      31.860  21.877  23.885  1.00  0.00    -0.331 N 
ATOM     93  H   UNL A   1      30.923  21.598  23.998  1.00  0.00     0.165 HD
BRANCH  92  94
ATOM     94  C   UNL A   1      32.737  20.722  23.687  1.00  0.00     0.197 C 
BRANCH  94  95
ATOM     95  C   UNL A   1      32.663  19.620  24.725  1.00  0.00     0.169 A 
ATOM     96  N   UNL A   1      32.289  18.342  24.360  1.00  0.00    -0.218 NA
ATOM     97  N   UNL A   1      33.014  19.716  26.020  1.00  0.00    -0.157 NA
ATOM     98  C   UNL A   1      32.485  17.636  25.449  1.00  0.00     0.216 A 
ATOM     99  N   UNL A   1      32.920  18.446  26.443  1.00  0.00    -0.266 N 
ATOM    100  H   UNL A   1      33.139  18.144  27.353  1.00  0.00     0.191 HD
ENDBRANCH  94  95
ENDBRANCH  92  94
ENDBRANCH  82  90
ENDBRANCH  77  80
ENDBRANCH  75  76
ENDBRANCH   1  75
TORSDOF 16
ENDMDL
