MODEL 1
REMARK VINA RESULT:     -12.8      0.000      0.000
REMARK SMILES NC(=O)c1ccc(Oc2cccc(C(=O)NCCCNC(=O)c3ccc(-c4c5nc(c(-c6c(F)cc(S(=O)(=O)[O-])cc6F)c6ccc([nH]6)c(-c6c(F)cc(S(=O)(=O)[O-])cc6F)c6nc(c(-c7c(F)cc(S(=O)(=O)[O-])cc7F)c7ccc4[nH]7)C=C6)C=C5)cc3)c2)nc1
REMARK SMILES IDX 18 1 17 2 16 3 14 4 15 5 13 7 9 8 10 9 89 10 11 11 12 12
REMARK SMILES IDX 8 13 7 14 4 15 5 16 91 17 6 18 90 19 2 20 1 21 3 24 19 25
REMARK SMILES IDX 20 26 21 27 22 29 23 30 24 31 88 32 25 33 87 34 26 35 27 36
REMARK SMILES IDX 28 37 81 38 29 39 86 40 80 41 82 42 30 43 85 44 79 45 78 46
REMARK SMILES IDX 31 48 65 49 44 50 64 51 45 52 48 53 63 54 83 55 46 56 47 57
REMARK SMILES IDX 62 59 84 60 49 61 32 62 33 63 42 64 34 65 35 66 41 67 43 68
REMARK SMILES IDX 36 69 37 70 38 71 39 72 40 73 66 74 67 75 76 76 68 77 69 78
REMARK SMILES IDX 75 79 77 80 70 81 71 82 72 83 73 84 74 85 50 86 51 87 60 88
REMARK SMILES IDX 52 89 53 90 59 91 61 92 54 93 55 94 56 95 57 96 58 97
REMARK H PARENT 16 6 1 22 1 23 20 28 82 47 48 58
REMARK Flexibility Score: inf
ROOT
ATOM      1  C   UNL A   1      34.161  31.522  27.804  1.00  0.00     0.042 C 
ENDROOT
BRANCH   1   2
ATOM      2  C   UNL A   1      33.470  30.531  26.871  1.00  0.00     0.118 C 
BRANCH   2   3
ATOM      3  N   UNL A   1      32.680  29.574  27.622  1.00  0.00    -0.352 N 
ATOM      4  C   UNL A   1      31.995  28.439  27.271  1.00  0.00     0.251 C 
ATOM      5  O   UNL A   1      31.425  27.828  28.177  1.00  0.00    -0.269 OA
ATOM      6  H   UNL A   1      32.623  29.782  28.583  1.00  0.00     0.163 HD
BRANCH   4   7
ATOM      7  C   UNL A   1      31.975  27.870  25.892  1.00  0.00     0.043 A 
ATOM      8  C   UNL A   1      30.958  27.392  23.748  1.00  0.00     0.130 A 
ATOM      9  C   UNL A   1      32.182  26.973  23.233  1.00  0.00     0.047 A 
ATOM     10  C   UNL A   1      30.837  27.742  25.097  1.00  0.00     0.061 A 
ATOM     11  C   UNL A   1      33.309  26.984  24.049  1.00  0.00     0.005 A 
ATOM     12  C   UNL A   1      33.209  27.456  25.361  1.00  0.00     0.014 A 
BRANCH   8  13
ATOM     13  O   UNL A   1      29.881  27.415  22.894  1.00  0.00    -0.439 OA
BRANCH  13  14
ATOM     14  C   UNL A   1      29.320  28.637  22.576  1.00  0.00     0.219 A 
ATOM     15  C   UNL A   1      28.422  31.151  21.865  1.00  0.00     0.058 A 
ATOM     16  C   UNL A   1      27.662  30.378  22.742  1.00  0.00     0.021 A 
ATOM     17  C   UNL A   1      29.600  30.603  21.377  1.00  0.00     0.129 A 
ATOM     18  C   UNL A   1      28.126  29.114  23.118  1.00  0.00     0.070 A 
ATOM     19  N   UNL A   1      30.064  29.373  21.723  1.00  0.00    -0.221 NA
BRANCH  15  20
ATOM     20  C   UNL A   1      28.039  32.513  21.433  1.00  0.00     0.250 C 
ATOM     21  N   UNL A   1      27.653  32.679  20.130  1.00  0.00    -0.366 N 
ATOM     22  H   UNL A   1      27.390  33.569  19.803  1.00  0.00     0.159 HD
ATOM     23  H   UNL A   1      27.637  31.907  19.520  1.00  0.00     0.159 HD
ATOM     24  O   UNL A   1      28.030  33.452  22.211  1.00  0.00    -0.269 OA
ENDBRANCH  15  20
ENDBRANCH  13  14
ENDBRANCH   8  13
ENDBRANCH   4   7
ENDBRANCH   2   3
ENDBRANCH   1   2
BRANCH   1  25
ATOM     25  C   UNL A   1      35.470  30.978  28.373  1.00  0.00     0.118 C 
BRANCH  25  26
ATOM     26  N   UNL A   1      35.518  31.110  29.824  1.00  0.00    -0.352 N 
ATOM     27  C   UNL A   1      36.456  30.665  30.721  1.00  0.00     0.251 C 
ATOM     28  H   UNL A   1      34.760  31.595  30.223  1.00  0.00     0.163 HD
ATOM     29  O   UNL A   1      36.175  30.641  31.916  1.00  0.00    -0.269 OA
BRANCH  27  30
ATOM     30  C   UNL A   1      37.789  30.227  30.257  1.00  0.00     0.039 A 
ATOM     31  C   UNL A   1      38.065  30.233  28.888  1.00  0.00     0.014 A 
ATOM     32  C   UNL A   1      38.745  29.762  31.164  1.00  0.00     0.014 A 
ATOM     33  C   UNL A   1      39.318  29.812  28.435  1.00  0.00     0.010 A 
ATOM     34  C   UNL A   1      40.019  29.426  30.719  1.00  0.00     0.010 A 
ATOM     35  C   UNL A   1      40.314  29.431  29.348  1.00  0.00    -0.014 A 
BRANCH  35  36
ATOM     36  C   UNL A   1      41.665  29.024  28.888  1.00  0.00     0.031 A 
ATOM     37  C   UNL A   1      42.765  30.044  28.776  1.00  0.00     0.074 A 
ATOM     38  C   UNL A   1      41.881  27.749  28.510  1.00  0.00     0.049 A 
ATOM     39  N   UNL A   1      43.988  29.897  28.334  1.00  0.00    -0.248 NA
ATOM     40  C   UNL A   1      42.439  31.420  29.187  1.00  0.00     0.031 C 
ATOM     41  C   UNL A   1      40.874  26.686  28.518  1.00  0.00     0.029 A 
ATOM     42  N   UNL A   1      43.011  27.135  28.034  1.00  0.00    -0.354 N 
ATOM     43  C   UNL A   1      44.571  31.158  28.404  1.00  0.00     0.074 A 
ATOM     44  C   UNL A   1      43.547  32.070  28.864  1.00  0.00     0.031 C 
ATOM     45  C   UNL A   1      41.436  25.547  28.082  1.00  0.00     0.029 A 
ATOM     46  C   UNL A   1      42.827  25.807  27.727  1.00  0.00     0.049 A 
ATOM     47  H   UNL A   1      43.871  27.599  27.922  1.00  0.00     0.167 HD
ATOM     48  C   UNL A   1      45.851  31.517  28.140  1.00  0.00     0.037 A 
ATOM     49  C   UNL A   1      43.679  24.903  27.205  1.00  0.00     0.037 A 
ATOM     50  C   UNL A   1      46.862  30.597  27.687  1.00  0.00     0.049 A 
ATOM     51  C   UNL A   1      45.094  25.319  26.916  1.00  0.00     0.074 A 
ATOM     52  C   UNL A   1      48.199  30.845  27.430  1.00  0.00     0.029 A 
ATOM     53  N   UNL A   1      46.647  29.252  27.418  1.00  0.00    -0.354 N 
ATOM     54  N   UNL A   1      45.650  26.501  27.050  1.00  0.00    -0.248 NA
ATOM     55  C   UNL A   1      46.004  24.280  26.416  1.00  0.00     0.031 C 
ATOM     56  C   UNL A   1      48.779  29.662  26.957  1.00  0.00     0.029 A 
ATOM     57  C   UNL A   1      47.821  28.661  26.978  1.00  0.00     0.049 A 
ATOM     58  H   UNL A   1      45.786  28.786  27.526  1.00  0.00     0.167 HD
ATOM     59  C   UNL A   1      46.978  26.343  26.674  1.00  0.00     0.074 A 
ATOM     60  C   UNL A   1      47.146  24.948  26.321  1.00  0.00     0.031 C 
ATOM     61  C   UNL A   1      47.970  27.269  26.627  1.00  0.00     0.037 A 
BRANCH  48  62
ATOM     62  C   UNL A   1      46.217  32.966  28.334  1.00  0.00     0.058 A 
ATOM     63  C   UNL A   1      46.684  33.450  29.568  1.00  0.00     0.135 A 
ATOM     64  C   UNL A   1      46.100  33.884  27.278  1.00  0.00     0.135 A 
ATOM     65  F   UNL A   1      46.805  32.622  30.619  1.00  0.00    -0.206 F 
ATOM     66  C   UNL A   1      46.971  34.797  29.762  1.00  0.00     0.059 A 
ATOM     67  C   UNL A   1      46.417  35.231  27.440  1.00  0.00     0.059 A 
ATOM     68  F   UNL A   1      45.665  33.481  26.075  1.00  0.00    -0.206 F 
ATOM     69  C   UNL A   1      46.830  35.682  28.693  1.00  0.00     0.060 A 
BRANCH  69  70
ATOM     70  S   UNL A   1      47.181  37.431  28.970  1.00  0.00     0.124 S 
ATOM     71  O   UNL A   1      47.090  37.518  30.425  1.00  0.00    -0.237 OA
ATOM     72  O   UNL A   1      48.520  37.573  28.411  1.00  0.00    -0.237 OA
ATOM     73  O   UNL A   1      46.121  38.112  28.234  1.00  0.00    -0.744 OA
ENDBRANCH  69  70
ENDBRANCH  48  62
BRANCH  49  74
ATOM     74  C   UNL A   1      43.206  23.517  26.945  1.00  0.00     0.058 A 
ATOM     75  C   UNL A   1      42.973  23.061  25.641  1.00  0.00     0.135 A 
ATOM     76  C   UNL A   1      43.029  22.604  27.998  1.00  0.00     0.135 A 
ATOM     77  F   UNL A   1      43.123  23.896  24.601  1.00  0.00    -0.206 F 
ATOM     78  C   UNL A   1      42.575  21.753  25.386  1.00  0.00     0.059 A 
ATOM     79  C   UNL A   1      42.659  21.283  27.767  1.00  0.00     0.059 A 
ATOM     80  F   UNL A   1      43.257  22.986  29.264  1.00  0.00    -0.206 F 
ATOM     81  C   UNL A   1      42.429  20.868  26.457  1.00  0.00     0.060 A 
BRANCH  81  82
ATOM     82  S   UNL A   1      41.981  19.153  26.108  1.00  0.00     0.124 S 
ATOM     83  O   UNL A   1      42.879  18.834  25.003  1.00  0.00    -0.237 OA
ATOM     84  O   UNL A   1      42.272  18.497  27.378  1.00  0.00    -0.237 OA
ATOM     85  O   UNL A   1      40.565  19.239  25.764  1.00  0.00    -0.744 OA
ENDBRANCH  81  82
ENDBRANCH  49  74
BRANCH  61  86
ATOM     86  C   UNL A   1      49.336  26.798  26.206  1.00  0.00     0.058 A 
ATOM     87  C   UNL A   1      49.777  26.896  24.878  1.00  0.00     0.135 A 
ATOM     88  C   UNL A   1      50.234  26.287  27.158  1.00  0.00     0.135 A 
ATOM     89  F   UNL A   1      48.958  27.372  23.926  1.00  0.00    -0.206 F 
ATOM     90  C   UNL A   1      51.050  26.478  24.502  1.00  0.00     0.059 A 
ATOM     91  C   UNL A   1      51.522  25.893  26.811  1.00  0.00     0.059 A 
ATOM     92  F   UNL A   1      49.867  26.181  28.445  1.00  0.00    -0.206 F 
ATOM     93  C   UNL A   1      51.917  25.981  25.477  1.00  0.00     0.060 A 
BRANCH  93  94
ATOM     94  S   UNL A   1      53.576  25.471  24.981  1.00  0.00     0.124 S 
ATOM     95  O   UNL A   1      53.597  25.863  23.576  1.00  0.00    -0.237 OA
ATOM     96  O   UNL A   1      54.422  26.259  25.872  1.00  0.00    -0.237 OA
ATOM     97  O   UNL A   1      53.579  24.033  25.231  1.00  0.00    -0.744 OA
ENDBRANCH  93  94
ENDBRANCH  61  86
ENDBRANCH  35  36
ENDBRANCH  27  30
ENDBRANCH  25  26
ENDBRANCH   1  25
TORSDOF 16
ENDMDL
MODEL 2
REMARK VINA RESULT:     -12.8      6.194      8.455
REMARK SMILES NC(=O)c1ccc(Oc2cccc(C(=O)NCCCNC(=O)c3ccc(-c4c5nc(c(-c6c(F)cc(S(=O)(=O)[O-])cc6F)c6ccc([nH]6)c(-c6c(F)cc(S(=O)(=O)[O-])cc6F)c6nc(c(-c7c(F)cc(S(=O)(=O)[O-])cc7F)c7ccc4[nH]7)C=C6)C=C5)cc3)c2)nc1
REMARK SMILES IDX 18 1 17 2 16 3 14 4 15 5 13 7 9 8 10 9 89 10 11 11 12 12
REMARK SMILES IDX 8 13 7 14 4 15 5 16 91 17 6 18 90 19 2 20 1 21 3 24 19 25
REMARK SMILES IDX 20 26 21 27 22 29 23 30 24 31 88 32 25 33 87 34 26 35 27 36
REMARK SMILES IDX 28 37 81 38 29 39 86 40 80 41 82 42 30 43 85 44 79 45 78 46
REMARK SMILES IDX 31 48 65 49 44 50 64 51 45 52 48 53 63 54 83 55 46 56 47 57
REMARK SMILES IDX 62 59 84 60 49 61 32 62 33 63 42 64 34 65 35 66 41 67 43 68
REMARK SMILES IDX 36 69 37 70 38 71 39 72 40 73 66 74 67 75 76 76 68 77 69 78
REMARK SMILES IDX 75 79 77 80 70 81 71 82 72 83 73 84 74 85 50 86 51 87 60 88
REMARK SMILES IDX 52 89 53 90 59 91 61 92 54 93 55 94 56 95 57 96 58 97
REMARK H PARENT 16 6 1 22 1 23 20 28 82 47 48 58
REMARK Flexibility Score: inf
ROOT
ATOM      1  C   UNL A   1      31.574  32.905  26.658  1.00  0.00     0.042 C 
ENDROOT
BRANCH   1   2
ATOM      2  C   UNL A   1      31.324  31.406  26.503  1.00  0.00     0.118 C 
BRANCH   2   3
ATOM      3  N   UNL A   1      32.567  30.661  26.579  1.00  0.00    -0.352 N 
ATOM      4  C   UNL A   1      32.892  29.349  26.351  1.00  0.00     0.251 C 
ATOM      5  O   UNL A   1      34.074  29.033  26.494  1.00  0.00    -0.269 OA
ATOM      6  H   UNL A   1      33.337  31.212  26.851  1.00  0.00     0.163 HD
BRANCH   4   7
ATOM      7  C   UNL A   1      31.923  28.322  25.868  1.00  0.00     0.043 A 
ATOM      8  C   UNL A   1      30.387  27.365  24.261  1.00  0.00     0.130 A 
ATOM      9  C   UNL A   1      30.321  26.181  24.991  1.00  0.00     0.047 A 
ATOM     10  C   UNL A   1      31.103  28.462  24.749  1.00  0.00     0.061 A 
ATOM     11  C   UNL A   1      31.044  26.065  26.175  1.00  0.00     0.005 A 
ATOM     12  C   UNL A   1      31.861  27.120  26.593  1.00  0.00     0.014 A 
BRANCH   8  13
ATOM     13  O   UNL A   1      29.699  27.419  23.072  1.00  0.00    -0.439 OA
BRANCH  13  14
ATOM     14  C   UNL A   1      29.174  28.633  22.670  1.00  0.00     0.219 A 
ATOM     15  C   UNL A   1      28.354  31.123  21.797  1.00  0.00     0.058 A 
ATOM     16  C   UNL A   1      27.546  30.410  22.681  1.00  0.00     0.021 A 
ATOM     17  C   UNL A   1      29.539  30.529  21.385  1.00  0.00     0.129 A 
ATOM     18  C   UNL A   1      27.970  29.159  23.139  1.00  0.00     0.070 A 
ATOM     19  N   UNL A   1      29.965  29.311  21.811  1.00  0.00    -0.221 NA
BRANCH  15  20
ATOM     20  C   UNL A   1      28.015  32.467  21.281  1.00  0.00     0.250 C 
ATOM     21  N   UNL A   1      27.698  32.574  19.954  1.00  0.00    -0.366 N 
ATOM     22  H   UNL A   1      27.466  33.451  19.572  1.00  0.00     0.159 HD
ATOM     23  H   UNL A   1      27.700  31.773  19.381  1.00  0.00     0.159 HD
ATOM     24  O   UNL A   1      27.983  33.443  22.012  1.00  0.00    -0.269 OA
ENDBRANCH  15  20
ENDBRANCH  13  14
ENDBRANCH   8  13
ENDBRANCH   4   7
ENDBRANCH   2   3
ENDBRANCH   1   2
BRANCH   1  25
ATOM     25  C   UNL A   1      32.711  33.213  27.630  1.00  0.00     0.118 C 
BRANCH  25  26
ATOM     26  N   UNL A   1      32.716  34.617  28.020  1.00  0.00    -0.352 N 
ATOM     27  C   UNL A   1      33.360  35.244  29.056  1.00  0.00     0.251 C 
ATOM     28  H   UNL A   1      32.174  35.209  27.450  1.00  0.00     0.163 HD
ATOM     29  O   UNL A   1      33.018  36.380  29.372  1.00  0.00    -0.269 OA
BRANCH  27  30
ATOM     30  C   UNL A   1      34.455  34.565  29.779  1.00  0.00     0.039 A 
ATOM     31  C   UNL A   1      34.174  33.926  30.989  1.00  0.00     0.014 A 
ATOM     32  C   UNL A   1      35.765  34.602  29.294  1.00  0.00     0.014 A 
ATOM     33  C   UNL A   1      35.201  33.288  31.689  1.00  0.00     0.010 A 
ATOM     34  C   UNL A   1      36.768  33.895  29.947  1.00  0.00     0.010 A 
ATOM     35  C   UNL A   1      36.501  33.244  31.161  1.00  0.00    -0.014 A 
BRANCH  35  36
ATOM     36  C   UNL A   1      37.596  32.534  31.867  1.00  0.00     0.031 A 
ATOM     37  C   UNL A   1      38.117  33.059  33.178  1.00  0.00     0.074 A 
ATOM     38  C   UNL A   1      38.162  31.454  31.296  1.00  0.00     0.049 A 
ATOM     39  N   UNL A   1      39.107  32.619  33.911  1.00  0.00    -0.248 NA
ATOM     40  C   UNL A   1      37.458  34.258  33.721  1.00  0.00     0.031 C 
ATOM     41  C   UNL A   1      37.782  30.888  30.000  1.00  0.00     0.029 A 
ATOM     42  N   UNL A   1      39.186  30.648  31.723  1.00  0.00    -0.354 N 
ATOM     43  C   UNL A   1      39.194  33.489  34.992  1.00  0.00     0.074 A 
ATOM     44  C   UNL A   1      38.204  34.521  34.782  1.00  0.00     0.031 C 
ATOM     45  C   UNL A   1      38.552  29.818  29.745  1.00  0.00     0.029 A 
ATOM     46  C   UNL A   1      39.504  29.646  30.837  1.00  0.00     0.049 A 
ATOM     47  H   UNL A   1      39.650  30.774  32.582  1.00  0.00     0.167 HD
ATOM     48  C   UNL A   1      40.005  33.416  36.076  1.00  0.00     0.037 A 
ATOM     49  C   UNL A   1      40.465  28.702  30.889  1.00  0.00     0.037 A 
ATOM     50  C   UNL A   1      40.983  32.378  36.275  1.00  0.00     0.049 A 
ATOM     51  C   UNL A   1      41.356  28.638  32.098  1.00  0.00     0.074 A 
ATOM     52  C   UNL A   1      41.826  32.185  37.355  1.00  0.00     0.029 A 
ATOM     53  N   UNL A   1      41.255  31.360  35.370  1.00  0.00    -0.354 N 
ATOM     54  N   UNL A   1      41.383  29.428  33.146  1.00  0.00    -0.248 NA
ATOM     55  C   UNL A   1      42.339  27.548  32.142  1.00  0.00     0.031 C 
ATOM     56  C   UNL A   1      42.642  31.081  37.080  1.00  0.00     0.029 A 
ATOM     57  C   UNL A   1      42.266  30.548  35.857  1.00  0.00     0.049 A 
ATOM     58  H   UNL A   1      40.795  31.235  34.508  1.00  0.00     0.167 HD
ATOM     59  C   UNL A   1      42.368  28.919  33.984  1.00  0.00     0.074 A 
ATOM     60  C   UNL A   1      42.902  27.743  33.327  1.00  0.00     0.031 C 
ATOM     61  C   UNL A   1      42.790  29.381  35.188  1.00  0.00     0.037 A 
BRANCH  48  62
ATOM     62  C   UNL A   1      39.860  34.492  37.121  1.00  0.00     0.058 A 
ATOM     63  C   UNL A   1      39.017  34.331  38.235  1.00  0.00     0.135 A 
ATOM     64  C   UNL A   1      40.568  35.700  37.012  1.00  0.00     0.135 A 
ATOM     65  F   UNL A   1      38.305  33.203  38.388  1.00  0.00    -0.206 F 
ATOM     66  C   UNL A   1      38.843  35.345  39.171  1.00  0.00     0.059 A 
ATOM     67  C   UNL A   1      40.437  36.714  37.958  1.00  0.00     0.059 A 
ATOM     68  F   UNL A   1      41.392  35.909  35.974  1.00  0.00    -0.206 F 
ATOM     69  C   UNL A   1      39.554  36.536  39.021  1.00  0.00     0.060 A 
BRANCH  69  70
ATOM     70  S   UNL A   1      39.295  37.851  40.230  1.00  0.00     0.124 S 
ATOM     71  O   UNL A   1      38.176  38.576  39.636  1.00  0.00    -0.237 OA
ATOM     72  O   UNL A   1      38.990  37.103  41.445  1.00  0.00    -0.237 OA
ATOM     73  O   UNL A   1      40.569  38.562  40.238  1.00  0.00    -0.744 OA
ENDBRANCH  69  70
ENDBRANCH  48  62
BRANCH  49  74
ATOM     74  C   UNL A   1      40.609  27.741  29.764  1.00  0.00     0.058 A 
ATOM     75  C   UNL A   1      39.695  26.695  29.580  1.00  0.00     0.135 A 
ATOM     76  C   UNL A   1      41.638  27.883  28.819  1.00  0.00     0.135 A 
ATOM     77  F   UNL A   1      38.697  26.513  30.459  1.00  0.00    -0.206 F 
ATOM     78  C   UNL A   1      39.797  25.819  28.504  1.00  0.00     0.059 A 
ATOM     79  C   UNL A   1      41.745  27.038  27.719  1.00  0.00     0.059 A 
ATOM     80  F   UNL A   1      42.529  28.880  28.939  1.00  0.00    -0.206 F 
ATOM     81  C   UNL A   1      40.822  26.004  27.574  1.00  0.00     0.060 A 
BRANCH  81  82
ATOM     82  S   UNL A   1      40.900  24.905  26.142  1.00  0.00     0.124 S 
ATOM     83  O   UNL A   1      39.514  24.461  26.035  1.00  0.00    -0.237 OA
ATOM     84  O   UNL A   1      41.367  25.803  25.092  1.00  0.00    -0.237 OA
ATOM     85  O   UNL A   1      41.859  23.884  26.556  1.00  0.00    -0.744 OA
ENDBRANCH  81  82
ENDBRANCH  49  74
BRANCH  61  86
ATOM     86  C   UNL A   1      43.865  28.597  35.892  1.00  0.00     0.058 A 
ATOM     87  C   UNL A   1      43.564  27.513  36.729  1.00  0.00     0.135 A 
ATOM     88  C   UNL A   1      45.219  28.907  35.683  1.00  0.00     0.135 A 
ATOM     89  F   UNL A   1      42.286  27.176  36.968  1.00  0.00    -0.206 F 
ATOM     90  C   UNL A   1      44.566  26.780  37.357  1.00  0.00     0.059 A 
ATOM     91  C   UNL A   1      46.238  28.169  36.276  1.00  0.00     0.059 A 
ATOM     92  F   UNL A   1      45.563  29.929  34.882  1.00  0.00    -0.206 F 
ATOM     93  C   UNL A   1      45.901  27.114  37.122  1.00  0.00     0.060 A 
BRANCH  93  94
ATOM     94  S   UNL A   1      47.192  26.136  37.920  1.00  0.00     0.124 S 
ATOM     95  O   UNL A   1      46.508  25.671  39.122  1.00  0.00    -0.237 OA
ATOM     96  O   UNL A   1      47.474  25.115  36.915  1.00  0.00    -0.237 OA
ATOM     97  O   UNL A   1      48.263  27.103  38.142  1.00  0.00    -0.744 OA
ENDBRANCH  93  94
ENDBRANCH  61  86
ENDBRANCH  35  36
ENDBRANCH  27  30
ENDBRANCH  25  26
ENDBRANCH   1  25
TORSDOF 16
ENDMDL
MODEL 3
REMARK VINA RESULT:     -12.5      6.062      8.073
REMARK SMILES NC(=O)c1ccc(Oc2cccc(C(=O)NCCCNC(=O)c3ccc(-c4c5nc(c(-c6c(F)cc(S(=O)(=O)[O-])cc6F)c6ccc([nH]6)c(-c6c(F)cc(S(=O)(=O)[O-])cc6F)c6nc(c(-c7c(F)cc(S(=O)(=O)[O-])cc7F)c7ccc4[nH]7)C=C6)C=C5)cc3)c2)nc1
REMARK SMILES IDX 18 1 17 2 16 3 14 4 15 5 13 7 9 8 10 9 89 10 11 11 12 12
REMARK SMILES IDX 8 13 7 14 4 15 5 16 91 17 6 18 90 19 2 20 1 21 3 24 19 25
REMARK SMILES IDX 20 26 21 27 22 29 23 30 24 31 88 32 25 33 87 34 26 35 27 36
REMARK SMILES IDX 28 37 81 38 29 39 86 40 80 41 82 42 30 43 85 44 79 45 78 46
REMARK SMILES IDX 31 48 65 49 44 50 64 51 45 52 48 53 63 54 83 55 46 56 47 57
REMARK SMILES IDX 62 59 84 60 49 61 32 62 33 63 42 64 34 65 35 66 41 67 43 68
REMARK SMILES IDX 36 69 37 70 38 71 39 72 40 73 66 74 67 75 76 76 68 77 69 78
REMARK SMILES IDX 75 79 77 80 70 81 71 82 72 83 73 84 74 85 50 86 51 87 60 88
REMARK SMILES IDX 52 89 53 90 59 91 61 92 54 93 55 94 56 95 57 96 58 97
REMARK H PARENT 16 6 1 22 1 23 20 28 82 47 48 58
REMARK Flexibility Score: inf
ROOT
ATOM      1  C   UNL A   1      33.000  27.222  26.795  1.00  0.00     0.042 C 
ENDROOT
BRANCH   1   2
ATOM      2  C   UNL A   1      32.429  26.230  25.785  1.00  0.00     0.118 C 
BRANCH   2   3
ATOM      3  N   UNL A   1      31.318  25.490  26.355  1.00  0.00    -0.352 N 
ATOM      4  C   UNL A   1      31.140  24.173  26.690  1.00  0.00     0.251 C 
ATOM      5  O   UNL A   1      30.053  23.864  27.182  1.00  0.00    -0.269 OA
ATOM      6  H   UNL A   1      30.529  26.050  26.539  1.00  0.00     0.163 HD
BRANCH   4   7
ATOM      7  C   UNL A   1      32.202  23.131  26.572  1.00  0.00     0.043 A 
ATOM      8  C   UNL A   1      33.417  21.382  25.423  1.00  0.00     0.130 A 
ATOM      9  C   UNL A   1      34.407  21.392  26.402  1.00  0.00     0.047 A 
ATOM     10  C   UNL A   1      32.274  22.175  25.560  1.00  0.00     0.061 A 
ATOM     11  C   UNL A   1      34.293  22.261  27.483  1.00  0.00     0.005 A 
ATOM     12  C   UNL A   1      33.211  23.143  27.550  1.00  0.00     0.014 A 
BRANCH   8  13
ATOM     13  O   UNL A   1      33.594  20.545  24.346  1.00  0.00    -0.439 OA
BRANCH  13  14
ATOM     14  C   UNL A   1      33.521  19.180  24.554  1.00  0.00     0.219 A 
ATOM     15  C   UNL A   1      33.175  16.496  25.106  1.00  0.00     0.058 A 
ATOM     16  C   UNL A   1      34.421  16.948  24.674  1.00  0.00     0.021 A 
ATOM     17  C   UNL A   1      32.156  17.430  25.224  1.00  0.00     0.129 A 
ATOM     18  C   UNL A   1      34.602  18.310  24.414  1.00  0.00     0.070 A 
ATOM     19  N   UNL A   1      32.309  18.756  24.968  1.00  0.00    -0.221 NA
BRANCH  15  20
ATOM     20  C   UNL A   1      32.888  15.084  25.441  1.00  0.00     0.250 C 
ATOM     21  N   UNL A   1      31.582  14.737  25.654  1.00  0.00    -0.366 N 
ATOM     22  H   UNL A   1      31.349  13.807  25.879  1.00  0.00     0.159 HD
ATOM     23  H   UNL A   1      30.874  15.417  25.582  1.00  0.00     0.159 HD
ATOM     24  O   UNL A   1      33.773  14.246  25.491  1.00  0.00    -0.269 OA
ENDBRANCH  15  20
ENDBRANCH  13  14
ENDBRANCH   8  13
ENDBRANCH   4   7
ENDBRANCH   2   3
ENDBRANCH   1   2
BRANCH   1  25
ATOM     25  C   UNL A   1      34.167  28.029  26.229  1.00  0.00     0.118 C 
BRANCH  25  26
ATOM     26  N   UNL A   1      33.960  29.462  26.400  1.00  0.00    -0.352 N 
ATOM     27  C   UNL A   1      34.567  30.346  27.255  1.00  0.00     0.251 C 
ATOM     28  H   UNL A   1      33.279  29.857  25.810  1.00  0.00     0.163 HD
ATOM     29  O   UNL A   1      34.060  31.450  27.431  1.00  0.00    -0.269 OA
BRANCH  27  30
ATOM     30  C   UNL A   1      35.819  29.979  27.950  1.00  0.00     0.039 A 
ATOM     31  C   UNL A   1      37.033  30.113  27.273  1.00  0.00     0.014 A 
ATOM     32  C   UNL A   1      35.792  29.456  29.245  1.00  0.00     0.014 A 
ATOM     33  C   UNL A   1      38.224  29.761  27.913  1.00  0.00     0.010 A 
ATOM     34  C   UNL A   1      36.983  29.188  29.911  1.00  0.00     0.010 A 
ATOM     35  C   UNL A   1      38.211  29.322  29.246  1.00  0.00    -0.014 A 
BRANCH  35  36
ATOM     36  C   UNL A   1      39.470  28.986  29.959  1.00  0.00     0.031 A 
ATOM     37  C   UNL A   1      39.896  29.787  31.159  1.00  0.00     0.074 A 
ATOM     38  C   UNL A   1      40.258  28.003  29.484  1.00  0.00     0.049 A 
ATOM     39  N   UNL A   1      40.989  29.690  31.872  1.00  0.00    -0.248 NA
ATOM     40  C   UNL A   1      38.988  30.859  31.598  1.00  0.00     0.031 C 
ATOM     41  C   UNL A   1      39.978  27.198  28.293  1.00  0.00     0.029 A 
ATOM     42  N   UNL A   1      41.460  27.522  29.935  1.00  0.00    -0.354 N 
ATOM     43  C   UNL A   1      40.903  30.691  32.835  1.00  0.00     0.074 A 
ATOM     44  C   UNL A   1      39.687  31.427  32.569  1.00  0.00     0.031 C 
ATOM     45  C   UNL A   1      40.973  26.314  28.116  1.00  0.00     0.029 A 
ATOM     46  C   UNL A   1      41.977  26.515  29.155  1.00  0.00     0.049 A 
ATOM     47  H   UNL A   1      41.911  27.864  30.740  1.00  0.00     0.167 HD
ATOM     48  C   UNL A   1      41.746  30.953  33.863  1.00  0.00     0.037 A 
ATOM     49  C   UNL A   1      43.137  25.836  29.256  1.00  0.00     0.037 A 
ATOM     50  C   UNL A   1      42.951  30.208  34.119  1.00  0.00     0.049 A 
ATOM     51  C   UNL A   1      44.061  26.142  30.403  1.00  0.00     0.074 A 
ATOM     52  C   UNL A   1      43.855  30.360  35.156  1.00  0.00     0.029 A 
ATOM     53  N   UNL A   1      43.427  29.171  33.326  1.00  0.00    -0.354 N 
ATOM     54  N   UNL A   1      43.935  27.047  31.345  1.00  0.00    -0.248 NA
ATOM     55  C   UNL A   1      45.278  25.327  30.511  1.00  0.00     0.031 C 
ATOM     56  C   UNL A   1      44.901  29.451  34.961  1.00  0.00     0.029 A 
ATOM     57  C   UNL A   1      44.621  28.689  33.838  1.00  0.00     0.049 A 
ATOM     58  H   UNL A   1      42.980  28.830  32.517  1.00  0.00     0.167 HD
ATOM     59  C   UNL A   1      45.043  26.897  32.170  1.00  0.00     0.074 A 
ATOM     60  C   UNL A   1      45.820  25.803  31.624  1.00  0.00     0.031 C 
ATOM     61  C   UNL A   1      45.385  27.599  33.280  1.00  0.00     0.037 A 
BRANCH  48  62
ATOM     62  C   UNL A   1      41.385  32.093  34.780  1.00  0.00     0.058 A 
ATOM     63  C   UNL A   1      40.681  31.883  35.978  1.00  0.00     0.135 A 
ATOM     64  C   UNL A   1      41.743  33.413  34.461  1.00  0.00     0.135 A 
ATOM     65  F   UNL A   1      40.300  30.644  36.331  1.00  0.00    -0.206 F 
ATOM     66  C   UNL A   1      40.301  32.940  36.797  1.00  0.00     0.059 A 
ATOM     67  C   UNL A   1      41.405  34.484  35.285  1.00  0.00     0.059 A 
ATOM     68  F   UNL A   1      42.421  33.676  33.333  1.00  0.00    -0.206 F 
ATOM     69  C   UNL A   1      40.663  34.240  36.439  1.00  0.00     0.060 A 
BRANCH  69  70
ATOM     70  S   UNL A   1      40.139  35.603  37.500  1.00  0.00     0.124 S 
ATOM     71  O   UNL A   1      41.300  35.753  38.374  1.00  0.00    -0.237 OA
ATOM     72  O   UNL A   1      39.925  36.681  36.541  1.00  0.00    -0.237 OA
ATOM     73  O   UNL A   1      38.934  35.089  38.143  1.00  0.00    -0.744 OA
ENDBRANCH  69  70
ENDBRANCH  48  62
BRANCH  49  74
ATOM     74  C   UNL A   1      43.467  24.796  28.247  1.00  0.00     0.058 A 
ATOM     75  C   UNL A   1      43.066  23.464  28.417  1.00  0.00     0.135 A 
ATOM     76  C   UNL A   1      44.149  25.126  27.064  1.00  0.00     0.135 A 
ATOM     77  F   UNL A   1      42.416  23.096  29.532  1.00  0.00    -0.206 F 
ATOM     78  C   UNL A   1      43.331  22.494  27.455  1.00  0.00     0.059 A 
ATOM     79  C   UNL A   1      44.402  24.181  26.075  1.00  0.00     0.059 A 
ATOM     80  F   UNL A   1      44.540  26.392  26.844  1.00  0.00    -0.206 F 
ATOM     81  C   UNL A   1      43.993  22.865  26.283  1.00  0.00     0.060 A 
BRANCH  81  82
ATOM     82  S   UNL A   1      44.268  21.612  25.011  1.00  0.00     0.124 S 
ATOM     83  O   UNL A   1      45.622  21.168  25.324  1.00  0.00    -0.237 OA
ATOM     84  O   UNL A   1      43.201  20.656  25.289  1.00  0.00    -0.237 OA
ATOM     85  O   UNL A   1      44.121  22.360  23.766  1.00  0.00    -0.744 OA
ENDBRANCH  81  82
ENDBRANCH  49  74
BRANCH  61  86
ATOM     86  C   UNL A   1      46.641  27.188  33.999  1.00  0.00     0.058 A 
ATOM     87  C   UNL A   1      47.886  27.766  33.706  1.00  0.00     0.135 A 
ATOM     88  C   UNL A   1      46.588  26.236  35.030  1.00  0.00     0.135 A 
ATOM     89  F   UNL A   1      47.995  28.678  32.725  1.00  0.00    -0.206 F 
ATOM     90  C   UNL A   1      49.038  27.395  34.392  1.00  0.00     0.059 A 
ATOM     91  C   UNL A   1      47.722  25.873  35.750  1.00  0.00     0.059 A 
ATOM     92  F   UNL A   1      45.421  25.659  35.358  1.00  0.00    -0.206 F 
ATOM     93  C   UNL A   1      48.946  26.450  35.415  1.00  0.00     0.060 A 
BRANCH  93  94
ATOM     94  S   UNL A   1      50.444  26.001  36.316  1.00  0.00     0.124 S 
ATOM     95  O   UNL A   1      51.423  25.921  35.238  1.00  0.00    -0.237 OA
ATOM     96  O   UNL A   1      50.602  27.123  37.236  1.00  0.00    -0.237 OA
ATOM     97  O   UNL A   1      50.095  24.729  36.943  1.00  0.00    -0.744 OA
ENDBRANCH  93  94
ENDBRANCH  61  86
ENDBRANCH  35  36
ENDBRANCH  27  30
ENDBRANCH  25  26
ENDBRANCH   1  25
TORSDOF 16
ENDMDL
