MODEL 1
REMARK VINA RESULT:     -11.5      0.000      0.000
REMARK SMILES C[C@]([NH2+]Cc1noc(C2CC2)n1)(C(=O)NCCCNC(=O)c1ccc(-c2c3nc(c(-c4c(F)cc(S(=O)(=O)[O-])cc4F)c4ccc([nH]4)c(-c4c(F)cc(S(=O)(=O)[O-])cc4F)c4nc(c(-c5c(F)cc(S(=O)(=O)[O-])cc5F)c5ccc2[nH]5)C=C4)C=C3)cc1)C(F)(F)F
REMARK SMILES IDX 16 1 15 2 13 3 14 4 2 6 1 7 88 8 89 9 90 10 91 11 3 12 4 15
REMARK SMILES IDX 5 16 6 17 12 18 7 19 8 20 9 21 10 22 11 23 17 24 18 25 19 26
REMARK SMILES IDX 20 27 21 29 22 30 23 31 87 32 24 33 86 34 25 35 26 36 27 37
REMARK SMILES IDX 80 38 28 39 85 40 79 41 81 42 29 43 84 44 78 45 77 46 30 48
REMARK SMILES IDX 64 49 43 50 63 51 44 52 47 53 62 54 82 55 45 56 46 57 61 59
REMARK SMILES IDX 83 60 48 61 31 62 32 63 41 64 33 65 34 66 40 67 42 68 35 69
REMARK SMILES IDX 36 70 37 71 38 72 39 73 65 74 66 75 75 76 67 77 68 78 74 79
REMARK SMILES IDX 76 80 69 81 70 82 71 83 72 84 73 85 49 86 50 87 59 88 51 89
REMARK SMILES IDX 52 90 58 91 60 92 53 93 54 94 55 95 56 96 57 97
REMARK H PARENT 15 5 3 13 3 14 19 28 81 47 47 58
REMARK Flexibility Score: inf
ROOT
ATOM      1  C   UNL A   1      32.854  29.601  26.357  1.00  0.00     0.118 C 
ENDROOT
BRANCH   1   2
ATOM      2  N   UNL A   1      33.286  29.601  24.967  1.00  0.00    -0.350 N 
ATOM      3  C   UNL A   1      32.916  28.947  23.833  1.00  0.00     0.290 C 
ATOM      4  O   UNL A   1      33.704  29.123  22.895  1.00  0.00    -0.267 OA
ATOM      5  H   UNL A   1      34.028  30.229  24.810  1.00  0.00     0.163 HD
BRANCH   3   6
ATOM      6  C   UNL A   1      31.676  28.027  23.683  1.00  0.00     0.268 C 
ATOM      7  C   UNL A   1      31.211  27.375  24.993  1.00  0.00     0.101 C 
BRANCH   6   8
ATOM      8  C   UNL A   1      30.527  29.023  23.286  1.00  0.00     0.453 C 
ATOM      9  F   UNL A   1      30.772  29.674  22.125  1.00  0.00    -0.164 F 
ATOM     10  F   UNL A   1      29.353  28.359  23.097  1.00  0.00    -0.164 F 
ATOM     11  F   UNL A   1      30.287  29.942  24.251  1.00  0.00    -0.164 F 
ENDBRANCH   6   8
BRANCH   6  12
ATOM     12  N   UNL A   1      31.837  27.002  22.597  1.00  0.00    -0.320 N 
ATOM     13  H   UNL A   1      32.792  27.076  22.248  1.00  0.00     0.347 HD
ATOM     14  H   UNL A   1      31.104  27.225  21.924  1.00  0.00     0.347 HD
BRANCH  12  15
ATOM     15  C   UNL A   1      31.606  25.605  22.941  1.00  0.00     0.344 C 
BRANCH  15  16
ATOM     16  C   UNL A   1      32.838  24.755  22.834  1.00  0.00     0.226 A 
ATOM     17  N   UNL A   1      33.245  24.131  21.721  1.00  0.00    -0.056 NA
ATOM     18  N   UNL A   1      33.647  24.563  23.929  1.00  0.00    -0.190 NA
ATOM     19  O   UNL A   1      34.416  23.486  22.127  1.00  0.00    -0.339 OA
ATOM     20  C   UNL A   1      34.602  23.794  23.448  1.00  0.00     0.229 A 
BRANCH  20  21
ATOM     21  C   UNL A   1      35.797  23.302  24.251  1.00  0.00     0.079 C 
ATOM     22  C   UNL A   1      35.885  21.824  24.577  1.00  0.00     0.014 C 
ATOM     23  C   UNL A   1      36.824  22.412  23.579  1.00  0.00     0.014 C 
ENDBRANCH  20  21
ENDBRANCH  15  16
ENDBRANCH  12  15
ENDBRANCH   6  12
ENDBRANCH   3   6
ENDBRANCH   1   2
BRANCH   1  24
ATOM     24  C   UNL A   1      33.788  28.763  27.229  1.00  0.00     0.042 C 
BRANCH  24  25
ATOM     25  C   UNL A   1      35.154  29.398  27.453  1.00  0.00     0.118 C 
BRANCH  25  26
ATOM     26  N   UNL A   1      35.193  30.188  28.673  1.00  0.00    -0.352 N 
ATOM     27  C   UNL A   1      36.206  30.345  29.587  1.00  0.00     0.251 C 
ATOM     28  H   UNL A   1      34.368  30.684  28.875  1.00  0.00     0.163 HD
ATOM     29  O   UNL A   1      35.949  30.859  30.678  1.00  0.00    -0.269 OA
BRANCH  27  30
ATOM     30  C   UNL A   1      37.586  29.896  29.288  1.00  0.00     0.039 A 
ATOM     31  C   UNL A   1      38.035  29.931  27.964  1.00  0.00     0.014 A 
ATOM     32  C   UNL A   1      38.424  29.397  30.288  1.00  0.00     0.014 A 
ATOM     33  C   UNL A   1      39.336  29.519  27.657  1.00  0.00     0.010 A 
ATOM     34  C   UNL A   1      39.747  29.071  29.995  1.00  0.00     0.010 A 
ATOM     35  C   UNL A   1      40.215  29.115  28.675  1.00  0.00    -0.014 A 
BRANCH  35  36
ATOM     36  C   UNL A   1      41.615  28.711  28.375  1.00  0.00     0.031 A 
ATOM     37  C   UNL A   1      42.714  29.743  28.362  1.00  0.00     0.074 A 
ATOM     38  C   UNL A   1      41.889  27.430  28.058  1.00  0.00     0.049 A 
ATOM     39  N   UNL A   1      43.977  29.601  28.053  1.00  0.00    -0.248 NA
ATOM     40  C   UNL A   1      42.336  31.121  28.715  1.00  0.00     0.031 C 
ATOM     41  C   UNL A   1      40.906  26.346  27.987  1.00  0.00     0.029 A 
ATOM     42  N   UNL A   1      43.074  26.823  27.724  1.00  0.00    -0.354 N 
ATOM     43  C   UNL A   1      44.538  30.869  28.155  1.00  0.00     0.074 A 
ATOM     44  C   UNL A   1      43.467  31.776  28.502  1.00  0.00     0.031 C 
ATOM     45  C   UNL A   1      41.531  25.206  27.656  1.00  0.00     0.029 A 
ATOM     46  C   UNL A   1      42.950  25.480  27.452  1.00  0.00     0.049 A 
ATOM     47  H   UNL A   1      43.932  27.303  27.684  1.00  0.00     0.167 HD
ATOM     48  C   UNL A   1      45.832  31.240  28.001  1.00  0.00     0.037 A 
ATOM     49  C   UNL A   1      43.873  24.574  27.073  1.00  0.00     0.037 A 
ATOM     50  C   UNL A   1      46.901  30.327  27.689  1.00  0.00     0.049 A 
ATOM     51  C   UNL A   1      45.304  25.008  26.912  1.00  0.00     0.074 A 
ATOM     52  C   UNL A   1      48.254  30.592  27.575  1.00  0.00     0.029 A 
ATOM     53  N   UNL A   1      46.737  28.971  27.443  1.00  0.00    -0.354 N 
ATOM     54  N   UNL A   1      45.827  26.200  27.075  1.00  0.00    -0.248 NA
ATOM     55  C   UNL A   1      46.273  23.975  26.522  1.00  0.00     0.031 C 
ATOM     56  C   UNL A   1      48.903  29.405  27.217  1.00  0.00     0.029 A 
ATOM     57  C   UNL A   1      47.961  28.391  27.157  1.00  0.00     0.049 A 
ATOM     58  H   UNL A   1      45.877  28.492  27.468  1.00  0.00     0.167 HD
ATOM     59  C   UNL A   1      47.188  26.056  26.830  1.00  0.00     0.074 A 
ATOM     60  C   UNL A   1      47.410  24.657  26.523  1.00  0.00     0.031 C 
ATOM     61  C   UNL A   1      48.165  26.995  26.856  1.00  0.00     0.037 A 
BRANCH  48  62
ATOM     62  C   UNL A   1      46.166  32.697  28.174  1.00  0.00     0.058 A 
ATOM     63  C   UNL A   1      46.557  33.222  29.417  1.00  0.00     0.135 A 
ATOM     64  C   UNL A   1      46.126  33.576  27.079  1.00  0.00     0.135 A 
ATOM     65  F   UNL A   1      46.598  32.431  30.502  1.00  0.00    -0.206 F 
ATOM     66  C   UNL A   1      46.864  34.570  29.576  1.00  0.00     0.059 A 
ATOM     67  C   UNL A   1      46.458  34.922  27.208  1.00  0.00     0.059 A 
ATOM     68  F   UNL A   1      45.761  33.130  25.867  1.00  0.00    -0.206 F 
ATOM     69  C   UNL A   1      46.810  35.412  28.465  1.00  0.00     0.060 A 
BRANCH  69  70
ATOM     70  S   UNL A   1      47.212  37.158  28.688  1.00  0.00     0.124 S 
ATOM     71  O   UNL A   1      48.513  37.242  28.032  1.00  0.00    -0.237 OA
ATOM     72  O   UNL A   1      46.112  37.822  27.998  1.00  0.00    -0.237 OA
ATOM     73  O   UNL A   1      47.228  37.321  30.138  1.00  0.00    -0.744 OA
ENDBRANCH  69  70
ENDBRANCH  48  62
BRANCH  49  74
ATOM     74  C   UNL A   1      43.472  23.161  26.837  1.00  0.00     0.058 A 
ATOM     75  C   UNL A   1      43.432  22.629  25.539  1.00  0.00     0.135 A 
ATOM     76  C   UNL A   1      43.138  22.311  27.902  1.00  0.00     0.135 A 
ATOM     77  F   UNL A   1      43.736  23.404  24.488  1.00  0.00    -0.206 F 
ATOM     78  C   UNL A   1      43.063  21.309  25.304  1.00  0.00     0.059 A 
ATOM     79  C   UNL A   1      42.790  20.980  27.694  1.00  0.00     0.059 A 
ATOM     80  F   UNL A   1      43.178  22.765  29.164  1.00  0.00    -0.206 F 
ATOM     81  C   UNL A   1      42.747  20.490  26.389  1.00  0.00     0.060 A 
BRANCH  81  82
ATOM     82  S   UNL A   1      42.326  18.761  26.081  1.00  0.00     0.124 S 
ATOM     83  O   UNL A   1      42.583  18.159  27.383  1.00  0.00    -0.237 OA
ATOM     84  O   UNL A   1      40.924  18.852  25.683  1.00  0.00    -0.237 OA
ATOM     85  O   UNL A   1      43.248  18.379  25.014  1.00  0.00    -0.744 OA
ENDBRANCH  81  82
ENDBRANCH  49  74
BRANCH  61  86
ATOM     86  C   UNL A   1      49.570  26.540  26.571  1.00  0.00     0.058 A 
ATOM     87  C   UNL A   1      50.406  26.048  27.585  1.00  0.00     0.135 A 
ATOM     88  C   UNL A   1      50.067  26.550  25.257  1.00  0.00     0.135 A 
ATOM     89  F   UNL A   1      49.982  26.025  28.858  1.00  0.00    -0.206 F 
ATOM     90  C   UNL A   1      51.695  25.603  27.311  1.00  0.00     0.059 A 
ATOM     91  C   UNL A   1      51.342  26.083  24.955  1.00  0.00     0.059 A 
ATOM     92  F   UNL A   1      49.304  27.001  24.249  1.00  0.00    -0.206 F 
ATOM     93  C   UNL A   1      52.154  25.622  25.992  1.00  0.00     0.060 A 
BRANCH  93  94
ATOM     94  S   UNL A   1      53.815  25.009  25.646  1.00  0.00     0.124 S 
ATOM     95  O   UNL A   1      54.183  25.801  24.476  1.00  0.00    -0.237 OA
ATOM     96  O   UNL A   1      54.530  25.326  26.877  1.00  0.00    -0.237 OA
ATOM     97  O   UNL A   1      53.607  23.585  25.398  1.00  0.00    -0.744 OA
ENDBRANCH  93  94
ENDBRANCH  61  86
ENDBRANCH  35  36
ENDBRANCH  27  30
ENDBRANCH  25  26
ENDBRANCH  24  25
ENDBRANCH   1  24
TORSDOF 18
ENDMDL
MODEL 2
REMARK VINA RESULT:     -11.2      3.706      4.651
REMARK SMILES C[C@]([NH2+]Cc1noc(C2CC2)n1)(C(=O)NCCCNC(=O)c1ccc(-c2c3nc(c(-c4c(F)cc(S(=O)(=O)[O-])cc4F)c4ccc([nH]4)c(-c4c(F)cc(S(=O)(=O)[O-])cc4F)c4nc(c(-c5c(F)cc(S(=O)(=O)[O-])cc5F)c5ccc2[nH]5)C=C4)C=C3)cc1)C(F)(F)F
REMARK SMILES IDX 16 1 15 2 13 3 14 4 2 6 1 7 88 8 89 9 90 10 91 11 3 12 4 15
REMARK SMILES IDX 5 16 6 17 12 18 7 19 8 20 9 21 10 22 11 23 17 24 18 25 19 26
REMARK SMILES IDX 20 27 21 29 22 30 23 31 87 32 24 33 86 34 25 35 26 36 27 37
REMARK SMILES IDX 80 38 28 39 85 40 79 41 81 42 29 43 84 44 78 45 77 46 30 48
REMARK SMILES IDX 64 49 43 50 63 51 44 52 47 53 62 54 82 55 45 56 46 57 61 59
REMARK SMILES IDX 83 60 48 61 31 62 32 63 41 64 33 65 34 66 40 67 42 68 35 69
REMARK SMILES IDX 36 70 37 71 38 72 39 73 65 74 66 75 75 76 67 77 68 78 74 79
REMARK SMILES IDX 76 80 69 81 70 82 71 83 72 84 73 85 49 86 50 87 59 88 51 89
REMARK SMILES IDX 52 90 58 91 60 92 53 93 54 94 55 95 56 96 57 97
REMARK H PARENT 15 5 3 13 3 14 19 28 81 47 47 58
REMARK Flexibility Score: inf
ROOT
ATOM      1  C   UNL A   1      32.128  26.259  26.243  1.00  0.00     0.118 C 
ENDROOT
BRANCH   1   2
ATOM      2  N   UNL A   1      31.321  25.214  26.856  1.00  0.00    -0.350 N 
ATOM      3  C   UNL A   1      31.269  23.857  26.783  1.00  0.00     0.290 C 
ATOM      4  O   UNL A   1      30.274  23.381  27.346  1.00  0.00    -0.267 OA
ATOM      5  H   UNL A   1      30.648  25.580  27.475  1.00  0.00     0.163 HD
BRANCH   3   6
ATOM      6  C   UNL A   1      32.290  22.949  26.048  1.00  0.00     0.268 C 
ATOM      7  C   UNL A   1      32.928  23.592  24.808  1.00  0.00     0.101 C 
BRANCH   6   8
ATOM      8  C   UNL A   1      33.461  22.801  27.086  1.00  0.00     0.453 C 
ATOM      9  F   UNL A   1      34.452  23.702  26.893  1.00  0.00    -0.164 F 
ATOM     10  F   UNL A   1      33.014  23.009  28.355  1.00  0.00    -0.164 F 
ATOM     11  F   UNL A   1      34.002  21.560  27.078  1.00  0.00    -0.164 F 
ENDBRANCH   6   8
BRANCH   6  12
ATOM     12  N   UNL A   1      31.740  21.589  25.729  1.00  0.00    -0.320 N 
ATOM     13  H   UNL A   1      30.727  21.638  25.835  1.00  0.00     0.347 HD
ATOM     14  H   UNL A   1      32.220  20.961  26.374  1.00  0.00     0.347 HD
BRANCH  12  15
ATOM     15  C   UNL A   1      32.014  21.038  24.408  1.00  0.00     0.344 C 
BRANCH  15  16
ATOM     16  C   UNL A   1      32.849  19.792  24.444  1.00  0.00     0.226 A 
ATOM     17  N   UNL A   1      34.183  19.767  24.568  1.00  0.00    -0.056 NA
ATOM     18  N   UNL A   1      32.258  18.555  24.344  1.00  0.00    -0.190 NA
ATOM     19  O   UNL A   1      34.478  18.401  24.551  1.00  0.00    -0.339 OA
ATOM     20  C   UNL A   1      33.287  17.738  24.426  1.00  0.00     0.229 A 
BRANCH  20  21
ATOM     21  C   UNL A   1      33.185  16.220  24.402  1.00  0.00     0.079 C 
ATOM     22  C   UNL A   1      34.017  15.428  25.392  1.00  0.00     0.014 C 
ATOM     23  C   UNL A   1      32.539  15.503  25.571  1.00  0.00     0.014 C 
ENDBRANCH  20  21
ENDBRANCH  15  16
ENDBRANCH  12  15
ENDBRANCH   6  12
ENDBRANCH   3   6
ENDBRANCH   1   2
BRANCH   1  24
ATOM     24  C   UNL A   1      32.383  27.407  27.218  1.00  0.00     0.042 C 
BRANCH  24  25
ATOM     25  C   UNL A   1      33.647  28.202  26.913  1.00  0.00     0.118 C 
BRANCH  25  26
ATOM     26  N   UNL A   1      33.495  29.610  27.241  1.00  0.00    -0.352 N 
ATOM     27  C   UNL A   1      34.339  30.449  27.927  1.00  0.00     0.251 C 
ATOM     28  H   UNL A   1      32.662  30.025  26.923  1.00  0.00     0.163 HD
ATOM     29  O   UNL A   1      33.911  31.540  28.310  1.00  0.00    -0.269 OA
BRANCH  27  30
ATOM     30  C   UNL A   1      35.736  30.058  28.223  1.00  0.00     0.039 A 
ATOM     31  C   UNL A   1      36.685  30.112  27.197  1.00  0.00     0.014 A 
ATOM     32  C   UNL A   1      36.113  29.594  29.486  1.00  0.00     0.014 A 
ATOM     33  C   UNL A   1      38.012  29.755  27.452  1.00  0.00     0.010 A 
ATOM     34  C   UNL A   1      37.451  29.323  29.762  1.00  0.00     0.010 A 
ATOM     35  C   UNL A   1      38.415  29.387  28.746  1.00  0.00    -0.014 A 
BRANCH  35  36
ATOM     36  C   UNL A   1      39.830  29.042  29.049  1.00  0.00     0.031 A 
ATOM     37  C   UNL A   1      40.746  30.071  29.660  1.00  0.00     0.074 A 
ATOM     38  C   UNL A   1      40.307  27.824  28.721  1.00  0.00     0.049 A 
ATOM     39  N   UNL A   1      42.023  29.984  29.929  1.00  0.00    -0.248 NA
ATOM     40  C   UNL A   1      40.153  31.377  29.986  1.00  0.00     0.031 C 
ATOM     41  C   UNL A   1      39.535  26.757  28.080  1.00  0.00     0.029 A 
ATOM     42  N   UNL A   1      41.559  27.281  28.872  1.00  0.00    -0.354 N 
ATOM     43  C   UNL A   1      42.390  31.227  30.435  1.00  0.00     0.074 A 
ATOM     44  C   UNL A   1      41.213  32.065  30.386  1.00  0.00     0.031 C 
ATOM     45  C   UNL A   1      40.323  25.683  27.914  1.00  0.00     0.029 A 
ATOM     46  C   UNL A   1      41.664  25.993  28.399  1.00  0.00     0.049 A 
ATOM     47  H   UNL A   1      42.311  27.768  29.280  1.00  0.00     0.167 HD
ATOM     48  C   UNL A   1      43.590  31.625  30.922  1.00  0.00     0.037 A 
ATOM     49  C   UNL A   1      42.722  25.161  28.353  1.00  0.00     0.037 A 
ATOM     50  C   UNL A   1      44.750  30.776  31.000  1.00  0.00     0.049 A 
ATOM     51  C   UNL A   1      44.044  25.622  28.904  1.00  0.00     0.074 A 
ATOM     52  C   UNL A   1      45.993  31.063  31.534  1.00  0.00     0.029 A 
ATOM     53  N   UNL A   1      44.809  29.471  30.531  1.00  0.00    -0.354 N 
ATOM     54  N   UNL A   1      44.355  26.781  29.436  1.00  0.00    -0.248 NA
ATOM     55  C   UNL A   1      45.157  24.666  28.852  1.00  0.00     0.031 C 
ATOM     56  C   UNL A   1      46.818  29.948  31.349  1.00  0.00     0.029 A 
ATOM     57  C   UNL A   1      46.073  28.948  30.744  1.00  0.00     0.049 A 
ATOM     58  H   UNL A   1      44.062  28.988  30.108  1.00  0.00     0.167 HD
ATOM     59  C   UNL A   1      45.692  26.683  29.805  1.00  0.00     0.074 A 
ATOM     60  C   UNL A   1      46.127  25.348  29.448  1.00  0.00     0.031 C 
ATOM     61  C   UNL A   1      46.489  27.614  30.385  1.00  0.00     0.037 A 
BRANCH  48  62
ATOM     62  C   UNL A   1      43.709  33.042  31.414  1.00  0.00     0.058 A 
ATOM     63  C   UNL A   1      43.899  34.117  30.529  1.00  0.00     0.135 A 
ATOM     64  C   UNL A   1      43.599  33.336  32.783  1.00  0.00     0.135 A 
ATOM     65  F   UNL A   1      44.027  33.893  29.211  1.00  0.00    -0.206 F 
ATOM     66  C   UNL A   1      44.011  35.426  30.986  1.00  0.00     0.059 A 
ATOM     67  C   UNL A   1      43.677  34.642  33.259  1.00  0.00     0.059 A 
ATOM     68  F   UNL A   1      43.415  32.350  33.674  1.00  0.00    -0.206 F 
ATOM     69  C   UNL A   1      43.900  35.679  32.353  1.00  0.00     0.060 A 
BRANCH  69  70
ATOM     70  S   UNL A   1      44.046  37.383  32.929  1.00  0.00     0.124 S 
ATOM     71  O   UNL A   1      44.022  38.118  31.668  1.00  0.00    -0.237 OA
ATOM     72  O   UNL A   1      42.862  37.532  33.769  1.00  0.00    -0.237 OA
ATOM     73  O   UNL A   1      45.321  37.395  33.639  1.00  0.00    -0.744 OA
ENDBRANCH  69  70
ENDBRANCH  48  62
BRANCH  49  74
ATOM     74  C   UNL A   1      42.568  23.796  27.781  1.00  0.00     0.058 A 
ATOM     75  C   UNL A   1      42.426  22.676  28.613  1.00  0.00     0.135 A 
ATOM     76  C   UNL A   1      42.542  23.587  26.393  1.00  0.00     0.135 A 
ATOM     77  F   UNL A   1      42.451  22.825  29.946  1.00  0.00    -0.206 F 
ATOM     78  C   UNL A   1      42.278  21.395  28.092  1.00  0.00     0.059 A 
ATOM     79  C   UNL A   1      42.370  22.319  25.848  1.00  0.00     0.059 A 
ATOM     80  F   UNL A   1      42.656  24.627  25.553  1.00  0.00    -0.206 F 
ATOM     81  C   UNL A   1      42.247  21.226  26.707  1.00  0.00     0.060 A 
BRANCH  81  82
ATOM     82  S   UNL A   1      41.994  19.568  26.038  1.00  0.00     0.124 S 
ATOM     83  O   UNL A   1      42.912  19.564  24.906  1.00  0.00    -0.237 OA
ATOM     84  O   UNL A   1      42.367  18.721  27.167  1.00  0.00    -0.237 OA
ATOM     85  O   UNL A   1      40.573  19.558  25.701  1.00  0.00    -0.744 OA
ENDBRANCH  81  82
ENDBRANCH  49  74
BRANCH  61  86
ATOM     86  C   UNL A   1      47.906  27.217  30.696  1.00  0.00     0.058 A 
ATOM     87  C   UNL A   1      48.231  26.494  31.854  1.00  0.00     0.135 A 
ATOM     88  C   UNL A   1      48.941  27.519  29.797  1.00  0.00     0.135 A 
ATOM     89  F   UNL A   1      47.278  26.187  32.749  1.00  0.00    -0.206 F 
ATOM     90  C   UNL A   1      49.538  26.104  32.123  1.00  0.00     0.059 A 
ATOM     91  C   UNL A   1      50.252  27.115  30.032  1.00  0.00     0.059 A 
ATOM     92  F   UNL A   1      48.682  28.199  28.670  1.00  0.00    -0.206 F 
ATOM     93  C   UNL A   1      50.542  26.417  31.205  1.00  0.00     0.060 A 
BRANCH  93  94
ATOM     94  S   UNL A   1      52.229  25.876  31.549  1.00  0.00     0.124 S 
ATOM     95  O   UNL A   1      52.671  26.881  32.510  1.00  0.00    -0.237 OA
ATOM     96  O   UNL A   1      52.025  24.534  32.084  1.00  0.00    -0.237 OA
ATOM     97  O   UNL A   1      52.877  25.930  30.241  1.00  0.00    -0.744 OA
ENDBRANCH  93  94
ENDBRANCH  61  86
ENDBRANCH  35  36
ENDBRANCH  27  30
ENDBRANCH  25  26
ENDBRANCH  24  25
ENDBRANCH   1  24
TORSDOF 18
ENDMDL
MODEL 3
REMARK VINA RESULT:     -11.2      1.676      3.420
REMARK SMILES C[C@]([NH2+]Cc1noc(C2CC2)n1)(C(=O)NCCCNC(=O)c1ccc(-c2c3nc(c(-c4c(F)cc(S(=O)(=O)[O-])cc4F)c4ccc([nH]4)c(-c4c(F)cc(S(=O)(=O)[O-])cc4F)c4nc(c(-c5c(F)cc(S(=O)(=O)[O-])cc5F)c5ccc2[nH]5)C=C4)C=C3)cc1)C(F)(F)F
REMARK SMILES IDX 16 1 15 2 13 3 14 4 2 6 1 7 88 8 89 9 90 10 91 11 3 12 4 15
REMARK SMILES IDX 5 16 6 17 12 18 7 19 8 20 9 21 10 22 11 23 17 24 18 25 19 26
REMARK SMILES IDX 20 27 21 29 22 30 23 31 87 32 24 33 86 34 25 35 26 36 27 37
REMARK SMILES IDX 80 38 28 39 85 40 79 41 81 42 29 43 84 44 78 45 77 46 30 48
REMARK SMILES IDX 64 49 43 50 63 51 44 52 47 53 62 54 82 55 45 56 46 57 61 59
REMARK SMILES IDX 83 60 48 61 31 62 32 63 41 64 33 65 34 66 40 67 42 68 35 69
REMARK SMILES IDX 36 70 37 71 38 72 39 73 65 74 66 75 75 76 67 77 68 78 74 79
REMARK SMILES IDX 76 80 69 81 70 82 71 83 72 84 73 85 49 86 50 87 59 88 51 89
REMARK SMILES IDX 52 90 58 91 60 92 53 93 54 94 55 95 56 96 57 97
REMARK H PARENT 15 5 3 13 3 14 19 28 81 47 47 58
REMARK Flexibility Score: inf
ROOT
ATOM      1  C   UNL A   1      33.176  29.135  26.438  1.00  0.00     0.118 C 
ENDROOT
BRANCH   1   2
ATOM      2  N   UNL A   1      33.584  28.829  25.075  1.00  0.00    -0.350 N 
ATOM      3  C   UNL A   1      33.391  27.798  24.210  1.00  0.00     0.290 C 
ATOM      4  O   UNL A   1      34.099  27.877  23.198  1.00  0.00    -0.267 OA
ATOM      5  H   UNL A   1      34.136  29.545  24.684  1.00  0.00     0.163 HD
BRANCH   3   6
ATOM      6  C   UNL A   1      32.433  26.597  24.432  1.00  0.00     0.268 C 
ATOM      7  C   UNL A   1      32.376  25.610  23.256  1.00  0.00     0.101 C 
BRANCH   6   8
ATOM      8  C   UNL A   1      33.110  25.802  25.607  1.00  0.00     0.453 C 
ATOM      9  F   UNL A   1      34.410  26.133  25.786  1.00  0.00    -0.164 F 
ATOM     10  F   UNL A   1      32.493  26.068  26.791  1.00  0.00    -0.164 F 
ATOM     11  F   UNL A   1      33.029  24.462  25.434  1.00  0.00    -0.164 F 
ENDBRANCH   6   8
BRANCH   6  12
ATOM     12  N   UNL A   1      31.055  27.018  24.852  1.00  0.00    -0.320 N 
ATOM     13  H   UNL A   1      31.099  28.009  25.089  1.00  0.00     0.347 HD
ATOM     14  H   UNL A   1      30.818  26.391  25.620  1.00  0.00     0.347 HD
BRANCH  12  15
ATOM     15  C   UNL A   1      29.970  26.849  23.892  1.00  0.00     0.344 C 
BRANCH  15  16
ATOM     16  C   UNL A   1      29.737  28.061  23.038  1.00  0.00     0.226 A 
ATOM     17  N   UNL A   1      30.490  28.415  21.989  1.00  0.00    -0.056 NA
ATOM     18  N   UNL A   1      28.689  28.909  23.307  1.00  0.00    -0.190 NA
ATOM     19  O   UNL A   1      29.876  29.586  21.538  1.00  0.00    -0.339 OA
ATOM     20  C   UNL A   1      28.806  29.817  22.361  1.00  0.00     0.229 A 
BRANCH  20  21
ATOM     21  C   UNL A   1      27.859  30.993  22.174  1.00  0.00     0.079 C 
ATOM     22  C   UNL A   1      28.045  32.213  23.055  1.00  0.00     0.014 C 
ATOM     23  C   UNL A   1      28.395  32.293  21.607  1.00  0.00     0.014 C 
ENDBRANCH  20  21
ENDBRANCH  15  16
ENDBRANCH  12  15
ENDBRANCH   6  12
ENDBRANCH   3   6
ENDBRANCH   1   2
BRANCH   1  24
ATOM     24  C   UNL A   1      34.011  30.272  27.026  1.00  0.00     0.042 C 
BRANCH  24  25
ATOM     25  C   UNL A   1      35.210  29.798  27.838  1.00  0.00     0.118 C 
BRANCH  25  26
ATOM     26  N   UNL A   1      35.260  30.422  29.149  1.00  0.00    -0.352 N 
ATOM     27  C   UNL A   1      36.288  30.479  30.058  1.00  0.00     0.251 C 
ATOM     28  H   UNL A   1      34.431  30.872  29.430  1.00  0.00     0.163 HD
ATOM     29  O   UNL A   1      36.044  30.842  31.211  1.00  0.00    -0.269 OA
BRANCH  27  30
ATOM     30  C   UNL A   1      37.669  30.100  29.678  1.00  0.00     0.039 A 
ATOM     31  C   UNL A   1      38.579  29.765  30.686  1.00  0.00     0.014 A 
ATOM     32  C   UNL A   1      38.089  30.117  28.347  1.00  0.00     0.014 A 
ATOM     33  C   UNL A   1      39.886  29.396  30.352  1.00  0.00     0.010 A 
ATOM     34  C   UNL A   1      39.363  29.665  28.009  1.00  0.00     0.010 A 
ATOM     35  C   UNL A   1      40.282  29.312  29.008  1.00  0.00    -0.014 A 
BRANCH  35  36
ATOM     36  C   UNL A   1      41.655  28.884  28.629  1.00  0.00     0.031 A 
ATOM     37  C   UNL A   1      42.772  29.894  28.567  1.00  0.00     0.074 A 
ATOM     38  C   UNL A   1      41.885  27.601  28.284  1.00  0.00     0.049 A 
ATOM     39  N   UNL A   1      44.014  29.730  28.190  1.00  0.00    -0.248 NA
ATOM     40  C   UNL A   1      42.443  31.274  28.954  1.00  0.00     0.031 C 
ATOM     41  C   UNL A   1      40.878  26.538  28.255  1.00  0.00     0.029 A 
ATOM     42  N   UNL A   1      43.038  26.974  27.881  1.00  0.00    -0.354 N 
ATOM     43  C   UNL A   1      44.606  30.985  28.275  1.00  0.00     0.074 A 
ATOM     44  C   UNL A   1      43.574  31.910  28.688  1.00  0.00     0.031 C 
ATOM     45  C   UNL A   1      41.461  25.389  27.879  1.00  0.00     0.029 A 
ATOM     46  C   UNL A   1      42.871  25.637  27.601  1.00  0.00     0.049 A 
ATOM     47  H   UNL A   1      43.903  27.438  27.799  1.00  0.00     0.167 HD
ATOM     48  C   UNL A   1      45.897  31.332  28.055  1.00  0.00     0.037 A 
ATOM     49  C   UNL A   1      43.754  24.718  27.164  1.00  0.00     0.037 A 
ATOM     50  C   UNL A   1      46.929  30.401  27.677  1.00  0.00     0.049 A 
ATOM     51  C   UNL A   1      45.183  25.124  26.931  1.00  0.00     0.074 A 
ATOM     52  C   UNL A   1      48.279  30.640  27.492  1.00  0.00     0.029 A 
ATOM     53  N   UNL A   1      46.724  29.052  27.425  1.00  0.00    -0.354 N 
ATOM     54  N   UNL A   1      45.738  26.304  27.077  1.00  0.00    -0.248 NA
ATOM     55  C   UNL A   1      46.108  24.077  26.479  1.00  0.00     0.031 C 
ATOM     56  C   UNL A   1      48.884  29.446  27.088  1.00  0.00     0.029 A 
ATOM     57  C   UNL A   1      47.919  28.451  27.067  1.00  0.00     0.049 A 
ATOM     58  H   UNL A   1      45.857  28.590  27.491  1.00  0.00     0.167 HD
ATOM     59  C   UNL A   1      47.082  26.136  26.759  1.00  0.00     0.074 A 
ATOM     60  C   UNL A   1      47.258  24.736  26.426  1.00  0.00     0.031 C 
ATOM     61  C   UNL A   1      48.078  27.055  26.742  1.00  0.00     0.037 A 
BRANCH  48  62
ATOM     62  C   UNL A   1      46.270  32.781  28.224  1.00  0.00     0.058 A 
ATOM     63  C   UNL A   1      46.155  33.700  27.168  1.00  0.00     0.135 A 
ATOM     64  C   UNL A   1      46.718  33.264  29.464  1.00  0.00     0.135 A 
ATOM     65  F   UNL A   1      45.747  33.289  25.956  1.00  0.00    -0.206 F 
ATOM     66  C   UNL A   1      46.501  35.038  27.325  1.00  0.00     0.059 A 
ATOM     67  C   UNL A   1      47.042  34.605  29.653  1.00  0.00     0.059 A 
ATOM     68  F   UNL A   1      46.846  32.432  30.509  1.00  0.00    -0.206 F 
ATOM     69  C   UNL A   1      46.946  35.481  28.571  1.00  0.00     0.060 A 
BRANCH  69  70
ATOM     70  S   UNL A   1      47.390  37.220  28.759  1.00  0.00     0.124 S 
ATOM     71  O   UNL A   1      46.964  37.769  27.475  1.00  0.00    -0.237 OA
ATOM     72  O   UNL A   1      46.596  37.623  29.914  1.00  0.00    -0.237 OA
ATOM     73  O   UNL A   1      48.833  37.181  28.977  1.00  0.00    -0.744 OA
ENDBRANCH  69  70
ENDBRANCH  48  62
BRANCH  49  74
ATOM     74  C   UNL A   1      43.312  23.316  26.935  1.00  0.00     0.058 A 
ATOM     75  C   UNL A   1      43.193  22.799  25.636  1.00  0.00     0.135 A 
ATOM     76  C   UNL A   1      43.017  22.461  28.008  1.00  0.00     0.135 A 
ATOM     77  F   UNL A   1      43.459  23.580  24.578  1.00  0.00    -0.206 F 
ATOM     78  C   UNL A   1      42.785  21.489  25.407  1.00  0.00     0.059 A 
ATOM     79  C   UNL A   1      42.631  21.140  27.805  1.00  0.00     0.059 A 
ATOM     80  F   UNL A   1      43.131  22.900  29.271  1.00  0.00    -0.206 F 
ATOM     81  C   UNL A   1      42.509  20.665  26.500  1.00  0.00     0.060 A 
BRANCH  81  82
ATOM     82  S   UNL A   1      42.037  18.949  26.196  1.00  0.00     0.124 S 
ATOM     83  O   UNL A   1      42.967  18.571  25.139  1.00  0.00    -0.237 OA
ATOM     84  O   UNL A   1      42.266  18.332  27.499  1.00  0.00    -0.237 OA
ATOM     85  O   UNL A   1      40.636  19.053  25.799  1.00  0.00    -0.744 OA
ENDBRANCH  81  82
ENDBRANCH  49  74
BRANCH  61  86
ATOM     86  C   UNL A   1      49.456  26.575  26.376  1.00  0.00     0.058 A 
ATOM     87  C   UNL A   1      49.972  26.734  25.081  1.00  0.00     0.135 A 
ATOM     88  C   UNL A   1      50.288  25.997  27.349  1.00  0.00     0.135 A 
ATOM     89  F   UNL A   1      49.214  27.274  24.113  1.00  0.00    -0.206 F 
ATOM     90  C   UNL A   1      51.257  26.314  24.756  1.00  0.00     0.059 A 
ATOM     91  C   UNL A   1      51.587  25.596  27.053  1.00  0.00     0.059 A 
ATOM     92  F   UNL A   1      49.846  25.832  28.606  1.00  0.00    -0.206 F 
ATOM     93  C   UNL A   1      52.058  25.748  25.749  1.00  0.00     0.060 A 
BRANCH  93  94
ATOM     94  S   UNL A   1      53.736  25.240  25.322  1.00  0.00     0.124 S 
ATOM     95  O   UNL A   1      53.634  23.786  25.407  1.00  0.00    -0.237 OA
ATOM     96  O   UNL A   1      53.898  25.787  23.980  1.00  0.00    -0.237 OA
ATOM     97  O   UNL A   1      54.555  25.871  26.353  1.00  0.00    -0.744 OA
ENDBRANCH  93  94
ENDBRANCH  61  86
ENDBRANCH  35  36
ENDBRANCH  27  30
ENDBRANCH  25  26
ENDBRANCH  24  25
ENDBRANCH   1  24
TORSDOF 18
ENDMDL
