MODEL 1
REMARK VINA RESULT:     -13.1      0.000      0.000
REMARK SMILES O=C(NCCCNC(=O)[C@@H]1[C@@H](C(=O)Nc2nc(-c3ccc(F)cc3)cs2)[C@H]2C=C[C@@H]1O2)c1ccc(-c2c3nc(c(-c4c(F)cc(S(=O)(=O)[O-])cc4F)c4ccc([nH]4)c(-c4c(F)cc(S(=O)(=O)[O-])cc4F)c4nc(c(-c5c(F)cc(S(=O)(=O)[O-])cc5F)c5ccc2[nH]5)C=C4)C=C3)cc1
REMARK SMILES IDX 5 1 4 2 3 3 1 4 2 5 32 7 33 8 97 9 34 10 96 11 35 12 36 13
REMARK SMILES IDX 37 14 90 15 38 16 95 17 89 18 91 19 39 20 94 21 88 22 87 23
REMARK SMILES IDX 40 25 74 26 53 27 73 28 54 29 57 30 72 31 92 32 55 33 56 34
REMARK SMILES IDX 71 36 93 37 58 38 41 39 42 40 51 41 43 42 44 43 50 44 52 45
REMARK SMILES IDX 45 46 46 47 47 48 48 49 49 50 75 51 76 52 85 53 77 54 78 55
REMARK SMILES IDX 84 56 86 57 79 58 80 59 81 60 82 61 83 62 59 63 60 64 69 65
REMARK SMILES IDX 61 66 62 67 68 68 70 69 63 70 64 71 65 72 66 73 67 74 6 75
REMARK SMILES IDX 7 76 8 77 9 79 10 80 11 81 30 82 27 83 29 84 31 85 28 86
REMARK SMILES IDX 12 87 13 88 14 89 15 91 16 92 26 93 17 94 25 95 18 96 19 97
REMARK SMILES IDX 24 98 20 99 23 100 21 101 22 102
REMARK H PARENT 3 6 91 24 57 35 7 78 14 90
REMARK Flexibility Score: inf
ROOT
ATOM      1  C   UNL A   1      37.551  23.528  25.518  1.00  0.00     0.042 C 
ENDROOT
BRANCH   1   2
ATOM      2  C   UNL A   1      38.602  23.938  26.532  1.00  0.00     0.118 C 
BRANCH   2   3
ATOM      3  N   UNL A   1      39.857  24.336  25.901  1.00  0.00    -0.352 N 
ATOM      4  O   UNL A   1      41.599  25.639  25.339  1.00  0.00    -0.269 OA
ATOM      5  C   UNL A   1      40.690  25.405  26.131  1.00  0.00     0.251 C 
ATOM      6  H   UNL A   1      40.161  23.733  25.186  1.00  0.00     0.163 HD
BRANCH   5   7
ATOM      7  C   UNL A   1      40.474  26.275  27.307  1.00  0.00     0.039 A 
ATOM      8  C   UNL A   1      41.054  27.539  27.356  1.00  0.00     0.014 A 
ATOM      9  C   UNL A   1      39.679  25.833  28.371  1.00  0.00     0.014 A 
ATOM     10  C   UNL A   1      41.027  28.264  28.536  1.00  0.00     0.010 A 
ATOM     11  C   UNL A   1      39.537  26.631  29.512  1.00  0.00     0.010 A 
ATOM     12  C   UNL A   1      40.242  27.839  29.619  1.00  0.00    -0.014 A 
BRANCH  12  13
ATOM     13  C   UNL A   1      40.142  28.728  30.804  1.00  0.00     0.031 A 
ATOM     14  C   UNL A   1      41.148  28.664  31.919  1.00  0.00     0.074 A 
ATOM     15  C   UNL A   1      39.175  29.669  30.808  1.00  0.00     0.049 A 
ATOM     16  N   UNL A   1      41.228  29.409  32.992  1.00  0.00    -0.248 NA
ATOM     17  C   UNL A   1      42.198  27.635  31.830  1.00  0.00     0.031 C 
ATOM     18  C   UNL A   1      38.149  29.823  29.770  1.00  0.00     0.029 A 
ATOM     19  N   UNL A   1      38.926  30.706  31.668  1.00  0.00    -0.354 N 
ATOM     20  C   UNL A   1      42.316  28.931  33.713  1.00  0.00     0.074 A 
ATOM     21  C   UNL A   1      42.859  27.819  32.966  1.00  0.00     0.031 C 
ATOM     22  C   UNL A   1      37.453  30.945  29.997  1.00  0.00     0.029 A 
ATOM     23  C   UNL A   1      37.919  31.542  31.241  1.00  0.00     0.049 A 
ATOM     24  H   UNL A   1      39.419  30.841  32.509  1.00  0.00     0.167 HD
ATOM     25  C   UNL A   1      42.814  29.389  34.887  1.00  0.00     0.037 A 
ATOM     26  C   UNL A   1      37.416  32.662  31.794  1.00  0.00     0.037 A 
ATOM     27  C   UNL A   1      42.278  30.519  35.604  1.00  0.00     0.049 A 
ATOM     28  C   UNL A   1      37.981  33.135  33.099  1.00  0.00     0.074 A 
ATOM     29  C   UNL A   1      42.703  31.053  36.808  1.00  0.00     0.029 A 
ATOM     30  N   UNL A   1      41.214  31.298  35.175  1.00  0.00    -0.354 N 
ATOM     31  N   UNL A   1      38.981  32.638  33.787  1.00  0.00    -0.248 NA
ATOM     32  C   UNL A   1      37.336  34.299  33.718  1.00  0.00     0.031 C 
ATOM     33  C   UNL A   1      41.879  32.139  37.121  1.00  0.00     0.029 A 
ATOM     34  C   UNL A   1      40.963  32.304  36.095  1.00  0.00     0.049 A 
ATOM     35  H   UNL A   1      40.711  31.158  34.341  1.00  0.00     0.167 HD
ATOM     36  C   UNL A   1      39.085  33.429  34.923  1.00  0.00     0.074 A 
ATOM     37  C   UNL A   1      38.064  34.452  34.816  1.00  0.00     0.031 C 
ATOM     38  C   UNL A   1      39.939  33.309  35.967  1.00  0.00     0.037 A 
BRANCH  25  39
ATOM     39  C   UNL A   1      43.995  28.677  35.484  1.00  0.00     0.058 A 
ATOM     40  C   UNL A   1      43.807  27.653  36.427  1.00  0.00     0.135 A 
ATOM     41  C   UNL A   1      45.311  29.070  35.198  1.00  0.00     0.135 A 
ATOM     42  F   UNL A   1      42.569  27.234  36.732  1.00  0.00    -0.206 F 
ATOM     43  C   UNL A   1      44.882  27.062  37.084  1.00  0.00     0.059 A 
ATOM     44  C   UNL A   1      46.404  28.479  35.830  1.00  0.00     0.059 A 
ATOM     45  F   UNL A   1      45.547  30.027  34.287  1.00  0.00    -0.206 F 
ATOM     46  C   UNL A   1      46.177  27.487  36.785  1.00  0.00     0.060 A 
BRANCH  46  47
ATOM     47  S   UNL A   1      47.561  26.709  37.645  1.00  0.00     0.124 S 
ATOM     48  O   UNL A   1      47.591  25.386  37.031  1.00  0.00    -0.237 OA
ATOM     49  O   UNL A   1      48.671  27.594  37.304  1.00  0.00    -0.237 OA
ATOM     50  O   UNL A   1      47.151  26.744  39.046  1.00  0.00    -0.744 OA
ENDBRANCH  46  47
ENDBRANCH  25  39
BRANCH  26  51
ATOM     51  C   UNL A   1      36.317  33.394  31.113  1.00  0.00     0.058 A 
ATOM     52  C   UNL A   1      36.558  34.152  29.955  1.00  0.00     0.135 A 
ATOM     53  C   UNL A   1      35.013  33.382  31.627  1.00  0.00     0.135 A 
ATOM     54  F   UNL A   1      37.792  34.205  29.430  1.00  0.00    -0.206 F 
ATOM     55  C   UNL A   1      35.553  34.895  29.350  1.00  0.00     0.059 A 
ATOM     56  C   UNL A   1      33.983  34.097  31.022  1.00  0.00     0.059 A 
ATOM     57  F   UNL A   1      34.732  32.665  32.726  1.00  0.00    -0.206 F 
ATOM     58  C   UNL A   1      34.269  34.865  29.893  1.00  0.00     0.060 A 
BRANCH  58  59
ATOM     59  S   UNL A   1      32.973  35.830  29.089  1.00  0.00     0.124 S 
ATOM     60  O   UNL A   1      32.367  34.830  28.215  1.00  0.00    -0.237 OA
ATOM     61  O   UNL A   1      32.158  36.259  30.221  1.00  0.00    -0.237 OA
ATOM     62  O   UNL A   1      33.713  36.891  28.415  1.00  0.00    -0.744 OA
ENDBRANCH  58  59
ENDBRANCH  26  51
BRANCH  38  63
ATOM     63  C   UNL A   1      39.807  34.314  37.073  1.00  0.00     0.058 A 
ATOM     64  C   UNL A   1      38.955  34.069  38.160  1.00  0.00     0.135 A 
ATOM     65  C   UNL A   1      40.490  35.539  37.028  1.00  0.00     0.135 A 
ATOM     66  F   UNL A   1      38.280  32.912  38.246  1.00  0.00    -0.206 F 
ATOM     67  C   UNL A   1      38.778  35.013  39.164  1.00  0.00     0.059 A 
ATOM     68  C   UNL A   1      40.343  36.489  38.032  1.00  0.00     0.059 A 
ATOM     69  F   UNL A   1      41.326  35.808  36.013  1.00  0.00    -0.206 F 
ATOM     70  C   UNL A   1      39.473  36.221  39.090  1.00  0.00     0.060 A 
BRANCH  70  71
ATOM     71  S   UNL A   1      39.253  37.427  40.415  1.00  0.00     0.124 S 
ATOM     72  O   UNL A   1      38.169  38.250  39.893  1.00  0.00    -0.237 OA
ATOM     73  O   UNL A   1      38.915  36.579  41.555  1.00  0.00    -0.237 OA
ATOM     74  O   UNL A   1      40.557  38.080  40.496  1.00  0.00    -0.744 OA
ENDBRANCH  70  71
ENDBRANCH  38  63
ENDBRANCH  12  13
ENDBRANCH   5   7
ENDBRANCH   2   3
ENDBRANCH   1   2
BRANCH   1  75
ATOM     75  C   UNL A   1      37.106  22.088  25.673  1.00  0.00     0.117 C 
BRANCH  75  76
ATOM     76  N   UNL A   1      35.950  21.944  26.542  1.00  0.00    -0.356 N 
ATOM     77  C   UNL A   1      34.639  21.718  26.288  1.00  0.00     0.227 C 
ATOM     78  H   UNL A   1      36.161  22.026  27.500  1.00  0.00     0.163 HD
ATOM     79  O   UNL A   1      33.914  21.528  27.274  1.00  0.00    -0.275 OA
BRANCH  77  80
ATOM     80  C   UNL A   1      33.999  21.775  24.915  1.00  0.00     0.127 C 
ATOM     81  C   UNL A   1      33.486  23.132  24.390  1.00  0.00     0.127 C 
ATOM     82  C   UNL A   1      32.723  20.911  24.919  1.00  0.00     0.155 C 
ATOM     83  C   UNL A   1      32.039  22.756  23.993  1.00  0.00     0.155 C 
ATOM     84  C   UNL A   1      32.361  20.552  23.510  1.00  0.00     0.004 C 
ATOM     85  O   UNL A   1      31.698  21.921  25.140  1.00  0.00    -0.365 OA
ATOM     86  C   UNL A   1      31.942  21.690  22.940  1.00  0.00     0.004 C 
BRANCH  81  87
ATOM     87  C   UNL A   1      34.268  23.750  23.245  1.00  0.00     0.233 C 
ATOM     88  O   UNL A   1      35.044  23.098  22.542  1.00  0.00    -0.274 OA
ATOM     89  N   UNL A   1      34.022  25.042  22.878  1.00  0.00    -0.302 N 
ATOM     90  H   UNL A   1      34.312  25.304  21.974  1.00  0.00     0.172 HD
BRANCH  89  91
ATOM     91  C   UNL A   1      33.416  26.010  23.625  1.00  0.00     0.189 A 
ATOM     92  N   UNL A   1      33.930  26.759  24.563  1.00  0.00    -0.220 NA
ATOM     93  S   UNL A   1      31.783  26.297  23.229  1.00  0.00    -0.105 S 
ATOM     94  C   UNL A   1      32.973  27.657  25.009  1.00  0.00     0.084 A 
ATOM     95  C   UNL A   1      31.717  27.501  24.455  1.00  0.00     0.097 A 
BRANCH  94  96
ATOM     96  C   UNL A   1      33.304  28.726  25.937  1.00  0.00     0.001 A 
ATOM     97  C   UNL A   1      32.387  29.772  26.126  1.00  0.00     0.013 A 
ATOM     98  C   UNL A   1      34.506  28.728  26.657  1.00  0.00     0.013 A 
ATOM     99  C   UNL A   1      32.663  30.799  27.030  1.00  0.00     0.040 A 
ATOM    100  C   UNL A   1      34.790  29.772  27.544  1.00  0.00     0.040 A 
ATOM    101  C   UNL A   1      33.863  30.792  27.728  1.00  0.00     0.123 A 
ATOM    102  F   UNL A   1      34.131  31.781  28.591  1.00  0.00    -0.207 F 
ENDBRANCH  94  96
ENDBRANCH  89  91
ENDBRANCH  81  87
ENDBRANCH  77  80
ENDBRANCH  75  76
ENDBRANCH   1  75
TORSDOF 16
ENDMDL
MODEL 2
REMARK VINA RESULT:     -13.0      6.721     12.068
REMARK SMILES O=C(NCCCNC(=O)[C@@H]1[C@@H](C(=O)Nc2nc(-c3ccc(F)cc3)cs2)[C@H]2C=C[C@@H]1O2)c1ccc(-c2c3nc(c(-c4c(F)cc(S(=O)(=O)[O-])cc4F)c4ccc([nH]4)c(-c4c(F)cc(S(=O)(=O)[O-])cc4F)c4nc(c(-c5c(F)cc(S(=O)(=O)[O-])cc5F)c5ccc2[nH]5)C=C4)C=C3)cc1
REMARK SMILES IDX 5 1 4 2 3 3 1 4 2 5 32 7 33 8 97 9 34 10 96 11 35 12 36 13
REMARK SMILES IDX 37 14 90 15 38 16 95 17 89 18 91 19 39 20 94 21 88 22 87 23
REMARK SMILES IDX 40 25 74 26 53 27 73 28 54 29 57 30 72 31 92 32 55 33 56 34
REMARK SMILES IDX 71 36 93 37 58 38 41 39 42 40 51 41 43 42 44 43 50 44 52 45
REMARK SMILES IDX 45 46 46 47 47 48 48 49 49 50 75 51 76 52 85 53 77 54 78 55
REMARK SMILES IDX 84 56 86 57 79 58 80 59 81 60 82 61 83 62 59 63 60 64 69 65
REMARK SMILES IDX 61 66 62 67 68 68 70 69 63 70 64 71 65 72 66 73 67 74 6 75
REMARK SMILES IDX 7 76 8 77 9 79 10 80 11 81 30 82 27 83 29 84 31 85 28 86
REMARK SMILES IDX 12 87 13 88 14 89 15 91 16 92 26 93 17 94 25 95 18 96 19 97
REMARK SMILES IDX 24 98 20 99 23 100 21 101 22 102
REMARK H PARENT 3 6 91 24 57 35 7 78 14 90
REMARK Flexibility Score: inf
ROOT
ATOM      1  C   UNL A   1      33.917  30.532  27.223  1.00  0.00     0.042 C 
ENDROOT
BRANCH   1   2
ATOM      2  C   UNL A   1      35.313  30.688  27.796  1.00  0.00     0.118 C 
BRANCH   2   3
ATOM      3  N   UNL A   1      35.342  30.508  29.245  1.00  0.00    -0.352 N 
ATOM      4  O   UNL A   1      36.002  29.732  31.247  1.00  0.00    -0.269 OA
ATOM      5  C   UNL A   1      36.285  29.945  30.071  1.00  0.00     0.251 C 
ATOM      6  H   UNL A   1      34.547  30.851  29.712  1.00  0.00     0.163 HD
BRANCH   5   7
ATOM      7  C   UNL A   1      37.614  29.577  29.539  1.00  0.00     0.039 A 
ATOM      8  C   UNL A   1      38.580  29.038  30.383  1.00  0.00     0.014 A 
ATOM      9  C   UNL A   1      37.903  29.765  28.182  1.00  0.00     0.014 A 
ATOM     10  C   UNL A   1      39.882  28.891  29.935  1.00  0.00     0.010 A 
ATOM     11  C   UNL A   1      39.186  29.483  27.698  1.00  0.00     0.010 A 
ATOM     12  C   UNL A   1      40.199  29.079  28.581  1.00  0.00    -0.014 A 
BRANCH  12  13
ATOM     13  C   UNL A   1      41.581  28.772  28.135  1.00  0.00     0.031 A 
ATOM     14  C   UNL A   1      42.682  29.790  28.238  1.00  0.00     0.074 A 
ATOM     15  C   UNL A   1      41.848  27.514  27.724  1.00  0.00     0.049 A 
ATOM     16  N   UNL A   1      43.950  29.655  27.941  1.00  0.00    -0.248 NA
ATOM     17  C   UNL A   1      42.325  31.131  28.729  1.00  0.00     0.031 C 
ATOM     18  C   UNL A   1      40.852  26.444  27.593  1.00  0.00     0.029 A 
ATOM     19  N   UNL A   1      43.029  26.900  27.400  1.00  0.00    -0.354 N 
ATOM     20  C   UNL A   1      44.537  30.891  28.188  1.00  0.00     0.074 A 
ATOM     21  C   UNL A   1      43.484  31.773  28.644  1.00  0.00     0.031 C 
ATOM     22  C   UNL A   1      41.474  25.290  27.321  1.00  0.00     0.029 A 
ATOM     23  C   UNL A   1      42.899  25.549  27.167  1.00  0.00     0.049 A 
ATOM     24  H   UNL A   1      43.888  27.377  27.340  1.00  0.00     0.167 HD
ATOM     25  C   UNL A   1      45.836  31.248  28.053  1.00  0.00     0.037 A 
ATOM     26  C   UNL A   1      43.821  24.621  26.855  1.00  0.00     0.037 A 
ATOM     27  C   UNL A   1      46.879  30.349  27.625  1.00  0.00     0.049 A 
ATOM     28  C   UNL A   1      45.249  25.050  26.700  1.00  0.00     0.074 A 
ATOM     29  C   UNL A   1      48.225  30.617  27.443  1.00  0.00     0.029 A 
ATOM     30  N   UNL A   1      46.696  29.005  27.332  1.00  0.00    -0.354 N 
ATOM     31  N   UNL A   1      45.773  26.237  26.894  1.00  0.00    -0.248 NA
ATOM     32  C   UNL A   1      46.205  24.028  26.258  1.00  0.00     0.031 C 
ATOM     33  C   UNL A   1      48.851  29.443  27.014  1.00  0.00     0.029 A 
ATOM     34  C   UNL A   1      47.903  28.433  26.963  1.00  0.00     0.049 A 
ATOM     35  H   UNL A   1      45.837  28.528  27.379  1.00  0.00     0.167 HD
ATOM     36  C   UNL A   1      47.122  26.105  26.596  1.00  0.00     0.074 A 
ATOM     37  C   UNL A   1      47.338  24.718  26.235  1.00  0.00     0.031 C 
ATOM     38  C   UNL A   1      48.091  27.051  26.605  1.00  0.00     0.037 A 
BRANCH  25  39
ATOM     39  C   UNL A   1      46.220  32.668  28.361  1.00  0.00     0.058 A 
ATOM     40  C   UNL A   1      46.237  33.639  27.345  1.00  0.00     0.135 A 
ATOM     41  C   UNL A   1      46.662  33.049  29.637  1.00  0.00     0.135 A 
ATOM     42  F   UNL A   1      45.817  33.329  26.108  1.00  0.00    -0.206 F 
ATOM     43  C   UNL A   1      46.703  34.928  27.578  1.00  0.00     0.059 A 
ATOM     44  C   UNL A   1      47.116  34.341  29.897  1.00  0.00     0.059 A 
ATOM     45  F   UNL A   1      46.643  32.167  30.649  1.00  0.00    -0.206 F 
ATOM     46  C   UNL A   1      47.149  35.268  28.856  1.00  0.00     0.060 A 
BRANCH  46  47
ATOM     47  S   UNL A   1      47.750  36.947  29.141  1.00  0.00     0.124 S 
ATOM     48  O   UNL A   1      48.640  36.759  30.282  1.00  0.00    -0.237 OA
ATOM     49  O   UNL A   1      48.400  37.260  27.872  1.00  0.00    -0.237 OA
ATOM     50  O   UNL A   1      46.529  37.702  29.412  1.00  0.00    -0.744 OA
ENDBRANCH  46  47
ENDBRANCH  25  39
BRANCH  26  51
ATOM     51  C   UNL A   1      43.412  23.206  26.663  1.00  0.00     0.058 A 
ATOM     52  C   UNL A   1      43.091  22.388  27.759  1.00  0.00     0.135 A 
ATOM     53  C   UNL A   1      43.370  22.633  25.384  1.00  0.00     0.135 A 
ATOM     54  F   UNL A   1      43.127  22.886  29.004  1.00  0.00    -0.206 F 
ATOM     55  C   UNL A   1      42.773  21.045  27.596  1.00  0.00     0.059 A 
ATOM     56  C   UNL A   1      43.027  21.297  25.193  1.00  0.00     0.059 A 
ATOM     57  F   UNL A   1      43.659  23.378  24.306  1.00  0.00    -0.206 F 
ATOM     58  C   UNL A   1      42.748  20.507  26.309  1.00  0.00     0.060 A 
BRANCH  58  59
ATOM     59  S   UNL A   1      42.324  18.763  26.115  1.00  0.00     0.124 S 
ATOM     60  O   UNL A   1      42.652  18.237  27.436  1.00  0.00    -0.237 OA
ATOM     61  O   UNL A   1      40.903  18.824  25.791  1.00  0.00    -0.237 OA
ATOM     62  O   UNL A   1      43.193  18.326  25.028  1.00  0.00    -0.744 OA
ENDBRANCH  58  59
ENDBRANCH  26  51
BRANCH  38  63
ATOM     63  C   UNL A   1      49.473  26.613  26.219  1.00  0.00     0.058 A 
ATOM     64  C   UNL A   1      50.310  25.986  27.154  1.00  0.00     0.135 A 
ATOM     65  C   UNL A   1      49.982  26.859  24.934  1.00  0.00     0.135 A 
ATOM     66  F   UNL A   1      49.868  25.731  28.395  1.00  0.00    -0.206 F 
ATOM     67  C   UNL A   1      51.611  25.624  26.829  1.00  0.00     0.059 A 
ATOM     68  C   UNL A   1      51.274  26.486  24.582  1.00  0.00     0.059 A 
ATOM     69  F   UNL A   1      49.210  27.444  24.004  1.00  0.00    -0.206 F 
ATOM     70  C   UNL A   1      52.086  25.881  25.542  1.00  0.00     0.060 A 
BRANCH  70  71
ATOM     71  S   UNL A   1      53.770  25.382  25.126  1.00  0.00     0.124 S 
ATOM     72  O   UNL A   1      53.739  23.955  25.425  1.00  0.00    -0.237 OA
ATOM     73  O   UNL A   1      53.858  25.733  23.711  1.00  0.00    -0.237 OA
ATOM     74  O   UNL A   1      54.592  26.195  26.017  1.00  0.00    -0.744 OA
ENDBRANCH  70  71
ENDBRANCH  38  63
ENDBRANCH  12  13
ENDBRANCH   5   7
ENDBRANCH   2   3
ENDBRANCH   1   2
BRANCH   1  75
ATOM     75  C   UNL A   1      33.685  29.177  26.586  1.00  0.00     0.117 C 
BRANCH  75  76
ATOM     76  N   UNL A   1      33.757  29.216  25.134  1.00  0.00    -0.356 N 
ATOM     77  C   UNL A   1      32.877  28.865  24.166  1.00  0.00     0.227 C 
ATOM     78  H   UNL A   1      34.610  29.565  24.789  1.00  0.00     0.163 HD
ATOM     79  O   UNL A   1      33.204  29.136  23.003  1.00  0.00    -0.275 OA
BRANCH  77  80
ATOM     80  C   UNL A   1      31.593  28.095  24.400  1.00  0.00     0.127 C 
ATOM     81  C   UNL A   1      31.678  26.591  24.735  1.00  0.00     0.127 C 
ATOM     82  C   UNL A   1      30.758  28.104  23.104  1.00  0.00     0.155 C 
ATOM     83  C   UNL A   1      30.707  26.009  23.681  1.00  0.00     0.155 C 
ATOM     84  C   UNL A   1      29.327  27.805  23.432  1.00  0.00     0.004 C 
ATOM     85  O   UNL A   1      31.109  26.812  22.532  1.00  0.00    -0.365 OA
ATOM     86  C   UNL A   1      29.297  26.514  23.789  1.00  0.00     0.004 C 
BRANCH  81  87
ATOM     87  C   UNL A   1      31.310  26.196  26.154  1.00  0.00     0.233 C 
ATOM     88  O   UNL A   1      30.631  26.916  26.890  1.00  0.00    -0.274 OA
ATOM     89  N   UNL A   1      31.621  24.947  26.610  1.00  0.00    -0.302 N 
ATOM     90  H   UNL A   1      31.118  24.629  27.395  1.00  0.00     0.172 HD
BRANCH  89  91
ATOM     91  C   UNL A   1      32.551  24.090  26.098  1.00  0.00     0.189 A 
ATOM     92  N   UNL A   1      33.852  24.153  26.179  1.00  0.00    -0.220 NA
ATOM     93  S   UNL A   1      31.901  22.737  25.289  1.00  0.00    -0.105 S 
ATOM     94  C   UNL A   1      34.405  23.036  25.573  1.00  0.00     0.084 A 
ATOM     95  C   UNL A   1      33.499  22.192  24.959  1.00  0.00     0.097 A 
BRANCH  94  96
ATOM     96  C   UNL A   1      35.828  22.751  25.650  1.00  0.00     0.001 A 
ATOM     97  C   UNL A   1      36.290  21.480  25.272  1.00  0.00     0.013 A 
ATOM     98  C   UNL A   1      36.749  23.717  26.078  1.00  0.00     0.013 A 
ATOM     99  C   UNL A   1      37.653  21.184  25.309  1.00  0.00     0.040 A 
ATOM    100  C   UNL A   1      38.112  23.408  26.138  1.00  0.00     0.040 A 
ATOM    101  C   UNL A   1      38.551  22.149  25.745  1.00  0.00     0.123 A 
ATOM    102  F   UNL A   1      39.859  21.861  25.788  1.00  0.00    -0.207 F 
ENDBRANCH  94  96
ENDBRANCH  89  91
ENDBRANCH  81  87
ENDBRANCH  77  80
ENDBRANCH  75  76
ENDBRANCH   1  75
TORSDOF 16
ENDMDL
MODEL 3
REMARK VINA RESULT:     -12.3      3.087      9.332
REMARK SMILES O=C(NCCCNC(=O)[C@@H]1[C@@H](C(=O)Nc2nc(-c3ccc(F)cc3)cs2)[C@H]2C=C[C@@H]1O2)c1ccc(-c2c3nc(c(-c4c(F)cc(S(=O)(=O)[O-])cc4F)c4ccc([nH]4)c(-c4c(F)cc(S(=O)(=O)[O-])cc4F)c4nc(c(-c5c(F)cc(S(=O)(=O)[O-])cc5F)c5ccc2[nH]5)C=C4)C=C3)cc1
REMARK SMILES IDX 5 1 4 2 3 3 1 4 2 5 32 7 33 8 97 9 34 10 96 11 35 12 36 13
REMARK SMILES IDX 37 14 90 15 38 16 95 17 89 18 91 19 39 20 94 21 88 22 87 23
REMARK SMILES IDX 40 25 74 26 53 27 73 28 54 29 57 30 72 31 92 32 55 33 56 34
REMARK SMILES IDX 71 36 93 37 58 38 41 39 42 40 51 41 43 42 44 43 50 44 52 45
REMARK SMILES IDX 45 46 46 47 47 48 48 49 49 50 75 51 76 52 85 53 77 54 78 55
REMARK SMILES IDX 84 56 86 57 79 58 80 59 81 60 82 61 83 62 59 63 60 64 69 65
REMARK SMILES IDX 61 66 62 67 68 68 70 69 63 70 64 71 65 72 66 73 67 74 6 75
REMARK SMILES IDX 7 76 8 77 9 79 10 80 11 81 30 82 27 83 29 84 31 85 28 86
REMARK SMILES IDX 12 87 13 88 14 89 15 91 16 92 26 93 17 94 25 95 18 96 19 97
REMARK SMILES IDX 24 98 20 99 23 100 21 101 22 102
REMARK H PARENT 3 6 91 24 57 35 7 78 14 90
REMARK Flexibility Score: inf
ROOT
ATOM      1  C   UNL A   1      35.409  23.562  25.213  1.00  0.00     0.042 C 
ENDROOT
BRANCH   1   2
ATOM      2  C   UNL A   1      36.854  24.022  25.185  1.00  0.00     0.118 C 
BRANCH   2   3
ATOM      3  N   UNL A   1      37.791  22.922  25.385  1.00  0.00    -0.352 N 
ATOM      4  O   UNL A   1      39.719  21.872  25.866  1.00  0.00    -0.269 OA
ATOM      5  C   UNL A   1      39.025  22.878  25.989  1.00  0.00     0.251 C 
ATOM      6  H   UNL A   1      37.487  22.059  25.023  1.00  0.00     0.163 HD
BRANCH   5   7
ATOM      7  C   UNL A   1      39.518  24.042  26.756  1.00  0.00     0.039 A 
ATOM      8  C   UNL A   1      39.223  24.161  28.111  1.00  0.00     0.014 A 
ATOM      9  C   UNL A   1      40.286  25.025  26.122  1.00  0.00     0.014 A 
ATOM     10  C   UNL A   1      39.502  25.344  28.775  1.00  0.00     0.010 A 
ATOM     11  C   UNL A   1      40.690  26.161  26.835  1.00  0.00     0.010 A 
ATOM     12  C   UNL A   1      40.267  26.347  28.159  1.00  0.00    -0.014 A 
BRANCH  12  13
ATOM     13  C   UNL A   1      40.652  27.532  28.968  1.00  0.00     0.031 A 
ATOM     14  C   UNL A   1      39.718  28.696  29.147  1.00  0.00     0.074 A 
ATOM     15  C   UNL A   1      41.830  27.493  29.625  1.00  0.00     0.049 A 
ATOM     16  N   UNL A   1      39.887  29.777  29.866  1.00  0.00    -0.248 NA
ATOM     17  C   UNL A   1      38.433  28.654  28.429  1.00  0.00     0.031 C 
ATOM     18  C   UNL A   1      42.811  26.405  29.527  1.00  0.00     0.029 A 
ATOM     19  N   UNL A   1      42.381  28.346  30.545  1.00  0.00    -0.354 N 
ATOM     20  C   UNL A   1      38.747  30.549  29.673  1.00  0.00     0.074 A 
ATOM     21  C   UNL A   1      37.897  29.823  28.755  1.00  0.00     0.031 C 
ATOM     22  C   UNL A   1      43.785  26.604  30.424  1.00  0.00     0.029 A 
ATOM     23  C   UNL A   1      43.551  27.874  31.097  1.00  0.00     0.049 A 
ATOM     24  H   UNL A   1      41.981  29.212  30.787  1.00  0.00     0.167 HD
ATOM     25  C   UNL A   1      38.442  31.749  30.222  1.00  0.00     0.037 A 
ATOM     26  C   UNL A   1      44.354  28.407  32.037  1.00  0.00     0.037 A 
ATOM     27  C   UNL A   1      39.287  32.446  31.159  1.00  0.00     0.049 A 
ATOM     28  C   UNL A   1      43.995  29.743  32.614  1.00  0.00     0.074 A 
ATOM     29  C   UNL A   1      39.074  33.674  31.762  1.00  0.00     0.029 A 
ATOM     30  N   UNL A   1      40.496  31.968  31.643  1.00  0.00    -0.354 N 
ATOM     31  N   UNL A   1      42.933  30.477  32.382  1.00  0.00    -0.248 NA
ATOM     32  C   UNL A   1      44.950  30.336  33.558  1.00  0.00     0.031 C 
ATOM     33  C   UNL A   1      40.166  33.951  32.589  1.00  0.00     0.029 A 
ATOM     34  C   UNL A   1      41.044  32.881  32.530  1.00  0.00     0.049 A 
ATOM     35  H   UNL A   1      40.905  31.109  31.392  1.00  0.00     0.167 HD
ATOM     36  C   UNL A   1      43.093  31.622  33.150  1.00  0.00     0.074 A 
ATOM     37  C   UNL A   1      44.340  31.470  33.874  1.00  0.00     0.031 C 
ATOM     38  C   UNL A   1      42.287  32.708  33.236  1.00  0.00     0.037 A 
BRANCH  25  39
ATOM     39  C   UNL A   1      37.145  32.402  29.830  1.00  0.00     0.058 A 
ATOM     40  C   UNL A   1      37.134  33.482  28.932  1.00  0.00     0.135 A 
ATOM     41  C   UNL A   1      35.927  32.022  30.413  1.00  0.00     0.135 A 
ATOM     42  F   UNL A   1      38.271  33.880  28.340  1.00  0.00    -0.206 F 
ATOM     43  C   UNL A   1      35.965  34.179  28.647  1.00  0.00     0.059 A 
ATOM     44  C   UNL A   1      34.740  32.695  30.128  1.00  0.00     0.059 A 
ATOM     45  F   UNL A   1      35.879  30.982  31.260  1.00  0.00    -0.206 F 
ATOM     46  C   UNL A   1      34.773  33.784  29.257  1.00  0.00     0.060 A 
BRANCH  46  47
ATOM     47  S   UNL A   1      33.264  34.699  28.874  1.00  0.00     0.124 S 
ATOM     48  O   UNL A   1      33.796  35.958  28.366  1.00  0.00    -0.237 OA
ATOM     49  O   UNL A   1      32.623  33.835  27.887  1.00  0.00    -0.237 OA
ATOM     50  O   UNL A   1      32.580  34.777  30.162  1.00  0.00    -0.744 OA
ENDBRANCH  46  47
ENDBRANCH  25  39
BRANCH  26  51
ATOM     51  C   UNL A   1      45.572  27.676  32.471  1.00  0.00     0.058 A 
ATOM     52  C   UNL A   1      46.801  27.860  31.816  1.00  0.00     0.135 A 
ATOM     53  C   UNL A   1      45.523  26.752  33.524  1.00  0.00     0.135 A 
ATOM     54  F   UNL A   1      46.896  28.725  30.795  1.00  0.00    -0.206 F 
ATOM     55  C   UNL A   1      47.930  27.132  32.169  1.00  0.00     0.059 A 
ATOM     56  C   UNL A   1      46.648  26.030  33.914  1.00  0.00     0.059 A 
ATOM     57  F   UNL A   1      44.374  26.549  34.186  1.00  0.00    -0.206 F 
ATOM     58  C   UNL A   1      47.843  26.216  33.218  1.00  0.00     0.060 A 
BRANCH  58  59
ATOM     59  S   UNL A   1      49.321  25.284  33.670  1.00  0.00     0.124 S 
ATOM     60  O   UNL A   1      49.879  24.973  32.358  1.00  0.00    -0.237 OA
ATOM     61  O   UNL A   1      50.069  26.255  34.462  1.00  0.00    -0.237 OA
ATOM     62  O   UNL A   1      48.788  24.149  34.414  1.00  0.00    -0.744 OA
ENDBRANCH  58  59
ENDBRANCH  26  51
BRANCH  38  63
ATOM     63  C   UNL A   1      42.730  33.812  34.150  1.00  0.00     0.058 A 
ATOM     64  C   UNL A   1      42.317  33.837  35.490  1.00  0.00     0.135 A 
ATOM     65  C   UNL A   1      43.525  34.870  33.681  1.00  0.00     0.135 A 
ATOM     66  F   UNL A   1      41.556  32.848  35.983  1.00  0.00    -0.206 F 
ATOM     67  C   UNL A   1      42.672  34.881  36.335  1.00  0.00     0.059 A 
ATOM     68  C   UNL A   1      43.908  35.914  34.515  1.00  0.00     0.059 A 
ATOM     69  F   UNL A   1      43.954  34.879  32.409  1.00  0.00    -0.206 F 
ATOM     70  C   UNL A   1      43.464  35.917  35.838  1.00  0.00     0.060 A 
BRANCH  70  71
ATOM     71  S   UNL A   1      43.940  37.254  36.955  1.00  0.00     0.124 S 
ATOM     72  O   UNL A   1      42.828  37.262  37.899  1.00  0.00    -0.237 OA
ATOM     73  O   UNL A   1      45.217  36.780  37.480  1.00  0.00    -0.237 OA
ATOM     74  O   UNL A   1      44.025  38.414  36.073  1.00  0.00    -0.744 OA
ENDBRANCH  70  71
ENDBRANCH  38  63
ENDBRANCH  12  13
ENDBRANCH   5   7
ENDBRANCH   2   3
ENDBRANCH   1   2
BRANCH   1  75
ATOM     75  C   UNL A   1      34.442  24.664  25.600  1.00  0.00     0.117 C 
BRANCH  75  76
ATOM     76  N   UNL A   1      34.156  25.574  24.504  1.00  0.00    -0.356 N 
ATOM     77  C   UNL A   1      33.794  26.879  24.471  1.00  0.00     0.227 C 
ATOM     78  H   UNL A   1      34.241  25.163  23.614  1.00  0.00     0.163 HD
ATOM     79  O   UNL A   1      33.739  27.405  23.351  1.00  0.00    -0.275 OA
BRANCH  77  80
ATOM     80  C   UNL A   1      33.371  27.693  25.678  1.00  0.00     0.127 C 
ATOM     81  C   UNL A   1      31.886  28.081  25.829  1.00  0.00     0.127 C 
ATOM     82  C   UNL A   1      34.074  29.063  25.633  1.00  0.00     0.155 C 
ATOM     83  C   UNL A   1      32.011  29.607  26.045  1.00  0.00     0.155 C 
ATOM     84  C   UNL A   1      34.077  29.666  27.004  1.00  0.00     0.004 C 
ATOM     85  O   UNL A   1      33.034  29.896  25.047  1.00  0.00    -0.365 OA
ATOM     86  C   UNL A   1      32.804  30.000  27.258  1.00  0.00     0.004 C 
BRANCH  81  87
ATOM     87  C   UNL A   1      31.120  27.390  26.943  1.00  0.00     0.233 C 
ATOM     88  O   UNL A   1      30.977  27.891  28.062  1.00  0.00    -0.274 OA
ATOM     89  N   UNL A   1      30.444  26.232  26.682  1.00  0.00    -0.302 N 
ATOM     90  H   UNL A   1      29.735  25.985  27.320  1.00  0.00     0.172 HD
BRANCH  89  91
ATOM     91  C   UNL A   1      30.642  25.382  25.635  1.00  0.00     0.189 A 
ATOM     92  N   UNL A   1      31.281  24.243  25.616  1.00  0.00    -0.220 NA
ATOM     93  S   UNL A   1      29.905  25.866  24.175  1.00  0.00    -0.105 S 
ATOM     94  C   UNL A   1      31.176  23.678  24.355  1.00  0.00     0.084 A 
ATOM     95  C   UNL A   1      30.531  24.458  23.414  1.00  0.00     0.097 A 
BRANCH  94  96
ATOM     96  C   UNL A   1      31.651  22.332  24.080  1.00  0.00     0.001 A 
ATOM     97  C   UNL A   1      32.007  21.503  25.156  1.00  0.00     0.013 A 
ATOM     98  C   UNL A   1      31.748  21.839  22.772  1.00  0.00     0.013 A 
ATOM     99  C   UNL A   1      32.441  20.196  24.927  1.00  0.00     0.040 A 
ATOM    100  C   UNL A   1      32.208  20.538  22.545  1.00  0.00     0.040 A 
ATOM    101  C   UNL A   1      32.542  19.727  23.624  1.00  0.00     0.123 A 
ATOM    102  F   UNL A   1      32.966  18.475  23.404  1.00  0.00    -0.207 F 
ENDBRANCH  94  96
ENDBRANCH  89  91
ENDBRANCH  81  87
ENDBRANCH  77  80
ENDBRANCH  75  76
ENDBRANCH   1  75
TORSDOF 16
ENDMDL
