MODEL 1
REMARK VINA RESULT:     -11.2      0.000      0.000
REMARK SMILES O=C(C[C@H]1C[N@@H+](CCSc2ccccc2F)CCO1)NCCCNC(=O)c1ccc(-c2c3nc(c(-c4c(F)cc(S(=O)(=O)[O-])cc4F)c4ccc([nH]4)c(-c4c(F)cc(S(=O)(=O)[O-])cc4F)c4nc(c(-c5c(F)cc(S(=O)(=O)[O-])cc5F)c5ccc2[nH]5)C=C4)C=C3)cc1
REMARK SMILES IDX 21 1 20 2 1 3 2 4 3 6 4 7 5 8 19 9 6 10 18 11 17 12 7 14
REMARK SMILES IDX 8 15 9 16 10 17 11 18 15 19 12 20 14 21 16 22 13 23 22 24
REMARK SMILES IDX 23 25 24 26 25 27 26 29 27 30 28 31 92 32 29 33 91 34 30 35
REMARK SMILES IDX 31 36 32 37 85 38 33 39 90 40 84 41 86 42 34 43 89 44 83 45
REMARK SMILES IDX 82 46 35 48 69 49 48 50 68 51 49 52 52 53 67 54 87 55 50 56
REMARK SMILES IDX 51 57 66 59 88 60 53 61 36 62 37 63 46 64 38 65 39 66 45 67
REMARK SMILES IDX 47 68 40 69 41 70 42 71 43 72 44 73 70 74 71 75 80 76 72 77
REMARK SMILES IDX 73 78 79 79 81 80 74 81 75 82 76 83 77 84 78 85 54 86 55 87
REMARK SMILES IDX 64 88 56 89 57 90 63 91 65 92 58 93 59 94 60 95 61 96 62 97
REMARK H PARENT 20 5 6 13 24 28 86 47 52 58
REMARK Flexibility Score: inf
ROOT
ATOM      1  C   UNL A   1      39.900  21.769  26.109  1.00  0.00     0.117 C 
ENDROOT
BRANCH   1   2
ATOM      2  N   UNL A   1      38.552  22.102  25.698  1.00  0.00    -0.356 N 
ATOM      3  O   UNL A   1      37.989  20.009  24.946  1.00  0.00    -0.275 OA
ATOM      4  C   UNL A   1      37.691  21.182  25.148  1.00  0.00     0.222 C 
ATOM      5  H   UNL A   1      38.239  23.027  25.817  1.00  0.00     0.163 HD
BRANCH   4   6
ATOM      6  C   UNL A   1      36.348  21.748  24.755  1.00  0.00     0.138 C 
BRANCH   6   7
ATOM      7  C   UNL A   1      35.142  21.336  25.599  1.00  0.00     0.182 C 
ATOM      8  C   UNL A   1      34.711  22.367  26.676  1.00  0.00     0.295 C 
ATOM      9  O   UNL A   1      34.072  20.754  24.836  1.00  0.00    -0.366 OA
ATOM     10  N   UNL A   1      33.588  23.246  26.345  1.00  0.00    -0.330 N 
ATOM     11  C   UNL A   1      32.983  21.645  24.569  1.00  0.00     0.222 C 
ATOM     12  C   UNL A   1      32.529  22.418  25.805  1.00  0.00     0.291 C 
ATOM     13  H   UNL A   1      33.241  23.681  27.201  1.00  0.00     0.348 HD
BRANCH  10  14
ATOM     14  C   UNL A   1      33.897  24.514  25.664  1.00  0.00     0.273 C 
BRANCH  14  15
ATOM     15  C   UNL A   1      33.261  25.911  25.975  1.00  0.00     0.136 C 
BRANCH  15  16
ATOM     16  S   UNL A   1      33.641  27.416  24.951  1.00  0.00    -0.117 SA
BRANCH  16  17
ATOM     17  C   UNL A   1      33.749  28.783  26.109  1.00  0.00     0.043 A 
ATOM     18  C   UNL A   1      34.872  29.041  26.905  1.00  0.00     0.018 A 
ATOM     19  C   UNL A   1      32.655  29.658  26.218  1.00  0.00     0.136 A 
ATOM     20  C   UNL A   1      34.936  30.209  27.685  1.00  0.00     0.001 A 
ATOM     21  C   UNL A   1      32.733  30.844  26.948  1.00  0.00     0.040 A 
ATOM     22  F   UNL A   1      31.539  29.440  25.502  1.00  0.00    -0.206 F 
ATOM     23  C   UNL A   1      33.884  31.129  27.673  1.00  0.00     0.003 A 
ENDBRANCH  16  17
ENDBRANCH  15  16
ENDBRANCH  14  15
ENDBRANCH  10  14
ENDBRANCH   6   7
ENDBRANCH   4   6
ENDBRANCH   1   2
BRANCH   1  24
ATOM     24  C   UNL A   1      40.271  22.374  27.455  1.00  0.00     0.042 C 
BRANCH  24  25
ATOM     25  C   UNL A   1      41.591  23.135  27.454  1.00  0.00     0.118 C 
BRANCH  25  26
ATOM     26  N   UNL A   1      41.813  23.906  26.240  1.00  0.00    -0.352 N 
ATOM     27  C   UNL A   1      41.736  25.264  26.033  1.00  0.00     0.251 C 
ATOM     28  H   UNL A   1      42.054  23.376  25.447  1.00  0.00     0.163 HD
ATOM     29  O   UNL A   1      41.845  25.701  24.895  1.00  0.00    -0.269 OA
BRANCH  27  30
ATOM     30  C   UNL A   1      41.499  26.190  27.169  1.00  0.00     0.039 A 
ATOM     31  C   UNL A   1      40.377  25.983  27.977  1.00  0.00     0.014 A 
ATOM     32  C   UNL A   1      42.348  27.269  27.428  1.00  0.00     0.014 A 
ATOM     33  C   UNL A   1      40.135  26.829  29.062  1.00  0.00     0.010 A 
ATOM     34  C   UNL A   1      42.156  28.056  28.563  1.00  0.00     0.010 A 
ATOM     35  C   UNL A   1      41.035  27.860  29.382  1.00  0.00    -0.014 A 
BRANCH  35  36
ATOM     36  C   UNL A   1      40.792  28.754  30.546  1.00  0.00     0.031 A 
ATOM     37  C   UNL A   1      41.649  28.643  31.781  1.00  0.00     0.074 A 
ATOM     38  C   UNL A   1      39.793  29.658  30.498  1.00  0.00     0.049 A 
ATOM     39  N   UNL A   1      41.598  29.343  32.886  1.00  0.00    -0.248 NA
ATOM     40  C   UNL A   1      42.683  27.595  31.788  1.00  0.00     0.031 C 
ATOM     41  C   UNL A   1      38.863  29.829  29.379  1.00  0.00     0.029 A 
ATOM     42  N   UNL A   1      39.396  30.608  31.406  1.00  0.00    -0.354 N 
ATOM     43  C   UNL A   1      42.586  28.821  33.713  1.00  0.00     0.074 A 
ATOM     44  C   UNL A   1      43.175  27.701  33.013  1.00  0.00     0.031 C 
ATOM     45  C   UNL A   1      38.037  30.854  29.646  1.00  0.00     0.029 A 
ATOM     46  C   UNL A   1      38.351  31.389  30.969  1.00  0.00     0.049 A 
ATOM     47  H   UNL A   1      39.820  30.721  32.287  1.00  0.00     0.167 HD
ATOM     48  C   UNL A   1      42.993  29.258  34.929  1.00  0.00     0.037 A 
ATOM     49  C   UNL A   1      37.723  32.426  31.559  1.00  0.00     0.037 A 
ATOM     50  C   UNL A   1      42.419  30.388  35.612  1.00  0.00     0.049 A 
ATOM     51  C   UNL A   1      38.192  32.892  32.910  1.00  0.00     0.074 A 
ATOM     52  C   UNL A   1      42.782  30.930  36.832  1.00  0.00     0.029 A 
ATOM     53  N   UNL A   1      41.365  31.153  35.133  1.00  0.00    -0.354 N 
ATOM     54  N   UNL A   1      39.159  32.414  33.658  1.00  0.00    -0.248 NA
ATOM     55  C   UNL A   1      37.497  34.048  33.493  1.00  0.00     0.031 C 
ATOM     56  C   UNL A   1      41.918  31.992  37.114  1.00  0.00     0.029 A 
ATOM     57  C   UNL A   1      41.059  32.155  36.039  1.00  0.00     0.049 A 
ATOM     58  H   UNL A   1      40.904  31.006  34.275  1.00  0.00     0.167 HD
ATOM     59  C   UNL A   1      39.212  33.233  34.781  1.00  0.00     0.074 A 
ATOM     60  C   UNL A   1      38.185  34.241  34.610  1.00  0.00     0.031 C 
ATOM     61  C   UNL A   1      40.041  33.160  35.853  1.00  0.00     0.037 A 
BRANCH  48  62
ATOM     62  C   UNL A   1      44.129  28.527  35.595  1.00  0.00     0.058 A 
ATOM     63  C   UNL A   1      43.878  27.494  36.511  1.00  0.00     0.135 A 
ATOM     64  C   UNL A   1      45.469  28.891  35.373  1.00  0.00     0.135 A 
ATOM     65  F   UNL A   1      42.619  27.098  36.757  1.00  0.00    -0.206 F 
ATOM     66  C   UNL A   1      44.910  26.860  37.195  1.00  0.00     0.059 A 
ATOM     67  C   UNL A   1      46.519  28.249  36.024  1.00  0.00     0.059 A 
ATOM     68  F   UNL A   1      45.770  29.857  34.491  1.00  0.00    -0.206 F 
ATOM     69  C   UNL A   1      46.228  27.245  36.945  1.00  0.00     0.060 A 
BRANCH  69  70
ATOM     70  S   UNL A   1      47.556  26.392  37.821  1.00  0.00     0.124 S 
ATOM     71  O   UNL A   1      46.990  26.245  39.157  1.00  0.00    -0.237 OA
ATOM     72  O   UNL A   1      47.690  25.161  37.047  1.00  0.00    -0.237 OA
ATOM     73  O   UNL A   1      48.683  27.315  37.711  1.00  0.00    -0.744 OA
ENDBRANCH  69  70
ENDBRANCH  48  62
BRANCH  49  74
ATOM     74  C   UNL A   1      36.620  33.124  30.844  1.00  0.00     0.058 A 
ATOM     75  C   UNL A   1      36.884  34.083  29.853  1.00  0.00     0.135 A 
ATOM     76  C   UNL A   1      35.277  32.872  31.165  1.00  0.00     0.135 A 
ATOM     77  F   UNL A   1      38.151  34.373  29.517  1.00  0.00    -0.206 F 
ATOM     78  C   UNL A   1      35.859  34.783  29.225  1.00  0.00     0.059 A 
ATOM     79  C   UNL A   1      34.233  33.537  30.528  1.00  0.00     0.059 A 
ATOM     80  F   UNL A   1      34.972  31.956  32.098  1.00  0.00    -0.206 F 
ATOM     81  C   UNL A   1      34.536  34.504  29.571  1.00  0.00     0.060 A 
BRANCH  81  82
ATOM     82  S   UNL A   1      33.224  35.434  28.751  1.00  0.00     0.124 S 
ATOM     83  O   UNL A   1      33.994  36.343  27.908  1.00  0.00    -0.237 OA
ATOM     84  O   UNL A   1      32.496  34.382  28.052  1.00  0.00    -0.237 OA
ATOM     85  O   UNL A   1      32.510  36.060  29.859  1.00  0.00    -0.744 OA
ENDBRANCH  81  82
ENDBRANCH  49  74
BRANCH  61  86
ATOM     86  C   UNL A   1      39.914  34.225  36.909  1.00  0.00     0.058 A 
ATOM     87  C   UNL A   1      39.062  34.029  38.009  1.00  0.00     0.135 A 
ATOM     88  C   UNL A   1      40.584  35.455  36.812  1.00  0.00     0.135 A 
ATOM     89  F   UNL A   1      38.388  32.877  38.146  1.00  0.00    -0.206 F 
ATOM     90  C   UNL A   1      38.875  35.016  38.970  1.00  0.00     0.059 A 
ATOM     91  C   UNL A   1      40.437  36.444  37.781  1.00  0.00     0.059 A 
ATOM     92  F   UNL A   1      41.414  35.693  35.784  1.00  0.00    -0.206 F 
ATOM     93  C   UNL A   1      39.570  36.219  38.851  1.00  0.00     0.060 A 
BRANCH  93  94
ATOM     94  S   UNL A   1      39.351  37.467  40.135  1.00  0.00     0.124 S 
ATOM     95  O   UNL A   1      40.686  38.048  40.222  1.00  0.00    -0.237 OA
ATOM     96  O   UNL A   1      38.321  38.326  39.558  1.00  0.00    -0.237 OA
ATOM     97  O   UNL A   1      38.927  36.688  41.296  1.00  0.00    -0.744 OA
ENDBRANCH  93  94
ENDBRANCH  61  86
ENDBRANCH  35  36
ENDBRANCH  27  30
ENDBRANCH  25  26
ENDBRANCH  24  25
ENDBRANCH   1  24
TORSDOF 18
ENDMDL
MODEL 2
REMARK VINA RESULT:     -10.9      0.865      1.529
REMARK SMILES O=C(C[C@H]1C[N@@H+](CCSc2ccccc2F)CCO1)NCCCNC(=O)c1ccc(-c2c3nc(c(-c4c(F)cc(S(=O)(=O)[O-])cc4F)c4ccc([nH]4)c(-c4c(F)cc(S(=O)(=O)[O-])cc4F)c4nc(c(-c5c(F)cc(S(=O)(=O)[O-])cc5F)c5ccc2[nH]5)C=C4)C=C3)cc1
REMARK SMILES IDX 21 1 20 2 1 3 2 4 3 6 4 7 5 8 19 9 6 10 18 11 17 12 7 14
REMARK SMILES IDX 8 15 9 16 10 17 11 18 15 19 12 20 14 21 16 22 13 23 22 24
REMARK SMILES IDX 23 25 24 26 25 27 26 29 27 30 28 31 92 32 29 33 91 34 30 35
REMARK SMILES IDX 31 36 32 37 85 38 33 39 90 40 84 41 86 42 34 43 89 44 83 45
REMARK SMILES IDX 82 46 35 48 69 49 48 50 68 51 49 52 52 53 67 54 87 55 50 56
REMARK SMILES IDX 51 57 66 59 88 60 53 61 36 62 37 63 46 64 38 65 39 66 45 67
REMARK SMILES IDX 47 68 40 69 41 70 42 71 43 72 44 73 70 74 71 75 80 76 72 77
REMARK SMILES IDX 73 78 79 79 81 80 74 81 75 82 76 83 77 84 78 85 54 86 55 87
REMARK SMILES IDX 64 88 56 89 57 90 63 91 65 92 58 93 59 94 60 95 61 96 62 97
REMARK H PARENT 20 5 6 13 24 28 86 47 52 58
REMARK Flexibility Score: inf
ROOT
ATOM      1  C   UNL A   1      40.001  21.594  26.150  1.00  0.00     0.117 C 
ENDROOT
BRANCH   1   2
ATOM      2  N   UNL A   1      38.677  22.053  25.785  1.00  0.00    -0.356 N 
ATOM      3  O   UNL A   1      38.019  20.127  24.729  1.00  0.00    -0.275 OA
ATOM      4  C   UNL A   1      37.778  21.271  25.100  1.00  0.00     0.222 C 
ATOM      5  H   UNL A   1      38.409  22.966  26.038  1.00  0.00     0.163 HD
BRANCH   4   6
ATOM      6  C   UNL A   1      36.471  21.957  24.788  1.00  0.00     0.138 C 
BRANCH   6   7
ATOM      7  C   UNL A   1      35.268  21.601  25.661  1.00  0.00     0.182 C 
ATOM      8  C   UNL A   1      34.248  22.752  25.874  1.00  0.00     0.295 C 
ATOM      9  O   UNL A   1      34.697  20.316  25.367  1.00  0.00    -0.366 OA
ATOM     10  N   UNL A   1      33.048  22.744  25.035  1.00  0.00    -0.330 N 
ATOM     11  C   UNL A   1      33.507  20.365  24.572  1.00  0.00     0.222 C 
ATOM     12  C   UNL A   1      32.502  21.402  25.068  1.00  0.00     0.291 C 
ATOM     13  H   UNL A   1      32.355  23.375  25.438  1.00  0.00     0.348 HD
BRANCH  10  14
ATOM     14  C   UNL A   1      33.124  23.433  23.737  1.00  0.00     0.273 C 
BRANCH  14  15
ATOM     15  C   UNL A   1      34.064  24.635  23.381  1.00  0.00     0.136 C 
BRANCH  15  16
ATOM     16  S   UNL A   1      33.415  26.366  23.182  1.00  0.00    -0.117 SA
BRANCH  16  17
ATOM     17  C   UNL A   1      33.015  26.933  24.837  1.00  0.00     0.043 A 
ATOM     18  C   UNL A   1      33.924  27.594  25.674  1.00  0.00     0.018 A 
ATOM     19  C   UNL A   1      31.714  26.721  25.323  1.00  0.00     0.136 A 
ATOM     20  C   UNL A   1      33.497  28.130  26.902  1.00  0.00     0.001 A 
ATOM     21  C   UNL A   1      31.272  27.296  26.514  1.00  0.00     0.040 A 
ATOM     22  F   UNL A   1      30.811  26.065  24.576  1.00  0.00    -0.206 F 
ATOM     23  C   UNL A   1      32.163  28.017  27.301  1.00  0.00     0.003 A 
ENDBRANCH  16  17
ENDBRANCH  15  16
ENDBRANCH  14  15
ENDBRANCH  10  14
ENDBRANCH   6   7
ENDBRANCH   4   6
ENDBRANCH   1   2
BRANCH   1  24
ATOM     24  C   UNL A   1      40.418  22.046  27.543  1.00  0.00     0.042 C 
BRANCH  24  25
ATOM     25  C   UNL A   1      41.591  23.017  27.558  1.00  0.00     0.118 C 
BRANCH  25  26
ATOM     26  N   UNL A   1      41.724  23.783  26.328  1.00  0.00    -0.352 N 
ATOM     27  C   UNL A   1      41.577  25.134  26.112  1.00  0.00     0.251 C 
ATOM     28  H   UNL A   1      41.953  23.254  25.530  1.00  0.00     0.163 HD
ATOM     29  O   UNL A   1      41.616  25.561  24.965  1.00  0.00    -0.269 OA
BRANCH  27  30
ATOM     30  C   UNL A   1      41.350  26.062  27.247  1.00  0.00     0.039 A 
ATOM     31  C   UNL A   1      40.220  25.872  28.049  1.00  0.00     0.014 A 
ATOM     32  C   UNL A   1      42.215  27.126  27.514  1.00  0.00     0.014 A 
ATOM     33  C   UNL A   1      39.986  26.720  29.135  1.00  0.00     0.010 A 
ATOM     34  C   UNL A   1      42.030  27.914  28.649  1.00  0.00     0.010 A 
ATOM     35  C   UNL A   1      40.902  27.735  29.461  1.00  0.00    -0.014 A 
BRANCH  35  36
ATOM     36  C   UNL A   1      40.667  28.631  30.625  1.00  0.00     0.031 A 
ATOM     37  C   UNL A   1      41.519  28.508  31.863  1.00  0.00     0.074 A 
ATOM     38  C   UNL A   1      39.680  29.548  30.576  1.00  0.00     0.049 A 
ATOM     39  N   UNL A   1      41.474  29.207  32.968  1.00  0.00    -0.248 NA
ATOM     40  C   UNL A   1      42.539  27.446  31.871  1.00  0.00     0.031 C 
ATOM     41  C   UNL A   1      38.755  29.733  29.454  1.00  0.00     0.029 A 
ATOM     42  N   UNL A   1      39.293  30.503  31.484  1.00  0.00    -0.354 N 
ATOM     43  C   UNL A   1      42.453  28.673  33.797  1.00  0.00     0.074 A 
ATOM     44  C   UNL A   1      43.029  27.546  33.098  1.00  0.00     0.031 C 
ATOM     45  C   UNL A   1      37.941  30.767  29.720  1.00  0.00     0.029 A 
ATOM     46  C   UNL A   1      38.259  31.297  31.044  1.00  0.00     0.049 A 
ATOM     47  H   UNL A   1      39.715  30.609  32.366  1.00  0.00     0.167 HD
ATOM     48  C   UNL A   1      42.863  29.102  35.014  1.00  0.00     0.037 A 
ATOM     49  C   UNL A   1      37.643  32.342  31.633  1.00  0.00     0.037 A 
ATOM     50  C   UNL A   1      42.301  30.239  35.697  1.00  0.00     0.049 A 
ATOM     51  C   UNL A   1      38.114  32.800  32.986  1.00  0.00     0.074 A 
ATOM     52  C   UNL A   1      42.668  30.775  36.919  1.00  0.00     0.029 A 
ATOM     53  N   UNL A   1      41.259  31.019  35.216  1.00  0.00    -0.354 N 
ATOM     54  N   UNL A   1      39.073  32.309  33.736  1.00  0.00    -0.248 NA
ATOM     55  C   UNL A   1      37.433  33.965  33.568  1.00  0.00     0.031 C 
ATOM     56  C   UNL A   1      41.816  31.849  37.199  1.00  0.00     0.029 A 
ATOM     57  C   UNL A   1      40.963  32.023  36.122  1.00  0.00     0.049 A 
ATOM     58  H   UNL A   1      40.798  30.878  34.357  1.00  0.00     0.167 HD
ATOM     59  C   UNL A   1      39.134  33.127  34.860  1.00  0.00     0.074 A 
ATOM     60  C   UNL A   1      38.121  34.148  34.687  1.00  0.00     0.031 C 
ATOM     61  C   UNL A   1      39.959  33.042  35.935  1.00  0.00     0.037 A 
BRANCH  48  62
ATOM     62  C   UNL A   1      43.987  28.357  35.683  1.00  0.00     0.058 A 
ATOM     63  C   UNL A   1      45.325  28.684  35.414  1.00  0.00     0.135 A 
ATOM     64  C   UNL A   1      43.742  27.275  36.546  1.00  0.00     0.135 A 
ATOM     65  F   UNL A   1      45.621  29.713  34.604  1.00  0.00    -0.206 F 
ATOM     66  C   UNL A   1      46.378  27.957  35.960  1.00  0.00     0.059 A 
ATOM     67  C   UNL A   1      44.779  26.553  37.128  1.00  0.00     0.059 A 
ATOM     68  F   UNL A   1      42.482  26.931  36.857  1.00  0.00    -0.206 F 
ATOM     69  C   UNL A   1      46.095  26.892  36.818  1.00  0.00     0.060 A 
BRANCH  69  70
ATOM     70  S   UNL A   1      47.474  25.978  37.540  1.00  0.00     0.124 S 
ATOM     71  O   UNL A   1      48.066  26.973  38.424  1.00  0.00    -0.237 OA
ATOM     72  O   UNL A   1      46.790  24.866  38.196  1.00  0.00    -0.237 OA
ATOM     73  O   UNL A   1      48.278  25.606  36.378  1.00  0.00    -0.744 OA
ENDBRANCH  69  70
ENDBRANCH  48  62
BRANCH  49  74
ATOM     74  C   UNL A   1      36.551  33.055  30.916  1.00  0.00     0.058 A 
ATOM     75  C   UNL A   1      36.830  33.990  29.906  1.00  0.00     0.135 A 
ATOM     76  C   UNL A   1      35.206  32.842  31.253  1.00  0.00     0.135 A 
ATOM     77  F   UNL A   1      38.100  34.241  29.553  1.00  0.00    -0.206 F 
ATOM     78  C   UNL A   1      35.817  34.703  29.275  1.00  0.00     0.059 A 
ATOM     79  C   UNL A   1      34.172  33.523  30.615  1.00  0.00     0.059 A 
ATOM     80  F   UNL A   1      34.887  31.951  32.205  1.00  0.00    -0.206 F 
ATOM     81  C   UNL A   1      34.490  34.465  29.637  1.00  0.00     0.060 A 
BRANCH  81  82
ATOM     82  S   UNL A   1      33.195  35.413  28.813  1.00  0.00     0.124 S 
ATOM     83  O   UNL A   1      32.470  35.968  29.952  1.00  0.00    -0.237 OA
ATOM     84  O   UNL A   1      33.969  36.367  28.027  1.00  0.00    -0.237 OA
ATOM     85  O   UNL A   1      32.475  34.404  28.043  1.00  0.00    -0.744 OA
ENDBRANCH  81  82
ENDBRANCH  49  74
BRANCH  61  86
ATOM     86  C   UNL A   1      39.843  34.108  36.991  1.00  0.00     0.058 A 
ATOM     87  C   UNL A   1      39.070  33.878  38.141  1.00  0.00     0.135 A 
ATOM     88  C   UNL A   1      40.443  35.369  36.848  1.00  0.00     0.135 A 
ATOM     89  F   UNL A   1      38.463  32.695  38.325  1.00  0.00    -0.206 F 
ATOM     90  C   UNL A   1      38.892  34.861  39.107  1.00  0.00     0.059 A 
ATOM     91  C   UNL A   1      40.306  36.357  37.819  1.00  0.00     0.059 A 
ATOM     92  F   UNL A   1      41.197  35.639  35.770  1.00  0.00    -0.206 F 
ATOM     93  C   UNL A   1      39.518  36.097  38.941  1.00  0.00     0.060 A 
BRANCH  93  94
ATOM     94  S   UNL A   1      39.314  37.343  40.230  1.00  0.00     0.124 S 
ATOM     95  O   UNL A   1      38.545  36.615  41.233  1.00  0.00    -0.237 OA
ATOM     96  O   UNL A   1      40.696  37.647  40.586  1.00  0.00    -0.237 OA
ATOM     97  O   UNL A   1      38.598  38.420  39.550  1.00  0.00    -0.744 OA
ENDBRANCH  93  94
ENDBRANCH  61  86
ENDBRANCH  35  36
ENDBRANCH  27  30
ENDBRANCH  25  26
ENDBRANCH  24  25
ENDBRANCH   1  24
TORSDOF 18
ENDMDL
MODEL 3
REMARK VINA RESULT:     -10.7      3.425      4.545
REMARK SMILES O=C(C[C@H]1C[N@@H+](CCSc2ccccc2F)CCO1)NCCCNC(=O)c1ccc(-c2c3nc(c(-c4c(F)cc(S(=O)(=O)[O-])cc4F)c4ccc([nH]4)c(-c4c(F)cc(S(=O)(=O)[O-])cc4F)c4nc(c(-c5c(F)cc(S(=O)(=O)[O-])cc5F)c5ccc2[nH]5)C=C4)C=C3)cc1
REMARK SMILES IDX 21 1 20 2 1 3 2 4 3 6 4 7 5 8 19 9 6 10 18 11 17 12 7 14
REMARK SMILES IDX 8 15 9 16 10 17 11 18 15 19 12 20 14 21 16 22 13 23 22 24
REMARK SMILES IDX 23 25 24 26 25 27 26 29 27 30 28 31 92 32 29 33 91 34 30 35
REMARK SMILES IDX 31 36 32 37 85 38 33 39 90 40 84 41 86 42 34 43 89 44 83 45
REMARK SMILES IDX 82 46 35 48 69 49 48 50 68 51 49 52 52 53 67 54 87 55 50 56
REMARK SMILES IDX 51 57 66 59 88 60 53 61 36 62 37 63 46 64 38 65 39 66 45 67
REMARK SMILES IDX 47 68 40 69 41 70 42 71 43 72 44 73 70 74 71 75 80 76 72 77
REMARK SMILES IDX 73 78 79 79 81 80 74 81 75 82 76 83 77 84 78 85 54 86 55 87
REMARK SMILES IDX 64 88 56 89 57 90 63 91 65 92 58 93 59 94 60 95 61 96 62 97
REMARK H PARENT 20 5 6 13 24 28 86 47 52 58
REMARK Flexibility Score: inf
ROOT
ATOM      1  C   UNL A   1      34.199  22.673  25.779  1.00  0.00     0.117 C 
ENDROOT
BRANCH   1   2
ATOM      2  N   UNL A   1      33.390  23.357  24.792  1.00  0.00    -0.356 N 
ATOM      3  O   UNL A   1      33.049  21.541  23.435  1.00  0.00    -0.275 OA
ATOM      4  C   UNL A   1      32.868  22.727  23.688  1.00  0.00     0.222 C 
ATOM      5  H   UNL A   1      33.207  24.316  24.918  1.00  0.00     0.163 HD
BRANCH   4   6
ATOM      6  C   UNL A   1      32.088  23.634  22.768  1.00  0.00     0.138 C 
BRANCH   6   7
ATOM      7  C   UNL A   1      32.885  24.643  21.941  1.00  0.00     0.182 C 
ATOM      8  C   UNL A   1      32.030  25.714  21.211  1.00  0.00     0.295 C 
ATOM      9  O   UNL A   1      34.061  25.136  22.603  1.00  0.00    -0.366 OA
ATOM     10  N   UNL A   1      31.923  27.029  21.848  1.00  0.00    -0.330 N 
ATOM     11  C   UNL A   1      33.914  26.439  23.179  1.00  0.00     0.222 C 
ATOM     12  C   UNL A   1      33.259  27.440  22.230  1.00  0.00     0.291 C 
ATOM     13  H   UNL A   1      31.570  27.701  21.166  1.00  0.00     0.348 HD
BRANCH  10  14
ATOM     14  C   UNL A   1      30.831  27.226  22.814  1.00  0.00     0.273 C 
BRANCH  14  15
ATOM     15  C   UNL A   1      30.859  28.172  24.062  1.00  0.00     0.136 C 
BRANCH  15  16
ATOM     16  S   UNL A   1      31.373  27.568  25.744  1.00  0.00    -0.117 SA
BRANCH  16  17
ATOM     17  C   UNL A   1      32.561  28.768  26.354  1.00  0.00     0.043 A 
ATOM     18  C   UNL A   1      32.241  30.100  26.644  1.00  0.00     0.018 A 
ATOM     19  C   UNL A   1      33.885  28.350  26.569  1.00  0.00     0.136 A 
ATOM     20  C   UNL A   1      33.192  30.942  27.249  1.00  0.00     0.001 A 
ATOM     21  C   UNL A   1      34.815  29.164  27.216  1.00  0.00     0.040 A 
ATOM     22  F   UNL A   1      34.255  27.092  26.278  1.00  0.00    -0.206 F 
ATOM     23  C   UNL A   1      34.463  30.461  27.572  1.00  0.00     0.003 A 
ENDBRANCH  16  17
ENDBRANCH  15  16
ENDBRANCH  14  15
ENDBRANCH  10  14
ENDBRANCH   6   7
ENDBRANCH   4   6
ENDBRANCH   1   2
BRANCH   1  24
ATOM     24  C   UNL A   1      35.223  23.586  26.438  1.00  0.00     0.042 C 
BRANCH  24  25
ATOM     25  C   UNL A   1      36.393  23.962  25.537  1.00  0.00     0.118 C 
BRANCH  25  26
ATOM     26  N   UNL A   1      37.439  22.952  25.495  1.00  0.00    -0.352 N 
ATOM     27  C   UNL A   1      38.723  22.993  25.990  1.00  0.00     0.251 C 
ATOM     28  H   UNL A   1      37.192  22.113  25.045  1.00  0.00     0.163 HD
ATOM     29  O   UNL A   1      39.487  22.070  25.740  1.00  0.00    -0.269 OA
BRANCH  27  30
ATOM     30  C   UNL A   1      39.187  24.150  26.795  1.00  0.00     0.039 A 
ATOM     31  C   UNL A   1      39.972  25.125  26.172  1.00  0.00     0.014 A 
ATOM     32  C   UNL A   1      38.883  24.272  28.153  1.00  0.00     0.014 A 
ATOM     33  C   UNL A   1      40.413  26.234  26.899  1.00  0.00     0.010 A 
ATOM     34  C   UNL A   1      39.246  25.422  28.853  1.00  0.00     0.010 A 
ATOM     35  C   UNL A   1      40.034  26.407  28.241  1.00  0.00    -0.014 A 
BRANCH  35  36
ATOM     36  C   UNL A   1      40.486  27.593  29.017  1.00  0.00     0.031 A 
ATOM     37  C   UNL A   1      41.875  27.637  29.598  1.00  0.00     0.074 A 
ATOM     38  C   UNL A   1      39.642  28.628  29.210  1.00  0.00     0.049 A 
ATOM     39  N   UNL A   1      42.452  28.588  30.288  1.00  0.00    -0.248 NA
ATOM     40  C   UNL A   1      42.722  26.448  29.400  1.00  0.00     0.031 C 
ATOM     41  C   UNL A   1      38.256  28.685  28.740  1.00  0.00     0.029 A 
ATOM     42  N   UNL A   1      39.827  29.832  29.842  1.00  0.00    -0.354 N 
ATOM     43  C   UNL A   1      43.720  28.114  30.605  1.00  0.00     0.074 A 
ATOM     44  C   UNL A   1      43.806  26.764  30.093  1.00  0.00     0.031 C 
ATOM     45  C   UNL A   1      37.732  29.880  29.058  1.00  0.00     0.029 A 
ATOM     46  C   UNL A   1      38.729  30.660  29.785  1.00  0.00     0.049 A 
ATOM     47  H   UNL A   1      40.665  30.080  30.293  1.00  0.00     0.167 HD
ATOM     48  C   UNL A   1      44.735  28.756  31.230  1.00  0.00     0.037 A 
ATOM     49  C   UNL A   1      38.549  31.911  30.256  1.00  0.00     0.037 A 
ATOM     50  C   UNL A   1      44.651  30.109  31.718  1.00  0.00     0.049 A 
ATOM     51  C   UNL A   1      39.690  32.604  30.949  1.00  0.00     0.074 A 
ATOM     52  C   UNL A   1      45.634  30.861  32.337  1.00  0.00     0.029 A 
ATOM     53  N   UNL A   1      43.524  30.914  31.637  1.00  0.00    -0.354 N 
ATOM     54  N   UNL A   1      40.898  32.156  31.199  1.00  0.00    -0.248 NA
ATOM     55  C   UNL A   1      39.451  33.978  31.410  1.00  0.00     0.031 C 
ATOM     56  C   UNL A   1      45.087  32.103  32.674  1.00  0.00     0.029 A 
ATOM     57  C   UNL A   1      43.784  32.149  32.206  1.00  0.00     0.049 A 
ATOM     58  H   UNL A   1      42.666  30.646  31.235  1.00  0.00     0.167 HD
ATOM     59  C   UNL A   1      41.574  33.206  31.813  1.00  0.00     0.074 A 
ATOM     60  C   UNL A   1      40.643  34.312  31.889  1.00  0.00     0.031 C 
ATOM     61  C   UNL A   1      42.852  33.249  32.266  1.00  0.00     0.037 A 
BRANCH  48  62
ATOM     62  C   UNL A   1      46.034  28.016  31.407  1.00  0.00     0.058 A 
ATOM     63  C   UNL A   1      47.043  28.096  30.435  1.00  0.00     0.135 A 
ATOM     64  C   UNL A   1      46.258  27.177  32.512  1.00  0.00     0.135 A 
ATOM     65  F   UNL A   1      46.889  28.887  29.362  1.00  0.00    -0.206 F 
ATOM     66  C   UNL A   1      48.218  27.358  30.542  1.00  0.00     0.059 A 
ATOM     67  C   UNL A   1      47.439  26.454  32.655  1.00  0.00     0.059 A 
ATOM     68  F   UNL A   1      45.337  27.079  33.484  1.00  0.00    -0.206 F 
ATOM     69  C   UNL A   1      48.407  26.540  31.657  1.00  0.00     0.060 A 
BRANCH  69  70
ATOM     70  S   UNL A   1      49.950  25.612  31.793  1.00  0.00     0.124 S 
ATOM     71  O   UNL A   1      49.645  24.676  32.867  1.00  0.00    -0.237 OA
ATOM     72  O   UNL A   1      50.075  25.033  30.457  1.00  0.00    -0.237 OA
ATOM     73  O   UNL A   1      50.936  26.641  32.112  1.00  0.00    -0.744 OA
ENDBRANCH  69  70
ENDBRANCH  48  62
BRANCH  49  74
ATOM     74  C   UNL A   1      37.250  32.603  30.033  1.00  0.00     0.058 A 
ATOM     75  C   UNL A   1      37.106  33.585  29.040  1.00  0.00     0.135 A 
ATOM     76  C   UNL A   1      36.134  32.319  30.835  1.00  0.00     0.135 A 
ATOM     77  F   UNL A   1      38.145  33.904  28.253  1.00  0.00    -0.206 F 
ATOM     78  C   UNL A   1      35.912  34.277  28.867  1.00  0.00     0.059 A 
ATOM     79  C   UNL A   1      34.918  32.978  30.662  1.00  0.00     0.059 A 
ATOM     80  F   UNL A   1      36.217  31.381  31.791  1.00  0.00    -0.206 F 
ATOM     81  C   UNL A   1      34.824  33.968  29.685  1.00  0.00     0.060 A 
BRANCH  81  82
ATOM     82  S   UNL A   1      33.290  34.889  29.450  1.00  0.00     0.124 S 
ATOM     83  O   UNL A   1      32.524  33.973  28.611  1.00  0.00    -0.237 OA
ATOM     84  O   UNL A   1      32.814  35.043  30.821  1.00  0.00    -0.237 OA
ATOM     85  O   UNL A   1      33.729  36.118  28.798  1.00  0.00    -0.744 OA
ENDBRANCH  81  82
ENDBRANCH  49  74
BRANCH  61  86
ATOM     86  C   UNL A   1      43.346  34.549  32.842  1.00  0.00     0.058 A 
ATOM     87  C   UNL A   1      43.236  34.796  34.221  1.00  0.00     0.135 A 
ATOM     88  C   UNL A   1      43.874  35.570  32.036  1.00  0.00     0.135 A 
ATOM     89  F   UNL A   1      42.728  33.860  35.038  1.00  0.00    -0.206 F 
ATOM     90  C   UNL A   1      43.625  36.008  34.778  1.00  0.00     0.059 A 
ATOM     91  C   UNL A   1      44.302  36.779  32.577  1.00  0.00     0.059 A 
ATOM     92  F   UNL A   1      44.006  35.384  30.713  1.00  0.00    -0.206 F 
ATOM     93  C   UNL A   1      44.163  36.993  33.948  1.00  0.00     0.060 A 
BRANCH  93  94
ATOM     94  S   UNL A   1      44.707  38.541  34.697  1.00  0.00     0.124 S 
ATOM     95  O   UNL A   1      43.992  38.529  35.969  1.00  0.00    -0.237 OA
ATOM     96  O   UNL A   1      46.153  38.353  34.780  1.00  0.00    -0.237 OA
ATOM     97  O   UNL A   1      44.269  39.554  33.739  1.00  0.00    -0.744 OA
ENDBRANCH  93  94
ENDBRANCH  61  86
ENDBRANCH  35  36
ENDBRANCH  27  30
ENDBRANCH  25  26
ENDBRANCH  24  25
ENDBRANCH   1  24
TORSDOF 18
ENDMDL
