MODEL 1
REMARK VINA RESULT:     -12.0      0.000      0.000
REMARK SMILES O=C(NCCCNC(=O)[C@@]1(C(F)(F)F)CCN(C(=O)Cc2ccn[nH]2)C1)c1ccc(-c2c3nc(c(-c4c(F)cc(S(=O)(=O)[O-])cc4F)c4ccc([nH]4)c(-c4c(F)cc(S(=O)(=O)[O-])cc4F)c4nc(c(-c5c(F)cc(S(=O)(=O)[O-])cc5F)c5ccc2[nH]5)C=C4)C=C3)cc1
REMARK SMILES IDX 5 1 4 2 3 3 1 4 2 5 27 7 28 8 92 9 29 10 91 11 30 12 31 13
REMARK SMILES IDX 32 14 85 15 33 16 90 17 84 18 86 19 34 20 89 21 83 22 82 23
REMARK SMILES IDX 35 25 69 26 48 27 68 28 49 29 52 30 67 31 87 32 50 33 51 34
REMARK SMILES IDX 66 36 88 37 53 38 36 39 37 40 46 41 38 42 39 43 45 44 47 45
REMARK SMILES IDX 40 46 41 47 42 48 43 49 44 50 70 51 71 52 80 53 72 54 73 55
REMARK SMILES IDX 79 56 81 57 74 58 75 59 76 60 77 61 78 62 54 63 55 64 64 65
REMARK SMILES IDX 56 66 57 67 63 68 65 69 58 70 59 71 60 72 61 73 62 74 6 75
REMARK SMILES IDX 7 76 8 77 9 79 10 80 15 81 26 82 16 83 17 84 11 85 12 86
REMARK SMILES IDX 13 87 14 88 18 89 19 90 20 91 21 92 22 93 25 94 23 95 24 96
REMARK H PARENT 3 6 86 24 52 35 7 78 25 97
REMARK Flexibility Score: inf
ROOT
ATOM      1  C   UNL A   1      39.336  22.087  26.502  1.00  0.00     0.042 C 
ENDROOT
BRANCH   1   2
ATOM      2  C   UNL A   1      39.647  23.527  26.879  1.00  0.00     0.118 C 
BRANCH   2   3
ATOM      3  N   UNL A   1      40.609  24.152  25.983  1.00  0.00    -0.352 N 
ATOM      4  O   UNL A   1      41.840  25.792  25.065  1.00  0.00    -0.269 OA
ATOM      5  C   UNL A   1      41.188  25.398  26.027  1.00  0.00     0.251 C 
ATOM      6  H   UNL A   1      40.890  23.592  25.224  1.00  0.00     0.163 HD
BRANCH   5   7
ATOM      7  C   UNL A   1      41.006  26.270  27.208  1.00  0.00     0.039 A 
ATOM      8  C   UNL A   1      41.721  27.461  27.343  1.00  0.00     0.014 A 
ATOM      9  C   UNL A   1      40.079  25.901  28.186  1.00  0.00     0.014 A 
ATOM     10  C   UNL A   1      41.639  28.194  28.522  1.00  0.00     0.010 A 
ATOM     11  C   UNL A   1      39.917  26.696  29.324  1.00  0.00     0.010 A 
ATOM     12  C   UNL A   1      40.719  27.832  29.515  1.00  0.00    -0.014 A 
BRANCH  12  13
ATOM     13  C   UNL A   1      40.549  28.685  30.719  1.00  0.00     0.031 A 
ATOM     14  C   UNL A   1      39.503  29.761  30.756  1.00  0.00     0.074 A 
ATOM     15  C   UNL A   1      41.376  28.504  31.767  1.00  0.00     0.049 A 
ATOM     16  N   UNL A   1      39.283  30.667  31.674  1.00  0.00    -0.248 NA
ATOM     17  C   UNL A   1      38.590  29.837  29.606  1.00  0.00     0.031 C 
ATOM     18  C   UNL A   1      42.429  27.489  31.843  1.00  0.00     0.029 A 
ATOM     19  N   UNL A   1      41.476  29.174  32.959  1.00  0.00    -0.354 N 
ATOM     20  C   UNL A   1      38.231  31.441  31.202  1.00  0.00     0.074 A 
ATOM     21  C   UNL A   1      37.870  30.909  29.904  1.00  0.00     0.031 C 
ATOM     22  C   UNL A   1      43.064  27.600  33.016  1.00  0.00     0.029 A 
ATOM     23  C   UNL A   1      42.517  28.739  33.743  1.00  0.00     0.049 A 
ATOM     24  H   UNL A   1      40.862  29.896  33.227  1.00  0.00     0.167 HD
ATOM     25  C   UNL A   1      37.625  32.496  31.799  1.00  0.00     0.037 A 
ATOM     26  C   UNL A   1      43.014  29.228  34.895  1.00  0.00     0.037 A 
ATOM     27  C   UNL A   1      38.004  33.012  33.090  1.00  0.00     0.049 A 
ATOM     28  C   UNL A   1      42.362  30.424  35.520  1.00  0.00     0.074 A 
ATOM     29  C   UNL A   1      37.434  34.052  33.802  1.00  0.00     0.029 A 
ATOM     30  N   UNL A   1      39.063  32.538  33.855  1.00  0.00    -0.354 N 
ATOM     31  N   UNL A   1      41.343  31.125  35.081  1.00  0.00    -0.248 NA
ATOM     32  C   UNL A   1      42.915  30.898  36.794  1.00  0.00     0.031 C 
ATOM     33  C   UNL A   1      38.186  34.250  34.965  1.00  0.00     0.029 A 
ATOM     34  C   UNL A   1      39.181  33.286  35.017  1.00  0.00     0.049 A 
ATOM     35  H   UNL A   1      39.644  31.784  33.609  1.00  0.00     0.167 HD
ATOM     36  C   UNL A   1      41.115  32.106  36.037  1.00  0.00     0.074 A 
ATOM     37  C   UNL A   1      42.104  31.909  37.079  1.00  0.00     0.031 C 
ATOM     38  C   UNL A   1      40.164  33.072  36.053  1.00  0.00     0.037 A 
BRANCH  25  39
ATOM     39  C   UNL A   1      36.526  33.191  31.038  1.00  0.00     0.058 A 
ATOM     40  C   UNL A   1      36.790  34.019  29.935  1.00  0.00     0.135 A 
ATOM     41  C   UNL A   1      35.184  33.030  31.424  1.00  0.00     0.135 A 
ATOM     42  F   UNL A   1      38.052  34.219  29.524  1.00  0.00    -0.206 F 
ATOM     43  C   UNL A   1      35.772  34.707  29.280  1.00  0.00     0.059 A 
ATOM     44  C   UNL A   1      34.147  33.681  30.762  1.00  0.00     0.059 A 
ATOM     45  F   UNL A   1      34.870  32.243  32.465  1.00  0.00    -0.206 F 
ATOM     46  C   UNL A   1      34.454  34.539  29.709  1.00  0.00     0.060 A 
BRANCH  46  47
ATOM     47  S   UNL A   1      33.154  35.485  28.888  1.00  0.00     0.124 S 
ATOM     48  O   UNL A   1      32.429  36.032  30.033  1.00  0.00    -0.237 OA
ATOM     49  O   UNL A   1      33.917  36.451  28.105  1.00  0.00    -0.237 OA
ATOM     50  O   UNL A   1      32.436  34.479  28.114  1.00  0.00    -0.744 OA
ENDBRANCH  46  47
ENDBRANCH  25  39
BRANCH  26  51
ATOM     51  C   UNL A   1      44.206  28.575  35.496  1.00  0.00     0.058 A 
ATOM     52  C   UNL A   1      45.502  28.999  35.175  1.00  0.00     0.135 A 
ATOM     53  C   UNL A   1      44.065  27.583  36.480  1.00  0.00     0.135 A 
ATOM     54  F   UNL A   1      45.688  29.941  34.239  1.00  0.00    -0.206 F 
ATOM     55  C   UNL A   1      46.618  28.470  35.817  1.00  0.00     0.059 A 
ATOM     56  C   UNL A   1      45.162  27.060  37.155  1.00  0.00     0.059 A 
ATOM     57  F   UNL A   1      42.841  27.161  36.838  1.00  0.00    -0.206 F 
ATOM     58  C   UNL A   1      46.436  27.511  36.817  1.00  0.00     0.060 A 
BRANCH  58  59
ATOM     59  S   UNL A   1      47.884  26.912  37.713  1.00  0.00     0.124 S 
ATOM     60  O   UNL A   1      47.306  25.849  38.526  1.00  0.00    -0.237 OA
ATOM     61  O   UNL A   1      48.758  26.482  36.626  1.00  0.00    -0.237 OA
ATOM     62  O   UNL A   1      48.339  28.091  38.444  1.00  0.00    -0.744 OA
ENDBRANCH  58  59
ENDBRANCH  26  51
BRANCH  38  63
ATOM     63  C   UNL A   1      40.096  33.971  37.256  1.00  0.00     0.058 A 
ATOM     64  C   UNL A   1      40.863  35.142  37.355  1.00  0.00     0.135 A 
ATOM     65  C   UNL A   1      39.164  33.708  38.274  1.00  0.00     0.135 A 
ATOM     66  F   UNL A   1      41.779  35.431  36.417  1.00  0.00    -0.206 F 
ATOM     67  C   UNL A   1      40.701  36.025  38.419  1.00  0.00     0.059 A 
ATOM     68  C   UNL A   1      38.967  34.590  39.331  1.00  0.00     0.059 A 
ATOM     69  F   UNL A   1      38.403  32.602  38.224  1.00  0.00    -0.206 F 
ATOM     70  C   UNL A   1      39.740  35.748  39.393  1.00  0.00     0.060 A 
BRANCH  70  71
ATOM     71  S   UNL A   1      39.475  36.949  40.714  1.00  0.00     0.124 S 
ATOM     72  O   UNL A   1      40.653  37.800  40.580  1.00  0.00    -0.237 OA
ATOM     73  O   UNL A   1      38.205  37.557  40.330  1.00  0.00    -0.237 OA
ATOM     74  O   UNL A   1      39.429  36.126  41.919  1.00  0.00    -0.744 OA
ENDBRANCH  70  71
ENDBRANCH  38  63
ENDBRANCH  12  13
ENDBRANCH   5   7
ENDBRANCH   2   3
ENDBRANCH   1   2
BRANCH   1  75
ATOM     75  C   UNL A   1      37.936  21.869  25.958  1.00  0.00     0.117 C 
BRANCH  75  76
ATOM     76  N   UNL A   1      37.764  22.350  24.594  1.00  0.00    -0.355 N 
ATOM     77  C   UNL A   1      36.710  22.889  23.925  1.00  0.00     0.237 C 
ATOM     78  H   UNL A   1      38.576  22.267  24.045  1.00  0.00     0.163 HD
ATOM     79  O   UNL A   1      36.957  23.260  22.775  1.00  0.00    -0.274 OA
BRANCH  77  80
ATOM     80  C   UNL A   1      35.299  22.927  24.483  1.00  0.00     0.163 C 
ATOM     81  C   UNL A   1      34.284  23.033  23.325  1.00  0.00     0.050 C 
ATOM     82  C   UNL A   1      34.883  21.685  25.278  1.00  0.00     0.146 C 
ATOM     83  C   UNL A   1      33.082  22.238  23.794  1.00  0.00     0.121 C 
ATOM     84  N   UNL A   1      33.673  21.197  24.615  1.00  0.00    -0.341 N 
BRANCH  80  85
ATOM     85  C   UNL A   1      35.202  24.122  25.414  1.00  0.00     0.404 C 
ATOM     86  F   UNL A   1      34.615  25.170  24.774  1.00  0.00    -0.170 F 
ATOM     87  F   UNL A   1      34.436  23.862  26.496  1.00  0.00    -0.170 F 
ATOM     88  F   UNL A   1      36.403  24.571  25.834  1.00  0.00    -0.170 F 
ENDBRANCH  80  85
BRANCH  84  89
ATOM     89  C   UNL A   1      33.235  19.896  24.772  1.00  0.00     0.228 C 
ATOM     90  O   UNL A   1      32.051  19.653  25.005  1.00  0.00    -0.274 OA
BRANCH  89  91
ATOM     91  C   UNL A   1      34.253  18.774  24.600  1.00  0.00     0.155 C 
BRANCH  91  92
ATOM     92  C   UNL A   1      33.668  17.430  24.906  1.00  0.00     0.044 A 
ATOM     93  C   UNL A   1      33.668  16.261  24.174  1.00  0.00     0.045 A 
ATOM     94  N   UNL A   1      32.997  17.131  26.063  1.00  0.00    -0.282 N 
ATOM     95  C   UNL A   1      32.932  15.349  24.950  1.00  0.00     0.135 A 
ATOM     96  N   UNL A   1      32.499  15.887  26.092  1.00  0.00    -0.184 NA
ATOM     97  H   UNL A   1      32.889  17.771  26.804  1.00  0.00     0.190 HD
ENDBRANCH  91  92
ENDBRANCH  89  91
ENDBRANCH  84  89
ENDBRANCH  77  80
ENDBRANCH  75  76
ENDBRANCH   1  75
TORSDOF 17
ENDMDL
MODEL 2
REMARK VINA RESULT:     -12.0      7.257     12.250
REMARK SMILES O=C(NCCCNC(=O)[C@@]1(C(F)(F)F)CCN(C(=O)Cc2ccn[nH]2)C1)c1ccc(-c2c3nc(c(-c4c(F)cc(S(=O)(=O)[O-])cc4F)c4ccc([nH]4)c(-c4c(F)cc(S(=O)(=O)[O-])cc4F)c4nc(c(-c5c(F)cc(S(=O)(=O)[O-])cc5F)c5ccc2[nH]5)C=C4)C=C3)cc1
REMARK SMILES IDX 5 1 4 2 3 3 1 4 2 5 27 7 28 8 92 9 29 10 91 11 30 12 31 13
REMARK SMILES IDX 32 14 85 15 33 16 90 17 84 18 86 19 34 20 89 21 83 22 82 23
REMARK SMILES IDX 35 25 69 26 48 27 68 28 49 29 52 30 67 31 87 32 50 33 51 34
REMARK SMILES IDX 66 36 88 37 53 38 36 39 37 40 46 41 38 42 39 43 45 44 47 45
REMARK SMILES IDX 40 46 41 47 42 48 43 49 44 50 70 51 71 52 80 53 72 54 73 55
REMARK SMILES IDX 79 56 81 57 74 58 75 59 76 60 77 61 78 62 54 63 55 64 64 65
REMARK SMILES IDX 56 66 57 67 63 68 65 69 58 70 59 71 60 72 61 73 62 74 6 75
REMARK SMILES IDX 7 76 8 77 9 79 10 80 15 81 26 82 16 83 17 84 11 85 12 86
REMARK SMILES IDX 13 87 14 88 18 89 19 90 20 91 21 92 22 93 25 94 23 95 24 96
REMARK H PARENT 3 6 86 24 52 35 7 78 25 97
REMARK Flexibility Score: inf
ROOT
ATOM      1  C   UNL A   1      34.225  31.116  27.334  1.00  0.00     0.042 C 
ENDROOT
BRANCH   1   2
ATOM      2  C   UNL A   1      35.348  30.448  28.110  1.00  0.00     0.118 C 
BRANCH   2   3
ATOM      3  N   UNL A   1      35.362  30.816  29.518  1.00  0.00    -0.352 N 
ATOM      4  O   UNL A   1      36.076  30.882  31.647  1.00  0.00    -0.269 OA
ATOM      5  C   UNL A   1      36.342  30.664  30.470  1.00  0.00     0.251 C 
ATOM      6  H   UNL A   1      34.537  31.246  29.840  1.00  0.00     0.163 HD
BRANCH   5   7
ATOM      7  C   UNL A   1      37.697  30.211  30.087  1.00  0.00     0.039 A 
ATOM      8  C   UNL A   1      38.578  29.687  31.034  1.00  0.00     0.014 A 
ATOM      9  C   UNL A   1      38.083  30.287  28.745  1.00  0.00     0.014 A 
ATOM     10  C   UNL A   1      39.892  29.397  30.680  1.00  0.00     0.010 A 
ATOM     11  C   UNL A   1      39.370  29.894  28.371  1.00  0.00     0.010 A 
ATOM     12  C   UNL A   1      40.295  29.476  29.341  1.00  0.00    -0.014 A 
BRANCH  12  13
ATOM     13  C   UNL A   1      41.663  29.052  28.949  1.00  0.00     0.031 A 
ATOM     14  C   UNL A   1      42.782  30.049  28.868  1.00  0.00     0.074 A 
ATOM     15  C   UNL A   1      41.878  27.761  28.628  1.00  0.00     0.049 A 
ATOM     16  N   UNL A   1      44.008  29.880  28.443  1.00  0.00    -0.248 NA
ATOM     17  C   UNL A   1      42.484  31.418  29.314  1.00  0.00     0.031 C 
ATOM     18  C   UNL A   1      40.865  26.704  28.670  1.00  0.00     0.029 A 
ATOM     19  N   UNL A   1      43.007  27.121  28.187  1.00  0.00    -0.354 N 
ATOM     20  C   UNL A   1      44.619  31.125  28.537  1.00  0.00     0.074 A 
ATOM     21  C   UNL A   1      43.620  32.044  29.042  1.00  0.00     0.031 C 
ATOM     22  C   UNL A   1      41.417  25.549  28.277  1.00  0.00     0.029 A 
ATOM     23  C   UNL A   1      42.799  25.797  27.882  1.00  0.00     0.049 A 
ATOM     24  H   UNL A   1      43.881  27.566  28.098  1.00  0.00     0.167 HD
ATOM     25  C   UNL A   1      45.895  31.465  28.231  1.00  0.00     0.037 A 
ATOM     26  C   UNL A   1      43.608  24.890  27.302  1.00  0.00     0.037 A 
ATOM     27  C   UNL A   1      46.872  30.534  27.725  1.00  0.00     0.049 A 
ATOM     28  C   UNL A   1      45.002  25.294  26.927  1.00  0.00     0.074 A 
ATOM     29  C   UNL A   1      48.201  30.764  27.416  1.00  0.00     0.029 A 
ATOM     30  N   UNL A   1      46.621  29.198  27.434  1.00  0.00    -0.354 N 
ATOM     31  N   UNL A   1      45.580  26.465  27.055  1.00  0.00    -0.248 NA
ATOM     32  C   UNL A   1      45.860  24.261  26.333  1.00  0.00     0.031 C 
ATOM     33  C   UNL A   1      48.735  29.588  26.879  1.00  0.00     0.029 A 
ATOM     34  C   UNL A   1      47.762  28.601  26.921  1.00  0.00     0.049 A 
ATOM     35  H   UNL A   1      45.760  28.743  27.571  1.00  0.00     0.167 HD
ATOM     36  C   UNL A   1      46.876  26.305  26.584  1.00  0.00     0.074 A 
ATOM     37  C   UNL A   1      46.998  24.922  26.165  1.00  0.00     0.031 C 
ATOM     38  C   UNL A   1      47.875  27.219  26.518  1.00  0.00     0.037 A 
BRANCH  25  39
ATOM     39  C   UNL A   1      46.288  32.910  28.386  1.00  0.00     0.058 A 
ATOM     40  C   UNL A   1      46.161  33.836  27.337  1.00  0.00     0.135 A 
ATOM     41  C   UNL A   1      46.807  33.378  29.606  1.00  0.00     0.135 A 
ATOM     42  F   UNL A   1      45.680  33.448  26.146  1.00  0.00    -0.206 F 
ATOM     43  C   UNL A   1      46.588  35.154  27.473  1.00  0.00     0.059 A 
ATOM     44  C   UNL A   1      47.208  34.700  29.775  1.00  0.00     0.059 A 
ATOM     45  F   UNL A   1      46.942  32.542  30.648  1.00  0.00    -0.206 F 
ATOM     46  C   UNL A   1      47.120  35.573  28.694  1.00  0.00     0.060 A 
BRANCH  46  47
ATOM     47  S   UNL A   1      47.725  37.268  28.834  1.00  0.00     0.124 S 
ATOM     48  O   UNL A   1      47.899  37.394  30.279  1.00  0.00    -0.237 OA
ATOM     49  O   UNL A   1      48.955  37.227  28.051  1.00  0.00    -0.237 OA
ATOM     50  O   UNL A   1      46.645  38.064  28.261  1.00  0.00    -0.744 OA
ENDBRANCH  46  47
ENDBRANCH  25  39
BRANCH  26  51
ATOM     51  C   UNL A   1      43.083  23.526  27.037  1.00  0.00     0.058 A 
ATOM     52  C   UNL A   1      42.755  23.116  25.739  1.00  0.00     0.135 A 
ATOM     53  C   UNL A   1      42.997  22.574  28.067  1.00  0.00     0.135 A 
ATOM     54  F   UNL A   1      42.818  23.989  24.723  1.00  0.00    -0.206 F 
ATOM     55  C   UNL A   1      42.371  21.806  25.467  1.00  0.00     0.059 A 
ATOM     56  C   UNL A   1      42.642  21.254  27.816  1.00  0.00     0.059 A 
ATOM     57  F   UNL A   1      43.323  22.914  29.325  1.00  0.00    -0.206 F 
ATOM     58  C   UNL A   1      42.332  20.879  26.510  1.00  0.00     0.060 A 
BRANCH  58  59
ATOM     59  S   UNL A   1      41.934  19.161  26.125  1.00  0.00     0.124 S 
ATOM     60  O   UNL A   1      42.822  18.899  24.999  1.00  0.00    -0.237 OA
ATOM     61  O   UNL A   1      42.270  18.484  27.374  1.00  0.00    -0.237 OA
ATOM     62  O   UNL A   1      40.510  19.207  25.810  1.00  0.00    -0.744 OA
ENDBRANCH  58  59
ENDBRANCH  26  51
BRANCH  38  63
ATOM     63  C   UNL A   1      49.217  26.758  26.024  1.00  0.00     0.058 A 
ATOM     64  C   UNL A   1      49.624  26.942  24.694  1.00  0.00     0.135 A 
ATOM     65  C   UNL A   1      50.150  26.223  26.928  1.00  0.00     0.135 A 
ATOM     66  F   UNL A   1      48.766  27.436  23.786  1.00  0.00    -0.206 F 
ATOM     67  C   UNL A   1      50.913  26.619  24.280  1.00  0.00     0.059 A 
ATOM     68  C   UNL A   1      51.451  25.919  26.543  1.00  0.00     0.059 A 
ATOM     69  F   UNL A   1      49.810  26.030  28.213  1.00  0.00    -0.206 F 
ATOM     70  C   UNL A   1      51.823  26.123  25.215  1.00  0.00     0.060 A 
BRANCH  70  71
ATOM     71  S   UNL A   1      53.519  25.798  24.686  1.00  0.00     0.124 S 
ATOM     72  O   UNL A   1      54.258  26.823  25.418  1.00  0.00    -0.237 OA
ATOM     73  O   UNL A   1      53.726  24.425  25.134  1.00  0.00    -0.237 OA
ATOM     74  O   UNL A   1      53.465  25.977  23.238  1.00  0.00    -0.744 OA
ENDBRANCH  70  71
ENDBRANCH  38  63
ENDBRANCH  12  13
ENDBRANCH   5   7
ENDBRANCH   2   3
ENDBRANCH   1   2
BRANCH   1  75
ATOM     75  C   UNL A   1      33.386  30.165  26.499  1.00  0.00     0.117 C 
BRANCH  75  76
ATOM     76  N   UNL A   1      32.433  29.392  27.284  1.00  0.00    -0.355 N 
ATOM     77  C   UNL A   1      31.767  28.229  27.055  1.00  0.00     0.237 C 
ATOM     78  H   UNL A   1      32.229  29.796  28.159  1.00  0.00     0.163 HD
ATOM     79  O   UNL A   1      31.084  27.825  27.999  1.00  0.00    -0.274 OA
BRANCH  77  80
ATOM     80  C   UNL A   1      31.749  27.530  25.708  1.00  0.00     0.163 C 
ATOM     81  C   UNL A   1      30.706  26.392  25.726  1.00  0.00     0.050 C 
ATOM     82  C   UNL A   1      31.363  28.418  24.522  1.00  0.00     0.146 C 
ATOM     83  C   UNL A   1      30.146  26.362  24.318  1.00  0.00     0.121 C 
ATOM     84  N   UNL A   1      30.216  27.751  23.905  1.00  0.00    -0.341 N 
BRANCH  80  85
ATOM     85  C   UNL A   1      33.146  26.995  25.446  1.00  0.00     0.404 C 
ATOM     86  F   UNL A   1      33.083  25.703  25.023  1.00  0.00    -0.170 F 
ATOM     87  F   UNL A   1      33.778  27.683  24.470  1.00  0.00    -0.170 F 
ATOM     88  F   UNL A   1      33.930  26.987  26.544  1.00  0.00    -0.170 F 
ENDBRANCH  80  85
BRANCH  84  89
ATOM     89  C   UNL A   1      29.342  28.430  23.076  1.00  0.00     0.228 C 
ATOM     90  O   UNL A   1      28.132  28.209  23.120  1.00  0.00    -0.274 OA
BRANCH  89  91
ATOM     91  C   UNL A   1      29.918  29.490  22.146  1.00  0.00     0.155 C 
BRANCH  91  92
ATOM     92  C   UNL A   1      29.116  30.754  22.166  1.00  0.00     0.044 A 
ATOM     93  C   UNL A   1      28.715  31.582  21.139  1.00  0.00     0.045 A 
ATOM     94  N   UNL A   1      28.607  31.322  23.306  1.00  0.00    -0.282 N 
ATOM     95  C   UNL A   1      28.026  32.633  21.768  1.00  0.00     0.135 A 
ATOM     96  N   UNL A   1      27.982  32.489  23.094  1.00  0.00    -0.184 NA
ATOM     97  H   UNL A   1      28.694  30.911  24.196  1.00  0.00     0.190 HD
ENDBRANCH  91  92
ENDBRANCH  89  91
ENDBRANCH  84  89
ENDBRANCH  77  80
ENDBRANCH  75  76
ENDBRANCH   1  75
TORSDOF 17
ENDMDL
MODEL 3
REMARK VINA RESULT:     -11.8      5.060      9.672
REMARK SMILES O=C(NCCCNC(=O)[C@@]1(C(F)(F)F)CCN(C(=O)Cc2ccn[nH]2)C1)c1ccc(-c2c3nc(c(-c4c(F)cc(S(=O)(=O)[O-])cc4F)c4ccc([nH]4)c(-c4c(F)cc(S(=O)(=O)[O-])cc4F)c4nc(c(-c5c(F)cc(S(=O)(=O)[O-])cc5F)c5ccc2[nH]5)C=C4)C=C3)cc1
REMARK SMILES IDX 5 1 4 2 3 3 1 4 2 5 27 7 28 8 92 9 29 10 91 11 30 12 31 13
REMARK SMILES IDX 32 14 85 15 33 16 90 17 84 18 86 19 34 20 89 21 83 22 82 23
REMARK SMILES IDX 35 25 69 26 48 27 68 28 49 29 52 30 67 31 87 32 50 33 51 34
REMARK SMILES IDX 66 36 88 37 53 38 36 39 37 40 46 41 38 42 39 43 45 44 47 45
REMARK SMILES IDX 40 46 41 47 42 48 43 49 44 50 70 51 71 52 80 53 72 54 73 55
REMARK SMILES IDX 79 56 81 57 74 58 75 59 76 60 77 61 78 62 54 63 55 64 64 65
REMARK SMILES IDX 56 66 57 67 63 68 65 69 58 70 59 71 60 72 61 73 62 74 6 75
REMARK SMILES IDX 7 76 8 77 9 79 10 80 15 81 26 82 16 83 17 84 11 85 12 86
REMARK SMILES IDX 13 87 14 88 18 89 19 90 20 91 21 92 22 93 25 94 23 95 24 96
REMARK H PARENT 3 6 86 24 52 35 7 78 25 97
REMARK Flexibility Score: inf
ROOT
ATOM      1  C   UNL A   1      33.973  28.003  25.412  1.00  0.00     0.042 C 
ENDROOT
BRANCH   1   2
ATOM      2  C   UNL A   1      33.975  28.146  26.926  1.00  0.00     0.118 C 
BRANCH   2   3
ATOM      3  N   UNL A   1      33.724  29.511  27.366  1.00  0.00    -0.352 N 
ATOM      4  O   UNL A   1      34.041  31.426  28.497  1.00  0.00    -0.269 OA
ATOM      5  C   UNL A   1      34.521  30.379  28.074  1.00  0.00     0.251 C 
ATOM      6  H   UNL A   1      32.843  29.870  27.114  1.00  0.00     0.163 HD
BRANCH   5   7
ATOM      7  C   UNL A   1      35.935  30.045  28.351  1.00  0.00     0.039 A 
ATOM      8  C   UNL A   1      36.916  30.185  27.368  1.00  0.00     0.014 A 
ATOM      9  C   UNL A   1      36.289  29.611  29.631  1.00  0.00     0.014 A 
ATOM     10  C   UNL A   1      38.211  29.735  27.607  1.00  0.00     0.010 A 
ATOM     11  C   UNL A   1      37.615  29.260  29.902  1.00  0.00     0.010 A 
ATOM     12  C   UNL A   1      38.579  29.290  28.883  1.00  0.00    -0.014 A 
BRANCH  12  13
ATOM     13  C   UNL A   1      39.990  28.924  29.165  1.00  0.00     0.031 A 
ATOM     14  C   UNL A   1      40.953  29.940  29.707  1.00  0.00     0.074 A 
ATOM     15  C   UNL A   1      40.406  27.673  28.890  1.00  0.00     0.049 A 
ATOM     16  N   UNL A   1      42.241  29.830  29.911  1.00  0.00    -0.248 NA
ATOM     17  C   UNL A   1      40.400  31.257  30.057  1.00  0.00     0.031 C 
ATOM     18  C   UNL A   1      39.559  26.601  28.360  1.00  0.00     0.029 A 
ATOM     19  N   UNL A   1      41.644  27.093  28.998  1.00  0.00    -0.354 N 
ATOM     20  C   UNL A   1      42.660  31.069  30.381  1.00  0.00     0.074 A 
ATOM     21  C   UNL A   1      41.490  31.922  30.413  1.00  0.00     0.031 C 
ATOM     22  C   UNL A   1      40.297  25.497  28.194  1.00  0.00     0.029 A 
ATOM     23  C   UNL A   1      41.683  25.801  28.531  1.00  0.00     0.049 A 
ATOM     24  H   UNL A   1      42.428  27.556  29.373  1.00  0.00     0.167 HD
ATOM     25  C   UNL A   1      43.906  31.454  30.751  1.00  0.00     0.037 A 
ATOM     26  C   UNL A   1      42.721  24.964  28.344  1.00  0.00     0.037 A 
ATOM     27  C   UNL A   1      45.058  30.589  30.707  1.00  0.00     0.049 A 
ATOM     28  C   UNL A   1      44.100  25.421  28.715  1.00  0.00     0.074 A 
ATOM     29  C   UNL A   1      46.357  30.866  31.093  1.00  0.00     0.029 A 
ATOM     30  N   UNL A   1      45.053  29.283  30.231  1.00  0.00    -0.354 N 
ATOM     31  N   UNL A   1      44.478  26.583  29.193  1.00  0.00    -0.248 NA
ATOM     32  C   UNL A   1      45.195  24.461  28.529  1.00  0.00     0.031 C 
ATOM     33  C   UNL A   1      47.150  29.753  30.791  1.00  0.00     0.029 A 
ATOM     34  C   UNL A   1      46.333  28.753  30.286  1.00  0.00     0.049 A 
ATOM     35  H   UNL A   1      44.259  28.804  29.904  1.00  0.00     0.167 HD
ATOM     36  C   UNL A   1      45.849  26.486  29.392  1.00  0.00     0.074 A 
ATOM     37  C   UNL A   1      46.235  25.151  28.980  1.00  0.00     0.031 C 
ATOM     38  C   UNL A   1      46.703  27.417  29.882  1.00  0.00     0.037 A 
BRANCH  25  39
ATOM     39  C   UNL A   1      44.093  32.884  31.186  1.00  0.00     0.058 A 
ATOM     40  C   UNL A   1      44.134  33.254  32.540  1.00  0.00     0.135 A 
ATOM     41  C   UNL A   1      44.229  33.904  30.229  1.00  0.00     0.135 A 
ATOM     42  F   UNL A   1      44.002  32.326  33.500  1.00  0.00    -0.206 F 
ATOM     43  C   UNL A   1      44.243  34.587  32.928  1.00  0.00     0.059 A 
ATOM     44  C   UNL A   1      44.372  35.240  30.594  1.00  0.00     0.059 A 
ATOM     45  F   UNL A   1      44.208  33.610  28.919  1.00  0.00    -0.206 F 
ATOM     46  C   UNL A   1      44.350  35.574  31.946  1.00  0.00     0.060 A 
BRANCH  46  47
ATOM     47  S   UNL A   1      44.429  37.300  32.465  1.00  0.00     0.124 S 
ATOM     48  O   UNL A   1      45.651  37.305  33.265  1.00  0.00    -0.237 OA
ATOM     49  O   UNL A   1      44.505  38.007  31.191  1.00  0.00    -0.237 OA
ATOM     50  O   UNL A   1      43.190  37.489  33.213  1.00  0.00    -0.744 OA
ENDBRANCH  46  47
ENDBRANCH  25  39
BRANCH  26  51
ATOM     51  C   UNL A   1      42.466  23.623  27.757  1.00  0.00     0.058 A 
ATOM     52  C   UNL A   1      42.455  23.431  26.369  1.00  0.00     0.135 A 
ATOM     53  C   UNL A   1      42.330  22.492  28.577  1.00  0.00     0.135 A 
ATOM     54  F   UNL A   1      42.578  24.481  25.545  1.00  0.00    -0.206 F 
ATOM     55  C   UNL A   1      42.329  22.161  25.814  1.00  0.00     0.059 A 
ATOM     56  C   UNL A   1      42.230  21.210  28.047  1.00  0.00     0.059 A 
ATOM     57  F   UNL A   1      42.356  22.623  29.913  1.00  0.00    -0.206 F 
ATOM     58  C   UNL A   1      42.232  21.055  26.662  1.00  0.00     0.060 A 
BRANCH  58  59
ATOM     59  S   UNL A   1      42.175  19.406  25.929  1.00  0.00     0.124 S 
ATOM     60  O   UNL A   1      40.751  19.255  25.656  1.00  0.00    -0.237 OA
ATOM     61  O   UNL A   1      43.037  19.563  24.761  1.00  0.00    -0.237 OA
ATOM     62  O   UNL A   1      42.711  18.550  26.983  1.00  0.00    -0.744 OA
ENDBRANCH  58  59
ENDBRANCH  26  51
BRANCH  38  63
ATOM     63  C   UNL A   1      48.144  27.024  30.060  1.00  0.00     0.058 A 
ATOM     64  C   UNL A   1      49.129  27.362  29.120  1.00  0.00     0.135 A 
ATOM     65  C   UNL A   1      48.556  26.394  31.247  1.00  0.00     0.135 A 
ATOM     66  F   UNL A   1      48.786  27.950  27.963  1.00  0.00    -0.206 F 
ATOM     67  C   UNL A   1      50.475  27.096  29.355  1.00  0.00     0.059 A 
ATOM     68  C   UNL A   1      49.897  26.144  31.513  1.00  0.00     0.059 A 
ATOM     69  F   UNL A   1      47.652  26.053  32.180  1.00  0.00    -0.206 F 
ATOM     70  C   UNL A   1      50.850  26.501  30.561  1.00  0.00     0.060 A 
BRANCH  70  71
ATOM     71  S   UNL A   1      52.607  26.249  30.893  1.00  0.00     0.124 S 
ATOM     72  O   UNL A   1      52.959  27.490  31.577  1.00  0.00    -0.237 OA
ATOM     73  O   UNL A   1      52.597  25.048  31.722  1.00  0.00    -0.237 OA
ATOM     74  O   UNL A   1      53.185  26.081  29.562  1.00  0.00    -0.744 OA
ENDBRANCH  70  71
ENDBRANCH  38  63
ENDBRANCH  12  13
ENDBRANCH   5   7
ENDBRANCH   2   3
ENDBRANCH   1   2
BRANCH   1  75
ATOM     75  C   UNL A   1      32.816  27.189  24.860  1.00  0.00     0.117 C 
BRANCH  75  76
ATOM     76  N   UNL A   1      32.147  26.378  25.869  1.00  0.00    -0.355 N 
ATOM     77  C   UNL A   1      31.756  25.076  25.904  1.00  0.00     0.237 C 
ATOM     78  H   UNL A   1      31.933  26.874  26.691  1.00  0.00     0.163 HD
ATOM     79  O   UNL A   1      31.275  24.705  26.978  1.00  0.00    -0.274 OA
BRANCH  77  80
ATOM     80  C   UNL A   1      31.781  24.163  24.692  1.00  0.00     0.163 C 
ATOM     81  C   UNL A   1      33.192  24.167  24.066  1.00  0.00     0.050 C 
ATOM     82  C   UNL A   1      31.467  22.692  24.982  1.00  0.00     0.146 C 
ATOM     83  C   UNL A   1      33.382  22.758  23.541  1.00  0.00     0.121 C 
ATOM     84  N   UNL A   1      32.623  21.951  24.477  1.00  0.00    -0.341 N 
BRANCH  80  85
ATOM     85  C   UNL A   1      30.739  24.670  23.710  1.00  0.00     0.404 C 
ATOM     86  F   UNL A   1      31.332  25.419  22.741  1.00  0.00    -0.170 F 
ATOM     87  F   UNL A   1      30.106  23.660  23.075  1.00  0.00    -0.170 F 
ATOM     88  F   UNL A   1      29.812  25.468  24.279  1.00  0.00    -0.170 F 
ENDBRANCH  80  85
BRANCH  84  89
ATOM     89  C   UNL A   1      32.905  20.667  24.907  1.00  0.00     0.228 C 
ATOM     90  O   UNL A   1      33.340  20.463  26.040  1.00  0.00    -0.274 OA
BRANCH  89  91
ATOM     91  C   UNL A   1      32.617  19.515  23.952  1.00  0.00     0.155 C 
BRANCH  91  92
ATOM     92  C   UNL A   1      33.159  18.214  24.458  1.00  0.00     0.044 A 
ATOM     93  C   UNL A   1      34.236  17.463  24.037  1.00  0.00     0.045 A 
ATOM     94  N   UNL A   1      32.627  17.520  25.513  1.00  0.00    -0.282 N 
ATOM     95  C   UNL A   1      34.229  16.326  24.862  1.00  0.00     0.135 A 
ATOM     96  N   UNL A   1      33.230  16.346  25.746  1.00  0.00    -0.184 NA
ATOM     97  H   UNL A   1      31.870  17.852  26.049  1.00  0.00     0.190 HD
ENDBRANCH  91  92
ENDBRANCH  89  91
ENDBRANCH  84  89
ENDBRANCH  77  80
ENDBRANCH  75  76
ENDBRANCH   1  75
TORSDOF 17
ENDMDL
