MODEL 1
REMARK VINA RESULT:     -12.6      0.000      0.000
REMARK SMILES O=C(NCCCNC(=O)c1ccc(-c2c3nc(c(-c4c(F)cc(S(=O)(=O)[O-])cc4F)c4ccc([nH]4)c(-c4c(F)cc(S(=O)(=O)[O-])cc4F)c4nc(c(-c5c(F)cc(S(=O)(=O)[O-])cc5F)c5ccc2[nH]5)C=C4)C=C3)cc1)C1=Cc2c(Cl)cc(Cl)cc2O[C@@H]1C(F)(F)F
REMARK SMILES IDX 6 1 5 2 4 3 3 4 1 5 2 6 76 8 77 9 87 10 78 11 86 12 79 13
REMARK SMILES IDX 85 14 80 15 81 16 84 17 82 18 83 19 88 20 89 21 90 22 91 23
REMARK SMILES IDX 7 24 8 25 9 27 10 28 11 29 75 30 12 31 74 32 13 33 14 34
REMARK SMILES IDX 15 35 68 36 16 37 73 38 67 39 69 40 17 41 72 42 66 43 65 44
REMARK SMILES IDX 18 46 52 47 31 48 51 49 32 50 35 51 50 52 70 53 33 54 34 55
REMARK SMILES IDX 49 57 71 58 36 59 19 60 20 61 29 62 21 63 22 64 28 65 30 66
REMARK SMILES IDX 23 67 24 68 25 69 26 70 27 71 53 72 54 73 63 74 55 75 56 76
REMARK SMILES IDX 62 77 64 78 57 79 58 80 59 81 60 82 61 83 37 84 38 85 47 86
REMARK SMILES IDX 39 87 40 88 46 89 48 90 41 91 42 92 43 93 44 94 45 95
REMARK H PARENT 3 7 7 26 69 45 35 56
REMARK Flexibility Score: inf
ROOT
ATOM      1  C   UNL A   1      38.210  24.075  26.497  1.00  0.00     0.118 C 
ENDROOT
BRANCH   1   2
ATOM      2  C   UNL A   1      37.314  23.197  25.632  1.00  0.00     0.042 C 
BRANCH   2   3
ATOM      3  C   UNL A   1      35.882  23.714  25.556  1.00  0.00     0.118 C 
BRANCH   3   4
ATOM      4  N   UNL A   1      35.015  23.198  26.617  1.00  0.00    -0.352 N 
ATOM      5  O   UNL A   1      33.717  21.674  27.684  1.00  0.00    -0.270 OA
ATOM      6  C   UNL A   1      34.193  22.096  26.640  1.00  0.00     0.251 C 
ATOM      7  H   UNL A   1      35.023  23.725  27.449  1.00  0.00     0.163 HD
BRANCH   6   8
ATOM      8  C   UNL A   1      33.976  21.391  25.363  1.00  0.00     0.067 C 
ATOM      9  C   UNL A   1      34.912  20.521  24.963  1.00  0.00     0.027 C 
ATOM     10  C   UNL A   1      32.592  21.400  24.808  1.00  0.00     0.314 C 
ATOM     11  C   UNL A   1      34.357  19.191  24.640  1.00  0.00     0.036 A 
ATOM     12  O   UNL A   1      32.052  20.066  24.657  1.00  0.00    -0.475 OA
ATOM     13  C   UNL A   1      35.163  18.041  24.758  1.00  0.00     0.053 A 
ATOM     14  C   UNL A   1      32.953  19.028  24.631  1.00  0.00     0.130 A 
ATOM     15  Cl  UNL A   1      36.891  18.122  24.816  1.00  0.00    -0.083 Cl
ATOM     16  C   UNL A   1      34.582  16.788  24.971  1.00  0.00     0.042 A 
ATOM     17  C   UNL A   1      32.379  17.769  24.817  1.00  0.00     0.067 A 
ATOM     18  C   UNL A   1      33.198  16.665  25.025  1.00  0.00     0.046 A 
ATOM     19  Cl  UNL A   1      32.493  15.152  25.437  1.00  0.00    -0.084 Cl
BRANCH  10  20
ATOM     20  C   UNL A   1      32.547  22.159  23.472  1.00  0.00     0.429 C 
ATOM     21  F   UNL A   1      32.155  21.344  22.462  1.00  0.00    -0.167 F 
ATOM     22  F   UNL A   1      31.673  23.191  23.502  1.00  0.00    -0.167 F 
ATOM     23  F   UNL A   1      33.756  22.665  23.129  1.00  0.00    -0.167 F 
ENDBRANCH  10  20
ENDBRANCH   6   8
ENDBRANCH   3   4
ENDBRANCH   2   3
ENDBRANCH   1   2
BRANCH   1  24
ATOM     24  N   UNL A   1      39.620  24.035  26.125  1.00  0.00    -0.352 N 
ATOM     25  C   UNL A   1      40.685  24.804  26.556  1.00  0.00     0.251 C 
ATOM     26  H   UNL A   1      39.850  23.348  25.458  1.00  0.00     0.163 HD
ATOM     27  O   UNL A   1      41.785  24.631  26.062  1.00  0.00    -0.269 OA
BRANCH  25  28
ATOM     28  C   UNL A   1      40.482  25.858  27.583  1.00  0.00     0.039 A 
ATOM     29  C   UNL A   1      39.518  25.659  28.576  1.00  0.00     0.014 A 
ATOM     30  C   UNL A   1      41.242  27.026  27.583  1.00  0.00     0.014 A 
ATOM     31  C   UNL A   1      39.377  26.596  29.604  1.00  0.00     0.010 A 
ATOM     32  C   UNL A   1      41.196  27.884  28.675  1.00  0.00     0.010 A 
ATOM     33  C   UNL A   1      40.247  27.697  29.687  1.00  0.00    -0.014 A 
BRANCH  33  34
ATOM     34  C   UNL A   1      40.158  28.684  30.794  1.00  0.00     0.031 A 
ATOM     35  C   UNL A   1      41.052  28.542  32.002  1.00  0.00     0.074 A 
ATOM     36  C   UNL A   1      39.231  29.663  30.748  1.00  0.00     0.049 A 
ATOM     37  N   UNL A   1      41.080  29.252  33.100  1.00  0.00    -0.248 NA
ATOM     38  C   UNL A   1      42.008  27.421  31.997  1.00  0.00     0.031 C 
ATOM     39  C   UNL A   1      38.249  29.855  29.678  1.00  0.00     0.029 A 
ATOM     40  N   UNL A   1      38.960  30.681  31.626  1.00  0.00    -0.354 N 
ATOM     41  C   UNL A   1      42.026  28.645  33.919  1.00  0.00     0.074 A 
ATOM     42  C   UNL A   1      42.492  27.467  33.228  1.00  0.00     0.031 C 
ATOM     43  C   UNL A   1      37.516  30.949  29.939  1.00  0.00     0.029 A 
ATOM     44  C   UNL A   1      37.952  31.519  31.209  1.00  0.00     0.049 A 
ATOM     45  H   UNL A   1      39.443  30.802  32.476  1.00  0.00     0.167 HD
ATOM     46  C   UNL A   1      42.497  29.053  35.123  1.00  0.00     0.037 A 
ATOM     47  C   UNL A   1      37.445  32.627  31.782  1.00  0.00     0.037 A 
ATOM     48  C   UNL A   1      42.073  30.263  35.775  1.00  0.00     0.049 A 
ATOM     49  C   UNL A   1      38.035  33.105  33.081  1.00  0.00     0.074 A 
ATOM     50  C   UNL A   1      42.536  30.816  36.955  1.00  0.00     0.029 A 
ATOM     51  N   UNL A   1      41.094  31.118  35.289  1.00  0.00    -0.354 N 
ATOM     52  N   UNL A   1      38.978  32.554  33.810  1.00  0.00    -0.248 NA
ATOM     53  C   UNL A   1      37.509  34.363  33.625  1.00  0.00     0.031 C 
ATOM     54  C   UNL A   1      41.814  31.990  37.199  1.00  0.00     0.029 A 
ATOM     55  C   UNL A   1      40.934  32.192  36.148  1.00  0.00     0.049 A 
ATOM     56  H   UNL A   1      40.588  30.982  34.455  1.00  0.00     0.167 HD
ATOM     57  C   UNL A   1      39.174  33.412  34.888  1.00  0.00     0.074 A 
ATOM     58  C   UNL A   1      38.269  34.526  34.699  1.00  0.00     0.031 C 
ATOM     59  C   UNL A   1      40.024  33.290  35.938  1.00  0.00     0.037 A 
BRANCH  46  60
ATOM     60  C   UNL A   1      43.539  28.196  35.790  1.00  0.00     0.058 A 
ATOM     61  C   UNL A   1      43.188  27.181  36.698  1.00  0.00     0.135 A 
ATOM     62  C   UNL A   1      44.903  28.379  35.514  1.00  0.00     0.135 A 
ATOM     63  F   UNL A   1      41.901  26.972  37.016  1.00  0.00    -0.206 F 
ATOM     64  C   UNL A   1      44.153  26.407  37.335  1.00  0.00     0.059 A 
ATOM     65  C   UNL A   1      45.884  27.594  36.115  1.00  0.00     0.059 A 
ATOM     66  F   UNL A   1      45.297  29.334  34.657  1.00  0.00    -0.206 F 
ATOM     67  C   UNL A   1      45.499  26.622  37.038  1.00  0.00     0.060 A 
BRANCH  67  68
ATOM     68  S   UNL A   1      46.738  25.606  37.871  1.00  0.00     0.124 S 
ATOM     69  O   UNL A   1      47.233  26.528  38.888  1.00  0.00    -0.237 OA
ATOM     70  O   UNL A   1      45.942  24.487  38.365  1.00  0.00    -0.237 OA
ATOM     71  O   UNL A   1      47.681  25.281  36.805  1.00  0.00    -0.744 OA
ENDBRANCH  67  68
ENDBRANCH  46  60
BRANCH  47  72
ATOM     72  C   UNL A   1      36.362  33.390  31.105  1.00  0.00     0.058 A 
ATOM     73  C   UNL A   1      35.051  33.380  31.609  1.00  0.00     0.135 A 
ATOM     74  C   UNL A   1      36.613  34.156  29.957  1.00  0.00     0.135 A 
ATOM     75  F   UNL A   1      34.760  32.662  32.703  1.00  0.00    -0.206 F 
ATOM     76  C   UNL A   1      34.024  34.083  30.987  1.00  0.00     0.059 A 
ATOM     77  C   UNL A   1      35.607  34.888  29.331  1.00  0.00     0.059 A 
ATOM     78  F   UNL A   1      37.852  34.217  29.446  1.00  0.00    -0.206 F 
ATOM     79  C   UNL A   1      34.313  34.837  29.849  1.00  0.00     0.060 A 
BRANCH  79  80
ATOM     80  S   UNL A   1      32.983  35.786  29.077  1.00  0.00     0.124 S 
ATOM     81  O   UNL A   1      33.727  36.852  28.418  1.00  0.00    -0.237 OA
ATOM     82  O   UNL A   1      32.371  34.795  28.197  1.00  0.00    -0.237 OA
ATOM     83  O   UNL A   1      32.162  36.195  30.213  1.00  0.00    -0.744 OA
ENDBRANCH  79  80
ENDBRANCH  47  72
BRANCH  59  84
ATOM     84  C   UNL A   1      40.031  34.409  36.940  1.00  0.00     0.058 A 
ATOM     85  C   UNL A   1      39.128  34.444  38.013  1.00  0.00     0.135 A 
ATOM     86  C   UNL A   1      40.959  35.457  36.825  1.00  0.00     0.135 A 
ATOM     87  F   UNL A   1      38.220  33.466  38.166  1.00  0.00    -0.206 F 
ATOM     88  C   UNL A   1      39.110  35.506  38.912  1.00  0.00     0.059 A 
ATOM     89  C   UNL A   1      40.980  36.512  37.730  1.00  0.00     0.059 A 
ATOM     90  F   UNL A   1      41.856  35.462  35.828  1.00  0.00    -0.206 F 
ATOM     91  C   UNL A   1      40.035  36.540  38.756  1.00  0.00     0.060 A 
BRANCH  91  92
ATOM     92  S   UNL A   1      39.993  37.922  39.914  1.00  0.00     0.124 S 
ATOM     93  O   UNL A   1      38.736  38.567  39.555  1.00  0.00    -0.237 OA
ATOM     94  O   UNL A   1      40.013  37.248  41.210  1.00  0.00    -0.237 OA
ATOM     95  O   UNL A   1      41.201  38.673  39.589  1.00  0.00    -0.744 OA
ENDBRANCH  91  92
ENDBRANCH  59  84
ENDBRANCH  33  34
ENDBRANCH  25  28
ENDBRANCH   1  24
TORSDOF 14
ENDMDL
MODEL 2
REMARK VINA RESULT:     -12.6      2.224      3.127
REMARK SMILES O=C(NCCCNC(=O)c1ccc(-c2c3nc(c(-c4c(F)cc(S(=O)(=O)[O-])cc4F)c4ccc([nH]4)c(-c4c(F)cc(S(=O)(=O)[O-])cc4F)c4nc(c(-c5c(F)cc(S(=O)(=O)[O-])cc5F)c5ccc2[nH]5)C=C4)C=C3)cc1)C1=Cc2c(Cl)cc(Cl)cc2O[C@@H]1C(F)(F)F
REMARK SMILES IDX 6 1 5 2 4 3 3 4 1 5 2 6 76 8 77 9 87 10 78 11 86 12 79 13
REMARK SMILES IDX 85 14 80 15 81 16 84 17 82 18 83 19 88 20 89 21 90 22 91 23
REMARK SMILES IDX 7 24 8 25 9 27 10 28 11 29 75 30 12 31 74 32 13 33 14 34
REMARK SMILES IDX 15 35 68 36 16 37 73 38 67 39 69 40 17 41 72 42 66 43 65 44
REMARK SMILES IDX 18 46 52 47 31 48 51 49 32 50 35 51 50 52 70 53 33 54 34 55
REMARK SMILES IDX 49 57 71 58 36 59 19 60 20 61 29 62 21 63 22 64 28 65 30 66
REMARK SMILES IDX 23 67 24 68 25 69 26 70 27 71 53 72 54 73 63 74 55 75 56 76
REMARK SMILES IDX 62 77 64 78 57 79 58 80 59 81 60 82 61 83 37 84 38 85 47 86
REMARK SMILES IDX 39 87 40 88 46 89 48 90 41 91 42 92 43 93 44 94 45 95
REMARK H PARENT 3 7 7 26 69 45 35 56
REMARK Flexibility Score: inf
ROOT
ATOM      1  C   UNL A   1      39.359  23.628  26.875  1.00  0.00     0.118 C 
ENDROOT
BRANCH   1   2
ATOM      2  C   UNL A   1      38.055  23.869  26.122  1.00  0.00     0.042 C 
BRANCH   2   3
ATOM      3  C   UNL A   1      37.494  22.596  25.500  1.00  0.00     0.118 C 
BRANCH   3   4
ATOM      4  N   UNL A   1      36.842  22.813  24.207  1.00  0.00    -0.352 N 
ATOM      5  O   UNL A   1      35.256  23.586  22.782  1.00  0.00    -0.270 OA
ATOM      6  C   UNL A   1      35.567  23.231  23.910  1.00  0.00     0.251 C 
ATOM      7  H   UNL A   1      37.410  22.631  23.423  1.00  0.00     0.163 HD
BRANCH   6   8
ATOM      8  C   UNL A   1      34.609  23.317  25.028  1.00  0.00     0.067 C 
ATOM      9  C   UNL A   1      34.458  24.502  25.633  1.00  0.00     0.027 C 
ATOM     10  C   UNL A   1      33.615  22.212  25.158  1.00  0.00     0.314 C 
ATOM     11  C   UNL A   1      33.048  24.933  25.707  1.00  0.00     0.036 A 
ATOM     12  O   UNL A   1      32.251  22.687  25.071  1.00  0.00    -0.475 OA
ATOM     13  C   UNL A   1      32.729  26.304  25.764  1.00  0.00     0.053 A 
ATOM     14  C   UNL A   1      32.042  24.027  25.299  1.00  0.00     0.130 A 
ATOM     15  Cl  UNL A   1      33.890  27.507  26.214  1.00  0.00    -0.083 Cl
ATOM     16  C   UNL A   1      31.485  26.761  25.323  1.00  0.00     0.042 A 
ATOM     17  C   UNL A   1      30.791  24.488  24.886  1.00  0.00     0.067 A 
ATOM     18  C   UNL A   1      30.535  25.854  24.862  1.00  0.00     0.046 A 
ATOM     19  Cl  UNL A   1      29.067  26.432  24.181  1.00  0.00    -0.084 Cl
BRANCH  10  20
ATOM     20  C   UNL A   1      33.837  21.432  26.463  1.00  0.00     0.429 C 
ATOM     21  F   UNL A   1      33.373  20.162  26.356  1.00  0.00    -0.167 F 
ATOM     22  F   UNL A   1      35.148  21.342  26.786  1.00  0.00    -0.167 F 
ATOM     23  F   UNL A   1      33.200  22.001  27.515  1.00  0.00    -0.167 F 
ENDBRANCH  10  20
ENDBRANCH   6   8
ENDBRANCH   3   4
ENDBRANCH   2   3
ENDBRANCH   1   2
BRANCH   1  24
ATOM     24  N   UNL A   1      40.551  24.045  26.146  1.00  0.00    -0.352 N 
ATOM     25  C   UNL A   1      41.352  25.161  26.299  1.00  0.00     0.251 C 
ATOM     26  H   UNL A   1      40.832  23.431  25.429  1.00  0.00     0.163 HD
ATOM     27  O   UNL A   1      42.281  25.339  25.531  1.00  0.00    -0.269 OA
BRANCH  25  28
ATOM     28  C   UNL A   1      41.059  26.155  27.364  1.00  0.00     0.039 A 
ATOM     29  C   UNL A   1      40.130  25.830  28.356  1.00  0.00     0.014 A 
ATOM     30  C   UNL A   1      41.702  27.392  27.398  1.00  0.00     0.014 A 
ATOM     31  C   UNL A   1      39.911  26.713  29.417  1.00  0.00     0.010 A 
ATOM     32  C   UNL A   1      41.585  28.203  28.519  1.00  0.00     0.010 A 
ATOM     33  C   UNL A   1      40.670  27.890  29.532  1.00  0.00    -0.014 A 
BRANCH  33  34
ATOM     34  C   UNL A   1      40.497  28.827  30.673  1.00  0.00     0.031 A 
ATOM     35  C   UNL A   1      41.365  28.684  31.900  1.00  0.00     0.074 A 
ATOM     36  C   UNL A   1      39.520  29.756  30.638  1.00  0.00     0.049 A 
ATOM     37  N   UNL A   1      41.325  29.350  33.025  1.00  0.00    -0.248 NA
ATOM     38  C   UNL A   1      42.380  27.617  31.880  1.00  0.00     0.031 C 
ATOM     39  C   UNL A   1      38.558  29.937  29.548  1.00  0.00     0.029 A 
ATOM     40  N   UNL A   1      39.170  30.722  31.546  1.00  0.00    -0.354 N 
ATOM     41  C   UNL A   1      42.280  28.762  33.847  1.00  0.00     0.074 A 
ATOM     42  C   UNL A   1      42.828  27.639  33.125  1.00  0.00     0.031 C 
ATOM     43  C   UNL A   1      37.760  30.979  29.829  1.00  0.00     0.029 A 
ATOM     44  C   UNL A   1      38.130  31.520  31.133  1.00  0.00     0.049 A 
ATOM     45  H   UNL A   1      39.622  30.834  32.414  1.00  0.00     0.167 HD
ATOM     46  C   UNL A   1      42.696  29.146  35.079  1.00  0.00     0.037 A 
ATOM     47  C   UNL A   1      37.548  32.576  31.733  1.00  0.00     0.037 A 
ATOM     48  C   UNL A   1      42.189  30.305  35.765  1.00  0.00     0.049 A 
ATOM     49  C   UNL A   1      38.076  33.032  33.066  1.00  0.00     0.074 A 
ATOM     50  C   UNL A   1      42.589  30.833  36.978  1.00  0.00     0.029 A 
ATOM     51  N   UNL A   1      41.178  31.125  35.283  1.00  0.00    -0.354 N 
ATOM     52  N   UNL A   1      39.027  32.504  33.801  1.00  0.00    -0.248 NA
ATOM     53  C   UNL A   1      37.468  34.237  33.643  1.00  0.00     0.031 C 
ATOM     54  C   UNL A   1      41.798  31.957  37.246  1.00  0.00     0.029 A 
ATOM     55  C   UNL A   1      40.937  32.153  36.178  1.00  0.00     0.049 A 
ATOM     56  H   UNL A   1      40.703  30.995  34.431  1.00  0.00     0.167 HD
ATOM     57  C   UNL A   1      39.147  33.326  34.916  1.00  0.00     0.074 A 
ATOM     58  C   UNL A   1      38.188  34.398  34.744  1.00  0.00     0.031 C 
ATOM     59  C   UNL A   1      39.974  33.208  35.985  1.00  0.00     0.037 A 
BRANCH  46  60
ATOM     60  C   UNL A   1      43.764  28.319  35.743  1.00  0.00     0.058 A 
ATOM     61  C   UNL A   1      43.446  27.269  36.622  1.00  0.00     0.135 A 
ATOM     62  C   UNL A   1      45.123  28.568  35.491  1.00  0.00     0.135 A 
ATOM     63  F   UNL A   1      42.165  26.998  36.915  1.00  0.00    -0.206 F 
ATOM     64  C   UNL A   1      44.434  26.523  37.256  1.00  0.00     0.059 A 
ATOM     65  C   UNL A   1      46.129  27.813  36.089  1.00  0.00     0.059 A 
ATOM     66  F   UNL A   1      45.487  29.558  34.662  1.00  0.00    -0.206 F 
ATOM     67  C   UNL A   1      45.773  26.804  36.984  1.00  0.00     0.060 A 
BRANCH  67  68
ATOM     68  S   UNL A   1      47.043  25.824  37.813  1.00  0.00     0.124 S 
ATOM     69  O   UNL A   1      47.517  24.979  36.721  1.00  0.00    -0.237 OA
ATOM     70  O   UNL A   1      47.977  26.847  38.271  1.00  0.00    -0.237 OA
ATOM     71  O   UNL A   1      46.306  25.134  38.867  1.00  0.00    -0.744 OA
ENDBRANCH  67  68
ENDBRANCH  46  60
BRANCH  47  72
ATOM     72  C   UNL A   1      36.443  33.306  31.055  1.00  0.00     0.058 A 
ATOM     73  C   UNL A   1      36.692  34.095  29.920  1.00  0.00     0.135 A 
ATOM     74  C   UNL A   1      35.120  33.220  31.511  1.00  0.00     0.135 A 
ATOM     75  F   UNL A   1      37.941  34.210  29.446  1.00  0.00    -0.206 F 
ATOM     76  C   UNL A   1      35.673  34.789  29.275  1.00  0.00     0.059 A 
ATOM     77  C   UNL A   1      34.079  33.885  30.867  1.00  0.00     0.059 A 
ATOM     78  F   UNL A   1      34.824  32.463  32.579  1.00  0.00    -0.206 F 
ATOM     79  C   UNL A   1      34.368  34.675  29.756  1.00  0.00     0.060 A 
BRANCH  79  80
ATOM     80  S   UNL A   1      33.045  35.541  28.882  1.00  0.00     0.124 S 
ATOM     81  O   UNL A   1      33.797  36.508  28.092  1.00  0.00    -0.237 OA
ATOM     82  O   UNL A   1      32.412  34.458  28.133  1.00  0.00    -0.237 OA
ATOM     83  O   UNL A   1      32.237  36.097  29.964  1.00  0.00    -0.744 OA
ENDBRANCH  79  80
ENDBRANCH  47  72
BRANCH  59  84
ATOM     84  C   UNL A   1      39.893  34.285  37.029  1.00  0.00     0.058 A 
ATOM     85  C   UNL A   1      39.117  34.132  38.188  1.00  0.00     0.135 A 
ATOM     86  C   UNL A   1      40.606  35.484  36.868  1.00  0.00     0.135 A 
ATOM     87  F   UNL A   1      38.415  33.004  38.389  1.00  0.00    -0.206 F 
ATOM     88  C   UNL A   1      39.011  35.150  39.130  1.00  0.00     0.059 A 
ATOM     89  C   UNL A   1      40.539  36.503  37.811  1.00  0.00     0.059 A 
ATOM     90  F   UNL A   1      41.377  35.673  35.786  1.00  0.00    -0.206 F 
ATOM     91  C   UNL A   1      39.720  36.336  38.927  1.00  0.00     0.060 A 
BRANCH  91  92
ATOM     92  S   UNL A   1      39.562  37.659  40.143  1.00  0.00     0.124 S 
ATOM     93  O   UNL A   1      38.541  38.500  39.529  1.00  0.00    -0.237 OA
ATOM     94  O   UNL A   1      39.150  36.935  41.343  1.00  0.00    -0.237 OA
ATOM     95  O   UNL A   1      40.902  38.233  40.196  1.00  0.00    -0.744 OA
ENDBRANCH  91  92
ENDBRANCH  59  84
ENDBRANCH  33  34
ENDBRANCH  25  28
ENDBRANCH   1  24
TORSDOF 14
ENDMDL
MODEL 3
REMARK VINA RESULT:     -12.6      6.967     12.261
REMARK SMILES O=C(NCCCNC(=O)c1ccc(-c2c3nc(c(-c4c(F)cc(S(=O)(=O)[O-])cc4F)c4ccc([nH]4)c(-c4c(F)cc(S(=O)(=O)[O-])cc4F)c4nc(c(-c5c(F)cc(S(=O)(=O)[O-])cc5F)c5ccc2[nH]5)C=C4)C=C3)cc1)C1=Cc2c(Cl)cc(Cl)cc2O[C@@H]1C(F)(F)F
REMARK SMILES IDX 6 1 5 2 4 3 3 4 1 5 2 6 76 8 77 9 87 10 78 11 86 12 79 13
REMARK SMILES IDX 85 14 80 15 81 16 84 17 82 18 83 19 88 20 89 21 90 22 91 23
REMARK SMILES IDX 7 24 8 25 9 27 10 28 11 29 75 30 12 31 74 32 13 33 14 34
REMARK SMILES IDX 15 35 68 36 16 37 73 38 67 39 69 40 17 41 72 42 66 43 65 44
REMARK SMILES IDX 18 46 52 47 31 48 51 49 32 50 35 51 50 52 70 53 33 54 34 55
REMARK SMILES IDX 49 57 71 58 36 59 19 60 20 61 29 62 21 63 22 64 28 65 30 66
REMARK SMILES IDX 23 67 24 68 25 69 26 70 27 71 53 72 54 73 63 74 55 75 56 76
REMARK SMILES IDX 62 77 64 78 57 79 58 80 59 81 60 82 61 83 37 84 38 85 47 86
REMARK SMILES IDX 39 87 40 88 46 89 48 90 41 91 42 92 43 93 44 94 45 95
REMARK H PARENT 3 7 7 26 69 45 35 56
REMARK Flexibility Score: inf
ROOT
ATOM      1  C   UNL A   1      35.541  30.414  28.111  1.00  0.00     0.118 C 
ENDROOT
BRANCH   1   2
ATOM      2  C   UNL A   1      34.969  29.160  27.461  1.00  0.00     0.042 C 
BRANCH   2   3
ATOM      3  C   UNL A   1      33.712  29.443  26.646  1.00  0.00     0.118 C 
BRANCH   3   4
ATOM      4  N   UNL A   1      32.611  28.518  26.925  1.00  0.00    -0.352 N 
ATOM      5  O   UNL A   1      31.503  26.540  26.906  1.00  0.00    -0.270 OA
ATOM      6  C   UNL A   1      32.329  27.282  26.395  1.00  0.00     0.251 C 
ATOM      7  H   UNL A   1      31.971  28.833  27.604  1.00  0.00     0.163 HD
BRANCH   6   8
ATOM      8  C   UNL A   1      33.126  26.850  25.232  1.00  0.00     0.067 C 
ATOM      9  C   UNL A   1      34.068  25.920  25.430  1.00  0.00     0.027 C 
ATOM     10  C   UNL A   1      32.590  27.180  23.880  1.00  0.00     0.314 C 
ATOM     11  C   UNL A   1      33.945  24.773  24.507  1.00  0.00     0.036 A 
ATOM     12  O   UNL A   1      32.351  25.999  23.080  1.00  0.00    -0.475 OA
ATOM     13  C   UNL A   1      34.424  23.504  24.888  1.00  0.00     0.053 A 
ATOM     14  C   UNL A   1      32.998  24.846  23.461  1.00  0.00     0.130 A 
ATOM     15  Cl  UNL A   1      35.558  23.291  26.179  1.00  0.00    -0.083 Cl
ATOM     16  C   UNL A   1      33.890  22.346  24.318  1.00  0.00     0.042 A 
ATOM     17  C   UNL A   1      32.489  23.686  22.876  1.00  0.00     0.067 A 
ATOM     18  C   UNL A   1      32.909  22.443  23.337  1.00  0.00     0.046 A 
ATOM     19  Cl  UNL A   1      32.149  21.018  22.748  1.00  0.00    -0.084 Cl
BRANCH  10  20
ATOM     20  C   UNL A   1      33.526  28.153  23.146  1.00  0.00     0.429 C 
ATOM     21  F   UNL A   1      32.893  29.318  22.861  1.00  0.00    -0.167 F 
ATOM     22  F   UNL A   1      34.612  28.472  23.887  1.00  0.00    -0.167 F 
ATOM     23  F   UNL A   1      33.974  27.646  21.972  1.00  0.00    -0.167 F 
ENDBRANCH  10  20
ENDBRANCH   6   8
ENDBRANCH   3   4
ENDBRANCH   2   3
ENDBRANCH   1   2
BRANCH   1  24
ATOM     24  N   UNL A   1      35.484  30.407  29.568  1.00  0.00    -0.352 N 
ATOM     25  C   UNL A   1      36.478  30.187  30.504  1.00  0.00     0.251 C 
ATOM     26  H   UNL A   1      34.594  30.590  29.947  1.00  0.00     0.163 HD
ATOM     27  O   UNL A   1      36.190  30.173  31.688  1.00  0.00    -0.269 OA
BRANCH  25  28
ATOM     28  C   UNL A   1      37.875  29.928  30.069  1.00  0.00     0.039 A 
ATOM     29  C   UNL A   1      38.780  29.387  30.987  1.00  0.00     0.014 A 
ATOM     30  C   UNL A   1      38.291  30.199  28.767  1.00  0.00     0.014 A 
ATOM     31  C   UNL A   1      40.071  29.050  30.571  1.00  0.00     0.010 A 
ATOM     32  C   UNL A   1      39.524  29.739  28.322  1.00  0.00     0.010 A 
ATOM     33  C   UNL A   1      40.441  29.182  29.222  1.00  0.00    -0.014 A 
BRANCH  33  34
ATOM     34  C   UNL A   1      41.789  28.787  28.736  1.00  0.00     0.031 A 
ATOM     35  C   UNL A   1      42.887  29.820  28.641  1.00  0.00     0.074 A 
ATOM     36  C   UNL A   1      42.009  27.524  28.316  1.00  0.00     0.049 A 
ATOM     37  N   UNL A   1      44.104  29.695  28.178  1.00  0.00    -0.248 NA
ATOM     38  C   UNL A   1      42.557  31.187  29.078  1.00  0.00     0.031 C 
ATOM     39  C   UNL A   1      41.006  26.456  28.274  1.00  0.00     0.029 A 
ATOM     40  N   UNL A   1      43.146  26.924  27.840  1.00  0.00    -0.354 N 
ATOM     41  C   UNL A   1      44.664  30.966  28.239  1.00  0.00     0.074 A 
ATOM     42  C   UNL A   1      43.633  31.862  28.708  1.00  0.00     0.031 C 
ATOM     43  C   UNL A   1      41.583  25.323  27.843  1.00  0.00     0.029 A 
ATOM     44  C   UNL A   1      42.987  25.590  27.547  1.00  0.00     0.049 A 
ATOM     45  H   UNL A   1      43.998  27.403  27.719  1.00  0.00     0.167 HD
ATOM     46  C   UNL A   1      45.935  31.350  27.969  1.00  0.00     0.037 A 
ATOM     47  C   UNL A   1      43.876  24.681  27.102  1.00  0.00     0.037 A 
ATOM     48  C   UNL A   1      46.973  30.439  27.563  1.00  0.00     0.049 A 
ATOM     49  C   UNL A   1      45.301  25.113  26.881  1.00  0.00     0.074 A 
ATOM     50  C   UNL A   1      48.312  30.701  27.337  1.00  0.00     0.029 A 
ATOM     51  N   UNL A   1      46.786  29.082  27.339  1.00  0.00    -0.354 N 
ATOM     52  N   UNL A   1      45.830  26.307  27.008  1.00  0.00    -0.248 NA
ATOM     53  C   UNL A   1      46.253  24.071  26.477  1.00  0.00     0.031 C 
ATOM     54  C   UNL A   1      48.929  29.507  26.946  1.00  0.00     0.029 A 
ATOM     55  C   UNL A   1      47.984  28.494  26.972  1.00  0.00     0.049 A 
ATOM     56  H   UNL A   1      45.927  28.608  27.428  1.00  0.00     0.167 HD
ATOM     57  C   UNL A   1      47.183  26.156  26.722  1.00  0.00     0.074 A 
ATOM     58  C   UNL A   1      47.391  24.750  26.439  1.00  0.00     0.031 C 
ATOM     59  C   UNL A   1      48.164  27.091  26.694  1.00  0.00     0.037 A 
BRANCH  46  60
ATOM     60  C   UNL A   1      46.272  32.808  28.129  1.00  0.00     0.058 A 
ATOM     61  C   UNL A   1      46.086  33.729  27.083  1.00  0.00     0.135 A 
ATOM     62  C   UNL A   1      46.776  33.298  29.346  1.00  0.00     0.135 A 
ATOM     63  F   UNL A   1      45.626  33.315  25.892  1.00  0.00    -0.206 F 
ATOM     64  C   UNL A   1      46.423  35.071  27.224  1.00  0.00     0.059 A 
ATOM     65  C   UNL A   1      47.089  34.644  29.519  1.00  0.00     0.059 A 
ATOM     66  F   UNL A   1      46.976  32.466  30.379  1.00  0.00    -0.206 F 
ATOM     67  C   UNL A   1      46.925  35.519  28.446  1.00  0.00     0.060 A 
BRANCH  67  68
ATOM     68  S   UNL A   1      47.354  37.265  28.612  1.00  0.00     0.124 S 
ATOM     69  O   UNL A   1      46.540  37.656  29.759  1.00  0.00    -0.237 OA
ATOM     70  O   UNL A   1      48.794  37.211  28.848  1.00  0.00    -0.237 OA
ATOM     71  O   UNL A   1      46.951  37.837  27.331  1.00  0.00    -0.744 OA
ENDBRANCH  67  68
ENDBRANCH  46  60
BRANCH  47  72
ATOM     72  C   UNL A   1      43.460  23.268  26.891  1.00  0.00     0.058 A 
ATOM     73  C   UNL A   1      43.264  22.762  25.597  1.00  0.00     0.135 A 
ATOM     74  C   UNL A   1      43.268  22.393  27.970  1.00  0.00     0.135 A 
ATOM     75  F   UNL A   1      43.433  23.560  24.532  1.00  0.00    -0.206 F 
ATOM     76  C   UNL A   1      42.870  21.445  25.379  1.00  0.00     0.059 A 
ATOM     77  C   UNL A   1      42.899  21.064  27.777  1.00  0.00     0.059 A 
ATOM     78  F   UNL A   1      43.463  22.821  29.227  1.00  0.00    -0.206 F 
ATOM     79  C   UNL A   1      42.693  20.603  26.478  1.00  0.00     0.060 A 
BRANCH  79  80
ATOM     80  S   UNL A   1      42.230  18.881  26.184  1.00  0.00     0.124 S 
ATOM     81  O   UNL A   1      40.859  19.023  25.707  1.00  0.00    -0.237 OA
ATOM     82  O   UNL A   1      43.214  18.465  25.187  1.00  0.00    -0.237 OA
ATOM     83  O   UNL A   1      42.383  18.264  27.498  1.00  0.00    -0.744 OA
ENDBRANCH  79  80
ENDBRANCH  47  72
BRANCH  59  84
ATOM     84  C   UNL A   1      49.552  26.611  26.378  1.00  0.00     0.058 A 
ATOM     85  C   UNL A   1      50.106  26.748  25.096  1.00  0.00     0.135 A 
ATOM     86  C   UNL A   1      50.339  26.011  27.375  1.00  0.00     0.135 A 
ATOM     87  F   UNL A   1      49.394  27.313  24.108  1.00  0.00    -0.206 F 
ATOM     88  C   UNL A   1      51.375  26.261  24.798  1.00  0.00     0.059 A 
ATOM     89  C   UNL A   1      51.621  25.545  27.107  1.00  0.00     0.059 A 
ATOM     90  F   UNL A   1      49.863  25.873  28.622  1.00  0.00    -0.206 F 
ATOM     91  C   UNL A   1      52.121  25.653  25.810  1.00  0.00     0.060 A 
BRANCH  91  92
ATOM     92  S   UNL A   1      53.758  25.008  25.411  1.00  0.00     0.124 S 
ATOM     93  O   UNL A   1      54.543  25.477  26.547  1.00  0.00    -0.237 OA
ATOM     94  O   UNL A   1      53.523  23.568  25.353  1.00  0.00    -0.237 OA
ATOM     95  O   UNL A   1      54.067  25.636  24.131  1.00  0.00    -0.744 OA
ENDBRANCH  91  92
ENDBRANCH  59  84
ENDBRANCH  33  34
ENDBRANCH  25  28
ENDBRANCH   1  24
TORSDOF 14
ENDMDL
