MODEL 1
REMARK VINA RESULT:     -10.8      0.000      0.000
REMARK SMILES CCCCCN(C(=O)N1CCC(CC(=O)NCCCNC(=O)c2ccc(-c3c4nc(c(-c5c(F)cc(S(=O)(=O)[O-])cc5F)c5ccc([nH]5)c(-c5c(F)cc(S(=O)(=O)[O-])cc5F)c5nc(c(-c6c(F)cc(S(=O)(=O)[O-])cc6F)c6ccc3[nH]6)C=C5)C=C4)cc2)CC1)C(C)C
REMARK SMILES IDX 14 1 15 2 16 3 13 5 12 6 7 7 8 8 9 9 10 10 90 11 11 12 89 13
REMARK SMILES IDX 6 14 5 15 4 16 3 17 2 18 1 19 91 20 92 21 93 22 17 23 18 24
REMARK SMILES IDX 19 25 20 26 21 27 22 29 23 30 24 31 88 32 25 33 87 34 26 35
REMARK SMILES IDX 27 36 28 37 81 38 29 39 86 40 80 41 82 42 30 43 85 44 79 45
REMARK SMILES IDX 78 46 31 48 65 49 44 50 64 51 45 52 48 53 63 54 83 55 46 56
REMARK SMILES IDX 47 57 62 59 84 60 49 61 32 62 33 63 42 64 34 65 35 66 41 67
REMARK SMILES IDX 43 68 36 69 37 70 38 71 39 72 40 73 66 74 67 75 76 76 68 77
REMARK SMILES IDX 69 78 75 79 77 80 70 81 71 82 72 83 73 84 74 85 50 86 51 87
REMARK SMILES IDX 60 88 52 89 53 90 59 91 61 92 54 93 55 94 56 95 57 96 58 97
REMARK H PARENT 16 4 20 28 82 47 48 58
REMARK Flexibility Score: inf
ROOT
ATOM      1  C   UNL A   1      32.913  29.311  24.496  1.00  0.00     0.220 C 
ATOM      2  O   UNL A   1      33.427  29.272  23.376  1.00  0.00    -0.275 OA
ATOM      3  N   UNL A   1      33.679  29.730  25.544  1.00  0.00    -0.356 N 
ATOM      4  H   UNL A   1      34.609  29.953  25.306  1.00  0.00     0.163 HD
ENDROOT
BRANCH   1   5
ATOM      5  C   UNL A   1      31.468  28.889  24.700  1.00  0.00     0.103 C 
BRANCH   5   6
ATOM      6  C   UNL A   1      31.256  27.363  24.646  1.00  0.00     0.002 C 
ATOM      7  C   UNL A   1      33.499  24.349  23.284  1.00  0.00     0.320 C 
ATOM      8  O   UNL A   1      33.930  24.988  22.323  1.00  0.00    -0.248 OA
ATOM      9  N   UNL A   1      32.330  24.742  23.913  1.00  0.00    -0.325 N 
ATOM     10  C   UNL A   1      31.285  25.331  23.101  1.00  0.00     0.121 C 
ATOM     11  C   UNL A   1      32.303  25.124  25.321  1.00  0.00     0.121 C 
ATOM     12  C   UNL A   1      31.301  26.846  23.208  1.00  0.00     0.026 C 
ATOM     13  C   UNL A   1      32.322  26.648  25.496  1.00  0.00     0.026 C 
BRANCH   7  14
ATOM     14  N   UNL A   1      34.129  23.205  23.779  1.00  0.00    -0.322 N 
BRANCH  14  15
ATOM     15  C   UNL A   1      33.504  21.868  23.733  1.00  0.00     0.121 C 
BRANCH  15  16
ATOM     16  C   UNL A   1      32.691  21.453  24.971  1.00  0.00     0.022 C 
BRANCH  16  17
ATOM     17  C   UNL A   1      33.395  20.642  26.071  1.00  0.00     0.002 C 
BRANCH  17  18
ATOM     18  C   UNL A   1      34.043  21.431  27.210  1.00  0.00    -0.003 C 
ATOM     19  C   UNL A   1      33.124  22.485  27.807  1.00  0.00     0.004 C 
ENDBRANCH  17  18
ENDBRANCH  16  17
ENDBRANCH  15  16
ENDBRANCH  14  15
BRANCH  14  20
ATOM     20  C   UNL A   1      35.553  23.347  24.159  1.00  0.00     0.080 C 
ATOM     21  C   UNL A   1      35.744  24.146  25.449  1.00  0.00     0.031 C 
ATOM     22  C   UNL A   1      36.319  22.028  24.209  1.00  0.00     0.031 C 
ENDBRANCH  14  20
ENDBRANCH   7  14
ENDBRANCH   5   6
ENDBRANCH   1   5
BRANCH   3  23
ATOM     23  C   UNL A   1      33.358  29.906  26.956  1.00  0.00     0.117 C 
BRANCH  23  24
ATOM     24  C   UNL A   1      33.982  31.165  27.564  1.00  0.00     0.042 C 
BRANCH  24  25
ATOM     25  C   UNL A   1      35.392  30.975  28.104  1.00  0.00     0.118 C 
BRANCH  25  26
ATOM     26  N   UNL A   1      35.441  31.157  29.542  1.00  0.00    -0.352 N 
ATOM     27  C   UNL A   1      36.376  30.717  30.450  1.00  0.00     0.251 C 
ATOM     28  H   UNL A   1      34.695  31.672  29.925  1.00  0.00     0.163 HD
ATOM     29  O   UNL A   1      36.089  30.727  31.645  1.00  0.00    -0.269 OA
BRANCH  27  30
ATOM     30  C   UNL A   1      37.712  30.233  30.016  1.00  0.00     0.039 A 
ATOM     31  C   UNL A   1      38.638  29.852  30.993  1.00  0.00     0.014 A 
ATOM     32  C   UNL A   1      38.094  30.227  28.671  1.00  0.00     0.014 A 
ATOM     33  C   UNL A   1      39.923  29.438  30.622  1.00  0.00     0.010 A 
ATOM     34  C   UNL A   1      39.349  29.740  28.297  1.00  0.00     0.010 A 
ATOM     35  C   UNL A   1      40.287  29.360  29.269  1.00  0.00    -0.014 A 
BRANCH  35  36
ATOM     36  C   UNL A   1      41.653  28.933  28.858  1.00  0.00     0.031 A 
ATOM     37  C   UNL A   1      42.774  29.942  28.798  1.00  0.00     0.074 A 
ATOM     38  C   UNL A   1      41.885  27.653  28.503  1.00  0.00     0.049 A 
ATOM     39  N   UNL A   1      44.008  29.785  28.391  1.00  0.00    -0.248 NA
ATOM     40  C   UNL A   1      42.458  31.313  29.232  1.00  0.00     0.031 C 
ATOM     41  C   UNL A   1      40.882  26.586  28.478  1.00  0.00     0.029 A 
ATOM     42  N   UNL A   1      43.037  27.032  28.084  1.00  0.00    -0.354 N 
ATOM     43  C   UNL A   1      44.612  31.033  28.514  1.00  0.00     0.074 A 
ATOM     44  C   UNL A   1      43.592  31.950  28.975  1.00  0.00     0.031 C 
ATOM     45  C   UNL A   1      41.463  25.443  28.078  1.00  0.00     0.029 A 
ATOM     46  C   UNL A   1      42.870  25.700  27.783  1.00  0.00     0.049 A 
ATOM     47  H   UNL A   1      43.901  27.498  28.004  1.00  0.00     0.167 HD
ATOM     48  C   UNL A   1      45.903  31.380  28.292  1.00  0.00     0.037 A 
ATOM     49  C   UNL A   1      43.746  24.790  27.313  1.00  0.00     0.037 A 
ATOM     50  C   UNL A   1      46.924  30.463  27.855  1.00  0.00     0.049 A 
ATOM     51  C   UNL A   1      45.174  25.201  27.070  1.00  0.00     0.074 A 
ATOM     52  C   UNL A   1      48.266  30.714  27.624  1.00  0.00     0.029 A 
ATOM     53  N   UNL A   1      46.720  29.117  27.597  1.00  0.00    -0.354 N 
ATOM     54  N   UNL A   1      45.732  26.379  27.225  1.00  0.00    -0.248 NA
ATOM     55  C   UNL A   1      46.097  24.159  26.596  1.00  0.00     0.031 C 
ATOM     56  C   UNL A   1      48.866  29.525  27.198  1.00  0.00     0.029 A 
ATOM     57  C   UNL A   1      47.909  28.524  27.205  1.00  0.00     0.049 A 
ATOM     58  H   UNL A   1      45.856  28.649  27.681  1.00  0.00     0.167 HD
ATOM     59  C   UNL A   1      47.072  26.212  26.895  1.00  0.00     0.074 A 
ATOM     60  C   UNL A   1      47.246  24.818  26.546  1.00  0.00     0.031 C 
ATOM     61  C   UNL A   1      48.069  27.131  26.878  1.00  0.00     0.037 A 
BRANCH  48  62
ATOM     62  C   UNL A   1      46.293  32.812  28.542  1.00  0.00     0.058 A 
ATOM     63  C   UNL A   1      46.164  33.789  27.542  1.00  0.00     0.135 A 
ATOM     64  C   UNL A   1      46.753  33.224  29.803  1.00  0.00     0.135 A 
ATOM     65  F   UNL A   1      45.743  33.447  26.314  1.00  0.00    -0.206 F 
ATOM     66  C   UNL A   1      46.498  35.119  27.775  1.00  0.00     0.059 A 
ATOM     67  C   UNL A   1      47.068  34.556  30.066  1.00  0.00     0.059 A 
ATOM     68  F   UNL A   1      46.896  32.334  30.796  1.00  0.00    -0.206 F 
ATOM     69  C   UNL A   1      46.948  35.493  29.041  1.00  0.00     0.060 A 
BRANCH  69  70
ATOM     70  S   UNL A   1      47.362  37.227  29.329  1.00  0.00     0.124 S 
ATOM     71  O   UNL A   1      46.282  37.641  30.217  1.00  0.00    -0.237 OA
ATOM     72  O   UNL A   1      48.684  37.136  29.939  1.00  0.00    -0.237 OA
ATOM     73  O   UNL A   1      47.331  37.811  27.990  1.00  0.00    -0.744 OA
ENDBRANCH  69  70
ENDBRANCH  48  62
BRANCH  49  74
ATOM     74  C   UNL A   1      43.302  23.395  27.038  1.00  0.00     0.058 A 
ATOM     75  C   UNL A   1      43.063  22.489  28.082  1.00  0.00     0.135 A 
ATOM     76  C   UNL A   1      43.130  22.936  25.723  1.00  0.00     0.135 A 
ATOM     77  F   UNL A   1      43.221  22.880  29.356  1.00  0.00    -0.206 F 
ATOM     78  C   UNL A   1      42.700  21.170  27.834  1.00  0.00     0.059 A 
ATOM     79  C   UNL A   1      42.740  21.628  25.450  1.00  0.00     0.059 A 
ATOM     80  F   UNL A   1      43.329  23.766  24.688  1.00  0.00    -0.206 F 
ATOM     81  C   UNL A   1      42.545  20.747  26.512  1.00  0.00     0.060 A 
BRANCH  81  82
ATOM     82  S   UNL A   1      42.061  19.036  26.197  1.00  0.00     0.124 S 
ATOM     83  O   UNL A   1      40.653  19.190  25.848  1.00  0.00    -0.237 OA
ATOM     84  O   UNL A   1      42.952  18.658  25.104  1.00  0.00    -0.237 OA
ATOM     85  O   UNL A   1      42.328  18.372  27.471  1.00  0.00    -0.744 OA
ENDBRANCH  81  82
ENDBRANCH  49  74
BRANCH  61  86
ATOM     86  C   UNL A   1      49.446  26.652  26.510  1.00  0.00     0.058 A 
ATOM     87  C   UNL A   1      49.927  26.730  25.194  1.00  0.00     0.135 A 
ATOM     88  C   UNL A   1      50.313  26.157  27.498  1.00  0.00     0.135 A 
ATOM     89  F   UNL A   1      49.136  27.190  24.212  1.00  0.00    -0.206 F 
ATOM     90  C   UNL A   1      51.212  26.312  24.865  1.00  0.00     0.059 A 
ATOM     91  C   UNL A   1      51.611  25.758  27.196  1.00  0.00     0.059 A 
ATOM     92  F   UNL A   1      49.906  26.072  28.774  1.00  0.00    -0.206 F 
ATOM     93  C   UNL A   1      52.048  25.829  25.874  1.00  0.00     0.060 A 
BRANCH  93  94
ATOM     94  S   UNL A   1      53.726  25.322  25.440  1.00  0.00     0.124 S 
ATOM     95  O   UNL A   1      54.174  26.452  24.632  1.00  0.00    -0.237 OA
ATOM     96  O   UNL A   1      54.361  25.186  26.747  1.00  0.00    -0.237 OA
ATOM     97  O   UNL A   1      53.526  24.072  24.714  1.00  0.00    -0.744 OA
ENDBRANCH  93  94
ENDBRANCH  61  86
ENDBRANCH  35  36
ENDBRANCH  27  30
ENDBRANCH  25  26
ENDBRANCH  24  25
ENDBRANCH  23  24
ENDBRANCH   3  23
TORSDOF 20
ENDMDL
MODEL 2
REMARK VINA RESULT:     -10.8      0.698      1.874
REMARK SMILES CCCCCN(C(=O)N1CCC(CC(=O)NCCCNC(=O)c2ccc(-c3c4nc(c(-c5c(F)cc(S(=O)(=O)[O-])cc5F)c5ccc([nH]5)c(-c5c(F)cc(S(=O)(=O)[O-])cc5F)c5nc(c(-c6c(F)cc(S(=O)(=O)[O-])cc6F)c6ccc3[nH]6)C=C5)C=C4)cc2)CC1)C(C)C
REMARK SMILES IDX 14 1 15 2 16 3 13 5 12 6 7 7 8 8 9 9 10 10 90 11 11 12 89 13
REMARK SMILES IDX 6 14 5 15 4 16 3 17 2 18 1 19 91 20 92 21 93 22 17 23 18 24
REMARK SMILES IDX 19 25 20 26 21 27 22 29 23 30 24 31 88 32 25 33 87 34 26 35
REMARK SMILES IDX 27 36 28 37 81 38 29 39 86 40 80 41 82 42 30 43 85 44 79 45
REMARK SMILES IDX 78 46 31 48 65 49 44 50 64 51 45 52 48 53 63 54 83 55 46 56
REMARK SMILES IDX 47 57 62 59 84 60 49 61 32 62 33 63 42 64 34 65 35 66 41 67
REMARK SMILES IDX 43 68 36 69 37 70 38 71 39 72 40 73 66 74 67 75 76 76 68 77
REMARK SMILES IDX 69 78 75 79 77 80 70 81 71 82 72 83 73 84 74 85 50 86 51 87
REMARK SMILES IDX 60 88 52 89 53 90 59 91 61 92 54 93 55 94 56 95 57 96 58 97
REMARK H PARENT 16 4 20 28 82 47 48 58
REMARK Flexibility Score: inf
ROOT
ATOM      1  C   UNL A   1      32.749  29.317  24.837  1.00  0.00     0.220 C 
ATOM      2  O   UNL A   1      33.223  29.198  23.705  1.00  0.00    -0.275 OA
ATOM      3  N   UNL A   1      33.468  30.007  25.769  1.00  0.00    -0.356 N 
ATOM      4  H   UNL A   1      34.338  30.341  25.448  1.00  0.00     0.163 HD
ENDROOT
BRANCH   1   5
ATOM      5  C   UNL A   1      31.406  28.699  25.183  1.00  0.00     0.103 C 
BRANCH   5   6
ATOM      6  C   UNL A   1      31.516  27.308  25.840  1.00  0.00     0.002 C 
ATOM      7  C   UNL A   1      31.830  23.613  24.352  1.00  0.00     0.320 C 
ATOM      8  O   UNL A   1      31.075  23.834  23.404  1.00  0.00    -0.248 OA
ATOM      9  N   UNL A   1      31.791  24.418  25.478  1.00  0.00    -0.325 N 
ATOM     10  C   UNL A   1      30.510  24.961  25.880  1.00  0.00     0.121 C 
ATOM     11  C   UNL A   1      32.950  25.187  25.916  1.00  0.00     0.121 C 
ATOM     12  C   UNL A   1      30.360  26.400  25.418  1.00  0.00     0.026 C 
ATOM     13  C   UNL A   1      32.861  26.653  25.473  1.00  0.00     0.026 C 
BRANCH   7  14
ATOM     14  N   UNL A   1      32.738  22.551  24.366  1.00  0.00    -0.322 N 
BRANCH  14  15
ATOM     15  C   UNL A   1      33.914  22.495  23.476  1.00  0.00     0.121 C 
BRANCH  15  16
ATOM     16  C   UNL A   1      34.916  23.656  23.597  1.00  0.00     0.022 C 
BRANCH  16  17
ATOM     17  C   UNL A   1      36.230  23.412  24.357  1.00  0.00     0.002 C 
BRANCH  17  18
ATOM     18  C   UNL A   1      37.072  22.211  23.923  1.00  0.00    -0.003 C 
ATOM     19  C   UNL A   1      37.177  21.135  24.991  1.00  0.00     0.004 C 
ENDBRANCH  17  18
ENDBRANCH  16  17
ENDBRANCH  15  16
ENDBRANCH  14  15
BRANCH  14  20
ATOM     20  C   UNL A   1      32.595  21.575  25.470  1.00  0.00     0.080 C 
ATOM     21  C   UNL A   1      32.193  20.182  24.982  1.00  0.00     0.031 C 
ATOM     22  C   UNL A   1      33.802  21.505  26.400  1.00  0.00     0.031 C 
ENDBRANCH  14  20
ENDBRANCH   7  14
ENDBRANCH   5   6
ENDBRANCH   1   5
BRANCH   3  23
ATOM     23  C   UNL A   1      33.171  30.335  27.159  1.00  0.00     0.117 C 
BRANCH  23  24
ATOM     24  C   UNL A   1      33.998  31.507  27.693  1.00  0.00     0.042 C 
BRANCH  24  25
ATOM     25  C   UNL A   1      35.361  31.119  28.249  1.00  0.00     0.118 C 
BRANCH  25  26
ATOM     26  N   UNL A   1      35.374  31.156  29.699  1.00  0.00    -0.352 N 
ATOM     27  C   UNL A   1      36.276  30.610  30.582  1.00  0.00     0.251 C 
ATOM     28  H   UNL A   1      34.626  31.645  30.113  1.00  0.00     0.163 HD
ATOM     29  O   UNL A   1      35.958  30.507  31.764  1.00  0.00    -0.269 OA
BRANCH  27  30
ATOM     30  C   UNL A   1      37.615  30.146  30.135  1.00  0.00     0.039 A 
ATOM     31  C   UNL A   1      38.541  29.736  31.101  1.00  0.00     0.014 A 
ATOM     32  C   UNL A   1      38.001  30.186  28.791  1.00  0.00     0.014 A 
ATOM     33  C   UNL A   1      39.828  29.339  30.719  1.00  0.00     0.010 A 
ATOM     34  C   UNL A   1      39.258  29.716  28.404  1.00  0.00     0.010 A 
ATOM     35  C   UNL A   1      40.196  29.308  29.365  1.00  0.00    -0.014 A 
BRANCH  35  36
ATOM     36  C   UNL A   1      41.564  28.900  28.943  1.00  0.00     0.031 A 
ATOM     37  C   UNL A   1      42.673  29.922  28.885  1.00  0.00     0.074 A 
ATOM     38  C   UNL A   1      41.809  27.626  28.576  1.00  0.00     0.049 A 
ATOM     39  N   UNL A   1      43.907  29.783  28.470  1.00  0.00    -0.248 NA
ATOM     40  C   UNL A   1      42.345  31.286  29.332  1.00  0.00     0.031 C 
ATOM     41  C   UNL A   1      40.818  26.548  28.548  1.00  0.00     0.029 A 
ATOM     42  N   UNL A   1      42.965  27.022  28.146  1.00  0.00    -0.354 N 
ATOM     43  C   UNL A   1      44.497  31.037  28.600  1.00  0.00     0.074 A 
ATOM     44  C   UNL A   1      43.470  31.938  29.075  1.00  0.00     0.031 C 
ATOM     45  C   UNL A   1      41.410  25.415  28.136  1.00  0.00     0.029 A 
ATOM     46  C   UNL A   1      42.812  25.690  27.835  1.00  0.00     0.049 A 
ATOM     47  H   UNL A   1      43.824  27.498  28.065  1.00  0.00     0.167 HD
ATOM     48  C   UNL A   1      45.783  31.400  28.375  1.00  0.00     0.037 A 
ATOM     49  C   UNL A   1      43.696  24.794  27.353  1.00  0.00     0.037 A 
ATOM     50  C   UNL A   1      46.812  30.499  27.925  1.00  0.00     0.049 A 
ATOM     51  C   UNL A   1      45.118  25.224  27.105  1.00  0.00     0.074 A 
ATOM     52  C   UNL A   1      48.149  30.767  27.689  1.00  0.00     0.029 A 
ATOM     53  N   UNL A   1      46.622  29.152  27.657  1.00  0.00    -0.354 N 
ATOM     54  N   UNL A   1      45.663  26.406  27.268  1.00  0.00    -0.248 NA
ATOM     55  C   UNL A   1      46.050  24.196  26.618  1.00  0.00     0.031 C 
ATOM     56  C   UNL A   1      48.761  29.588  27.250  1.00  0.00     0.029 A 
ATOM     57  C   UNL A   1      47.816  28.577  27.254  1.00  0.00     0.049 A 
ATOM     58  H   UNL A   1      45.764  28.674  27.741  1.00  0.00     0.167 HD
ATOM     59  C   UNL A   1      47.003  26.257  26.929  1.00  0.00     0.074 A 
ATOM     60  C   UNL A   1      47.191  24.868  26.567  1.00  0.00     0.031 C 
ATOM     61  C   UNL A   1      47.989  27.188  26.914  1.00  0.00     0.037 A 
BRANCH  48  62
ATOM     62  C   UNL A   1      46.158  32.835  28.634  1.00  0.00     0.058 A 
ATOM     63  C   UNL A   1      46.619  33.252  29.893  1.00  0.00     0.135 A 
ATOM     64  C   UNL A   1      46.107  33.791  27.607  1.00  0.00     0.135 A 
ATOM     65  F   UNL A   1      46.675  32.382  30.914  1.00  0.00    -0.206 F 
ATOM     66  C   UNL A   1      46.993  34.570  30.132  1.00  0.00     0.059 A 
ATOM     67  C   UNL A   1      46.501  35.111  27.817  1.00  0.00     0.059 A 
ATOM     68  F   UNL A   1      45.674  33.448  26.385  1.00  0.00    -0.206 F 
ATOM     69  C   UNL A   1      46.932  35.493  29.087  1.00  0.00     0.060 A 
BRANCH  69  70
ATOM     70  S   UNL A   1      47.436  37.195  29.413  1.00  0.00     0.124 S 
ATOM     71  O   UNL A   1      48.654  36.995  30.190  1.00  0.00    -0.237 OA
ATOM     72  O   UNL A   1      47.623  37.729  28.068  1.00  0.00    -0.237 OA
ATOM     73  O   UNL A   1      46.305  37.749  30.153  1.00  0.00    -0.744 OA
ENDBRANCH  69  70
ENDBRANCH  48  62
BRANCH  49  74
ATOM     74  C   UNL A   1      43.267  23.397  27.068  1.00  0.00     0.058 A 
ATOM     75  C   UNL A   1      43.105  22.462  28.101  1.00  0.00     0.135 A 
ATOM     76  C   UNL A   1      43.032  22.964  25.754  1.00  0.00     0.135 A 
ATOM     77  F   UNL A   1      43.325  22.826  29.375  1.00  0.00    -0.206 F 
ATOM     78  C   UNL A   1      42.756  21.141  27.842  1.00  0.00     0.059 A 
ATOM     79  C   UNL A   1      42.654  21.655  25.471  1.00  0.00     0.059 A 
ATOM     80  F   UNL A   1      43.155  23.823  24.730  1.00  0.00    -0.206 F 
ATOM     81  C   UNL A   1      42.537  20.745  26.521  1.00  0.00     0.060 A 
BRANCH  81  82
ATOM     82  S   UNL A   1      42.071  19.032  26.191  1.00  0.00     0.124 S 
ATOM     83  O   UNL A   1      40.672  19.177  25.808  1.00  0.00    -0.237 OA
ATOM     84  O   UNL A   1      42.992  18.662  25.120  1.00  0.00    -0.237 OA
ATOM     85  O   UNL A   1      42.312  18.368  27.470  1.00  0.00    -0.744 OA
ENDBRANCH  81  82
ENDBRANCH  49  74
BRANCH  61  86
ATOM     86  C   UNL A   1      49.370  26.728  26.535  1.00  0.00     0.058 A 
ATOM     87  C   UNL A   1      50.268  26.225  27.490  1.00  0.00     0.135 A 
ATOM     88  C   UNL A   1      49.780  26.744  25.192  1.00  0.00     0.135 A 
ATOM     89  F   UNL A   1      49.927  26.193  28.787  1.00  0.00    -0.206 F 
ATOM     90  C   UNL A   1      51.533  25.774  27.129  1.00  0.00     0.059 A 
ATOM     91  C   UNL A   1      51.031  26.275  24.806  1.00  0.00     0.059 A 
ATOM     92  F   UNL A   1      48.955  27.205  24.239  1.00  0.00    -0.206 F 
ATOM     93  C   UNL A   1      51.905  25.802  25.783  1.00  0.00     0.060 A 
BRANCH  93  94
ATOM     94  S   UNL A   1      53.538  25.181  25.323  1.00  0.00     0.124 S 
ATOM     95  O   UNL A   1      53.767  25.869  24.057  1.00  0.00    -0.237 OA
ATOM     96  O   UNL A   1      54.367  25.620  26.442  1.00  0.00    -0.237 OA
ATOM     97  O   UNL A   1      53.338  23.739  25.227  1.00  0.00    -0.744 OA
ENDBRANCH  93  94
ENDBRANCH  61  86
ENDBRANCH  35  36
ENDBRANCH  27  30
ENDBRANCH  25  26
ENDBRANCH  24  25
ENDBRANCH  23  24
ENDBRANCH   3  23
TORSDOF 20
ENDMDL
MODEL 3
REMARK VINA RESULT:     -10.6      0.978      8.286
REMARK SMILES CCCCCN(C(=O)N1CCC(CC(=O)NCCCNC(=O)c2ccc(-c3c4nc(c(-c5c(F)cc(S(=O)(=O)[O-])cc5F)c5ccc([nH]5)c(-c5c(F)cc(S(=O)(=O)[O-])cc5F)c5nc(c(-c6c(F)cc(S(=O)(=O)[O-])cc6F)c6ccc3[nH]6)C=C5)C=C4)cc2)CC1)C(C)C
REMARK SMILES IDX 14 1 15 2 16 3 13 5 12 6 7 7 8 8 9 9 10 10 90 11 11 12 89 13
REMARK SMILES IDX 6 14 5 15 4 16 3 17 2 18 1 19 91 20 92 21 93 22 17 23 18 24
REMARK SMILES IDX 19 25 20 26 21 27 22 29 23 30 24 31 88 32 25 33 87 34 26 35
REMARK SMILES IDX 27 36 28 37 81 38 29 39 86 40 80 41 82 42 30 43 85 44 79 45
REMARK SMILES IDX 78 46 31 48 65 49 44 50 64 51 45 52 48 53 63 54 83 55 46 56
REMARK SMILES IDX 47 57 62 59 84 60 49 61 32 62 33 63 42 64 34 65 35 66 41 67
REMARK SMILES IDX 43 68 36 69 37 70 38 71 39 72 40 73 66 74 67 75 76 76 68 77
REMARK SMILES IDX 69 78 75 79 77 80 70 81 71 82 72 83 73 84 74 85 50 86 51 87
REMARK SMILES IDX 60 88 52 89 53 90 59 91 61 92 54 93 55 94 56 95 57 96 58 97
REMARK H PARENT 16 4 20 28 82 47 48 58
REMARK Flexibility Score: inf
ROOT
ATOM      1  C   UNL A   1      33.049  28.714  23.744  1.00  0.00     0.220 C 
ATOM      2  O   UNL A   1      33.638  28.398  22.708  1.00  0.00    -0.275 OA
ATOM      3  N   UNL A   1      33.776  29.266  24.757  1.00  0.00    -0.356 N 
ATOM      4  H   UNL A   1      34.740  29.348  24.570  1.00  0.00     0.163 HD
ENDROOT
BRANCH   1   5
ATOM      5  C   UNL A   1      31.556  28.478  23.888  1.00  0.00     0.103 C 
BRANCH   5   6
ATOM      6  C   UNL A   1      31.188  27.017  24.216  1.00  0.00     0.002 C 
ATOM      7  C   UNL A   1      33.049  23.537  23.589  1.00  0.00     0.320 C 
ATOM      8  O   UNL A   1      33.496  23.871  22.491  1.00  0.00    -0.248 OA
ATOM      9  N   UNL A   1      31.957  24.196  24.128  1.00  0.00    -0.325 N 
ATOM     10  C   UNL A   1      30.939  24.680  23.218  1.00  0.00     0.121 C 
ATOM     11  C   UNL A   1      32.036  24.908  25.398  1.00  0.00     0.121 C 
ATOM     12  C   UNL A   1      31.112  26.165  22.948  1.00  0.00     0.026 C 
ATOM     13  C   UNL A   1      32.217  26.418  25.192  1.00  0.00     0.026 C 
BRANCH   7  14
ATOM     14  N   UNL A   1      33.583  22.484  24.337  1.00  0.00    -0.322 N 
BRANCH  14  15
ATOM     15  C   UNL A   1      32.782  21.318  24.758  1.00  0.00     0.121 C 
BRANCH  15  16
ATOM     16  C   UNL A   1      32.515  20.251  23.683  1.00  0.00     0.022 C 
BRANCH  16  17
ATOM     17  C   UNL A   1      32.647  18.770  24.073  1.00  0.00     0.002 C 
BRANCH  17  18
ATOM     18  C   UNL A   1      32.765  17.758  22.932  1.00  0.00    -0.003 C 
ATOM     19  C   UNL A   1      34.017  16.900  23.019  1.00  0.00     0.004 C 
ENDBRANCH  17  18
ENDBRANCH  16  17
ENDBRANCH  15  16
ENDBRANCH  14  15
BRANCH  14  20
ATOM     20  C   UNL A   1      35.054  22.477  24.509  1.00  0.00     0.080 C 
ATOM     21  C   UNL A   1      35.554  23.633  25.377  1.00  0.00     0.031 C 
ATOM     22  C   UNL A   1      35.618  21.143  24.989  1.00  0.00     0.031 C 
ENDBRANCH  14  20
ENDBRANCH   7  14
ENDBRANCH   5   6
ENDBRANCH   1   5
BRANCH   3  23
ATOM     23  C   UNL A   1      33.372  29.758  26.070  1.00  0.00     0.117 C 
BRANCH  23  24
ATOM     24  C   UNL A   1      33.937  28.928  27.225  1.00  0.00     0.042 C 
BRANCH  24  25
ATOM     25  C   UNL A   1      35.338  29.327  27.665  1.00  0.00     0.118 C 
BRANCH  25  26
ATOM     26  N   UNL A   1      35.324  29.971  28.965  1.00  0.00    -0.352 N 
ATOM     27  C   UNL A   1      36.328  30.079  29.900  1.00  0.00     0.251 C 
ATOM     28  H   UNL A   1      34.471  30.392  29.216  1.00  0.00     0.163 HD
ATOM     29  O   UNL A   1      36.034  30.407  31.047  1.00  0.00    -0.269 OA
BRANCH  27  30
ATOM     30  C   UNL A   1      37.746  29.808  29.550  1.00  0.00     0.039 A 
ATOM     31  C   UNL A   1      38.155  29.977  28.223  1.00  0.00     0.014 A 
ATOM     32  C   UNL A   1      38.656  29.312  30.488  1.00  0.00     0.014 A 
ATOM     33  C   UNL A   1      39.471  29.682  27.848  1.00  0.00     0.010 A 
ATOM     34  C   UNL A   1      39.989  29.094  30.131  1.00  0.00     0.010 A 
ATOM     35  C   UNL A   1      40.408  29.255  28.802  1.00  0.00    -0.014 A 
BRANCH  35  36
ATOM     36  C   UNL A   1      41.809  28.926  28.418  1.00  0.00     0.031 A 
ATOM     37  C   UNL A   1      42.180  27.510  28.051  1.00  0.00     0.074 A 
ATOM     38  C   UNL A   1      42.758  29.884  28.433  1.00  0.00     0.049 A 
ATOM     39  N   UNL A   1      43.355  27.009  27.766  1.00  0.00    -0.248 NA
ATOM     40  C   UNL A   1      41.088  26.523  28.022  1.00  0.00     0.031 C 
ATOM     41  C   UNL A   1      42.542  31.284  28.806  1.00  0.00     0.029 A 
ATOM     42  N   UNL A   1      44.098  29.825  28.136  1.00  0.00    -0.354 N 
ATOM     43  C   UNL A   1      43.145  25.654  27.531  1.00  0.00     0.074 A 
ATOM     44  C   UNL A   1      41.741  25.399  27.766  1.00  0.00     0.031 C 
ATOM     45  C   UNL A   1      43.704  31.951  28.705  1.00  0.00     0.029 A 
ATOM     46  C   UNL A   1      44.754  31.024  28.295  1.00  0.00     0.049 A 
ATOM     47  H   UNL A   1      44.548  29.001  27.839  1.00  0.00     0.167 HD
ATOM     48  C   UNL A   1      44.032  24.712  27.128  1.00  0.00     0.037 A 
ATOM     49  C   UNL A   1      46.055  31.340  28.139  1.00  0.00     0.037 A 
ATOM     50  C   UNL A   1      45.425  24.970  26.870  1.00  0.00     0.049 A 
ATOM     51  C   UNL A   1      47.023  30.274  27.695  1.00  0.00     0.074 A 
ATOM     52  C   UNL A   1      46.400  24.087  26.437  1.00  0.00     0.029 A 
ATOM     53  N   UNL A   1      46.041  26.205  27.009  1.00  0.00    -0.354 N 
ATOM     54  N   UNL A   1      46.796  29.006  27.445  1.00  0.00    -0.248 NA
ATOM     55  C   UNL A   1      48.422  30.683  27.501  1.00  0.00     0.031 C 
ATOM     56  C   UNL A   1      47.610  24.782  26.342  1.00  0.00     0.029 A 
ATOM     57  C   UNL A   1      47.381  26.107  26.674  1.00  0.00     0.049 A 
ATOM     58  H   UNL A   1      45.590  27.031  27.302  1.00  0.00     0.167 HD
ATOM     59  C   UNL A   1      48.016  28.475  27.041  1.00  0.00     0.074 A 
ATOM     60  C   UNL A   1      48.974  29.560  27.064  1.00  0.00     0.031 C 
ATOM     61  C   UNL A   1      48.317  27.201  26.686  1.00  0.00     0.037 A 
BRANCH  48  62
ATOM     62  C   UNL A   1      43.517  23.314  26.914  1.00  0.00     0.058 A 
ATOM     63  C   UNL A   1      43.400  22.768  25.626  1.00  0.00     0.135 A 
ATOM     64  C   UNL A   1      43.187  22.493  28.005  1.00  0.00     0.135 A 
ATOM     65  F   UNL A   1      43.688  23.513  24.548  1.00  0.00    -0.206 F 
ATOM     66  C   UNL A   1      42.950  21.467  25.424  1.00  0.00     0.059 A 
ATOM     67  C   UNL A   1      42.759  21.180  27.827  1.00  0.00     0.059 A 
ATOM     68  F   UNL A   1      43.281  22.963  29.258  1.00  0.00    -0.206 F 
ATOM     69  C   UNL A   1      42.633  20.680  26.531  1.00  0.00     0.060 A 
BRANCH  69  70
ATOM     70  S   UNL A   1      42.065  18.989  26.250  1.00  0.00     0.124 S 
ATOM     71  O   UNL A   1      42.248  18.397  27.570  1.00  0.00    -0.237 OA
ATOM     72  O   UNL A   1      40.683  19.189  25.830  1.00  0.00    -0.237 OA
ATOM     73  O   UNL A   1      42.968  18.496  25.212  1.00  0.00    -0.744 OA
ENDBRANCH  69  70
ENDBRANCH  48  62
BRANCH  49  74
ATOM     74  C   UNL A   1      46.527  32.727  28.405  1.00  0.00     0.058 A 
ATOM     75  C   UNL A   1      46.920  33.127  29.691  1.00  0.00     0.135 A 
ATOM     76  C   UNL A   1      46.572  33.686  27.381  1.00  0.00     0.135 A 
ATOM     77  F   UNL A   1      46.888  32.248  30.705  1.00  0.00    -0.206 F 
ATOM     78  C   UNL A   1      47.313  34.434  29.960  1.00  0.00     0.059 A 
ATOM     79  C   UNL A   1      46.988  34.992  27.620  1.00  0.00     0.059 A 
ATOM     80  F   UNL A   1      46.222  33.352  26.130  1.00  0.00    -0.206 F 
ATOM     81  C   UNL A   1      47.339  35.362  28.918  1.00  0.00     0.060 A 
BRANCH  81  82
ATOM     82  S   UNL A   1      47.861  37.054  29.271  1.00  0.00     0.124 S 
ATOM     83  O   UNL A   1      46.615  37.656  29.729  1.00  0.00    -0.237 OA
ATOM     84  O   UNL A   1      48.887  36.855  30.291  1.00  0.00    -0.237 OA
ATOM     85  O   UNL A   1      48.356  37.528  27.981  1.00  0.00    -0.744 OA
ENDBRANCH  81  82
ENDBRANCH  49  74
BRANCH  61  86
ATOM     86  C   UNL A   1      49.729  26.918  26.252  1.00  0.00     0.058 A 
ATOM     87  C   UNL A   1      50.717  26.525  27.169  1.00  0.00     0.135 A 
ATOM     88  C   UNL A   1      50.083  26.992  24.895  1.00  0.00     0.135 A 
ATOM     89  F   UNL A   1      50.431  26.444  28.477  1.00  0.00    -0.206 F 
ATOM     90  C   UNL A   1      52.014  26.237  26.758  1.00  0.00     0.059 A 
ATOM     91  C   UNL A   1      51.368  26.684  24.459  1.00  0.00     0.059 A 
ATOM     92  F   UNL A   1      49.173  27.353  23.977  1.00  0.00    -0.206 F 
ATOM     93  C   UNL A   1      52.330  26.318  25.400  1.00  0.00     0.060 A 
BRANCH  93  94
ATOM     94  S   UNL A   1      54.008  25.908  24.875  1.00  0.00     0.124 S 
ATOM     95  O   UNL A   1      53.852  24.520  24.451  1.00  0.00    -0.237 OA
ATOM     96  O   UNL A   1      54.248  26.874  23.808  1.00  0.00    -0.237 OA
ATOM     97  O   UNL A   1      54.800  26.110  26.084  1.00  0.00    -0.744 OA
ENDBRANCH  93  94
ENDBRANCH  61  86
ENDBRANCH  35  36
ENDBRANCH  27  30
ENDBRANCH  25  26
ENDBRANCH  24  25
ENDBRANCH  23  24
ENDBRANCH   3  23
TORSDOF 20
ENDMDL
