MODEL 1
REMARK VINA RESULT:     -12.1      0.000      0.000
REMARK SMILES CC[C@@]1(C)NC(=O)N(/N=C/c2ccccc2C(=O)NCCCNC(=O)c2ccc(-c3c4nc(c(-c5c(F)cc(S(=O)(=O)[O-])cc5F)c5ccc([nH]5)c(-c5c(F)cc(S(=O)(=O)[O-])cc5F)c5nc(c(-c6c(F)cc(S(=O)(=O)[O-])cc6F)c6ccc3[nH]6)C=C5)C=C4)cc2)C1=O
REMARK SMILES IDX 21 1 20 2 19 3 17 4 18 5 16 7 11 8 12 9 13 10 15 11 14 12
REMARK SMILES IDX 10 13 9 14 8 15 3 16 4 17 5 18 92 19 6 20 93 22 7 23 2 24
REMARK SMILES IDX 1 25 22 26 23 27 24 28 25 30 26 31 27 32 91 33 28 34 90 35
REMARK SMILES IDX 29 36 30 37 31 38 84 39 32 40 89 41 83 42 85 43 33 44 88 45
REMARK SMILES IDX 82 46 81 47 34 49 68 50 47 51 67 52 48 53 51 54 66 55 86 56
REMARK SMILES IDX 49 57 50 58 65 60 87 61 52 62 35 63 36 64 45 65 37 66 38 67
REMARK SMILES IDX 44 68 46 69 39 70 40 71 41 72 42 73 43 74 69 75 70 76 79 77
REMARK SMILES IDX 71 78 72 79 78 80 80 81 73 82 74 83 75 84 76 85 77 86 53 87
REMARK SMILES IDX 54 88 63 89 55 90 56 91 62 92 64 93 57 94 58 95 59 96 60 97
REMARK SMILES IDX 61 98
REMARK H PARENT 19 6 5 21 23 29 85 48 51 59
REMARK Flexibility Score: inf
ROOT
ATOM      1  C   UNL A   1      33.343  28.355  25.727  1.00  0.00     0.042 C 
ENDROOT
BRANCH   1   2
ATOM      2  C   UNL A   1      32.767  29.533  24.980  1.00  0.00     0.118 C 
BRANCH   2   3
ATOM      3  N   UNL A   1      32.587  29.392  23.573  1.00  0.00    -0.352 N 
ATOM      4  C   UNL A   1      31.485  29.003  22.853  1.00  0.00     0.251 C 
ATOM      5  O   UNL A   1      31.518  29.388  21.674  1.00  0.00    -0.269 OA
ATOM      6  H   UNL A   1      33.380  29.609  23.030  1.00  0.00     0.163 HD
BRANCH   4   7
ATOM      7  C   UNL A   1      30.330  28.108  23.271  1.00  0.00     0.048 A 
ATOM      8  C   UNL A   1      30.223  26.780  23.747  1.00  0.00     0.007 A 
ATOM      9  C   UNL A   1      28.956  26.209  24.017  1.00  0.00     0.010 A 
ATOM     10  C   UNL A   1      27.778  26.928  23.835  1.00  0.00     0.001 A 
ATOM     11  C   UNL A   1      29.094  28.798  23.103  1.00  0.00     0.014 A 
ATOM     12  C   UNL A   1      27.847  28.229  23.373  1.00  0.00     0.001 A 
BRANCH   8  13
ATOM     13  C   UNL A   1      31.284  25.767  23.895  1.00  0.00     0.143 C 
ATOM     14  N   UNL A   1      32.529  25.976  23.604  1.00  0.00    -0.169 NA
BRANCH  14  15
ATOM     15  N   UNL A   1      33.348  24.850  23.578  1.00  0.00    -0.146 N 
ATOM     16  C   UNL A   1      34.508  22.838  24.067  1.00  0.00     0.120 C 
ATOM     17  C   UNL A   1      36.033  22.943  23.991  1.00  0.00     0.045 C 
ATOM     18  N   UNL A   1      34.019  22.900  22.712  1.00  0.00    -0.322 N 
ATOM     19  C   UNL A   1      33.890  24.143  24.639  1.00  0.00     0.276 C 
ATOM     20  C   UNL A   1      33.516  24.152  22.397  1.00  0.00     0.346 C 
ATOM     21  H   UNL A   1      34.040  22.141  22.086  1.00  0.00     0.166 HD
ATOM     22  O   UNL A   1      33.929  24.474  25.818  1.00  0.00    -0.270 OA
ATOM     23  O   UNL A   1      33.221  24.483  21.264  1.00  0.00    -0.246 OA
BRANCH  16  24
ATOM     24  C   UNL A   1      34.136  21.583  24.877  1.00  0.00     0.035 C 
ATOM     25  C   UNL A   1      33.173  20.597  24.240  1.00  0.00     0.007 C 
ENDBRANCH  16  24
ENDBRANCH  14  15
ENDBRANCH   8  13
ENDBRANCH   4   7
ENDBRANCH   2   3
ENDBRANCH   1   2
BRANCH   1  26
ATOM     26  C   UNL A   1      33.383  28.480  27.239  1.00  0.00     0.118 C 
BRANCH  26  27
ATOM     27  N   UNL A   1      33.475  29.855  27.735  1.00  0.00    -0.352 N 
ATOM     28  C   UNL A   1      34.492  30.614  28.273  1.00  0.00     0.251 C 
ATOM     29  H   UNL A   1      32.623  30.345  27.671  1.00  0.00     0.163 HD
ATOM     30  O   UNL A   1      34.225  31.736  28.708  1.00  0.00    -0.269 OA
BRANCH  28  31
ATOM     31  C   UNL A   1      35.861  30.093  28.494  1.00  0.00     0.039 A 
ATOM     32  C   UNL A   1      36.765  30.088  27.414  1.00  0.00     0.014 A 
ATOM     33  C   UNL A   1      36.293  29.641  29.732  1.00  0.00     0.014 A 
ATOM     34  C   UNL A   1      38.114  29.754  27.607  1.00  0.00     0.010 A 
ATOM     35  C   UNL A   1      37.645  29.413  29.951  1.00  0.00     0.010 A 
ATOM     36  C   UNL A   1      38.568  29.452  28.891  1.00  0.00    -0.014 A 
BRANCH  36  37
ATOM     37  C   UNL A   1      39.943  28.981  29.193  1.00  0.00     0.031 A 
ATOM     38  C   UNL A   1      40.942  30.030  29.595  1.00  0.00     0.074 A 
ATOM     39  C   UNL A   1      40.335  27.716  28.945  1.00  0.00     0.049 A 
ATOM     40  N   UNL A   1      42.243  29.992  29.562  1.00  0.00    -0.248 NA
ATOM     41  C   UNL A   1      40.384  31.326  30.031  1.00  0.00     0.031 C 
ATOM     42  C   UNL A   1      39.462  26.607  28.570  1.00  0.00     0.029 A 
ATOM     43  N   UNL A   1      41.596  27.168  28.915  1.00  0.00    -0.354 N 
ATOM     44  C   UNL A   1      42.658  31.271  29.915  1.00  0.00     0.074 A 
ATOM     45  C   UNL A   1      41.474  32.072  30.115  1.00  0.00     0.031 C 
ATOM     46  C   UNL A   1      40.214  25.526  28.294  1.00  0.00     0.029 A 
ATOM     47  C   UNL A   1      41.625  25.876  28.441  1.00  0.00     0.049 A 
ATOM     48  H   UNL A   1      42.401  27.654  29.206  1.00  0.00     0.167 HD
ATOM     49  C   UNL A   1      43.919  31.728  30.070  1.00  0.00     0.037 A 
ATOM     50  C   UNL A   1      42.672  25.084  28.127  1.00  0.00     0.037 A 
ATOM     51  C   UNL A   1      45.084  30.901  29.935  1.00  0.00     0.049 A 
ATOM     52  C   UNL A   1      44.074  25.616  28.318  1.00  0.00     0.074 A 
ATOM     53  C   UNL A   1      46.404  31.237  30.168  1.00  0.00     0.029 A 
ATOM     54  N   UNL A   1      45.066  29.572  29.541  1.00  0.00    -0.354 N 
ATOM     55  N   UNL A   1      44.456  26.808  28.714  1.00  0.00    -0.248 NA
ATOM     56  C   UNL A   1      45.188  24.699  28.033  1.00  0.00     0.031 C 
ATOM     57  C   UNL A   1      47.192  30.125  29.864  1.00  0.00     0.029 A 
ATOM     58  C   UNL A   1      46.356  29.078  29.506  1.00  0.00     0.049 A 
ATOM     59  H   UNL A   1      44.256  29.057  29.320  1.00  0.00     0.167 HD
ATOM     60  C   UNL A   1      45.847  26.761  28.780  1.00  0.00     0.074 A 
ATOM     61  C   UNL A   1      46.241  25.431  28.373  1.00  0.00     0.031 C 
ATOM     62  C   UNL A   1      46.718  27.730  29.152  1.00  0.00     0.037 A 
BRANCH  49  63
ATOM     63  C   UNL A   1      44.111  33.175  30.416  1.00  0.00     0.058 A 
ATOM     64  C   UNL A   1      44.191  34.167  29.427  1.00  0.00     0.135 A 
ATOM     65  C   UNL A   1      44.143  33.581  31.760  1.00  0.00     0.135 A 
ATOM     66  F   UNL A   1      44.192  33.830  28.127  1.00  0.00    -0.206 F 
ATOM     67  C   UNL A   1      44.303  35.512  29.758  1.00  0.00     0.059 A 
ATOM     68  C   UNL A   1      44.223  34.922  32.114  1.00  0.00     0.059 A 
ATOM     69  F   UNL A   1      44.082  32.669  32.743  1.00  0.00    -0.206 F 
ATOM     70  C   UNL A   1      44.306  35.881  31.105  1.00  0.00     0.060 A 
BRANCH  70  71
ATOM     71  S   UNL A   1      44.387  37.636  31.512  1.00  0.00     0.124 S 
ATOM     72  O   UNL A   1      43.662  38.228  30.392  1.00  0.00    -0.237 OA
ATOM     73  O   UNL A   1      43.709  37.685  32.803  1.00  0.00    -0.237 OA
ATOM     74  O   UNL A   1      45.820  37.912  31.547  1.00  0.00    -0.744 OA
ENDBRANCH  70  71
ENDBRANCH  49  63
BRANCH  50  75
ATOM     75  C   UNL A   1      42.459  23.708  27.594  1.00  0.00     0.058 A 
ATOM     76  C   UNL A   1      42.330  22.611  28.460  1.00  0.00     0.135 A 
ATOM     77  C   UNL A   1      42.433  23.451  26.214  1.00  0.00     0.135 A 
ATOM     78  F   UNL A   1      42.353  22.800  29.788  1.00  0.00    -0.206 F 
ATOM     79  C   UNL A   1      42.228  21.307  27.981  1.00  0.00     0.059 A 
ATOM     80  C   UNL A   1      42.302  22.159  25.710  1.00  0.00     0.059 A 
ATOM     81  F   UNL A   1      42.534  24.464  25.339  1.00  0.00    -0.206 F 
ATOM     82  C   UNL A   1      42.222  21.092  26.603  1.00  0.00     0.060 A 
BRANCH  82  83
ATOM     83  S   UNL A   1      42.096  19.395  25.995  1.00  0.00     0.124 S 
ATOM     84  O   UNL A   1      42.564  18.634  27.149  1.00  0.00    -0.237 OA
ATOM     85  O   UNL A   1      40.673  19.284  25.691  1.00  0.00    -0.237 OA
ATOM     86  O   UNL A   1      42.981  19.389  24.834  1.00  0.00    -0.744 OA
ENDBRANCH  82  83
ENDBRANCH  50  75
BRANCH  62  87
ATOM     87  C   UNL A   1      48.178  27.386  29.237  1.00  0.00     0.058 A 
ATOM     88  C   UNL A   1      49.040  27.527  28.141  1.00  0.00     0.135 A 
ATOM     89  C   UNL A   1      48.740  27.049  30.481  1.00  0.00     0.135 A 
ATOM     90  F   UNL A   1      48.550  27.842  26.931  1.00  0.00    -0.206 F 
ATOM     91  C   UNL A   1      50.414  27.356  28.277  1.00  0.00     0.059 A 
ATOM     92  C   UNL A   1      50.113  26.902  30.645  1.00  0.00     0.059 A 
ATOM     93  F   UNL A   1      47.957  26.913  31.563  1.00  0.00    -0.206 F 
ATOM     94  C   UNL A   1      50.942  27.060  29.535  1.00  0.00     0.060 A 
BRANCH  94  95
ATOM     95  S   UNL A   1      52.734  26.942  29.715  1.00  0.00     0.124 S 
ATOM     96  O   UNL A   1      53.147  26.625  28.352  1.00  0.00    -0.237 OA
ATOM     97  O   UNL A   1      53.086  28.276  30.191  1.00  0.00    -0.237 OA
ATOM     98  O   UNL A   1      52.910  25.869  30.689  1.00  0.00    -0.744 OA
ENDBRANCH  94  95
ENDBRANCH  62  87
ENDBRANCH  36  37
ENDBRANCH  28  31
ENDBRANCH  26  27
ENDBRANCH   1  26
TORSDOF 16
ENDMDL
MODEL 2
REMARK VINA RESULT:     -12.0      2.370      4.308
REMARK SMILES CC[C@@]1(C)NC(=O)N(/N=C/c2ccccc2C(=O)NCCCNC(=O)c2ccc(-c3c4nc(c(-c5c(F)cc(S(=O)(=O)[O-])cc5F)c5ccc([nH]5)c(-c5c(F)cc(S(=O)(=O)[O-])cc5F)c5nc(c(-c6c(F)cc(S(=O)(=O)[O-])cc6F)c6ccc3[nH]6)C=C5)C=C4)cc2)C1=O
REMARK SMILES IDX 21 1 20 2 19 3 17 4 18 5 16 7 11 8 12 9 13 10 15 11 14 12
REMARK SMILES IDX 10 13 9 14 8 15 3 16 4 17 5 18 92 19 6 20 93 22 7 23 2 24
REMARK SMILES IDX 1 25 22 26 23 27 24 28 25 30 26 31 27 32 91 33 28 34 90 35
REMARK SMILES IDX 29 36 30 37 31 38 84 39 32 40 89 41 83 42 85 43 33 44 88 45
REMARK SMILES IDX 82 46 81 47 34 49 68 50 47 51 67 52 48 53 51 54 66 55 86 56
REMARK SMILES IDX 49 57 50 58 65 60 87 61 52 62 35 63 36 64 45 65 37 66 38 67
REMARK SMILES IDX 44 68 46 69 39 70 40 71 41 72 42 73 43 74 69 75 70 76 79 77
REMARK SMILES IDX 71 78 72 79 78 80 80 81 73 82 74 83 75 84 76 85 77 86 53 87
REMARK SMILES IDX 54 88 63 89 55 90 56 91 62 92 64 93 57 94 58 95 59 96 60 97
REMARK SMILES IDX 61 98
REMARK H PARENT 19 6 5 21 23 29 85 48 51 59
REMARK Flexibility Score: inf
ROOT
ATOM      1  C   UNL A   1      33.549  28.790  26.774  1.00  0.00     0.042 C 
ENDROOT
BRANCH   1   2
ATOM      2  C   UNL A   1      33.273  28.785  25.290  1.00  0.00     0.118 C 
BRANCH   2   3
ATOM      3  N   UNL A   1      33.822  27.715  24.526  1.00  0.00    -0.352 N 
ATOM      4  C   UNL A   1      33.294  26.489  24.207  1.00  0.00     0.251 C 
ATOM      5  O   UNL A   1      33.820  25.982  23.205  1.00  0.00    -0.269 OA
ATOM      6  H   UNL A   1      34.724  27.882  24.168  1.00  0.00     0.163 HD
BRANCH   4   7
ATOM      7  C   UNL A   1      32.262  25.663  24.957  1.00  0.00     0.048 A 
ATOM      8  C   UNL A   1      30.866  25.761  25.161  1.00  0.00     0.007 A 
ATOM      9  C   UNL A   1      30.184  24.821  25.971  1.00  0.00     0.010 A 
ATOM     10  C   UNL A   1      30.855  23.767  26.584  1.00  0.00     0.001 A 
ATOM     11  C   UNL A   1      32.897  24.566  25.609  1.00  0.00     0.014 A 
ATOM     12  C   UNL A   1      32.219  23.640  26.405  1.00  0.00     0.001 A 
BRANCH   8  13
ATOM     13  C   UNL A   1      29.950  26.840  24.747  1.00  0.00     0.143 C 
ATOM     14  N   UNL A   1      29.404  26.915  23.574  1.00  0.00    -0.169 NA
BRANCH  14  15
ATOM     15  N   UNL A   1      28.760  28.114  23.276  1.00  0.00    -0.146 N 
ATOM     16  C   UNL A   1      28.063  30.179  22.338  1.00  0.00     0.120 C 
ATOM     17  C   UNL A   1      28.033  31.353  23.320  1.00  0.00     0.045 C 
ATOM     18  N   UNL A   1      26.965  29.314  22.691  1.00  0.00    -0.322 N 
ATOM     19  C   UNL A   1      29.260  29.236  22.636  1.00  0.00     0.276 C 
ATOM     20  C   UNL A   1      27.386  28.204  23.406  1.00  0.00     0.346 C 
ATOM     21  H   UNL A   1      26.027  29.490  22.451  1.00  0.00     0.166 HD
ATOM     22  O   UNL A   1      30.429  29.490  22.373  1.00  0.00    -0.270 OA
ATOM     23  O   UNL A   1      26.619  27.440  23.960  1.00  0.00    -0.246 OA
BRANCH  16  24
ATOM     24  C   UNL A   1      28.068  30.734  20.902  1.00  0.00     0.035 C 
ATOM     25  C   UNL A   1      28.070  32.243  20.733  1.00  0.00     0.007 C 
ENDBRANCH  16  24
ENDBRANCH  14  15
ENDBRANCH   8  13
ENDBRANCH   4   7
ENDBRANCH   2   3
ENDBRANCH   1   2
BRANCH   1  26
ATOM     26  C   UNL A   1      34.974  29.109  27.187  1.00  0.00     0.118 C 
BRANCH  26  27
ATOM     27  N   UNL A   1      35.089  30.016  28.331  1.00  0.00    -0.352 N 
ATOM     28  C   UNL A   1      36.126  30.384  29.162  1.00  0.00     0.251 C 
ATOM     29  H   UNL A   1      34.240  30.461  28.556  1.00  0.00     0.163 HD
ATOM     30  O   UNL A   1      35.879  31.106  30.130  1.00  0.00    -0.269 OA
BRANCH  28  31
ATOM     31  C   UNL A   1      37.496  29.833  29.040  1.00  0.00     0.039 A 
ATOM     32  C   UNL A   1      38.096  29.788  27.767  1.00  0.00     0.014 A 
ATOM     33  C   UNL A   1      38.219  29.390  30.138  1.00  0.00     0.014 A 
ATOM     34  C   UNL A   1      39.443  29.426  27.619  1.00  0.00     0.010 A 
ATOM     35  C   UNL A   1      39.577  29.132  30.013  1.00  0.00     0.010 A 
ATOM     36  C   UNL A   1      40.202  29.132  28.752  1.00  0.00    -0.014 A 
BRANCH  36  37
ATOM     37  C   UNL A   1      41.599  28.633  28.706  1.00  0.00     0.031 A 
ATOM     38  C   UNL A   1      42.687  29.671  28.719  1.00  0.00     0.074 A 
ATOM     39  C   UNL A   1      41.886  27.337  28.478  1.00  0.00     0.049 A 
ATOM     40  N   UNL A   1      43.927  29.577  28.333  1.00  0.00    -0.248 NA
ATOM     41  C   UNL A   1      42.292  31.020  29.170  1.00  0.00     0.031 C 
ATOM     42  C   UNL A   1      40.926  26.236  28.462  1.00  0.00     0.029 A 
ATOM     43  N   UNL A   1      43.081  26.737  28.153  1.00  0.00    -0.354 N 
ATOM     44  C   UNL A   1      44.444  30.862  28.439  1.00  0.00     0.074 A 
ATOM     45  C   UNL A   1      43.374  31.725  28.883  1.00  0.00     0.031 C 
ATOM     46  C   UNL A   1      41.554  25.106  28.090  1.00  0.00     0.029 A 
ATOM     47  C   UNL A   1      42.956  25.409  27.810  1.00  0.00     0.049 A 
ATOM     48  H   UNL A   1      43.943  27.213  28.165  1.00  0.00     0.167 HD
ATOM     49  C   UNL A   1      45.705  31.279  28.198  1.00  0.00     0.037 A 
ATOM     50  C   UNL A   1      43.862  24.552  27.294  1.00  0.00     0.037 A 
ATOM     51  C   UNL A   1      46.773  30.397  27.825  1.00  0.00     0.049 A 
ATOM     52  C   UNL A   1      45.270  25.040  27.042  1.00  0.00     0.074 A 
ATOM     53  C   UNL A   1      48.111  30.697  27.652  1.00  0.00     0.029 A 
ATOM     54  N   UNL A   1      46.625  29.041  27.575  1.00  0.00    -0.354 N 
ATOM     55  N   UNL A   1      45.766  26.245  27.206  1.00  0.00    -0.248 NA
ATOM     56  C   UNL A   1      46.246  24.058  26.547  1.00  0.00     0.031 C 
ATOM     57  C   UNL A   1      48.766  29.532  27.247  1.00  0.00     0.029 A 
ATOM     58  C   UNL A   1      47.847  28.494  27.231  1.00  0.00     0.049 A 
ATOM     59  H   UNL A   1      45.778  28.544  27.634  1.00  0.00     0.167 HD
ATOM     60  C   UNL A   1      47.119  26.147  26.891  1.00  0.00     0.074 A 
ATOM     61  C   UNL A   1      47.364  24.772  26.516  1.00  0.00     0.031 C 
ATOM     62  C   UNL A   1      48.075  27.108  26.918  1.00  0.00     0.037 A 
BRANCH  49  63
ATOM     63  C   UNL A   1      46.008  32.741  28.342  1.00  0.00     0.058 A 
ATOM     64  C   UNL A   1      46.552  33.272  29.521  1.00  0.00     0.135 A 
ATOM     65  C   UNL A   1      45.817  33.611  27.256  1.00  0.00     0.135 A 
ATOM     66  F   UNL A   1      46.730  32.488  30.598  1.00  0.00    -0.206 F 
ATOM     67  C   UNL A   1      46.891  34.615  29.623  1.00  0.00     0.059 A 
ATOM     68  C   UNL A   1      46.177  34.952  27.325  1.00  0.00     0.059 A 
ATOM     69  F   UNL A   1      45.287  33.155  26.110  1.00  0.00    -0.206 F 
ATOM     70  C   UNL A   1      46.711  35.445  28.515  1.00  0.00     0.060 A 
BRANCH  70  71
ATOM     71  S   UNL A   1      47.217  37.171  28.646  1.00  0.00     0.124 S 
ATOM     72  O   UNL A   1      46.809  37.694  27.347  1.00  0.00    -0.237 OA
ATOM     73  O   UNL A   1      46.437  37.635  29.789  1.00  0.00    -0.237 OA
ATOM     74  O   UNL A   1      48.657  37.088  28.865  1.00  0.00    -0.744 OA
ENDBRANCH  70  71
ENDBRANCH  49  63
BRANCH  50  75
ATOM     75  C   UNL A   1      43.487  23.146  26.969  1.00  0.00     0.058 A 
ATOM     76  C   UNL A   1      43.256  22.207  27.988  1.00  0.00     0.135 A 
ATOM     77  C   UNL A   1      43.405  22.695  25.642  1.00  0.00     0.135 A 
ATOM     78  F   UNL A   1      43.327  22.584  29.274  1.00  0.00    -0.206 F 
ATOM     79  C   UNL A   1      43.000  20.868  27.706  1.00  0.00     0.059 A 
ATOM     80  C   UNL A   1      43.121  21.367  25.334  1.00  0.00     0.059 A 
ATOM     81  F   UNL A   1      43.598  23.553  24.628  1.00  0.00    -0.206 F 
ATOM     82  C   UNL A   1      42.943  20.456  26.375  1.00  0.00     0.060 A 
BRANCH  82  83
ATOM     83  S   UNL A   1      42.618  18.714  26.022  1.00  0.00     0.124 S 
ATOM     84  O   UNL A   1      42.916  18.094  27.309  1.00  0.00    -0.237 OA
ATOM     85  O   UNL A   1      41.210  18.738  25.636  1.00  0.00    -0.237 OA
ATOM     86  O   UNL A   1      43.552  18.410  24.943  1.00  0.00    -0.744 OA
ENDBRANCH  82  83
ENDBRANCH  50  75
BRANCH  62  87
ATOM     87  C   UNL A   1      49.495  26.712  26.629  1.00  0.00     0.058 A 
ATOM     88  C   UNL A   1      50.332  26.173  27.617  1.00  0.00     0.135 A 
ATOM     89  C   UNL A   1      49.969  26.741  25.306  1.00  0.00     0.135 A 
ATOM     90  F   UNL A   1      49.927  26.130  28.896  1.00  0.00    -0.206 F 
ATOM     91  C   UNL A   1      51.589  25.667  27.300  1.00  0.00     0.059 A 
ATOM     92  C   UNL A   1      51.209  26.214  24.963  1.00  0.00     0.059 A 
ATOM     93  F   UNL A   1      49.200  27.237  24.323  1.00  0.00    -0.206 F 
ATOM     94  C   UNL A   1      52.011  25.677  25.969  1.00  0.00     0.060 A 
BRANCH  94  95
ATOM     95  S   UNL A   1      53.599  24.923  25.561  1.00  0.00     0.124 S 
ATOM     96  O   UNL A   1      54.335  25.089  26.810  1.00  0.00    -0.237 OA
ATOM     97  O   UNL A   1      53.217  23.555  25.226  1.00  0.00    -0.237 OA
ATOM     98  O   UNL A   1      54.079  25.725  24.439  1.00  0.00    -0.744 OA
ENDBRANCH  94  95
ENDBRANCH  62  87
ENDBRANCH  36  37
ENDBRANCH  28  31
ENDBRANCH  26  27
ENDBRANCH   1  26
TORSDOF 16
ENDMDL
MODEL 3
REMARK VINA RESULT:     -11.9      1.312      3.436
REMARK SMILES CC[C@@]1(C)NC(=O)N(/N=C/c2ccccc2C(=O)NCCCNC(=O)c2ccc(-c3c4nc(c(-c5c(F)cc(S(=O)(=O)[O-])cc5F)c5ccc([nH]5)c(-c5c(F)cc(S(=O)(=O)[O-])cc5F)c5nc(c(-c6c(F)cc(S(=O)(=O)[O-])cc6F)c6ccc3[nH]6)C=C5)C=C4)cc2)C1=O
REMARK SMILES IDX 21 1 20 2 19 3 17 4 18 5 16 7 11 8 12 9 13 10 15 11 14 12
REMARK SMILES IDX 10 13 9 14 8 15 3 16 4 17 5 18 92 19 6 20 93 22 7 23 2 24
REMARK SMILES IDX 1 25 22 26 23 27 24 28 25 30 26 31 27 32 91 33 28 34 90 35
REMARK SMILES IDX 29 36 30 37 31 38 84 39 32 40 89 41 83 42 85 43 33 44 88 45
REMARK SMILES IDX 82 46 81 47 34 49 68 50 47 51 67 52 48 53 51 54 66 55 86 56
REMARK SMILES IDX 49 57 50 58 65 60 87 61 52 62 35 63 36 64 45 65 37 66 38 67
REMARK SMILES IDX 44 68 46 69 39 70 40 71 41 72 42 73 43 74 69 75 70 76 79 77
REMARK SMILES IDX 71 78 72 79 78 80 80 81 73 82 74 83 75 84 76 85 77 86 53 87
REMARK SMILES IDX 54 88 63 89 55 90 56 91 62 92 64 93 57 94 58 95 59 96 60 97
REMARK SMILES IDX 61 98
REMARK H PARENT 19 6 5 21 23 29 85 48 51 59
REMARK Flexibility Score: inf
ROOT
ATOM      1  C   UNL A   1      32.480  27.868  26.914  1.00  0.00     0.042 C 
ENDROOT
BRANCH   1   2
ATOM      2  C   UNL A   1      32.527  26.381  26.662  1.00  0.00     0.118 C 
BRANCH   2   3
ATOM      3  N   UNL A   1      31.308  25.655  26.793  1.00  0.00    -0.352 N 
ATOM      4  C   UNL A   1      30.904  24.483  26.206  1.00  0.00     0.251 C 
ATOM      5  O   UNL A   1      30.002  23.912  26.837  1.00  0.00    -0.269 OA
ATOM      6  H   UNL A   1      30.650  26.059  27.405  1.00  0.00     0.163 HD
BRANCH   4   7
ATOM      7  C   UNL A   1      31.331  23.876  24.880  1.00  0.00     0.048 A 
ATOM      8  C   UNL A   1      31.449  24.361  23.556  1.00  0.00     0.007 A 
ATOM      9  C   UNL A   1      31.848  23.502  22.504  1.00  0.00     0.010 A 
ATOM     10  C   UNL A   1      32.147  22.162  22.731  1.00  0.00     0.001 A 
ATOM     11  C   UNL A   1      31.648  22.497  25.055  1.00  0.00     0.014 A 
ATOM     12  C   UNL A   1      32.043  21.655  24.012  1.00  0.00     0.001 A 
BRANCH   8  13
ATOM     13  C   UNL A   1      31.069  25.682  23.023  1.00  0.00     0.143 C 
ATOM     14  N   UNL A   1      31.275  26.800  23.645  1.00  0.00    -0.169 NA
BRANCH  14  15
ATOM     15  N   UNL A   1      30.646  27.921  23.110  1.00  0.00    -0.146 N 
ATOM     16  C   UNL A   1      29.189  29.732  22.633  1.00  0.00     0.120 C 
ATOM     17  C   UNL A   1      28.635  29.751  21.206  1.00  0.00     0.045 C 
ATOM     18  N   UNL A   1      30.584  30.084  22.542  1.00  0.00    -0.322 N 
ATOM     19  C   UNL A   1      29.308  28.278  23.163  1.00  0.00     0.276 C 
ATOM     20  C   UNL A   1      31.407  28.973  22.637  1.00  0.00     0.346 C 
ATOM     21  H   UNL A   1      30.913  31.004  22.427  1.00  0.00     0.166 HD
ATOM     22  O   UNL A   1      28.361  27.586  23.517  1.00  0.00    -0.270 OA
ATOM     23  O   UNL A   1      32.601  29.010  22.405  1.00  0.00    -0.246 OA
BRANCH  16  24
ATOM     24  C   UNL A   1      28.308  30.633  23.519  1.00  0.00     0.035 C 
ATOM     25  C   UNL A   1      28.870  31.984  23.923  1.00  0.00     0.007 C 
ENDBRANCH  16  24
ENDBRANCH  14  15
ENDBRANCH   8  13
ENDBRANCH   4   7
ENDBRANCH   2   3
ENDBRANCH   1   2
BRANCH   1  26
ATOM     26  C   UNL A   1      33.819  28.555  27.105  1.00  0.00     0.118 C 
BRANCH  26  27
ATOM     27  N   UNL A   1      33.738  29.904  27.674  1.00  0.00    -0.352 N 
ATOM     28  C   UNL A   1      34.638  30.732  28.308  1.00  0.00     0.251 C 
ATOM     29  H   UNL A   1      32.844  30.307  27.581  1.00  0.00     0.163 HD
ATOM     30  O   UNL A   1      34.231  31.795  28.781  1.00  0.00    -0.269 OA
BRANCH  28  31
ATOM     31  C   UNL A   1      36.040  30.342  28.587  1.00  0.00     0.039 A 
ATOM     32  C   UNL A   1      36.351  29.790  29.845  1.00  0.00     0.014 A 
ATOM     33  C   UNL A   1      37.049  30.473  27.645  1.00  0.00     0.014 A 
ATOM     34  C   UNL A   1      37.624  29.261  30.103  1.00  0.00     0.010 A 
ATOM     35  C   UNL A   1      38.276  29.859  27.856  1.00  0.00     0.010 A 
ATOM     36  C   UNL A   1      38.584  29.259  29.090  1.00  0.00    -0.014 A 
BRANCH  36  37
ATOM     37  C   UNL A   1      39.991  28.827  29.284  1.00  0.00     0.031 A 
ATOM     38  C   UNL A   1      40.989  29.906  29.603  1.00  0.00     0.074 A 
ATOM     39  C   UNL A   1      40.396  27.573  29.010  1.00  0.00     0.049 A 
ATOM     40  N   UNL A   1      42.284  29.903  29.467  1.00  0.00    -0.248 NA
ATOM     41  C   UNL A   1      40.432  31.188  30.077  1.00  0.00     0.031 C 
ATOM     42  C   UNL A   1      39.527  26.438  28.709  1.00  0.00     0.029 A 
ATOM     43  N   UNL A   1      41.666  27.059  28.882  1.00  0.00    -0.354 N 
ATOM     44  C   UNL A   1      42.691  31.194  29.782  1.00  0.00     0.074 A 
ATOM     45  C   UNL A   1      41.504  31.963  30.073  1.00  0.00     0.031 C 
ATOM     46  C   UNL A   1      40.285  25.376  28.378  1.00  0.00     0.029 A 
ATOM     47  C   UNL A   1      41.693  25.765  28.411  1.00  0.00     0.049 A 
ATOM     48  H   UNL A   1      42.478  27.568  29.107  1.00  0.00     0.167 HD
ATOM     49  C   UNL A   1      43.946  31.686  29.836  1.00  0.00     0.037 A 
ATOM     50  C   UNL A   1      42.733  25.000  28.018  1.00  0.00     0.037 A 
ATOM     51  C   UNL A   1      45.119  30.890  29.612  1.00  0.00     0.049 A 
ATOM     52  C   UNL A   1      44.130  25.571  28.096  1.00  0.00     0.074 A 
ATOM     53  C   UNL A   1      46.444  31.263  29.738  1.00  0.00     0.029 A 
ATOM     54  N   UNL A   1      45.107  29.559  29.224  1.00  0.00    -0.354 N 
ATOM     55  N   UNL A   1      44.510  26.775  28.456  1.00  0.00    -0.248 NA
ATOM     56  C   UNL A   1      45.243  24.684  27.726  1.00  0.00     0.031 C 
ATOM     57  C   UNL A   1      47.236  30.171  29.376  1.00  0.00     0.029 A 
ATOM     58  C   UNL A   1      46.403  29.101  29.089  1.00  0.00     0.049 A 
ATOM     59  H   UNL A   1      44.297  29.022  29.070  1.00  0.00     0.167 HD
ATOM     60  C   UNL A   1      45.902  26.767  28.412  1.00  0.00     0.074 A 
ATOM     61  C   UNL A   1      46.299  25.445  27.980  1.00  0.00     0.031 C 
ATOM     62  C   UNL A   1      46.773  27.761  28.712  1.00  0.00     0.037 A 
BRANCH  49  63
ATOM     63  C   UNL A   1      44.125  33.139  30.160  1.00  0.00     0.058 A 
ATOM     64  C   UNL A   1      44.154  34.123  29.161  1.00  0.00     0.135 A 
ATOM     65  C   UNL A   1      44.197  33.559  31.499  1.00  0.00     0.135 A 
ATOM     66  F   UNL A   1      44.115  33.773  27.864  1.00  0.00    -0.206 F 
ATOM     67  C   UNL A   1      44.254  35.472  29.474  1.00  0.00     0.059 A 
ATOM     68  C   UNL A   1      44.266  34.906  31.837  1.00  0.00     0.059 A 
ATOM     69  F   UNL A   1      44.187  32.656  32.492  1.00  0.00    -0.206 F 
ATOM     70  C   UNL A   1      44.297  35.855  30.817  1.00  0.00     0.060 A 
BRANCH  70  71
ATOM     71  S   UNL A   1      44.362  37.615  31.204  1.00  0.00     0.124 S 
ATOM     72  O   UNL A   1      45.799  37.863  31.193  1.00  0.00    -0.237 OA
ATOM     73  O   UNL A   1      43.609  38.202  30.100  1.00  0.00    -0.237 OA
ATOM     74  O   UNL A   1      43.720  37.700  32.512  1.00  0.00    -0.744 OA
ENDBRANCH  70  71
ENDBRANCH  49  63
BRANCH  50  75
ATOM     75  C   UNL A   1      42.516  23.617  27.507  1.00  0.00     0.058 A 
ATOM     76  C   UNL A   1      42.388  22.534  28.391  1.00  0.00     0.135 A 
ATOM     77  C   UNL A   1      42.486  23.337  26.132  1.00  0.00     0.135 A 
ATOM     78  F   UNL A   1      42.415  22.744  29.717  1.00  0.00    -0.206 F 
ATOM     79  C   UNL A   1      42.282  21.223  27.934  1.00  0.00     0.059 A 
ATOM     80  C   UNL A   1      42.352  22.038  25.649  1.00  0.00     0.059 A 
ATOM     81  F   UNL A   1      42.586  24.336  25.240  1.00  0.00    -0.206 F 
ATOM     82  C   UNL A   1      42.273  20.985  26.560  1.00  0.00     0.060 A 
BRANCH  82  83
ATOM     83  S   UNL A   1      42.143  19.278  25.979  1.00  0.00     0.124 S 
ATOM     84  O   UNL A   1      40.717  19.176  25.687  1.00  0.00    -0.237 OA
ATOM     85  O   UNL A   1      43.033  19.281  24.822  1.00  0.00    -0.237 OA
ATOM     86  O   UNL A   1      42.612  18.499  27.121  1.00  0.00    -0.744 OA
ENDBRANCH  82  83
ENDBRANCH  50  75
BRANCH  62  87
ATOM     87  C   UNL A   1      48.244  27.457  28.682  1.00  0.00     0.058 A 
ATOM     88  C   UNL A   1      49.042  27.751  27.568  1.00  0.00     0.135 A 
ATOM     89  C   UNL A   1      48.882  26.998  29.848  1.00  0.00     0.135 A 
ATOM     90  F   UNL A   1      48.479  28.186  26.429  1.00  0.00    -0.206 F 
ATOM     91  C   UNL A   1      50.425  27.610  27.613  1.00  0.00     0.059 A 
ATOM     92  C   UNL A   1      50.264  26.878  29.924  1.00  0.00     0.059 A 
ATOM     93  F   UNL A   1      48.161  26.713  30.945  1.00  0.00    -0.206 F 
ATOM     94  C   UNL A   1      51.028  27.189  28.800  1.00  0.00     0.060 A 
BRANCH  94  95
ATOM     95  S   UNL A   1      52.829  27.110  28.874  1.00  0.00     0.124 S 
ATOM     96  O   UNL A   1      53.047  26.605  30.226  1.00  0.00    -0.237 OA
ATOM     97  O   UNL A   1      53.144  26.183  27.792  1.00  0.00    -0.237 OA
ATOM     98  O   UNL A   1      53.241  28.492  28.647  1.00  0.00    -0.744 OA
ENDBRANCH  94  95
ENDBRANCH  62  87
ENDBRANCH  36  37
ENDBRANCH  28  31
ENDBRANCH  26  27
ENDBRANCH   1  26
TORSDOF 16
ENDMDL
