MODEL 1
REMARK VINA RESULT:     -11.4      0.000      0.000
REMARK SMILES CC(C)[C@H](NS(=O)(=O)c1cccc(F)c1)C(=O)NCCCNC(=O)c1ccc(-c2c3nc(c(-c4c(F)cc(S(=O)(=O)[O-])cc4F)c4ccc([nH]4)c(-c4c(F)cc(S(=O)(=O)[O-])cc4F)c4nc(c(-c5c(F)cc(S(=O)(=O)[O-])cc5F)c5ccc2[nH]5)C=C4)C=C3)cc1
REMARK SMILES IDX 20 1 19 2 18 3 16 4 17 5 4 7 2 8 1 9 3 10 5 11 6 13 7 14
REMARK SMILES IDX 8 15 9 16 10 17 15 18 11 19 13 20 12 21 14 22 21 23 22 24
REMARK SMILES IDX 23 25 24 27 25 28 26 29 90 30 27 31 89 32 28 33 29 34 30 35
REMARK SMILES IDX 83 36 31 37 88 38 82 39 84 40 32 41 87 42 81 43 80 44 33 46
REMARK SMILES IDX 67 47 46 48 66 49 47 50 50 51 65 52 85 53 48 54 49 55 64 57
REMARK SMILES IDX 86 58 51 59 34 60 35 61 44 62 36 63 37 64 43 65 45 66 38 67
REMARK SMILES IDX 39 68 40 69 41 70 42 71 68 72 69 73 78 74 70 75 71 76 77 77
REMARK SMILES IDX 79 78 72 79 73 80 74 81 75 82 76 83 52 84 53 85 62 86 54 87
REMARK SMILES IDX 55 88 61 89 63 90 56 91 57 92 58 93 59 94 60 95
REMARK H PARENT 18 6 5 12 22 26 84 45 50 56
REMARK Flexibility Score: inf
ROOT
ATOM      1  C   UNL A   1      33.720  27.854  25.833  1.00  0.00     0.042 C 
ENDROOT
BRANCH   1   2
ATOM      2  C   UNL A   1      33.164  26.536  25.314  1.00  0.00     0.117 C 
BRANCH   2   3
ATOM      3  N   UNL A   1      33.508  26.194  23.941  1.00  0.00    -0.355 N 
ATOM      4  C   UNL A   1      33.847  24.983  23.393  1.00  0.00     0.238 C 
ATOM      5  O   UNL A   1      33.755  24.855  22.169  1.00  0.00    -0.273 OA
ATOM      6  H   UNL A   1      33.497  26.948  23.309  1.00  0.00     0.163 HD
BRANCH   4   7
ATOM      7  C   UNL A   1      34.338  23.819  24.266  1.00  0.00     0.161 C 
BRANCH   7   8
ATOM      8  C   UNL A   1      35.892  23.841  24.321  1.00  0.00     0.010 C 
ATOM      9  C   UNL A   1      36.378  23.853  25.779  1.00  0.00     0.009 C 
ATOM     10  C   UNL A   1      36.612  22.733  23.553  1.00  0.00     0.009 C 
ENDBRANCH   7   8
BRANCH   7  11
ATOM     11  N   UNL A   1      33.724  22.555  23.777  1.00  0.00    -0.198 NA
ATOM     12  H   UNL A   1      34.450  22.036  23.283  1.00  0.00     0.142 HD
BRANCH  11  13
ATOM     13  S   UNL A   1      33.042  21.498  24.928  1.00  0.00     0.241 S 
ATOM     14  O   UNL A   1      33.928  21.577  26.071  1.00  0.00    -0.207 OA
ATOM     15  O   UNL A   1      31.639  21.813  25.054  1.00  0.00    -0.207 OA
BRANCH  13  16
ATOM     16  C   UNL A   1      33.211  19.872  24.240  1.00  0.00     0.085 A 
ATOM     17  C   UNL A   1      32.323  19.423  23.258  1.00  0.00     0.022 A 
ATOM     18  C   UNL A   1      34.273  19.061  24.648  1.00  0.00     0.061 A 
ATOM     19  C   UNL A   1      32.445  18.123  22.755  1.00  0.00     0.004 A 
ATOM     20  C   UNL A   1      34.351  17.757  24.178  1.00  0.00     0.124 A 
ATOM     21  C   UNL A   1      33.437  17.275  23.248  1.00  0.00     0.039 A 
ATOM     22  F   UNL A   1      35.306  16.943  24.644  1.00  0.00    -0.207 F 
ENDBRANCH  13  16
ENDBRANCH  11  13
ENDBRANCH   7  11
ENDBRANCH   4   7
ENDBRANCH   2   3
ENDBRANCH   1   2
BRANCH   1  23
ATOM     23  C   UNL A   1      33.317  28.201  27.258  1.00  0.00     0.118 C 
BRANCH  23  24
ATOM     24  N   UNL A   1      33.195  29.622  27.516  1.00  0.00    -0.352 N 
ATOM     25  C   UNL A   1      34.174  30.513  27.888  1.00  0.00     0.251 C 
ATOM     26  H   UNL A   1      32.292  30.000  27.413  1.00  0.00     0.163 HD
ATOM     27  O   UNL A   1      33.891  31.699  28.028  1.00  0.00    -0.269 OA
BRANCH  25  28
ATOM     28  C   UNL A   1      35.546  30.040  28.183  1.00  0.00     0.039 A 
ATOM     29  C   UNL A   1      36.480  30.070  27.147  1.00  0.00     0.014 A 
ATOM     30  C   UNL A   1      35.924  29.579  29.448  1.00  0.00     0.014 A 
ATOM     31  C   UNL A   1      37.802  29.693  27.389  1.00  0.00     0.010 A 
ATOM     32  C   UNL A   1      37.264  29.259  29.704  1.00  0.00     0.010 A 
ATOM     33  C   UNL A   1      38.222  29.318  28.678  1.00  0.00    -0.014 A 
BRANCH  33  34
ATOM     34  C   UNL A   1      39.663  29.025  28.936  1.00  0.00     0.031 A 
ATOM     35  C   UNL A   1      40.266  27.692  28.572  1.00  0.00     0.074 A 
ATOM     36  C   UNL A   1      40.442  29.974  29.499  1.00  0.00     0.049 A 
ATOM     37  N   UNL A   1      41.506  27.290  28.703  1.00  0.00    -0.248 NA
ATOM     38  C   UNL A   1      39.368  26.677  28.001  1.00  0.00     0.031 C 
ATOM     39  C   UNL A   1      39.978  31.293  29.941  1.00  0.00     0.029 A 
ATOM     40  N   UNL A   1      41.785  29.986  29.793  1.00  0.00    -0.354 N 
ATOM     41  C   UNL A   1      41.537  25.981  28.236  1.00  0.00     0.074 A 
ATOM     42  C   UNL A   1      40.183  25.639  27.857  1.00  0.00     0.031 C 
ATOM     43  C   UNL A   1      41.021  31.991  30.416  1.00  0.00     0.029 A 
ATOM     44  C   UNL A   1      42.222  31.163  30.358  1.00  0.00     0.049 A 
ATOM     45  H   UNL A   1      42.380  29.222  29.616  1.00  0.00     0.167 HD
ATOM     46  C   UNL A   1      42.600  25.150  28.112  1.00  0.00     0.037 A 
ATOM     47  C   UNL A   1      43.443  31.538  30.793  1.00  0.00     0.037 A 
ATOM     48  C   UNL A   1      43.955  25.503  28.454  1.00  0.00     0.049 A 
ATOM     49  C   UNL A   1      44.604  30.590  30.649  1.00  0.00     0.074 A 
ATOM     50  C   UNL A   1      45.101  24.743  28.290  1.00  0.00     0.029 A 
ATOM     51  N   UNL A   1      44.351  26.701  29.028  1.00  0.00    -0.354 N 
ATOM     52  N   UNL A   1      44.620  29.385  30.132  1.00  0.00    -0.248 NA
ATOM     53  C   UNL A   1      45.911  31.048  31.143  1.00  0.00     0.031 C 
ATOM     54  C   UNL A   1      46.180  25.455  28.820  1.00  0.00     0.029 A 
ATOM     55  C   UNL A   1      45.719  26.685  29.255  1.00  0.00     0.049 A 
ATOM     56  H   UNL A   1      43.751  27.452  29.242  1.00  0.00     0.167 HD
ATOM     57  C   UNL A   1      45.940  28.951  30.221  1.00  0.00     0.074 A 
ATOM     58  C   UNL A   1      46.697  30.029  30.821  1.00  0.00     0.031 C 
ATOM     59  C   UNL A   1      46.471  27.763  29.844  1.00  0.00     0.037 A 
BRANCH  46  60
ATOM     60  C   UNL A   1      42.374  23.767  27.564  1.00  0.00     0.058 A 
ATOM     61  C   UNL A   1      42.296  22.665  28.431  1.00  0.00     0.135 A 
ATOM     62  C   UNL A   1      42.391  23.515  26.183  1.00  0.00     0.135 A 
ATOM     63  F   UNL A   1      42.273  22.850  29.760  1.00  0.00    -0.206 F 
ATOM     64  C   UNL A   1      42.282  21.360  27.949  1.00  0.00     0.059 A 
ATOM     65  C   UNL A   1      42.352  22.219  25.679  1.00  0.00     0.059 A 
ATOM     66  F   UNL A   1      42.448  24.534  25.311  1.00  0.00    -0.206 F 
ATOM     67  C   UNL A   1      42.323  21.147  26.571  1.00  0.00     0.060 A 
BRANCH  67  68
ATOM     68  S   UNL A   1      42.340  19.446  25.965  1.00  0.00     0.124 S 
ATOM     69  O   UNL A   1      43.234  19.544  24.817  1.00  0.00    -0.237 OA
ATOM     70  O   UNL A   1      42.862  18.719  27.119  1.00  0.00    -0.237 OA
ATOM     71  O   UNL A   1      40.938  19.184  25.651  1.00  0.00    -0.744 OA
ENDBRANCH  67  68
ENDBRANCH  46  60
BRANCH  47  72
ATOM     72  C   UNL A   1      43.631  32.878  31.417  1.00  0.00     0.058 A 
ATOM     73  C   UNL A   1      43.962  33.997  30.637  1.00  0.00     0.135 A 
ATOM     74  C   UNL A   1      43.480  33.071  32.799  1.00  0.00     0.135 A 
ATOM     75  F   UNL A   1      44.127  33.870  29.312  1.00  0.00    -0.206 F 
ATOM     76  C   UNL A   1      44.157  35.252  31.204  1.00  0.00     0.059 A 
ATOM     77  C   UNL A   1      43.637  34.324  33.386  1.00  0.00     0.059 A 
ATOM     78  F   UNL A   1      43.150  32.036  33.587  1.00  0.00    -0.206 F 
ATOM     79  C   UNL A   1      43.989  35.406  32.581  1.00  0.00     0.060 A 
BRANCH  79  80
ATOM     80  S   UNL A   1      44.228  37.049  33.290  1.00  0.00     0.124 S 
ATOM     81  O   UNL A   1      45.431  36.846  34.094  1.00  0.00    -0.237 OA
ATOM     82  O   UNL A   1      44.392  37.875  32.100  1.00  0.00    -0.237 OA
ATOM     83  O   UNL A   1      43.000  37.272  34.044  1.00  0.00    -0.744 OA
ENDBRANCH  79  80
ENDBRANCH  47  72
BRANCH  59  84
ATOM     84  C   UNL A   1      47.949  27.551  30.044  1.00  0.00     0.058 A 
ATOM     85  C   UNL A   1      48.860  27.887  29.030  1.00  0.00     0.135 A 
ATOM     86  C   UNL A   1      48.453  26.930  31.197  1.00  0.00     0.135 A 
ATOM     87  F   UNL A   1      48.432  28.478  27.903  1.00  0.00    -0.206 F 
ATOM     88  C   UNL A   1      50.215  27.592  29.141  1.00  0.00     0.059 A 
ATOM     89  C   UNL A   1      49.810  26.653  31.343  1.00  0.00     0.059 A 
ATOM     90  F   UNL A   1      47.627  26.597  32.202  1.00  0.00    -0.206 F 
ATOM     91  C   UNL A   1      50.681  26.972  30.301  1.00  0.00     0.060 A 
BRANCH  91  92
ATOM     92  S   UNL A   1      52.443  26.599  30.427  1.00  0.00     0.124 S 
ATOM     93  O   UNL A   1      52.447  25.474  31.356  1.00  0.00    -0.237 OA
ATOM     94  O   UNL A   1      52.789  26.283  29.045  1.00  0.00    -0.237 OA
ATOM     95  O   UNL A   1      53.016  27.840  30.941  1.00  0.00    -0.744 OA
ENDBRANCH  91  92
ENDBRANCH  59  84
ENDBRANCH  33  34
ENDBRANCH  25  28
ENDBRANCH  23  24
ENDBRANCH   1  23
TORSDOF 17
ENDMDL
MODEL 2
REMARK VINA RESULT:     -11.2      1.572      2.402
REMARK SMILES CC(C)[C@H](NS(=O)(=O)c1cccc(F)c1)C(=O)NCCCNC(=O)c1ccc(-c2c3nc(c(-c4c(F)cc(S(=O)(=O)[O-])cc4F)c4ccc([nH]4)c(-c4c(F)cc(S(=O)(=O)[O-])cc4F)c4nc(c(-c5c(F)cc(S(=O)(=O)[O-])cc5F)c5ccc2[nH]5)C=C4)C=C3)cc1
REMARK SMILES IDX 20 1 19 2 18 3 16 4 17 5 4 7 2 8 1 9 3 10 5 11 6 13 7 14
REMARK SMILES IDX 8 15 9 16 10 17 15 18 11 19 13 20 12 21 14 22 21 23 22 24
REMARK SMILES IDX 23 25 24 27 25 28 26 29 90 30 27 31 89 32 28 33 29 34 30 35
REMARK SMILES IDX 83 36 31 37 88 38 82 39 84 40 32 41 87 42 81 43 80 44 33 46
REMARK SMILES IDX 67 47 46 48 66 49 47 50 50 51 65 52 85 53 48 54 49 55 64 57
REMARK SMILES IDX 86 58 51 59 34 60 35 61 44 62 36 63 37 64 43 65 45 66 38 67
REMARK SMILES IDX 39 68 40 69 41 70 42 71 68 72 69 73 78 74 70 75 71 76 77 77
REMARK SMILES IDX 79 78 72 79 73 80 74 81 75 82 76 83 52 84 53 85 62 86 54 87
REMARK SMILES IDX 55 88 61 89 63 90 56 91 57 92 58 93 59 94 60 95
REMARK H PARENT 18 6 5 12 22 26 84 45 50 56
REMARK Flexibility Score: inf
ROOT
ATOM      1  C   UNL A   1      33.899  28.089  25.902  1.00  0.00     0.042 C 
ENDROOT
BRANCH   1   2
ATOM      2  C   UNL A   1      32.933  27.145  25.201  1.00  0.00     0.117 C 
BRANCH   2   3
ATOM      3  N   UNL A   1      32.038  26.389  26.066  1.00  0.00    -0.355 N 
ATOM      4  C   UNL A   1      31.896  25.033  26.219  1.00  0.00     0.238 C 
ATOM      5  O   UNL A   1      31.341  24.620  27.241  1.00  0.00    -0.273 OA
ATOM      6  H   UNL A   1      31.441  26.935  26.627  1.00  0.00     0.163 HD
BRANCH   4   7
ATOM      7  C   UNL A   1      32.398  24.051  25.150  1.00  0.00     0.161 C 
BRANCH   7   8
ATOM      8  C   UNL A   1      31.859  24.488  23.759  1.00  0.00     0.010 C 
ATOM      9  C   UNL A   1      32.946  24.325  22.686  1.00  0.00     0.009 C 
ATOM     10  C   UNL A   1      30.573  23.809  23.288  1.00  0.00     0.009 C 
ENDBRANCH   7   8
BRANCH   7  11
ATOM     11  N   UNL A   1      32.060  22.664  25.571  1.00  0.00    -0.198 NA
ATOM     12  H   UNL A   1      31.676  22.185  24.757  1.00  0.00     0.142 HD
BRANCH  11  13
ATOM     13  S   UNL A   1      33.312  21.686  26.189  1.00  0.00     0.241 S 
ATOM     14  O   UNL A   1      33.275  21.902  27.621  1.00  0.00    -0.207 OA
ATOM     15  O   UNL A   1      33.166  20.362  25.635  1.00  0.00    -0.207 OA
BRANCH  13  16
ATOM     16  C   UNL A   1      34.818  22.404  25.586  1.00  0.00     0.085 A 
ATOM     17  C   UNL A   1      35.600  23.212  26.416  1.00  0.00     0.022 A 
ATOM     18  C   UNL A   1      35.247  22.109  24.289  1.00  0.00     0.061 A 
ATOM     19  C   UNL A   1      36.763  23.804  25.911  1.00  0.00     0.004 A 
ATOM     20  C   UNL A   1      36.375  22.743  23.786  1.00  0.00     0.124 A 
ATOM     21  C   UNL A   1      37.128  23.601  24.580  1.00  0.00     0.039 A 
ATOM     22  F   UNL A   1      36.731  22.544  22.512  1.00  0.00    -0.207 F 
ENDBRANCH  13  16
ENDBRANCH  11  13
ENDBRANCH   7  11
ENDBRANCH   4   7
ENDBRANCH   2   3
ENDBRANCH   1   2
BRANCH   1  23
ATOM     23  C   UNL A   1      33.556  28.391  27.353  1.00  0.00     0.118 C 
BRANCH  23  24
ATOM     24  N   UNL A   1      33.486  29.804  27.669  1.00  0.00    -0.352 N 
ATOM     25  C   UNL A   1      34.496  30.646  28.069  1.00  0.00     0.251 C 
ATOM     26  H   UNL A   1      32.596  30.216  27.587  1.00  0.00     0.163 HD
ATOM     27  O   UNL A   1      34.256  31.834  28.258  1.00  0.00    -0.269 OA
BRANCH  25  28
ATOM     28  C   UNL A   1      35.853  30.115  28.335  1.00  0.00     0.039 A 
ATOM     29  C   UNL A   1      36.772  30.125  27.284  1.00  0.00     0.014 A 
ATOM     30  C   UNL A   1      36.232  29.618  29.586  1.00  0.00     0.014 A 
ATOM     31  C   UNL A   1      38.082  29.693  27.500  1.00  0.00     0.010 A 
ATOM     32  C   UNL A   1      37.562  29.242  29.816  1.00  0.00     0.010 A 
ATOM     33  C   UNL A   1      38.506  29.281  28.776  1.00  0.00    -0.014 A 
BRANCH  33  34
ATOM     34  C   UNL A   1      39.938  28.927  29.006  1.00  0.00     0.031 A 
ATOM     35  C   UNL A   1      40.480  27.574  28.623  1.00  0.00     0.074 A 
ATOM     36  C   UNL A   1      40.765  29.840  29.563  1.00  0.00     0.049 A 
ATOM     37  N   UNL A   1      41.704  27.121  28.729  1.00  0.00    -0.248 NA
ATOM     38  C   UNL A   1      39.532  26.600  28.061  1.00  0.00     0.031 C 
ATOM     39  C   UNL A   1      40.363  31.173  30.021  1.00  0.00     0.029 A 
ATOM     40  N   UNL A   1      42.112  29.795  29.833  1.00  0.00    -0.354 N 
ATOM     41  C   UNL A   1      41.674  25.815  28.253  1.00  0.00     0.074 A 
ATOM     42  C   UNL A   1      40.301  25.531  27.895  1.00  0.00     0.031 C 
ATOM     43  C   UNL A   1      41.441  31.825  30.483  1.00  0.00     0.029 A 
ATOM     44  C   UNL A   1      42.606  30.949  30.398  1.00  0.00     0.049 A 
ATOM     45  H   UNL A   1      42.672  29.009  29.640  1.00  0.00     0.167 HD
ATOM     46  C   UNL A   1      42.700  24.943  28.105  1.00  0.00     0.037 A 
ATOM     47  C   UNL A   1      43.849  31.271  30.814  1.00  0.00     0.037 A 
ATOM     48  C   UNL A   1      44.073  25.237  28.425  1.00  0.00     0.049 A 
ATOM     49  C   UNL A   1      44.967  30.277  30.643  1.00  0.00     0.074 A 
ATOM     50  C   UNL A   1      45.185  24.433  28.236  1.00  0.00     0.029 A 
ATOM     51  N   UNL A   1      44.528  26.415  29.000  1.00  0.00    -0.354 N 
ATOM     52  N   UNL A   1      44.926  29.077  30.117  1.00  0.00    -0.248 NA
ATOM     53  C   UNL A   1      46.301  30.678  31.117  1.00  0.00     0.031 C 
ATOM     54  C   UNL A   1      46.301  25.096  28.751  1.00  0.00     0.029 A 
ATOM     55  C   UNL A   1      45.898  26.341  29.203  1.00  0.00     0.049 A 
ATOM     56  H   UNL A   1      43.963  27.187  29.229  1.00  0.00     0.167 HD
ATOM     57  C   UNL A   1      46.228  28.589  30.180  1.00  0.00     0.074 A 
ATOM     58  C   UNL A   1      47.038  29.630  30.775  1.00  0.00     0.031 C 
ATOM     59  C   UNL A   1      46.704  27.383  29.786  1.00  0.00     0.037 A 
BRANCH  46  60
ATOM     60  C   UNL A   1      42.409  23.574  27.551  1.00  0.00     0.058 A 
ATOM     61  C   UNL A   1      42.286  22.472  28.413  1.00  0.00     0.135 A 
ATOM     62  C   UNL A   1      42.405  23.329  26.169  1.00  0.00     0.135 A 
ATOM     63  F   UNL A   1      42.280  22.651  29.743  1.00  0.00    -0.206 F 
ATOM     64  C   UNL A   1      42.211  21.172  27.925  1.00  0.00     0.059 A 
ATOM     65  C   UNL A   1      42.304  22.038  25.658  1.00  0.00     0.059 A 
ATOM     66  F   UNL A   1      42.502  24.349  25.302  1.00  0.00    -0.206 F 
ATOM     67  C   UNL A   1      42.233  20.965  26.546  1.00  0.00     0.060 A 
BRANCH  67  68
ATOM     68  S   UNL A   1      42.170  19.267  25.931  1.00  0.00     0.124 S 
ATOM     69  O   UNL A   1      42.662  18.513  27.079  1.00  0.00    -0.237 OA
ATOM     70  O   UNL A   1      40.751  19.109  25.625  1.00  0.00    -0.237 OA
ATOM     71  O   UNL A   1      43.055  19.295  24.770  1.00  0.00    -0.744 OA
ENDBRANCH  67  68
ENDBRANCH  46  60
BRANCH  47  72
ATOM     72  C   UNL A   1      44.102  32.597  31.444  1.00  0.00     0.058 A 
ATOM     73  C   UNL A   1      44.531  33.691  30.675  1.00  0.00     0.135 A 
ATOM     74  C   UNL A   1      43.918  32.802  32.820  1.00  0.00     0.135 A 
ATOM     75  F   UNL A   1      44.731  33.550  29.356  1.00  0.00    -0.206 F 
ATOM     76  C   UNL A   1      44.787  34.932  31.248  1.00  0.00     0.059 A 
ATOM     77  C   UNL A   1      44.136  34.044  33.412  1.00  0.00     0.059 A 
ATOM     78  F   UNL A   1      43.496  31.793  33.597  1.00  0.00    -0.206 F 
ATOM     79  C   UNL A   1      44.584  35.099  32.618  1.00  0.00     0.060 A 
BRANCH  79  80
ATOM     80  S   UNL A   1      44.905  36.725  33.335  1.00  0.00     0.124 S 
ATOM     81  O   UNL A   1      45.577  37.403  32.230  1.00  0.00    -0.237 OA
ATOM     82  O   UNL A   1      43.559  37.194  33.644  1.00  0.00    -0.237 OA
ATOM     83  O   UNL A   1      45.743  36.425  34.491  1.00  0.00    -0.744 OA
ENDBRANCH  79  80
ENDBRANCH  47  72
BRANCH  59  84
ATOM     84  C   UNL A   1      48.175  27.110  29.959  1.00  0.00     0.058 A 
ATOM     85  C   UNL A   1      48.666  26.589  31.167  1.00  0.00     0.135 A 
ATOM     86  C   UNL A   1      49.107  27.452  28.967  1.00  0.00     0.135 A 
ATOM     87  F   UNL A   1      47.820  26.249  32.152  1.00  0.00    -0.206 F 
ATOM     88  C   UNL A   1      50.030  26.439  31.395  1.00  0.00     0.059 A 
ATOM     89  C   UNL A   1      50.475  27.282  29.161  1.00  0.00     0.059 A 
ATOM     90  F   UNL A   1      48.691  27.945  27.790  1.00  0.00    -0.206 F 
ATOM     91  C   UNL A   1      50.928  26.792  30.386  1.00  0.00     0.060 A 
BRANCH  91  92
ATOM     92  S   UNL A   1      52.695  26.588  30.701  1.00  0.00     0.124 S 
ATOM     93  O   UNL A   1      53.215  26.361  29.357  1.00  0.00    -0.237 OA
ATOM     94  O   UNL A   1      53.046  27.867  31.310  1.00  0.00    -0.237 OA
ATOM     95  O   UNL A   1      52.750  25.438  31.598  1.00  0.00    -0.744 OA
ENDBRANCH  91  92
ENDBRANCH  59  84
ENDBRANCH  33  34
ENDBRANCH  25  28
ENDBRANCH  23  24
ENDBRANCH   1  23
TORSDOF 17
ENDMDL
MODEL 3
REMARK VINA RESULT:     -11.1      1.467      2.565
REMARK SMILES CC(C)[C@H](NS(=O)(=O)c1cccc(F)c1)C(=O)NCCCNC(=O)c1ccc(-c2c3nc(c(-c4c(F)cc(S(=O)(=O)[O-])cc4F)c4ccc([nH]4)c(-c4c(F)cc(S(=O)(=O)[O-])cc4F)c4nc(c(-c5c(F)cc(S(=O)(=O)[O-])cc5F)c5ccc2[nH]5)C=C4)C=C3)cc1
REMARK SMILES IDX 20 1 19 2 18 3 16 4 17 5 4 7 2 8 1 9 3 10 5 11 6 13 7 14
REMARK SMILES IDX 8 15 9 16 10 17 15 18 11 19 13 20 12 21 14 22 21 23 22 24
REMARK SMILES IDX 23 25 24 27 25 28 26 29 90 30 27 31 89 32 28 33 29 34 30 35
REMARK SMILES IDX 83 36 31 37 88 38 82 39 84 40 32 41 87 42 81 43 80 44 33 46
REMARK SMILES IDX 67 47 46 48 66 49 47 50 50 51 65 52 85 53 48 54 49 55 64 57
REMARK SMILES IDX 86 58 51 59 34 60 35 61 44 62 36 63 37 64 43 65 45 66 38 67
REMARK SMILES IDX 39 68 40 69 41 70 42 71 68 72 69 73 78 74 70 75 71 76 77 77
REMARK SMILES IDX 79 78 72 79 73 80 74 81 75 82 76 83 52 84 53 85 62 86 54 87
REMARK SMILES IDX 55 88 61 89 63 90 56 91 57 92 58 93 59 94 60 95
REMARK H PARENT 18 6 5 12 22 26 84 45 50 56
REMARK Flexibility Score: inf
ROOT
ATOM      1  C   UNL A   1      34.258  28.340  25.795  1.00  0.00     0.042 C 
ENDROOT
BRANCH   1   2
ATOM      2  C   UNL A   1      33.271  28.470  24.645  1.00  0.00     0.117 C 
BRANCH   2   3
ATOM      3  N   UNL A   1      33.701  27.914  23.369  1.00  0.00    -0.355 N 
ATOM      4  C   UNL A   1      33.328  26.752  22.743  1.00  0.00     0.238 C 
ATOM      5  O   UNL A   1      33.541  26.651  21.532  1.00  0.00    -0.273 OA
ATOM      6  H   UNL A   1      34.361  28.456  22.881  1.00  0.00     0.163 HD
BRANCH   4   7
ATOM      7  C   UNL A   1      32.675  25.599  23.520  1.00  0.00     0.161 C 
BRANCH   7   8
ATOM      8  C   UNL A   1      31.484  26.151  24.352  1.00  0.00     0.010 C 
ATOM      9  C   UNL A   1      30.198  26.158  23.511  1.00  0.00     0.009 C 
ATOM     10  C   UNL A   1      31.214  25.462  25.690  1.00  0.00     0.009 C 
ENDBRANCH   7   8
BRANCH   7  11
ATOM     11  N   UNL A   1      33.726  24.879  24.290  1.00  0.00    -0.198 NA
ATOM     12  H   UNL A   1      33.393  24.792  25.251  1.00  0.00     0.142 HD
BRANCH  11  13
ATOM     13  S   UNL A   1      34.173  23.318  23.769  1.00  0.00     0.241 S 
ATOM     14  O   UNL A   1      33.173  22.439  24.338  1.00  0.00    -0.207 OA
ATOM     15  O   UNL A   1      34.396  23.366  22.344  1.00  0.00    -0.207 OA
BRANCH  13  16
ATOM     16  C   UNL A   1      35.710  22.967  24.583  1.00  0.00     0.085 A 
ATOM     17  C   UNL A   1      36.340  23.946  25.359  1.00  0.00     0.022 A 
ATOM     18  C   UNL A   1      36.259  21.686  24.489  1.00  0.00     0.061 A 
ATOM     19  C   UNL A   1      37.572  23.665  25.960  1.00  0.00     0.004 A 
ATOM     20  C   UNL A   1      37.505  21.440  25.049  1.00  0.00     0.124 A 
ATOM     21  C   UNL A   1      38.175  22.422  25.769  1.00  0.00     0.039 A 
ATOM     22  F   UNL A   1      38.083  20.245  24.873  1.00  0.00    -0.207 F 
ENDBRANCH  13  16
ENDBRANCH  11  13
ENDBRANCH   7  11
ENDBRANCH   4   7
ENDBRANCH   2   3
ENDBRANCH   1   2
BRANCH   1  23
ATOM     23  C   UNL A   1      33.649  28.492  27.181  1.00  0.00     0.118 C 
BRANCH  23  24
ATOM     24  N   UNL A   1      33.542  29.862  27.642  1.00  0.00    -0.352 N 
ATOM     25  C   UNL A   1      34.526  30.674  28.153  1.00  0.00     0.251 C 
ATOM     26  H   UNL A   1      32.646  30.264  27.582  1.00  0.00     0.163 HD
ATOM     27  O   UNL A   1      34.257  31.831  28.459  1.00  0.00    -0.269 OA
BRANCH  25  28
ATOM     28  C   UNL A   1      35.887  30.142  28.394  1.00  0.00     0.039 A 
ATOM     29  C   UNL A   1      36.800  30.192  27.340  1.00  0.00     0.014 A 
ATOM     30  C   UNL A   1      36.275  29.608  29.627  1.00  0.00     0.014 A 
ATOM     31  C   UNL A   1      38.114  29.760  27.535  1.00  0.00     0.010 A 
ATOM     32  C   UNL A   1      37.608  29.232  29.838  1.00  0.00     0.010 A 
ATOM     33  C   UNL A   1      38.546  29.309  28.795  1.00  0.00    -0.014 A 
BRANCH  33  34
ATOM     34  C   UNL A   1      39.981  28.956  29.007  1.00  0.00     0.031 A 
ATOM     35  C   UNL A   1      40.518  27.601  28.623  1.00  0.00     0.074 A 
ATOM     36  C   UNL A   1      40.816  29.871  29.547  1.00  0.00     0.049 A 
ATOM     37  N   UNL A   1      41.743  27.148  28.714  1.00  0.00    -0.248 NA
ATOM     38  C   UNL A   1      39.561  26.625  28.079  1.00  0.00     0.031 C 
ATOM     39  C   UNL A   1      40.422  31.207  30.004  1.00  0.00     0.029 A 
ATOM     40  N   UNL A   1      42.168  29.827  29.798  1.00  0.00    -0.354 N 
ATOM     41  C   UNL A   1      41.706  25.840  28.245  1.00  0.00     0.074 A 
ATOM     42  C   UNL A   1      40.328  25.555  27.908  1.00  0.00     0.031 C 
ATOM     43  C   UNL A   1      41.506  31.861  30.447  1.00  0.00     0.029 A 
ATOM     44  C   UNL A   1      42.670  30.984  30.350  1.00  0.00     0.049 A 
ATOM     45  H   UNL A   1      42.725  29.040  29.601  1.00  0.00     0.167 HD
ATOM     46  C   UNL A   1      42.729  24.967  28.087  1.00  0.00     0.037 A 
ATOM     47  C   UNL A   1      43.918  31.308  30.746  1.00  0.00     0.037 A 
ATOM     48  C   UNL A   1      44.107  25.262  28.386  1.00  0.00     0.049 A 
ATOM     49  C   UNL A   1      45.034  30.313  30.565  1.00  0.00     0.074 A 
ATOM     50  C   UNL A   1      45.216  24.456  28.185  1.00  0.00     0.029 A 
ATOM     51  N   UNL A   1      44.570  26.442  28.948  1.00  0.00    -0.354 N 
ATOM     52  N   UNL A   1      44.985  29.110  30.046  1.00  0.00    -0.248 NA
ATOM     53  C   UNL A   1      46.374  30.716  31.017  1.00  0.00     0.031 C 
ATOM     54  C   UNL A   1      46.339  25.122  28.681  1.00  0.00     0.029 A 
ATOM     55  C   UNL A   1      45.943  26.369  29.132  1.00  0.00     0.049 A 
ATOM     56  H   UNL A   1      44.009  27.216  29.182  1.00  0.00     0.167 HD
ATOM     57  C   UNL A   1      46.288  28.621  30.093  1.00  0.00     0.074 A 
ATOM     58  C   UNL A   1      47.107  29.666  30.670  1.00  0.00     0.031 C 
ATOM     59  C   UNL A   1      46.757  27.414  29.698  1.00  0.00     0.037 A 
BRANCH  46  60
ATOM     60  C   UNL A   1      42.429  23.595  27.544  1.00  0.00     0.058 A 
ATOM     61  C   UNL A   1      42.284  22.504  28.417  1.00  0.00     0.135 A 
ATOM     62  C   UNL A   1      42.441  23.334  26.165  1.00  0.00     0.135 A 
ATOM     63  F   UNL A   1      42.263  22.698  29.744  1.00  0.00    -0.206 F 
ATOM     64  C   UNL A   1      42.200  21.199  27.942  1.00  0.00     0.059 A 
ATOM     65  C   UNL A   1      42.332  22.040  25.667  1.00  0.00     0.059 A 
ATOM     66  F   UNL A   1      42.560  24.344  25.288  1.00  0.00    -0.206 F 
ATOM     67  C   UNL A   1      42.237  20.976  26.565  1.00  0.00     0.060 A 
BRANCH  67  68
ATOM     68  S   UNL A   1      42.163  19.273  25.969  1.00  0.00     0.124 S 
ATOM     69  O   UNL A   1      42.657  18.529  27.121  1.00  0.00    -0.237 OA
ATOM     70  O   UNL A   1      40.742  19.118  25.671  1.00  0.00    -0.237 OA
ATOM     71  O   UNL A   1      43.042  19.284  24.802  1.00  0.00    -0.744 OA
ENDBRANCH  67  68
ENDBRANCH  46  60
BRANCH  47  72
ATOM     72  C   UNL A   1      44.181  32.637  31.366  1.00  0.00     0.058 A 
ATOM     73  C   UNL A   1      44.125  32.808  32.758  1.00  0.00     0.135 A 
ATOM     74  C   UNL A   1      44.495  33.761  30.586  1.00  0.00     0.135 A 
ATOM     75  F   UNL A   1      43.821  31.770  33.553  1.00  0.00    -0.206 F 
ATOM     76  C   UNL A   1      44.352  34.044  33.353  1.00  0.00     0.059 A 
ATOM     77  C   UNL A   1      44.758  35.002  31.160  1.00  0.00     0.059 A 
ATOM     78  F   UNL A   1      44.573  33.648  29.251  1.00  0.00    -0.206 F 
ATOM     79  C   UNL A   1      44.670  35.135  32.545  1.00  0.00     0.060 A 
BRANCH  79  80
ATOM     80  S   UNL A   1      44.979  36.726  33.342  1.00  0.00     0.124 S 
ATOM     81  O   UNL A   1      45.954  36.354  34.364  1.00  0.00    -0.237 OA
ATOM     82  O   UNL A   1      45.493  37.528  32.237  1.00  0.00    -0.237 OA
ATOM     83  O   UNL A   1      43.664  37.115  33.840  1.00  0.00    -0.744 OA
ENDBRANCH  79  80
ENDBRANCH  47  72
BRANCH  59  84
ATOM     84  C   UNL A   1      48.230  27.141  29.851  1.00  0.00     0.058 A 
ATOM     85  C   UNL A   1      48.737  26.615  31.051  1.00  0.00     0.135 A 
ATOM     86  C   UNL A   1      49.150  27.487  28.849  1.00  0.00     0.135 A 
ATOM     87  F   UNL A   1      47.904  26.272  32.045  1.00  0.00    -0.206 F 
ATOM     88  C   UNL A   1      50.104  26.466  31.261  1.00  0.00     0.059 A 
ATOM     89  C   UNL A   1      50.521  27.318  29.025  1.00  0.00     0.059 A 
ATOM     90  F   UNL A   1      48.718  27.984  27.679  1.00  0.00    -0.206 F 
ATOM     91  C   UNL A   1      50.989  26.823  30.243  1.00  0.00     0.060 A 
BRANCH  91  92
ATOM     92  S   UNL A   1      52.760  26.620  30.534  1.00  0.00     0.124 S 
ATOM     93  O   UNL A   1      53.129  27.927  31.066  1.00  0.00    -0.237 OA
ATOM     94  O   UNL A   1      52.788  25.515  31.487  1.00  0.00    -0.237 OA
ATOM     95  O   UNL A   1      53.288  26.309  29.209  1.00  0.00    -0.744 OA
ENDBRANCH  91  92
ENDBRANCH  59  84
ENDBRANCH  33  34
ENDBRANCH  25  28
ENDBRANCH  23  24
ENDBRANCH   1  23
TORSDOF 17
ENDMDL
