MODEL 1
REMARK VINA RESULT:      -9.9      0.000      0.000
REMARK SMILES CC[C@H](C)[C@H](NC(=O)CCOC)C(=O)NCCCNC(=O)c1ccc(-c2c3nc(c(-c4c(F)cc(S(=O)(=O)[O-])cc4F)c4ccc([nH]4)c(-c4c(F)cc(S(=O)(=O)[O-])cc4F)c4nc(c(-c5c(F)cc(S(=O)(=O)[O-])cc5F)c5ccc2[nH]5)C=C4)C=C3)cc1
REMARK SMILES IDX 16 1 15 2 13 3 14 4 5 6 3 7 4 8 2 9 1 10 6 11 7 12 8 14 9 15
REMARK SMILES IDX 10 16 11 17 12 18 17 19 18 20 19 21 20 22 21 24 22 25 23 26
REMARK SMILES IDX 87 27 24 28 86 29 25 30 26 31 27 32 80 33 28 34 85 35 79 36
REMARK SMILES IDX 81 37 29 38 84 39 78 40 77 41 30 43 64 44 43 45 63 46 44 47
REMARK SMILES IDX 47 48 62 49 82 50 45 51 46 52 61 54 83 55 48 56 31 57 32 58
REMARK SMILES IDX 41 59 33 60 34 61 40 62 42 63 35 64 36 65 37 66 38 67 39 68
REMARK SMILES IDX 65 69 66 70 75 71 67 72 68 73 74 74 76 75 69 76 70 77 71 78
REMARK SMILES IDX 72 79 73 80 49 81 50 82 59 83 51 84 52 85 58 86 60 87 53 88
REMARK SMILES IDX 54 89 55 90 56 91 57 92
REMARK H PARENT 15 5 6 13 19 23 81 42 47 53
REMARK Flexibility Score: inf
ROOT
ATOM      1  C   UNL A   1      31.533  30.709  26.412  1.00  0.00     0.117 C 
ENDROOT
BRANCH   1   2
ATOM      2  N   UNL A   1      32.555  30.193  25.527  1.00  0.00    -0.354 N 
ATOM      3  C   UNL A   1      32.461  29.260  24.541  1.00  0.00     0.242 C 
ATOM      4  O   UNL A   1      33.440  29.122  23.802  1.00  0.00    -0.273 OA
ATOM      5  H   UNL A   1      33.453  30.574  25.657  1.00  0.00     0.163 HD
BRANCH   3   6
ATOM      6  C   UNL A   1      31.133  28.523  24.257  1.00  0.00     0.174 C 
BRANCH   6   7
ATOM      7  C   UNL A   1      31.248  26.972  24.596  1.00  0.00     0.018 C 
ATOM      8  C   UNL A   1      31.591  26.066  23.396  1.00  0.00     0.010 C 
BRANCH   7   9
ATOM      9  C   UNL A   1      32.151  26.670  25.824  1.00  0.00     0.002 C 
ATOM     10  C   UNL A   1      32.420  25.199  26.104  1.00  0.00     0.004 C 
ENDBRANCH   7   9
ENDBRANCH   6   7
BRANCH   6  11
ATOM     11  N   UNL A   1      30.532  28.804  22.936  1.00  0.00    -0.344 N 
ATOM     12  C   UNL A   1      29.470  29.604  22.623  1.00  0.00     0.222 C 
ATOM     13  H   UNL A   1      30.958  28.349  22.174  1.00  0.00     0.164 HD
ATOM     14  O   UNL A   1      28.777  29.280  21.655  1.00  0.00    -0.275 OA
BRANCH  12  15
ATOM     15  C   UNL A   1      29.184  30.884  23.373  1.00  0.00     0.128 C 
BRANCH  15  16
ATOM     16  C   UNL A   1      27.788  31.424  23.134  1.00  0.00     0.169 C 
BRANCH  16  17
ATOM     17  O   UNL A   1      27.754  32.840  23.286  1.00  0.00    -0.384 OA
ATOM     18  C   UNL A   1      29.022  33.440  23.065  1.00  0.00     0.194 C 
ENDBRANCH  16  17
ENDBRANCH  15  16
ENDBRANCH  12  15
ENDBRANCH   6  11
ENDBRANCH   3   6
ENDBRANCH   1   2
BRANCH   1  19
ATOM     19  C   UNL A   1      31.633  32.208  26.622  1.00  0.00     0.042 C 
BRANCH  19  20
ATOM     20  C   UNL A   1      32.890  32.614  27.371  1.00  0.00     0.118 C 
BRANCH  20  21
ATOM     21  N   UNL A   1      32.836  34.005  27.804  1.00  0.00    -0.352 N 
ATOM     22  C   UNL A   1      33.478  34.617  28.851  1.00  0.00     0.251 C 
ATOM     23  H   UNL A   1      32.254  34.591  27.268  1.00  0.00     0.163 HD
ATOM     24  O   UNL A   1      33.086  35.704  29.258  1.00  0.00    -0.269 OA
BRANCH  22  25
ATOM     25  C   UNL A   1      34.633  33.948  29.479  1.00  0.00     0.039 A 
ATOM     26  C   UNL A   1      35.924  34.300  29.086  1.00  0.00     0.014 A 
ATOM     27  C   UNL A   1      34.430  32.970  30.457  1.00  0.00     0.014 A 
ATOM     28  C   UNL A   1      37.015  33.706  29.720  1.00  0.00     0.010 A 
ATOM     29  C   UNL A   1      35.514  32.460  31.157  1.00  0.00     0.010 A 
ATOM     30  C   UNL A   1      36.818  32.808  30.783  1.00  0.00    -0.014 A 
BRANCH  30  31
ATOM     31  C   UNL A   1      37.964  32.201  31.502  1.00  0.00     0.031 A 
ATOM     32  C   UNL A   1      38.383  32.748  32.841  1.00  0.00     0.074 A 
ATOM     33  C   UNL A   1      38.655  31.203  30.920  1.00  0.00     0.049 A 
ATOM     34  N   UNL A   1      39.389  32.393  33.596  1.00  0.00    -0.248 NA
ATOM     35  C   UNL A   1      37.589  33.862  33.386  1.00  0.00     0.031 C 
ATOM     36  C   UNL A   1      38.383  30.644  29.592  1.00  0.00     0.029 A 
ATOM     37  N   UNL A   1      39.735  30.485  31.365  1.00  0.00    -0.354 N 
ATOM     38  C   UNL A   1      39.352  33.243  34.696  1.00  0.00     0.074 A 
ATOM     39  C   UNL A   1      38.269  34.174  34.478  1.00  0.00     0.031 C 
ATOM     40  C   UNL A   1      39.255  29.652  29.345  1.00  0.00     0.029 A 
ATOM     41  C   UNL A   1      40.165  29.526  30.477  1.00  0.00     0.049 A 
ATOM     42  H   UNL A   1      40.162  30.640  32.239  1.00  0.00     0.167 HD
ATOM     43  C   UNL A   1      40.131  33.226  35.804  1.00  0.00     0.037 A 
ATOM     44  C   UNL A   1      41.182  28.648  30.569  1.00  0.00     0.037 A 
ATOM     45  C   UNL A   1      41.185  32.271  36.026  1.00  0.00     0.049 A 
ATOM     46  C   UNL A   1      42.013  28.631  31.823  1.00  0.00     0.074 A 
ATOM     47  C   UNL A   1      41.998  32.129  37.135  1.00  0.00     0.029 A 
ATOM     48  N   UNL A   1      41.565  31.289  35.121  1.00  0.00    -0.354 N 
ATOM     49  N   UNL A   1      41.923  29.401  32.882  1.00  0.00    -0.248 NA
ATOM     50  C   UNL A   1      43.076  27.620  31.900  1.00  0.00     0.031 C 
ATOM     51  C   UNL A   1      42.893  31.082  36.889  1.00  0.00     0.029 A 
ATOM     52  C   UNL A   1      42.608  30.545  35.643  1.00  0.00     0.049 A 
ATOM     53  H   UNL A   1      41.152  31.144  34.239  1.00  0.00     0.167 HD
ATOM     54  C   UNL A   1      42.906  28.956  33.758  1.00  0.00     0.074 A 
ATOM     55  C   UNL A   1      43.560  27.834  33.115  1.00  0.00     0.031 C 
ATOM     56  C   UNL A   1      43.242  29.432  34.983  1.00  0.00     0.037 A 
BRANCH  43  57
ATOM     57  C   UNL A   1      39.853  34.250  36.868  1.00  0.00     0.058 A 
ATOM     58  C   UNL A   1      39.103  33.934  38.012  1.00  0.00     0.135 A 
ATOM     59  C   UNL A   1      40.378  35.549  36.770  1.00  0.00     0.135 A 
ATOM     60  F   UNL A   1      38.560  32.712  38.148  1.00  0.00    -0.206 F 
ATOM     61  C   UNL A   1      38.866  34.871  39.011  1.00  0.00     0.059 A 
ATOM     62  C   UNL A   1      40.177  36.496  37.772  1.00  0.00     0.059 A 
ATOM     63  F   UNL A   1      41.099  35.908  35.696  1.00  0.00    -0.206 F 
ATOM     64  C   UNL A   1      39.411  36.149  38.883  1.00  0.00     0.060 A 
BRANCH  64  65
ATOM     65  S   UNL A   1      39.115  37.345  40.203  1.00  0.00     0.124 S 
ATOM     66  O   UNL A   1      40.478  37.721  40.567  1.00  0.00    -0.237 OA
ATOM     67  O   UNL A   1      38.335  38.373  39.522  1.00  0.00    -0.237 OA
ATOM     68  O   UNL A   1      38.388  36.573  41.206  1.00  0.00    -0.744 OA
ENDBRANCH  64  65
ENDBRANCH  43  57
BRANCH  44  69
ATOM     69  C   UNL A   1      41.453  27.701  29.455  1.00  0.00     0.058 A 
ATOM     70  C   UNL A   1      42.581  27.854  28.634  1.00  0.00     0.135 A 
ATOM     71  C   UNL A   1      40.593  26.626  29.190  1.00  0.00     0.135 A 
ATOM     72  F   UNL A   1      43.432  28.868  28.847  1.00  0.00    -0.206 F 
ATOM     73  C   UNL A   1      42.832  26.991  27.572  1.00  0.00     0.059 A 
ATOM     74  C   UNL A   1      40.837  25.732  28.150  1.00  0.00     0.059 A 
ATOM     75  F   UNL A   1      39.512  26.422  29.960  1.00  0.00    -0.206 F 
ATOM     76  C   UNL A   1      41.951  25.934  27.338  1.00  0.00     0.060 A 
BRANCH  76  77
ATOM     77  S   UNL A   1      42.301  24.800  25.976  1.00  0.00     0.124 S 
ATOM     78  O   UNL A   1      41.219  23.833  26.114  1.00  0.00    -0.237 OA
ATOM     79  O   UNL A   1      42.225  25.681  24.814  1.00  0.00    -0.237 OA
ATOM     80  O   UNL A   1      43.637  24.304  26.289  1.00  0.00    -0.744 OA
ENDBRANCH  76  77
ENDBRANCH  44  69
BRANCH  56  81
ATOM     81  C   UNL A   1      44.352  28.727  35.709  1.00  0.00     0.058 A 
ATOM     82  C   UNL A   1      45.690  29.128  35.572  1.00  0.00     0.135 A 
ATOM     83  C   UNL A   1      44.070  27.658  36.574  1.00  0.00     0.135 A 
ATOM     84  F   UNL A   1      46.011  30.141  34.753  1.00  0.00    -0.206 F 
ATOM     85  C   UNL A   1      46.716  28.470  36.242  1.00  0.00     0.059 A 
ATOM     86  C   UNL A   1      45.077  27.004  37.276  1.00  0.00     0.059 A 
ATOM     87  F   UNL A   1      42.805  27.244  36.749  1.00  0.00    -0.206 F 
ATOM     88  C   UNL A   1      46.399  27.407  37.090  1.00  0.00     0.060 A 
BRANCH  88  89
ATOM     89  S   UNL A   1      47.737  26.569  37.963  1.00  0.00     0.124 S 
ATOM     90  O   UNL A   1      48.849  27.490  37.750  1.00  0.00    -0.237 OA
ATOM     91  O   UNL A   1      47.226  26.498  39.328  1.00  0.00    -0.237 OA
ATOM     92  O   UNL A   1      47.842  25.287  37.272  1.00  0.00    -0.744 OA
ENDBRANCH  88  89
ENDBRANCH  56  81
ENDBRANCH  30  31
ENDBRANCH  22  25
ENDBRANCH  20  21
ENDBRANCH  19  20
ENDBRANCH   1  19
TORSDOF 19
ENDMDL
MODEL 2
REMARK VINA RESULT:      -9.9      4.897      6.573
REMARK SMILES CC[C@H](C)[C@H](NC(=O)CCOC)C(=O)NCCCNC(=O)c1ccc(-c2c3nc(c(-c4c(F)cc(S(=O)(=O)[O-])cc4F)c4ccc([nH]4)c(-c4c(F)cc(S(=O)(=O)[O-])cc4F)c4nc(c(-c5c(F)cc(S(=O)(=O)[O-])cc5F)c5ccc2[nH]5)C=C4)C=C3)cc1
REMARK SMILES IDX 16 1 15 2 13 3 14 4 5 6 3 7 4 8 2 9 1 10 6 11 7 12 8 14 9 15
REMARK SMILES IDX 10 16 11 17 12 18 17 19 18 20 19 21 20 22 21 24 22 25 23 26
REMARK SMILES IDX 87 27 24 28 86 29 25 30 26 31 27 32 80 33 28 34 85 35 79 36
REMARK SMILES IDX 81 37 29 38 84 39 78 40 77 41 30 43 64 44 43 45 63 46 44 47
REMARK SMILES IDX 47 48 62 49 82 50 45 51 46 52 61 54 83 55 48 56 31 57 32 58
REMARK SMILES IDX 41 59 33 60 34 61 40 62 42 63 35 64 36 65 37 66 38 67 39 68
REMARK SMILES IDX 65 69 66 70 75 71 67 72 68 73 74 74 76 75 69 76 70 77 71 78
REMARK SMILES IDX 72 79 73 80 49 81 50 82 59 83 51 84 52 85 58 86 60 87 53 88
REMARK SMILES IDX 54 89 55 90 56 91 57 92
REMARK H PARENT 15 5 6 13 19 23 81 42 47 53
REMARK Flexibility Score: inf
ROOT
ATOM      1  C   UNL A   1      32.605  26.029  26.332  1.00  0.00     0.117 C 
ENDROOT
BRANCH   1   2
ATOM      2  N   UNL A   1      31.405  25.374  26.804  1.00  0.00    -0.354 N 
ATOM      3  C   UNL A   1      30.881  24.166  26.459  1.00  0.00     0.242 C 
ATOM      4  O   UNL A   1      29.940  23.747  27.139  1.00  0.00    -0.273 OA
ATOM      5  H   UNL A   1      30.891  25.876  27.476  1.00  0.00     0.163 HD
BRANCH   3   6
ATOM      6  C   UNL A   1      31.537  23.288  25.371  1.00  0.00     0.174 C 
BRANCH   6   7
ATOM      7  C   UNL A   1      31.044  23.703  23.916  1.00  0.00     0.018 C 
ATOM      8  C   UNL A   1      30.266  25.033  23.845  1.00  0.00     0.010 C 
BRANCH   7   9
ATOM      9  C   UNL A   1      32.163  23.632  22.839  1.00  0.00     0.002 C 
ATOM     10  C   UNL A   1      33.165  24.777  22.846  1.00  0.00     0.004 C 
ENDBRANCH   7   9
ENDBRANCH   6   7
BRANCH   6  11
ATOM     11  N   UNL A   1      31.485  21.832  25.626  1.00  0.00    -0.344 N 
ATOM     12  C   UNL A   1      32.454  20.888  25.440  1.00  0.00     0.222 C 
ATOM     13  H   UNL A   1      30.630  21.497  25.981  1.00  0.00     0.164 HD
ATOM     14  O   UNL A   1      32.090  19.746  25.146  1.00  0.00    -0.275 OA
BRANCH  12  15
ATOM     15  C   UNL A   1      33.918  21.190  25.658  1.00  0.00     0.128 C 
BRANCH  15  16
ATOM     16  C   UNL A   1      34.220  21.748  27.035  1.00  0.00     0.169 C 
BRANCH  16  17
ATOM     17  O   UNL A   1      34.987  22.944  26.948  1.00  0.00    -0.384 OA
ATOM     18  C   UNL A   1      35.247  23.324  25.604  1.00  0.00     0.194 C 
ENDBRANCH  16  17
ENDBRANCH  15  16
ENDBRANCH  12  15
ENDBRANCH   6  11
ENDBRANCH   3   6
ENDBRANCH   1   2
BRANCH   1  19
ATOM     19  C   UNL A   1      32.540  27.541  26.446  1.00  0.00     0.042 C 
BRANCH  19  20
ATOM     20  C   UNL A   1      33.878  28.161  26.808  1.00  0.00     0.118 C 
BRANCH  20  21
ATOM     21  N   UNL A   1      33.743  29.570  27.159  1.00  0.00    -0.352 N 
ATOM     22  C   UNL A   1      34.579  30.366  27.900  1.00  0.00     0.251 C 
ATOM     23  H   UNL A   1      32.936  30.014  26.814  1.00  0.00     0.163 HD
ATOM     24  O   UNL A   1      34.169  31.428  28.354  1.00  0.00    -0.269 OA
BRANCH  22  25
ATOM     25  C   UNL A   1      35.965  29.925  28.146  1.00  0.00     0.039 A 
ATOM     26  C   UNL A   1      36.920  30.072  27.140  1.00  0.00     0.014 A 
ATOM     27  C   UNL A   1      36.313  29.363  29.378  1.00  0.00     0.014 A 
ATOM     28  C   UNL A   1      38.241  29.706  27.394  1.00  0.00     0.010 A 
ATOM     29  C   UNL A   1      37.645  29.099  29.663  1.00  0.00     0.010 A 
ATOM     30  C   UNL A   1      38.619  29.249  28.669  1.00  0.00    -0.014 A 
BRANCH  30  31
ATOM     31  C   UNL A   1      40.027  28.899  28.974  1.00  0.00     0.031 A 
ATOM     32  C   UNL A   1      40.934  29.922  29.604  1.00  0.00     0.074 A 
ATOM     33  C   UNL A   1      40.495  27.683  28.630  1.00  0.00     0.049 A 
ATOM     34  N   UNL A   1      42.205  29.827  29.894  1.00  0.00    -0.248 NA
ATOM     35  C   UNL A   1      40.345  31.235  29.916  1.00  0.00     0.031 C 
ATOM     36  C   UNL A   1      39.725  26.639  27.948  1.00  0.00     0.029 A 
ATOM     37  N   UNL A   1      41.735  27.122  28.798  1.00  0.00    -0.354 N 
ATOM     38  C   UNL A   1      42.566  31.066  30.413  1.00  0.00     0.074 A 
ATOM     39  C   UNL A   1      41.401  31.917  30.334  1.00  0.00     0.031 C 
ATOM     40  C   UNL A   1      40.502  25.556  27.783  1.00  0.00     0.029 A 
ATOM     41  C   UNL A   1      41.830  25.838  28.315  1.00  0.00     0.049 A 
ATOM     42  H   UNL A   1      42.486  27.594  29.226  1.00  0.00     0.167 HD
ATOM     43  C   UNL A   1      43.754  31.448  30.939  1.00  0.00     0.037 A 
ATOM     44  C   UNL A   1      42.874  24.988  28.302  1.00  0.00     0.037 A 
ATOM     45  C   UNL A   1      44.898  30.582  31.044  1.00  0.00     0.049 A 
ATOM     46  C   UNL A   1      44.174  25.428  28.920  1.00  0.00     0.074 A 
ATOM     47  C   UNL A   1      46.131  30.849  31.609  1.00  0.00     0.029 A 
ATOM     48  N   UNL A   1      44.944  29.274  30.580  1.00  0.00    -0.354 N 
ATOM     49  N   UNL A   1      44.479  26.582  29.464  1.00  0.00    -0.248 NA
ATOM     50  C   UNL A   1      45.268  24.447  28.930  1.00  0.00     0.031 C 
ATOM     51  C   UNL A   1      46.936  29.715  31.458  1.00  0.00     0.029 A 
ATOM     52  C   UNL A   1      46.189  28.726  30.836  1.00  0.00     0.049 A 
ATOM     53  H   UNL A   1      44.201  28.806  30.136  1.00  0.00     0.167 HD
ATOM     54  C   UNL A   1      45.794  26.460  29.898  1.00  0.00     0.074 A 
ATOM     55  C   UNL A   1      46.216  25.112  29.575  1.00  0.00     0.031 C 
ATOM     56  C   UNL A   1      46.584  27.381  30.505  1.00  0.00     0.037 A 
BRANCH  43  57
ATOM     57  C   UNL A   1      43.866  32.852  31.464  1.00  0.00     0.058 A 
ATOM     58  C   UNL A   1      43.652  33.146  32.821  1.00  0.00     0.135 A 
ATOM     59  C   UNL A   1      44.233  33.910  30.616  1.00  0.00     0.135 A 
ATOM     60  F   UNL A   1      43.280  32.176  33.672  1.00  0.00    -0.206 F 
ATOM     61  C   UNL A   1      43.780  34.440  33.315  1.00  0.00     0.059 A 
ATOM     62  C   UNL A   1      44.393  35.208  31.095  1.00  0.00     0.059 A 
ATOM     63  F   UNL A   1      44.443  33.687  29.310  1.00  0.00    -0.206 F 
ATOM     64  C   UNL A   1      44.155  35.463  32.444  1.00  0.00     0.060 A 
BRANCH  64  65
ATOM     65  S   UNL A   1      44.342  37.132  33.109  1.00  0.00     0.124 S 
ATOM     66  O   UNL A   1      45.383  36.931  34.111  1.00  0.00    -0.237 OA
ATOM     67  O   UNL A   1      44.737  37.894  31.929  1.00  0.00    -0.237 OA
ATOM     68  O   UNL A   1      43.015  37.439  33.634  1.00  0.00    -0.744 OA
ENDBRANCH  64  65
ENDBRANCH  43  57
BRANCH  44  69
ATOM     69  C   UNL A   1      42.726  23.633  27.708  1.00  0.00     0.058 A 
ATOM     70  C   UNL A   1      42.313  22.542  28.488  1.00  0.00     0.135 A 
ATOM     71  C   UNL A   1      42.994  23.401  26.351  1.00  0.00     0.135 A 
ATOM     72  F   UNL A   1      42.046  22.714  29.792  1.00  0.00    -0.206 F 
ATOM     73  C   UNL A   1      42.196  21.264  27.951  1.00  0.00     0.059 A 
ATOM     74  C   UNL A   1      42.858  22.137  25.784  1.00  0.00     0.059 A 
ATOM     75  F   UNL A   1      43.371  24.415  25.557  1.00  0.00    -0.206 F 
ATOM     76  C   UNL A   1      42.474  21.072  26.597  1.00  0.00     0.060 A 
BRANCH  76  77
ATOM     77  S   UNL A   1      42.291  19.415  25.901  1.00  0.00     0.124 S 
ATOM     78  O   UNL A   1      42.845  18.588  26.965  1.00  0.00    -0.237 OA
ATOM     79  O   UNL A   1      40.848  19.321  25.704  1.00  0.00    -0.237 OA
ATOM     80  O   UNL A   1      43.079  19.480  24.674  1.00  0.00    -0.744 OA
ENDBRANCH  76  77
ENDBRANCH  44  69
BRANCH  56  81
ATOM     81  C   UNL A   1      47.975  26.948  30.875  1.00  0.00     0.058 A 
ATOM     82  C   UNL A   1      48.245  26.311  32.095  1.00  0.00     0.135 A 
ATOM     83  C   UNL A   1      49.041  27.146  29.985  1.00  0.00     0.135 A 
ATOM     84  F   UNL A   1      47.260  26.103  32.983  1.00  0.00    -0.206 F 
ATOM     85  C   UNL A   1      49.534  25.916  32.437  1.00  0.00     0.059 A 
ATOM     86  C   UNL A   1      50.334  26.734  30.293  1.00  0.00     0.059 A 
ATOM     87  F   UNL A   1      48.832  27.740  28.798  1.00  0.00    -0.206 F 
ATOM     88  C   UNL A   1      50.572  26.134  31.529  1.00  0.00     0.060 A 
BRANCH  88  89
ATOM     89  S   UNL A   1      52.239  25.607  31.978  1.00  0.00     0.124 S 
ATOM     90  O   UNL A   1      52.979  25.901  30.755  1.00  0.00    -0.237 OA
ATOM     91  O   UNL A   1      52.541  26.461  33.122  1.00  0.00    -0.237 OA
ATOM     92  O   UNL A   1      52.074  24.190  32.288  1.00  0.00    -0.744 OA
ENDBRANCH  88  89
ENDBRANCH  56  81
ENDBRANCH  30  31
ENDBRANCH  22  25
ENDBRANCH  20  21
ENDBRANCH  19  20
ENDBRANCH   1  19
TORSDOF 19
ENDMDL
MODEL 3
REMARK VINA RESULT:      -9.7      3.289      5.035
REMARK SMILES CC[C@H](C)[C@H](NC(=O)CCOC)C(=O)NCCCNC(=O)c1ccc(-c2c3nc(c(-c4c(F)cc(S(=O)(=O)[O-])cc4F)c4ccc([nH]4)c(-c4c(F)cc(S(=O)(=O)[O-])cc4F)c4nc(c(-c5c(F)cc(S(=O)(=O)[O-])cc5F)c5ccc2[nH]5)C=C4)C=C3)cc1
REMARK SMILES IDX 16 1 15 2 13 3 14 4 5 6 3 7 4 8 2 9 1 10 6 11 7 12 8 14 9 15
REMARK SMILES IDX 10 16 11 17 12 18 17 19 18 20 19 21 20 22 21 24 22 25 23 26
REMARK SMILES IDX 87 27 24 28 86 29 25 30 26 31 27 32 80 33 28 34 85 35 79 36
REMARK SMILES IDX 81 37 29 38 84 39 78 40 77 41 30 43 64 44 43 45 63 46 44 47
REMARK SMILES IDX 47 48 62 49 82 50 45 51 46 52 61 54 83 55 48 56 31 57 32 58
REMARK SMILES IDX 41 59 33 60 34 61 40 62 42 63 35 64 36 65 37 66 38 67 39 68
REMARK SMILES IDX 65 69 66 70 75 71 67 72 68 73 74 74 76 75 69 76 70 77 71 78
REMARK SMILES IDX 72 79 73 80 49 81 50 82 59 83 51 84 52 85 58 86 60 87 53 88
REMARK SMILES IDX 54 89 55 90 56 91 57 92
REMARK H PARENT 15 5 6 13 19 23 81 42 47 53
REMARK Flexibility Score: inf
ROOT
ATOM      1  C   UNL A   1      33.818  25.986  25.652  1.00  0.00     0.117 C 
ENDROOT
BRANCH   1   2
ATOM      2  N   UNL A   1      34.246  25.367  24.416  1.00  0.00    -0.354 N 
ATOM      3  C   UNL A   1      34.945  24.217  24.216  1.00  0.00     0.242 C 
ATOM      4  O   UNL A   1      35.030  23.805  23.056  1.00  0.00    -0.273 OA
ATOM      5  H   UNL A   1      33.992  25.850  23.596  1.00  0.00     0.163 HD
BRANCH   3   6
ATOM      6  C   UNL A   1      35.471  23.381  25.404  1.00  0.00     0.174 C 
BRANCH   6   7
ATOM      7  C   UNL A   1      37.048  23.189  25.324  1.00  0.00     0.018 C 
ATOM      8  C   UNL A   1      37.861  24.037  26.323  1.00  0.00     0.010 C 
BRANCH   7   9
ATOM      9  C   UNL A   1      37.493  21.699  25.337  1.00  0.00     0.002 C 
ATOM     10  C   UNL A   1      38.938  21.442  25.740  1.00  0.00     0.004 C 
ENDBRANCH   7   9
ENDBRANCH   6   7
BRANCH   6  11
ATOM     11  N   UNL A   1      34.729  22.129  25.664  1.00  0.00    -0.344 N 
ATOM     12  C   UNL A   1      33.768  21.873  26.600  1.00  0.00     0.222 C 
ATOM     13  H   UNL A   1      34.960  21.372  25.078  1.00  0.00     0.164 HD
ATOM     14  O   UNL A   1      33.698  20.725  27.048  1.00  0.00    -0.275 OA
BRANCH  12  15
ATOM     15  C   UNL A   1      32.768  22.922  27.027  1.00  0.00     0.128 C 
BRANCH  15  16
ATOM     16  C   UNL A   1      31.439  22.819  26.304  1.00  0.00     0.169 C 
BRANCH  16  17
ATOM     17  O   UNL A   1      31.615  22.340  24.974  1.00  0.00    -0.384 OA
ATOM     18  C   UNL A   1      31.324  23.332  24.000  1.00  0.00     0.194 C 
ENDBRANCH  16  17
ENDBRANCH  15  16
ENDBRANCH  12  15
ENDBRANCH   6  11
ENDBRANCH   3   6
ENDBRANCH   1   2
BRANCH   1  19
ATOM     19  C   UNL A   1      33.729  27.498  25.558  1.00  0.00     0.042 C 
BRANCH  19  20
ATOM     20  C   UNL A   1      33.572  28.162  26.916  1.00  0.00     0.118 C 
BRANCH  20  21
ATOM     21  N   UNL A   1      33.559  29.615  26.808  1.00  0.00    -0.352 N 
ATOM     22  C   UNL A   1      34.365  30.541  27.421  1.00  0.00     0.251 C 
ATOM     23  H   UNL A   1      32.874  29.987  26.208  1.00  0.00     0.163 HD
ATOM     24  O   UNL A   1      34.024  31.718  27.462  1.00  0.00    -0.269 OA
BRANCH  22  25
ATOM     25  C   UNL A   1      35.634  30.101  28.032  1.00  0.00     0.039 A 
ATOM     26  C   UNL A   1      36.811  30.164  27.286  1.00  0.00     0.014 A 
ATOM     27  C   UNL A   1      35.650  29.626  29.346  1.00  0.00     0.014 A 
ATOM     28  C   UNL A   1      38.017  29.800  27.884  1.00  0.00     0.010 A 
ATOM     29  C   UNL A   1      36.863  29.366  29.969  1.00  0.00     0.010 A 
ATOM     30  C   UNL A   1      38.056  29.432  29.239  1.00  0.00    -0.014 A 
BRANCH  30  31
ATOM     31  C   UNL A   1      39.334  29.086  29.907  1.00  0.00     0.031 A 
ATOM     32  C   UNL A   1      39.774  29.853  31.125  1.00  0.00     0.074 A 
ATOM     33  C   UNL A   1      40.117  28.126  29.378  1.00  0.00     0.049 A 
ATOM     34  N   UNL A   1      40.879  29.740  31.814  1.00  0.00    -0.248 NA
ATOM     35  C   UNL A   1      38.869  30.908  31.614  1.00  0.00     0.031 C 
ATOM     36  C   UNL A   1      39.825  27.369  28.158  1.00  0.00     0.029 A 
ATOM     37  N   UNL A   1      41.324  27.627  29.795  1.00  0.00    -0.354 N 
ATOM     38  C   UNL A   1      40.805  30.712  32.807  1.00  0.00     0.074 A 
ATOM     39  C   UNL A   1      39.582  31.449  32.590  1.00  0.00     0.031 C 
ATOM     40  C   UNL A   1      40.812  26.483  27.942  1.00  0.00     0.029 A 
ATOM     41  C   UNL A   1      41.819  26.631  28.987  1.00  0.00     0.049 A 
ATOM     42  H   UNL A   1      41.793  27.950  30.599  1.00  0.00     0.167 HD
ATOM     43  C   UNL A   1      41.665  30.944  33.827  1.00  0.00     0.037 A 
ATOM     44  C   UNL A   1      42.959  25.921  29.078  1.00  0.00     0.037 A 
ATOM     45  C   UNL A   1      42.863  30.181  34.053  1.00  0.00     0.049 A 
ATOM     46  C   UNL A   1      43.883  26.180  30.238  1.00  0.00     0.074 A 
ATOM     47  C   UNL A   1      43.775  30.296  35.086  1.00  0.00     0.029 A 
ATOM     48  N   UNL A   1      43.311  29.153  33.235  1.00  0.00    -0.354 N 
ATOM     49  N   UNL A   1      43.765  27.059  31.204  1.00  0.00    -0.248 NA
ATOM     50  C   UNL A   1      45.087  25.344  30.326  1.00  0.00     0.031 C 
ATOM     51  C   UNL A   1      44.794  29.360  34.876  1.00  0.00     0.029 A 
ATOM     52  C   UNL A   1      44.493  28.632  33.734  1.00  0.00     0.049 A 
ATOM     53  H   UNL A   1      42.855  28.840  32.421  1.00  0.00     0.167 HD
ATOM     54  C   UNL A   1      44.871  26.871  32.025  1.00  0.00     0.074 A 
ATOM     55  C   UNL A   1      45.631  25.776  31.455  1.00  0.00     0.031 C 
ATOM     56  C   UNL A   1      45.229  27.542  33.148  1.00  0.00     0.037 A 
BRANCH  43  57
ATOM     57  C   UNL A   1      41.324  32.049  34.788  1.00  0.00     0.058 A 
ATOM     58  C   UNL A   1      41.793  33.359  34.594  1.00  0.00     0.135 A 
ATOM     59  C   UNL A   1      40.486  31.811  35.889  1.00  0.00     0.135 A 
ATOM     60  F   UNL A   1      42.614  33.638  33.569  1.00  0.00    -0.206 F 
ATOM     61  C   UNL A   1      41.459  34.389  35.467  1.00  0.00     0.059 A 
ATOM     62  C   UNL A   1      40.116  32.833  36.760  1.00  0.00     0.059 A 
ATOM     63  F   UNL A   1      40.014  30.577  36.125  1.00  0.00    -0.206 F 
ATOM     64  C   UNL A   1      40.616  34.116  36.545  1.00  0.00     0.060 A 
BRANCH  64  65
ATOM     65  S   UNL A   1      40.171  35.472  37.652  1.00  0.00     0.124 S 
ATOM     66  O   UNL A   1      38.934  34.972  38.243  1.00  0.00    -0.237 OA
ATOM     67  O   UNL A   1      41.322  35.532  38.548  1.00  0.00    -0.237 OA
ATOM     68  O   UNL A   1      40.022  36.611  36.751  1.00  0.00    -0.744 OA
ENDBRANCH  64  65
ENDBRANCH  43  57
BRANCH  44  69
ATOM     69  C   UNL A   1      43.278  24.885  28.060  1.00  0.00     0.058 A 
ATOM     70  C   UNL A   1      42.809  23.569  28.195  1.00  0.00     0.135 A 
ATOM     71  C   UNL A   1      44.056  25.188  26.933  1.00  0.00     0.135 A 
ATOM     72  F   UNL A   1      42.062  23.230  29.257  1.00  0.00    -0.206 F 
ATOM     73  C   UNL A   1      43.122  22.584  27.264  1.00  0.00     0.059 A 
ATOM     74  C   UNL A   1      44.360  24.227  25.973  1.00  0.00     0.059 A 
ATOM     75  F   UNL A   1      44.510  26.437  26.746  1.00  0.00    -0.206 F 
ATOM     76  C   UNL A   1      43.901  22.924  26.157  1.00  0.00     0.060 A 
BRANCH  76  77
ATOM     77  S   UNL A   1      44.278  21.646  24.937  1.00  0.00     0.124 S 
ATOM     78  O   UNL A   1      45.634  21.269  25.317  1.00  0.00    -0.237 OA
ATOM     79  O   UNL A   1      43.241  20.653  25.201  1.00  0.00    -0.237 OA
ATOM     80  O   UNL A   1      44.149  22.351  23.666  1.00  0.00    -0.744 OA
ENDBRANCH  76  77
ENDBRANCH  44  69
BRANCH  56  81
ATOM     81  C   UNL A   1      46.487  27.096  33.837  1.00  0.00     0.058 A 
ATOM     82  C   UNL A   1      47.732  27.669  33.537  1.00  0.00     0.135 A 
ATOM     83  C   UNL A   1      46.441  26.106  34.831  1.00  0.00     0.135 A 
ATOM     84  F   UNL A   1      47.830  28.617  32.591  1.00  0.00    -0.206 F 
ATOM     85  C   UNL A   1      48.896  27.251  34.174  1.00  0.00     0.059 A 
ATOM     86  C   UNL A   1      47.587  25.692  35.502  1.00  0.00     0.059 A 
ATOM     87  F   UNL A   1      45.272  25.535  35.165  1.00  0.00    -0.206 F 
ATOM     88  C   UNL A   1      48.813  26.260  35.153  1.00  0.00     0.060 A 
BRANCH  88  89
ATOM     89  S   UNL A   1      50.327  25.733  35.981  1.00  0.00     0.124 S 
ATOM     90  O   UNL A   1      50.965  27.014  36.268  1.00  0.00    -0.237 OA
ATOM     91  O   UNL A   1      49.815  25.007  37.140  1.00  0.00    -0.237 OA
ATOM     92  O   UNL A   1      50.993  24.908  34.977  1.00  0.00    -0.744 OA
ENDBRANCH  88  89
ENDBRANCH  56  81
ENDBRANCH  30  31
ENDBRANCH  22  25
ENDBRANCH  20  21
ENDBRANCH  19  20
ENDBRANCH   1  19
TORSDOF 19
ENDMDL
