MODEL 1
REMARK VINA RESULT:     -12.0      0.000      0.000
REMARK SMILES C[C@H](Sc1ccccn1)C(=O)N[C@H](C(=O)NCCCNC(=O)c1ccc(-c2c3nc(c(-c4c(F)cc(S(=O)(=O)[O-])cc4F)c4ccc([nH]4)c(-c4c(F)cc(S(=O)(=O)[O-])cc4F)c4nc(c(-c5c(F)cc(S(=O)(=O)[O-])cc5F)c5ccc2[nH]5)C=C4)C=C3)cc1)c1ccc(F)cc1
REMARK SMILES IDX 17 1 16 2 14 3 15 4 13 6 12 7 10 8 11 9 2 11 1 12 3 13 4 14
REMARK SMILES IDX 5 15 9 16 6 17 8 18 7 19 89 20 90 21 95 22 91 23 94 24 92 25
REMARK SMILES IDX 93 26 18 27 19 28 20 29 21 30 22 32 23 33 24 34 88 35 25 36
REMARK SMILES IDX 87 37 26 38 27 39 28 40 81 41 29 42 86 43 80 44 82 45 30 46
REMARK SMILES IDX 85 47 79 48 78 49 31 51 65 52 44 53 64 54 45 55 48 56 63 57
REMARK SMILES IDX 83 58 46 59 47 60 62 62 84 63 49 64 32 65 33 66 42 67 34 68
REMARK SMILES IDX 35 69 41 70 43 71 36 72 37 73 38 74 39 75 40 76 66 77 67 78
REMARK SMILES IDX 76 79 68 80 69 81 75 82 77 83 70 84 71 85 72 86 73 87 74 88
REMARK SMILES IDX 50 89 51 90 60 91 52 92 53 93 59 94 61 95 54 96 55 97 56 98
REMARK SMILES IDX 57 99 58 100
REMARK H PARENT 16 5 12 10 20 31 82 50 48 61
REMARK Flexibility Score: inf
ROOT
ATOM      1  C   UNL A   1      32.851  26.573  25.142  1.00  0.00     0.117 C 
ENDROOT
BRANCH   1   2
ATOM      2  N   UNL A   1      33.020  26.395  23.712  1.00  0.00    -0.354 N 
ATOM      3  C   UNL A   1      33.517  25.335  23.001  1.00  0.00     0.247 C 
ATOM      4  O   UNL A   1      33.867  25.572  21.844  1.00  0.00    -0.272 OA
ATOM      5  H   UNL A   1      32.731  27.160  23.164  1.00  0.00     0.163 HD
BRANCH   3   6
ATOM      6  C   UNL A   1      33.697  23.973  23.714  1.00  0.00     0.202 C 
BRANCH   6   7
ATOM      7  N   UNL A   1      33.028  22.911  22.935  1.00  0.00    -0.340 N 
ATOM      8  C   UNL A   1      32.371  21.770  23.254  1.00  0.00     0.234 C 
ATOM      9  O   UNL A   1      32.020  21.081  22.284  1.00  0.00    -0.274 OA
ATOM     10  H   UNL A   1      33.070  23.067  21.964  1.00  0.00     0.164 HD
BRANCH   8  11
ATOM     11  C   UNL A   1      32.016  21.284  24.660  1.00  0.00     0.139 C 
ATOM     12  C   UNL A   1      31.274  22.303  25.510  1.00  0.00     0.030 C 
BRANCH  11  13
ATOM     13  S   UNL A   1      33.409  20.608  25.613  1.00  0.00    -0.093 SA
BRANCH  13  14
ATOM     14  C   UNL A   1      33.491  18.884  25.191  1.00  0.00     0.097 A 
ATOM     15  C   UNL A   1      34.427  18.328  24.331  1.00  0.00     0.035 A 
ATOM     16  N   UNL A   1      32.466  18.156  25.699  1.00  0.00    -0.250 NA
ATOM     17  C   UNL A   1      34.294  16.989  23.961  1.00  0.00     0.004 A 
ATOM     18  C   UNL A   1      32.345  16.868  25.309  1.00  0.00     0.112 A 
ATOM     19  C   UNL A   1      33.227  16.245  24.448  1.00  0.00     0.020 A 
ENDBRANCH  13  14
ENDBRANCH  11  13
ENDBRANCH   8  11
ENDBRANCH   6   7
BRANCH   6  20
ATOM     20  C   UNL A   1      35.064  23.549  24.246  1.00  0.00    -0.016 A 
ATOM     21  C   UNL A   1      35.536  24.111  25.453  1.00  0.00     0.009 A 
ATOM     22  C   UNL A   1      35.922  22.663  23.570  1.00  0.00     0.009 A 
ATOM     23  C   UNL A   1      36.763  23.730  26.002  1.00  0.00     0.039 A 
ATOM     24  C   UNL A   1      37.147  22.276  24.121  1.00  0.00     0.039 A 
ATOM     25  C   UNL A   1      37.550  22.801  25.338  1.00  0.00     0.123 A 
ATOM     26  F   UNL A   1      38.712  22.411  25.877  1.00  0.00    -0.207 F 
ENDBRANCH   6  20
ENDBRANCH   3   6
ENDBRANCH   1   2
BRANCH   1  27
ATOM     27  C   UNL A   1      32.669  28.042  25.487  1.00  0.00     0.042 C 
BRANCH  27  28
ATOM     28  C   UNL A   1      33.913  28.691  26.072  1.00  0.00     0.118 C 
BRANCH  28  29
ATOM     29  N   UNL A   1      33.697  30.077  26.459  1.00  0.00    -0.352 N 
ATOM     30  C   UNL A   1      34.407  30.837  27.360  1.00  0.00     0.251 C 
ATOM     31  H   UNL A   1      32.943  30.532  26.017  1.00  0.00     0.163 HD
ATOM     32  O   UNL A   1      34.017  31.952  27.677  1.00  0.00    -0.269 OA
BRANCH  30  33
ATOM     33  C   UNL A   1      35.638  30.270  27.959  1.00  0.00     0.039 A 
ATOM     34  C   UNL A   1      36.849  30.392  27.277  1.00  0.00     0.014 A 
ATOM     35  C   UNL A   1      35.594  29.661  29.217  1.00  0.00     0.014 A 
ATOM     36  C   UNL A   1      38.030  29.963  27.890  1.00  0.00     0.010 A 
ATOM     37  C   UNL A   1      36.779  29.312  29.857  1.00  0.00     0.010 A 
ATOM     38  C   UNL A   1      38.010  29.454  29.200  1.00  0.00    -0.014 A 
BRANCH  38  39
ATOM     39  C   UNL A   1      39.260  29.062  29.902  1.00  0.00     0.031 A 
ATOM     40  C   UNL A   1      39.700  29.812  31.131  1.00  0.00     0.074 A 
ATOM     41  C   UNL A   1      40.040  28.086  29.393  1.00  0.00     0.049 A 
ATOM     42  N   UNL A   1      40.796  29.681  31.832  1.00  0.00    -0.248 NA
ATOM     43  C   UNL A   1      38.800  30.872  31.620  1.00  0.00     0.031 C 
ATOM     44  C   UNL A   1      39.755  27.323  28.175  1.00  0.00     0.029 A 
ATOM     45  N   UNL A   1      41.239  27.578  29.827  1.00  0.00    -0.354 N 
ATOM     46  C   UNL A   1      40.730  30.650  32.826  1.00  0.00     0.074 A 
ATOM     47  C   UNL A   1      39.510  31.396  32.608  1.00  0.00     0.031 C 
ATOM     48  C   UNL A   1      40.741  26.435  27.971  1.00  0.00     0.029 A 
ATOM     49  C   UNL A   1      41.747  26.588  29.018  1.00  0.00     0.049 A 
ATOM     50  H   UNL A   1      41.695  27.895  30.640  1.00  0.00     0.167 HD
ATOM     51  C   UNL A   1      41.594  30.883  33.842  1.00  0.00     0.037 A 
ATOM     52  C   UNL A   1      42.895  25.889  29.104  1.00  0.00     0.037 A 
ATOM     53  C   UNL A   1      42.790  30.115  34.075  1.00  0.00     0.049 A 
ATOM     54  C   UNL A   1      43.832  26.152  30.253  1.00  0.00     0.074 A 
ATOM     55  C   UNL A   1      43.691  30.225  35.119  1.00  0.00     0.029 A 
ATOM     56  N   UNL A   1      43.249  29.096  33.255  1.00  0.00    -0.354 N 
ATOM     57  N   UNL A   1      43.717  27.026  31.224  1.00  0.00    -0.248 NA
ATOM     58  C   UNL A   1      45.050  25.332  30.322  1.00  0.00     0.031 C 
ATOM     59  C   UNL A   1      44.720  29.302  34.907  1.00  0.00     0.029 A 
ATOM     60  C   UNL A   1      44.433  28.581  33.757  1.00  0.00     0.049 A 
ATOM     61  H   UNL A   1      42.801  28.784  32.436  1.00  0.00     0.167 HD
ATOM     62  C   UNL A   1      44.834  26.843  32.034  1.00  0.00     0.074 A 
ATOM     63  C   UNL A   1      45.606  25.769  31.444  1.00  0.00     0.031 C 
ATOM     64  C   UNL A   1      45.186  27.505  33.164  1.00  0.00     0.037 A 
BRANCH  51  65
ATOM     65  C   UNL A   1      41.276  32.010  34.786  1.00  0.00     0.058 A 
ATOM     66  C   UNL A   1      41.795  33.301  34.597  1.00  0.00     0.135 A 
ATOM     67  C   UNL A   1      40.407  31.808  35.871  1.00  0.00     0.135 A 
ATOM     68  F   UNL A   1      42.643  33.547  33.584  1.00  0.00    -0.206 F 
ATOM     69  C   UNL A   1      41.489  34.343  35.464  1.00  0.00     0.059 A 
ATOM     70  C   UNL A   1      40.065  32.843  36.737  1.00  0.00     0.059 A 
ATOM     71  F   UNL A   1      39.882  30.594  36.099  1.00  0.00    -0.206 F 
ATOM     72  C   UNL A   1      40.622  34.105  36.532  1.00  0.00     0.060 A 
BRANCH  72  73
ATOM     73  S   UNL A   1      40.226  35.472  37.642  1.00  0.00     0.124 S 
ATOM     74  O   UNL A   1      39.873  36.524  36.692  1.00  0.00    -0.237 OA
ATOM     75  O   UNL A   1      39.119  34.929  38.424  1.00  0.00    -0.237 OA
ATOM     76  O   UNL A   1      41.467  35.684  38.379  1.00  0.00    -0.744 OA
ENDBRANCH  72  73
ENDBRANCH  51  65
BRANCH  52  77
ATOM     77  C   UNL A   1      43.213  24.856  28.082  1.00  0.00     0.058 A 
ATOM     78  C   UNL A   1      43.958  25.177  26.938  1.00  0.00     0.135 A 
ATOM     79  C   UNL A   1      42.796  23.525  28.237  1.00  0.00     0.135 A 
ATOM     80  F   UNL A   1      44.375  26.438  26.741  1.00  0.00    -0.206 F 
ATOM     81  C   UNL A   1      44.268  24.220  25.977  1.00  0.00     0.059 A 
ATOM     82  C   UNL A   1      43.114  22.545  27.302  1.00  0.00     0.059 A 
ATOM     83  F   UNL A   1      42.094  23.162  29.322  1.00  0.00    -0.206 F 
ATOM     84  C   UNL A   1      43.844  22.904  26.170  1.00  0.00     0.060 A 
BRANCH  84  85
ATOM     85  S   UNL A   1      44.302  21.658  24.946  1.00  0.00     0.124 S 
ATOM     86  O   UNL A   1      43.355  20.589  25.246  1.00  0.00    -0.237 OA
ATOM     87  O   UNL A   1      44.087  22.368  23.689  1.00  0.00    -0.237 OA
ATOM     88  O   UNL A   1      45.699  21.374  25.264  1.00  0.00    -0.744 OA
ENDBRANCH  84  85
ENDBRANCH  52  77
BRANCH  64  89
ATOM     89  C   UNL A   1      46.445  27.069  33.860  1.00  0.00     0.058 A 
ATOM     90  C   UNL A   1      47.687  27.660  33.581  1.00  0.00     0.135 A 
ATOM     91  C   UNL A   1      46.396  26.089  34.865  1.00  0.00     0.135 A 
ATOM     92  F   UNL A   1      47.789  28.597  32.625  1.00  0.00    -0.206 F 
ATOM     93  C   UNL A   1      48.840  27.280  34.258  1.00  0.00     0.059 A 
ATOM     94  C   UNL A   1      47.532  25.712  35.574  1.00  0.00     0.059 A 
ATOM     95  F   UNL A   1      45.231  25.499  35.178  1.00  0.00    -0.206 F 
ATOM     96  C   UNL A   1      48.752  26.307  35.256  1.00  0.00     0.060 A 
BRANCH  96  97
ATOM     97  S   UNL A   1      50.249  25.851  36.156  1.00  0.00     0.124 S 
ATOM     98  O   UNL A   1      49.792  25.919  37.540  1.00  0.00    -0.237 OA
ATOM     99  O   UNL A   1      50.527  24.513  35.645  1.00  0.00    -0.237 OA
ATOM    100  O   UNL A   1      51.209  26.878  35.761  1.00  0.00    -0.744 OA
ENDBRANCH  96  97
ENDBRANCH  64  89
ENDBRANCH  38  39
ENDBRANCH  30  33
ENDBRANCH  28  29
ENDBRANCH  27  28
ENDBRANCH   1  27
TORSDOF 18
ENDMDL
MODEL 2
REMARK VINA RESULT:     -11.7      3.466      9.123
REMARK SMILES C[C@H](Sc1ccccn1)C(=O)N[C@H](C(=O)NCCCNC(=O)c1ccc(-c2c3nc(c(-c4c(F)cc(S(=O)(=O)[O-])cc4F)c4ccc([nH]4)c(-c4c(F)cc(S(=O)(=O)[O-])cc4F)c4nc(c(-c5c(F)cc(S(=O)(=O)[O-])cc5F)c5ccc2[nH]5)C=C4)C=C3)cc1)c1ccc(F)cc1
REMARK SMILES IDX 17 1 16 2 14 3 15 4 13 6 12 7 10 8 11 9 2 11 1 12 3 13 4 14
REMARK SMILES IDX 5 15 9 16 6 17 8 18 7 19 89 20 90 21 95 22 91 23 94 24 92 25
REMARK SMILES IDX 93 26 18 27 19 28 20 29 21 30 22 32 23 33 24 34 88 35 25 36
REMARK SMILES IDX 87 37 26 38 27 39 28 40 81 41 29 42 86 43 80 44 82 45 30 46
REMARK SMILES IDX 85 47 79 48 78 49 31 51 65 52 44 53 64 54 45 55 48 56 63 57
REMARK SMILES IDX 83 58 46 59 47 60 62 62 84 63 49 64 32 65 33 66 42 67 34 68
REMARK SMILES IDX 35 69 41 70 43 71 36 72 37 73 38 74 39 75 40 76 66 77 67 78
REMARK SMILES IDX 76 79 68 80 69 81 75 82 77 83 70 84 71 85 72 86 73 87 74 88
REMARK SMILES IDX 50 89 51 90 60 91 52 92 53 93 59 94 61 95 54 96 55 97 56 98
REMARK SMILES IDX 57 99 58 100
REMARK H PARENT 16 5 12 10 20 31 82 50 48 61
REMARK Flexibility Score: inf
ROOT
ATOM      1  C   UNL A   1      34.710  24.703  25.619  1.00  0.00     0.117 C 
ENDROOT
BRANCH   1   2
ATOM      2  N   UNL A   1      33.457  24.357  26.264  1.00  0.00    -0.354 N 
ATOM      3  C   UNL A   1      32.327  25.104  26.465  1.00  0.00     0.247 C 
ATOM      4  O   UNL A   1      31.550  24.694  27.328  1.00  0.00    -0.272 OA
ATOM      5  H   UNL A   1      33.411  23.438  26.612  1.00  0.00     0.163 HD
BRANCH   3   6
ATOM      6  C   UNL A   1      32.158  26.434  25.689  1.00  0.00     0.202 C 
BRANCH   6   7
ATOM      7  N   UNL A   1      30.795  26.512  25.126  1.00  0.00    -0.340 N 
ATOM      8  C   UNL A   1      30.270  26.995  23.974  1.00  0.00     0.234 C 
ATOM      9  O   UNL A   1      29.032  26.954  23.907  1.00  0.00    -0.274 OA
ATOM     10  H   UNL A   1      30.113  26.125  25.722  1.00  0.00     0.164 HD
BRANCH   8  11
ATOM     11  C   UNL A   1      31.047  27.549  22.779  1.00  0.00     0.139 C 
ATOM     12  C   UNL A   1      30.464  28.819  22.182  1.00  0.00     0.030 C 
BRANCH  11  13
ATOM     13  S   UNL A   1      31.363  26.351  21.448  1.00  0.00    -0.093 SA
BRANCH  13  14
ATOM     14  C   UNL A   1      32.026  24.908  22.245  1.00  0.00     0.097 A 
ATOM     15  C   UNL A   1      33.323  24.442  22.075  1.00  0.00     0.035 A 
ATOM     16  N   UNL A   1      31.105  24.215  22.959  1.00  0.00    -0.250 NA
ATOM     17  C   UNL A   1      33.678  23.214  22.636  1.00  0.00     0.004 A 
ATOM     18  C   UNL A   1      31.466  23.019  23.473  1.00  0.00     0.112 A 
ATOM     19  C   UNL A   1      32.730  22.480  23.339  1.00  0.00     0.020 A 
ENDBRANCH  13  14
ENDBRANCH  11  13
ENDBRANCH   8  11
ENDBRANCH   6   7
BRANCH   6  20
ATOM     20  C   UNL A   1      32.627  27.753  26.298  1.00  0.00    -0.016 A 
ATOM     21  C   UNL A   1      34.008  27.960  26.508  1.00  0.00     0.009 A 
ATOM     22  C   UNL A   1      31.752  28.768  26.723  1.00  0.00     0.009 A 
ATOM     23  C   UNL A   1      34.493  29.164  27.027  1.00  0.00     0.039 A 
ATOM     24  C   UNL A   1      32.235  29.976  27.236  1.00  0.00     0.039 A 
ATOM     25  C   UNL A   1      33.600  30.168  27.370  1.00  0.00     0.123 A 
ATOM     26  F   UNL A   1      34.064  31.334  27.840  1.00  0.00    -0.207 F 
ENDBRANCH   6  20
ENDBRANCH   3   6
ENDBRANCH   1   2
BRANCH   1  27
ATOM     27  C   UNL A   1      35.769  23.647  25.895  1.00  0.00     0.042 C 
BRANCH  27  28
ATOM     28  C   UNL A   1      37.052  23.846  25.104  1.00  0.00     0.118 C 
BRANCH  28  29
ATOM     29  N   UNL A   1      38.064  22.847  25.410  1.00  0.00    -0.352 N 
ATOM     30  C   UNL A   1      39.219  22.992  26.144  1.00  0.00     0.251 C 
ATOM     31  H   UNL A   1      37.901  21.947  25.044  1.00  0.00     0.163 HD
ATOM     32  O   UNL A   1      40.038  22.086  26.199  1.00  0.00    -0.269 OA
BRANCH  30  33
ATOM     33  C   UNL A   1      39.464  24.275  26.843  1.00  0.00     0.039 A 
ATOM     34  C   UNL A   1      38.971  24.453  28.137  1.00  0.00     0.014 A 
ATOM     35  C   UNL A   1      40.222  25.278  26.232  1.00  0.00     0.014 A 
ATOM     36  C   UNL A   1      39.299  25.614  28.844  1.00  0.00     0.010 A 
ATOM     37  C   UNL A   1      40.614  26.392  26.968  1.00  0.00     0.010 A 
ATOM     38  C   UNL A   1      40.154  26.576  28.280  1.00  0.00    -0.014 A 
BRANCH  38  39
ATOM     39  C   UNL A   1      40.578  27.781  29.039  1.00  0.00     0.031 A 
ATOM     40  C   UNL A   1      41.908  27.797  29.745  1.00  0.00     0.074 A 
ATOM     41  C   UNL A   1      39.738  28.830  29.159  1.00  0.00     0.049 A 
ATOM     42  N   UNL A   1      42.418  28.713  30.526  1.00  0.00    -0.248 NA
ATOM     43  C   UNL A   1      42.763  26.610  29.575  1.00  0.00     0.031 C 
ATOM     44  C   UNL A   1      38.398  28.914  28.572  1.00  0.00     0.029 A 
ATOM     45  N   UNL A   1      39.880  30.020  29.828  1.00  0.00    -0.354 N 
ATOM     46  C   UNL A   1      43.640  28.208  30.955  1.00  0.00     0.074 A 
ATOM     47  C   UNL A   1      43.772  26.882  30.390  1.00  0.00     0.031 C 
ATOM     48  C   UNL A   1      37.851  30.098  28.892  1.00  0.00     0.029 A 
ATOM     49  C   UNL A   1      38.781  30.842  29.737  1.00  0.00     0.049 A 
ATOM     50  H   UNL A   1      40.693  30.263  30.329  1.00  0.00     0.167 HD
ATOM     51  C   UNL A   1      44.577  28.801  31.731  1.00  0.00     0.037 A 
ATOM     52  C   UNL A   1      38.544  32.053  30.279  1.00  0.00     0.037 A 
ATOM     53  C   UNL A   1      44.457  30.134  32.263  1.00  0.00     0.049 A 
ATOM     54  C   UNL A   1      39.608  32.702  31.123  1.00  0.00     0.074 A 
ATOM     55  C   UNL A   1      45.384  30.852  32.997  1.00  0.00     0.029 A 
ATOM     56  N   UNL A   1      43.344  30.948  32.116  1.00  0.00    -0.354 N 
ATOM     57  N   UNL A   1      40.787  32.237  31.460  1.00  0.00    -0.248 NA
ATOM     58  C   UNL A   1      39.315  34.040  31.654  1.00  0.00     0.031 C 
ATOM     59  C   UNL A   1      44.814  32.085  33.333  1.00  0.00     0.029 A 
ATOM     60  C   UNL A   1      43.552  32.155  32.764  1.00  0.00     0.049 A 
ATOM     61  H   UNL A   1      42.527  30.705  31.625  1.00  0.00     0.167 HD
ATOM     62  C   UNL A   1      41.387  33.236  32.221  1.00  0.00     0.074 A 
ATOM     63  C   UNL A   1      40.444  34.334  32.285  1.00  0.00     0.031 C 
ATOM     64  C   UNL A   1      42.607  33.242  32.812  1.00  0.00     0.037 A 
BRANCH  51  65
ATOM     65  C   UNL A   1      45.822  28.018  32.046  1.00  0.00     0.058 A 
ATOM     66  C   UNL A   1      46.991  28.148  31.277  1.00  0.00     0.135 A 
ATOM     67  C   UNL A   1      45.862  27.156  33.154  1.00  0.00     0.135 A 
ATOM     68  F   UNL A   1      47.003  28.947  30.197  1.00  0.00    -0.206 F 
ATOM     69  C   UNL A   1      48.143  27.432  31.577  1.00  0.00     0.059 A 
ATOM     70  C   UNL A   1      47.014  26.450  33.490  1.00  0.00     0.059 A 
ATOM     71  F   UNL A   1      44.775  26.994  33.923  1.00  0.00    -0.206 F 
ATOM     72  C   UNL A   1      48.146  26.585  32.687  1.00  0.00     0.060 A 
BRANCH  72  73
ATOM     73  S   UNL A   1      49.655  25.671  33.070  1.00  0.00     0.124 S 
ATOM     74  O   UNL A   1      49.251  24.929  34.260  1.00  0.00    -0.237 OA
ATOM     75  O   UNL A   1      49.852  24.874  31.863  1.00  0.00    -0.237 OA
ATOM     76  O   UNL A   1      50.643  26.722  33.292  1.00  0.00    -0.744 OA
ENDBRANCH  72  73
ENDBRANCH  51  65
BRANCH  52  77
ATOM     77  C   UNL A   1      37.250  32.741  30.021  1.00  0.00     0.058 A 
ATOM     78  C   UNL A   1      36.132  32.503  30.833  1.00  0.00     0.135 A 
ATOM     79  C   UNL A   1      37.111  33.662  28.972  1.00  0.00     0.135 A 
ATOM     80  F   UNL A   1      36.213  31.625  31.846  1.00  0.00    -0.206 F 
ATOM     81  C   UNL A   1      34.917  33.143  30.608  1.00  0.00     0.059 A 
ATOM     82  C   UNL A   1      35.914  34.334  28.742  1.00  0.00     0.059 A 
ATOM     83  F   UNL A   1      38.156  33.937  28.175  1.00  0.00    -0.206 F 
ATOM     84  C   UNL A   1      34.819  34.061  29.560  1.00  0.00     0.060 A 
BRANCH  84  85
ATOM     85  S   UNL A   1      33.257  34.930  29.313  1.00  0.00     0.124 S 
ATOM     86  O   UNL A   1      32.671  34.869  30.648  1.00  0.00    -0.237 OA
ATOM     87  O   UNL A   1      33.704  36.248  28.871  1.00  0.00    -0.237 OA
ATOM     88  O   UNL A   1      32.587  34.131  28.291  1.00  0.00    -0.744 OA
ENDBRANCH  84  85
ENDBRANCH  52  77
BRANCH  64  89
ATOM     89  C   UNL A   1      43.013  34.486  33.554  1.00  0.00     0.058 A 
ATOM     90  C   UNL A   1      42.789  34.630  34.931  1.00  0.00     0.135 A 
ATOM     91  C   UNL A   1      43.690  35.519  32.886  1.00  0.00     0.135 A 
ATOM     92  F   UNL A   1      42.140  33.674  35.614  1.00  0.00    -0.206 F 
ATOM     93  C   UNL A   1      43.204  35.765  35.619  1.00  0.00     0.059 A 
ATOM     94  C   UNL A   1      44.138  36.652  33.559  1.00  0.00     0.059 A 
ATOM     95  F   UNL A   1      43.939  35.426  31.570  1.00  0.00    -0.206 F 
ATOM     96  C   UNL A   1      43.881  36.770  34.924  1.00  0.00     0.060 A 
BRANCH  96  97
ATOM     97  S   UNL A   1      44.450  38.221  35.835  1.00  0.00     0.124 S 
ATOM     98  O   UNL A   1      45.897  38.036  35.808  1.00  0.00    -0.237 OA
ATOM     99  O   UNL A   1      43.936  39.321  35.026  1.00  0.00    -0.237 OA
ATOM    100  O   UNL A   1      43.822  38.068  37.145  1.00  0.00    -0.744 OA
ENDBRANCH  96  97
ENDBRANCH  64  89
ENDBRANCH  38  39
ENDBRANCH  30  33
ENDBRANCH  28  29
ENDBRANCH  27  28
ENDBRANCH   1  27
TORSDOF 18
ENDMDL
MODEL 3
REMARK VINA RESULT:     -11.6      4.423      9.615
REMARK SMILES C[C@H](Sc1ccccn1)C(=O)N[C@H](C(=O)NCCCNC(=O)c1ccc(-c2c3nc(c(-c4c(F)cc(S(=O)(=O)[O-])cc4F)c4ccc([nH]4)c(-c4c(F)cc(S(=O)(=O)[O-])cc4F)c4nc(c(-c5c(F)cc(S(=O)(=O)[O-])cc5F)c5ccc2[nH]5)C=C4)C=C3)cc1)c1ccc(F)cc1
REMARK SMILES IDX 17 1 16 2 14 3 15 4 13 6 12 7 10 8 11 9 2 11 1 12 3 13 4 14
REMARK SMILES IDX 5 15 9 16 6 17 8 18 7 19 89 20 90 21 95 22 91 23 94 24 92 25
REMARK SMILES IDX 93 26 18 27 19 28 20 29 21 30 22 32 23 33 24 34 88 35 25 36
REMARK SMILES IDX 87 37 26 38 27 39 28 40 81 41 29 42 86 43 80 44 82 45 30 46
REMARK SMILES IDX 85 47 79 48 78 49 31 51 65 52 44 53 64 54 45 55 48 56 63 57
REMARK SMILES IDX 83 58 46 59 47 60 62 62 84 63 49 64 32 65 33 66 42 67 34 68
REMARK SMILES IDX 35 69 41 70 43 71 36 72 37 73 38 74 39 75 40 76 66 77 67 78
REMARK SMILES IDX 76 79 68 80 69 81 75 82 77 83 70 84 71 85 72 86 73 87 74 88
REMARK SMILES IDX 50 89 51 90 60 91 52 92 53 93 59 94 61 95 54 96 55 97 56 98
REMARK SMILES IDX 57 99 58 100
REMARK H PARENT 16 5 12 10 20 31 82 50 48 61
REMARK Flexibility Score: inf
ROOT
ATOM      1  C   UNL A   1      34.757  25.141  25.372  1.00  0.00     0.117 C 
ENDROOT
BRANCH   1   2
ATOM      2  N   UNL A   1      33.415  25.129  25.924  1.00  0.00    -0.354 N 
ATOM      3  C   UNL A   1      32.524  26.151  26.116  1.00  0.00     0.247 C 
ATOM      4  O   UNL A   1      31.605  25.931  26.906  1.00  0.00    -0.272 OA
ATOM      5  H   UNL A   1      33.092  24.242  26.205  1.00  0.00     0.163 HD
BRANCH   3   6
ATOM      6  C   UNL A   1      32.786  27.513  25.427  1.00  0.00     0.202 C 
BRANCH   6   7
ATOM      7  N   UNL A   1      31.669  27.830  24.512  1.00  0.00    -0.340 N 
ATOM      8  C   UNL A   1      31.166  27.254  23.394  1.00  0.00     0.234 C 
ATOM      9  O   UNL A   1      30.250  27.889  22.848  1.00  0.00    -0.274 OA
ATOM     10  H   UNL A   1      31.181  28.644  24.775  1.00  0.00     0.164 HD
BRANCH   8  11
ATOM     11  C   UNL A   1      31.598  25.923  22.779  1.00  0.00     0.139 C 
ATOM     12  C   UNL A   1      31.764  25.950  21.269  1.00  0.00     0.030 C 
BRANCH  11  13
ATOM     13  S   UNL A   1      30.574  24.494  23.244  1.00  0.00    -0.093 SA
BRANCH  13  14
ATOM     14  C   UNL A   1      31.705  23.269  23.857  1.00  0.00     0.097 A 
ATOM     15  C   UNL A   1      32.781  22.763  23.140  1.00  0.00     0.035 A 
ATOM     16  N   UNL A   1      31.355  22.769  25.068  1.00  0.00    -0.250 NA
ATOM     17  C   UNL A   1      33.505  21.695  23.673  1.00  0.00     0.004 A 
ATOM     18  C   UNL A   1      32.057  21.721  25.552  1.00  0.00     0.112 A 
ATOM     19  C   UNL A   1      33.132  21.154  24.896  1.00  0.00     0.020 A 
ENDBRANCH  13  14
ENDBRANCH  11  13
ENDBRANCH   8  11
ENDBRANCH   6   7
BRANCH   6  20
ATOM     20  C   UNL A   1      33.249  28.718  26.240  1.00  0.00    -0.016 A 
ATOM     21  C   UNL A   1      32.381  29.824  26.385  1.00  0.00     0.009 A 
ATOM     22  C   UNL A   1      34.528  28.826  26.815  1.00  0.00     0.009 A 
ATOM     23  C   UNL A   1      32.741  30.937  27.149  1.00  0.00     0.039 A 
ATOM     24  C   UNL A   1      34.887  29.935  27.585  1.00  0.00     0.039 A 
ATOM     25  C   UNL A   1      33.987  30.973  27.758  1.00  0.00     0.123 A 
ATOM     26  F   UNL A   1      34.323  32.025  28.516  1.00  0.00    -0.207 F 
ENDBRANCH   6  20
ENDBRANCH   3   6
ENDBRANCH   1   2
BRANCH   1  27
ATOM     27  C   UNL A   1      35.544  23.927  25.840  1.00  0.00     0.042 C 
BRANCH  27  28
ATOM     28  C   UNL A   1      36.783  23.643  25.003  1.00  0.00     0.118 C 
BRANCH  28  29
ATOM     29  N   UNL A   1      37.596  22.566  25.548  1.00  0.00    -0.352 N 
ATOM     30  C   UNL A   1      38.757  22.655  26.280  1.00  0.00     0.251 C 
ATOM     31  H   UNL A   1      37.272  21.653  25.369  1.00  0.00     0.163 HD
ATOM     32  O   UNL A   1      39.398  21.650  26.553  1.00  0.00    -0.269 OA
BRANCH  30  33
ATOM     33  C   UNL A   1      39.231  23.992  26.710  1.00  0.00     0.039 A 
ATOM     34  C   UNL A   1      39.033  24.394  28.032  1.00  0.00     0.014 A 
ATOM     35  C   UNL A   1      39.910  24.821  25.813  1.00  0.00     0.014 A 
ATOM     36  C   UNL A   1      39.580  25.604  28.471  1.00  0.00     0.010 A 
ATOM     37  C   UNL A   1      40.523  25.982  26.275  1.00  0.00     0.010 A 
ATOM     38  C   UNL A   1      40.361  26.389  27.607  1.00  0.00    -0.014 A 
BRANCH  38  39
ATOM     39  C   UNL A   1      41.017  27.640  28.071  1.00  0.00     0.031 A 
ATOM     40  C   UNL A   1      42.517  27.762  28.035  1.00  0.00     0.074 A 
ATOM     41  C   UNL A   1      40.272  28.635  28.596  1.00  0.00     0.049 A 
ATOM     42  N   UNL A   1      43.279  28.730  28.473  1.00  0.00    -0.248 NA
ATOM     43  C   UNL A   1      43.261  26.629  27.458  1.00  0.00     0.031 C 
ATOM     44  C   UNL A   1      38.814  28.616  28.741  1.00  0.00     0.029 A 
ATOM     45  N   UNL A   1      40.639  29.850  29.120  1.00  0.00    -0.354 N 
ATOM     46  C   UNL A   1      44.586  28.318  28.245  1.00  0.00     0.074 A 
ATOM     47  C   UNL A   1      44.517  26.989  27.677  1.00  0.00     0.031 C 
ATOM     48  C   UNL A   1      38.412  29.769  29.298  1.00  0.00     0.029 A 
ATOM     49  C   UNL A   1      39.581  30.595  29.585  1.00  0.00     0.049 A 
ATOM     50  H   UNL A   1      41.573  30.158  29.160  1.00  0.00     0.167 HD
ATOM     51  C   UNL A   1      45.739  28.992  28.468  1.00  0.00     0.037 A 
ATOM     52  C   UNL A   1      39.555  31.802  30.184  1.00  0.00     0.037 A 
ATOM     53  C   UNL A   1      45.801  30.328  29.001  1.00  0.00     0.049 A 
ATOM     54  C   UNL A   1      40.847  32.542  30.403  1.00  0.00     0.074 A 
ATOM     55  C   UNL A   1      46.915  31.125  29.193  1.00  0.00     0.029 A 
ATOM     56  N   UNL A   1      44.704  31.064  29.424  1.00  0.00    -0.354 N 
ATOM     57  N   UNL A   1      42.070  32.164  30.116  1.00  0.00    -0.248 NA
ATOM     58  C   UNL A   1      40.758  33.872  31.021  1.00  0.00     0.031 C 
ATOM     59  C   UNL A   1      46.497  32.327  29.775  1.00  0.00     0.029 A 
ATOM     60  C   UNL A   1      45.117  32.298  29.898  1.00  0.00     0.049 A 
ATOM     61  H   UNL A   1      43.771  30.754  29.394  1.00  0.00     0.167 HD
ATOM     62  C   UNL A   1      42.893  33.221  30.494  1.00  0.00     0.074 A 
ATOM     63  C   UNL A   1      42.028  34.256  31.020  1.00  0.00     0.031 C 
ATOM     64  C   UNL A   1      44.243  33.323  30.412  1.00  0.00     0.037 A 
BRANCH  51  65
ATOM     65  C   UNL A   1      47.030  28.301  28.126  1.00  0.00     0.058 A 
ATOM     66  C   UNL A   1      47.701  27.488  29.055  1.00  0.00     0.135 A 
ATOM     67  C   UNL A   1      47.585  28.418  26.841  1.00  0.00     0.135 A 
ATOM     68  F   UNL A   1      47.224  27.353  30.304  1.00  0.00    -0.206 F 
ATOM     69  C   UNL A   1      48.888  26.841  28.733  1.00  0.00     0.059 A 
ATOM     70  C   UNL A   1      48.758  27.757  26.487  1.00  0.00     0.059 A 
ATOM     71  F   UNL A   1      46.986  29.181  25.914  1.00  0.00    -0.206 F 
ATOM     72  C   UNL A   1      49.409  26.980  27.445  1.00  0.00     0.060 A 
BRANCH  72  73
ATOM     73  S   UNL A   1      50.945  26.123  27.040  1.00  0.00     0.124 S 
ATOM     74  O   UNL A   1      51.891  26.783  27.935  1.00  0.00    -0.237 OA
ATOM     75  O   UNL A   1      50.624  24.737  27.367  1.00  0.00    -0.237 OA
ATOM     76  O   UNL A   1      51.126  26.403  25.619  1.00  0.00    -0.744 OA
ENDBRANCH  72  73
ENDBRANCH  51  65
BRANCH  52  77
ATOM     77  C   UNL A   1      38.255  32.397  30.598  1.00  0.00     0.058 A 
ATOM     78  C   UNL A   1      37.717  32.140  31.867  1.00  0.00     0.135 A 
ATOM     79  C   UNL A   1      37.537  33.247  29.743  1.00  0.00     0.135 A 
ATOM     80  F   UNL A   1      38.363  31.328  32.718  1.00  0.00    -0.206 F 
ATOM     81  C   UNL A   1      36.506  32.694  32.271  1.00  0.00     0.059 A 
ATOM     82  C   UNL A   1      36.337  33.833  30.133  1.00  0.00     0.059 A 
ATOM     83  F   UNL A   1      38.018  33.537  28.524  1.00  0.00    -0.206 F 
ATOM     84  C   UNL A   1      35.824  33.543  31.397  1.00  0.00     0.060 A 
BRANCH  84  85
ATOM     85  S   UNL A   1      34.284  34.303  31.953  1.00  0.00     0.124 S 
ATOM     86  O   UNL A   1      34.773  35.503  32.622  1.00  0.00    -0.237 OA
ATOM     87  O   UNL A   1      33.575  34.517  30.694  1.00  0.00    -0.237 OA
ATOM     88  O   UNL A   1      33.703  33.285  32.823  1.00  0.00    -0.744 OA
ENDBRANCH  84  85
ENDBRANCH  52  77
BRANCH  64  89
ATOM     89  C   UNL A   1      44.871  34.610  30.869  1.00  0.00     0.058 A 
ATOM     90  C   UNL A   1      45.034  35.701  30.002  1.00  0.00     0.135 A 
ATOM     91  C   UNL A   1      45.258  34.773  32.209  1.00  0.00     0.135 A 
ATOM     92  F   UNL A   1      44.686  35.594  28.710  1.00  0.00    -0.206 F 
ATOM     93  C   UNL A   1      45.577  36.903  30.442  1.00  0.00     0.059 A 
ATOM     94  C   UNL A   1      45.779  35.975  32.678  1.00  0.00     0.059 A 
ATOM     95  F   UNL A   1      45.113  33.764  33.082  1.00  0.00    -0.206 F 
ATOM     96  C   UNL A   1      45.945  37.032  31.783  1.00  0.00     0.060 A 
BRANCH  96  97
ATOM     97  S   UNL A   1      46.612  38.609  32.351  1.00  0.00     0.124 S 
ATOM     98  O   UNL A   1      46.050  39.535  31.374  1.00  0.00    -0.237 OA
ATOM     99  O   UNL A   1      46.072  38.709  33.704  1.00  0.00    -0.237 OA
ATOM    100  O   UNL A   1      48.058  38.415  32.273  1.00  0.00    -0.744 OA
ENDBRANCH  96  97
ENDBRANCH  64  89
ENDBRANCH  38  39
ENDBRANCH  30  33
ENDBRANCH  28  29
ENDBRANCH  27  28
ENDBRANCH   1  27
TORSDOF 18
ENDMDL
