MODEL 1
REMARK VINA RESULT:     -12.1      0.000      0.000
REMARK SMILES Cc1cc(SCC(=O)NCCCNC(=O)c2ccc(-c3c4nc(c(-c5c(F)cc(S(=O)(=O)[O-])cc5F)c5ccc([nH]5)c(-c5c(F)cc(S(=O)(=O)[O-])cc5F)c5nc(c(-c6c(F)cc(S(=O)(=O)[O-])cc6F)c6ccc3[nH]6)C=C5)C=C4)cc2)c2cc(C(F)(F)F)ccc2n1
REMARK SMILES IDX 11 1 10 2 9 3 7 4 8 5 6 7 5 8 4 9 1 10 2 11 3 12 92 13 91 14
REMARK SMILES IDX 82 15 90 16 83 17 89 18 84 19 85 20 86 21 87 22 88 23 12 24
REMARK SMILES IDX 13 25 14 26 15 28 16 29 17 30 81 31 18 32 80 33 19 34 20 35
REMARK SMILES IDX 21 36 74 37 22 38 79 39 73 40 75 41 23 42 78 43 72 44 71 45
REMARK SMILES IDX 24 47 58 48 37 49 57 50 38 51 41 52 56 53 76 54 39 55 40 56
REMARK SMILES IDX 55 58 77 59 42 60 25 61 26 62 35 63 27 64 28 65 34 66 36 67
REMARK SMILES IDX 29 68 30 69 31 70 32 71 33 72 59 73 60 74 69 75 61 76 62 77
REMARK SMILES IDX 68 78 70 79 63 80 64 81 65 82 66 83 67 84 43 85 44 86 53 87
REMARK SMILES IDX 45 88 46 89 52 90 54 91 47 92 48 93 49 94 50 95 51 96
REMARK H PARENT 9 6 13 27 75 46 41 57
REMARK Flexibility Score: inf
ROOT
ATOM      1  C   UNL A   1      32.202  27.909  27.381  1.00  0.00     0.042 C 
ENDROOT
BRANCH   1   2
ATOM      2  C   UNL A   1      31.776  26.890  26.326  1.00  0.00     0.117 C 
BRANCH   2   3
ATOM      3  N   UNL A   1      31.201  25.698  26.924  1.00  0.00    -0.355 N 
ATOM      4  C   UNL A   1      31.118  24.431  26.436  1.00  0.00     0.230 C 
ATOM      5  O   UNL A   1      30.562  23.582  27.139  1.00  0.00    -0.274 OA
ATOM      6  H   UNL A   1      30.813  25.826  27.820  1.00  0.00     0.163 HD
BRANCH   4   7
ATOM      7  C   UNL A   1      31.769  24.040  25.124  1.00  0.00     0.174 C 
BRANCH   7   8
ATOM      8  S   UNL A   1      32.056  22.257  24.906  1.00  0.00    -0.115 SA
BRANCH   8   9
ATOM      9  C   UNL A   1      33.831  21.986  25.098  1.00  0.00     0.019 A 
ATOM     10  C   UNL A   1      37.026  23.839  25.916  1.00  0.00     0.067 C 
ATOM     11  C   UNL A   1      36.058  22.754  25.554  1.00  0.00     0.039 A 
ATOM     12  C   UNL A   1      34.709  23.029  25.388  1.00  0.00     0.039 A 
ATOM     13  N   UNL A   1      36.573  21.519  25.387  1.00  0.00    -0.253 NA
ATOM     14  C   UNL A   1      35.751  20.510  25.069  1.00  0.00     0.072 A 
ATOM     15  C   UNL A   1      34.358  20.671  24.916  1.00  0.00     0.014 A 
ATOM     16  C   UNL A   1      36.317  19.256  24.882  1.00  0.00     0.029 A 
ATOM     17  C   UNL A   1      33.591  19.519  24.583  1.00  0.00     0.024 A 
ATOM     18  C   UNL A   1      35.552  18.136  24.542  1.00  0.00     0.015 A 
ATOM     19  C   UNL A   1      34.174  18.256  24.388  1.00  0.00     0.056 A 
BRANCH  19  20
ATOM     20  C   UNL A   1      33.310  17.073  24.016  1.00  0.00     0.416 C 
ATOM     21  F   UNL A   1      33.957  15.889  24.190  1.00  0.00    -0.166 F 
ATOM     22  F   UNL A   1      32.187  17.004  24.785  1.00  0.00    -0.166 F 
ATOM     23  F   UNL A   1      32.883  17.097  22.727  1.00  0.00    -0.166 F 
ENDBRANCH  19  20
ENDBRANCH   8   9
ENDBRANCH   7   8
ENDBRANCH   4   7
ENDBRANCH   2   3
ENDBRANCH   1   2
BRANCH   1  24
ATOM     24  C   UNL A   1      33.512  28.632  27.070  1.00  0.00     0.118 C 
BRANCH  24  25
ATOM     25  N   UNL A   1      33.502  30.029  27.484  1.00  0.00    -0.352 N 
ATOM     26  C   UNL A   1      34.449  30.765  28.149  1.00  0.00     0.251 C 
ATOM     27  H   UNL A   1      32.683  30.523  27.250  1.00  0.00     0.163 HD
ATOM     28  O   UNL A   1      34.155  31.892  28.554  1.00  0.00    -0.269 OA
BRANCH  26  29
ATOM     29  C   UNL A   1      35.801  30.222  28.403  1.00  0.00     0.039 A 
ATOM     30  C   UNL A   1      36.735  30.233  27.363  1.00  0.00     0.014 A 
ATOM     31  C   UNL A   1      36.151  29.684  29.645  1.00  0.00     0.014 A 
ATOM     32  C   UNL A   1      38.038  29.779  27.591  1.00  0.00     0.010 A 
ATOM     33  C   UNL A   1      37.468  29.296  29.891  1.00  0.00     0.010 A 
ATOM     34  C   UNL A   1      38.430  29.351  28.870  1.00  0.00    -0.014 A 
BRANCH  34  35
ATOM     35  C   UNL A   1      39.847  29.010  29.165  1.00  0.00     0.031 A 
ATOM     36  C   UNL A   1      40.784  30.036  29.742  1.00  0.00     0.074 A 
ATOM     37  C   UNL A   1      40.307  27.783  28.844  1.00  0.00     0.049 A 
ATOM     38  N   UNL A   1      42.063  29.932  29.999  1.00  0.00    -0.248 NA
ATOM     39  C   UNL A   1      40.217  31.358  30.051  1.00  0.00     0.031 C 
ATOM     40  C   UNL A   1      39.510  26.715  28.232  1.00  0.00     0.029 A 
ATOM     41  N   UNL A   1      41.556  27.227  28.971  1.00  0.00    -0.354 N 
ATOM     42  C   UNL A   1      42.457  31.172  30.489  1.00  0.00     0.074 A 
ATOM     43  C   UNL A   1      41.289  32.027  30.453  1.00  0.00     0.031 C 
ATOM     44  C   UNL A   1      40.284  25.633  28.054  1.00  0.00     0.029 A 
ATOM     45  C   UNL A   1      41.640  25.939  28.495  1.00  0.00     0.049 A 
ATOM     46  H   UNL A   1      42.320  27.705  29.367  1.00  0.00     0.167 HD
ATOM     47  C   UNL A   1      43.674  31.556  30.943  1.00  0.00     0.037 A 
ATOM     48  C   UNL A   1      42.693  25.103  28.405  1.00  0.00     0.037 A 
ATOM     49  C   UNL A   1      44.827  30.692  30.993  1.00  0.00     0.049 A 
ATOM     50  C   UNL A   1      44.037  25.558  28.905  1.00  0.00     0.074 A 
ATOM     51  C   UNL A   1      46.085  30.970  31.499  1.00  0.00     0.029 A 
ATOM     52  N   UNL A   1      44.869  29.390  30.516  1.00  0.00    -0.354 N 
ATOM     53  N   UNL A   1      44.370  26.710  29.438  1.00  0.00    -0.248 NA
ATOM     54  C   UNL A   1      45.146  24.601  28.798  1.00  0.00     0.031 C 
ATOM     55  C   UNL A   1      46.903  29.858  31.277  1.00  0.00     0.029 A 
ATOM     56  C   UNL A   1      46.140  28.864  30.687  1.00  0.00     0.049 A 
ATOM     57  H   UNL A   1      44.109  28.911  30.114  1.00  0.00     0.167 HD
ATOM     58  C   UNL A   1      45.722  26.607  29.749  1.00  0.00     0.074 A 
ATOM     59  C   UNL A   1      46.139  25.275  29.364  1.00  0.00     0.031 C 
ATOM     60  C   UNL A   1      46.543  27.534  30.301  1.00  0.00     0.037 A 
BRANCH  47  61
ATOM     61  C   UNL A   1      43.833  32.972  31.429  1.00  0.00     0.058 A 
ATOM     62  C   UNL A   1      44.135  34.023  30.549  1.00  0.00     0.135 A 
ATOM     63  C   UNL A   1      43.610  33.292  32.778  1.00  0.00     0.135 A 
ATOM     64  F   UNL A   1      44.371  33.774  29.252  1.00  0.00    -0.206 F 
ATOM     65  C   UNL A   1      44.228  35.339  30.993  1.00  0.00     0.059 A 
ATOM     66  C   UNL A   1      43.671  34.605  33.239  1.00  0.00     0.059 A 
ATOM     67  F   UNL A   1      43.318  32.326  33.663  1.00  0.00    -0.206 F 
ATOM     68  C   UNL A   1      43.990  35.620  32.340  1.00  0.00     0.060 A 
BRANCH  68  69
ATOM     69  S   UNL A   1      44.088  37.337  32.890  1.00  0.00     0.124 S 
ATOM     70  O   UNL A   1      43.975  38.056  31.625  1.00  0.00    -0.237 OA
ATOM     71  O   UNL A   1      42.939  37.443  33.784  1.00  0.00    -0.237 OA
ATOM     72  O   UNL A   1      45.393  37.413  33.539  1.00  0.00    -0.744 OA
ENDBRANCH  68  69
ENDBRANCH  47  61
BRANCH  48  73
ATOM     73  C   UNL A   1      42.519  23.746  27.817  1.00  0.00     0.058 A 
ATOM     74  C   UNL A   1      42.413  22.610  28.634  1.00  0.00     0.135 A 
ATOM     75  C   UNL A   1      42.460  23.557  26.427  1.00  0.00     0.135 A 
ATOM     76  F   UNL A   1      42.469  22.737  29.968  1.00  0.00    -0.206 F 
ATOM     77  C   UNL A   1      42.279  21.335  28.096  1.00  0.00     0.059 A 
ATOM     78  C   UNL A   1      42.297  22.295  25.865  1.00  0.00     0.059 A 
ATOM     79  F   UNL A   1      42.541  24.612  25.601  1.00  0.00    -0.206 F 
ATOM     80  C   UNL A   1      42.221  21.188  26.709  1.00  0.00     0.060 A 
BRANCH  80  81
ATOM     81  S   UNL A   1      42.017  19.529  26.022  1.00  0.00     0.124 S 
ATOM     82  O   UNL A   1      40.579  19.484  25.789  1.00  0.00    -0.237 OA
ATOM     83  O   UNL A   1      42.858  19.586  24.830  1.00  0.00    -0.237 OA
ATOM     84  O   UNL A   1      42.513  18.662  27.087  1.00  0.00    -0.744 OA
ENDBRANCH  80  81
ENDBRANCH  48  73
BRANCH  60  85
ATOM     85  C   UNL A   1      47.973  27.134  30.549  1.00  0.00     0.058 A 
ATOM     86  C   UNL A   1      48.963  27.282  29.564  1.00  0.00     0.135 A 
ATOM     87  C   UNL A   1      48.367  26.640  31.803  1.00  0.00     0.135 A 
ATOM     88  F   UNL A   1      48.639  27.743  28.345  1.00  0.00    -0.206 F 
ATOM     89  C   UNL A   1      50.287  26.933  29.806  1.00  0.00     0.059 A 
ATOM     90  C   UNL A   1      49.691  26.313  32.077  1.00  0.00     0.059 A 
ATOM     91  F   UNL A   1      47.463  26.487  32.785  1.00  0.00    -0.206 F 
ATOM     92  C   UNL A   1      50.643  26.452  31.068  1.00  0.00     0.060 A 
BRANCH  92  93
ATOM     93  S   UNL A   1      52.371  26.035  31.379  1.00  0.00     0.124 S 
ATOM     94  O   UNL A   1      52.957  26.201  30.052  1.00  0.00    -0.237 OA
ATOM     95  O   UNL A   1      52.759  27.032  32.372  1.00  0.00    -0.237 OA
ATOM     96  O   UNL A   1      52.308  24.661  31.869  1.00  0.00    -0.744 OA
ENDBRANCH  92  93
ENDBRANCH  60  85
ENDBRANCH  34  35
ENDBRANCH  26  29
ENDBRANCH  24  25
ENDBRANCH   1  24
TORSDOF 16
ENDMDL
MODEL 2
REMARK VINA RESULT:     -11.9      4.708     10.303
REMARK SMILES Cc1cc(SCC(=O)NCCCNC(=O)c2ccc(-c3c4nc(c(-c5c(F)cc(S(=O)(=O)[O-])cc5F)c5ccc([nH]5)c(-c5c(F)cc(S(=O)(=O)[O-])cc5F)c5nc(c(-c6c(F)cc(S(=O)(=O)[O-])cc6F)c6ccc3[nH]6)C=C5)C=C4)cc2)c2cc(C(F)(F)F)ccc2n1
REMARK SMILES IDX 11 1 10 2 9 3 7 4 8 5 6 7 5 8 4 9 1 10 2 11 3 12 92 13 91 14
REMARK SMILES IDX 82 15 90 16 83 17 89 18 84 19 85 20 86 21 87 22 88 23 12 24
REMARK SMILES IDX 13 25 14 26 15 28 16 29 17 30 81 31 18 32 80 33 19 34 20 35
REMARK SMILES IDX 21 36 74 37 22 38 79 39 73 40 75 41 23 42 78 43 72 44 71 45
REMARK SMILES IDX 24 47 58 48 37 49 57 50 38 51 41 52 56 53 76 54 39 55 40 56
REMARK SMILES IDX 55 58 77 59 42 60 25 61 26 62 35 63 27 64 28 65 34 66 36 67
REMARK SMILES IDX 29 68 30 69 31 70 32 71 33 72 59 73 60 74 69 75 61 76 62 77
REMARK SMILES IDX 68 78 70 79 63 80 64 81 65 82 66 83 67 84 43 85 44 86 53 87
REMARK SMILES IDX 45 88 46 89 52 90 54 91 47 92 48 93 49 94 50 95 51 96
REMARK H PARENT 9 6 13 27 75 46 41 57
REMARK Flexibility Score: inf
ROOT
ATOM      1  C   UNL A   1      40.952  22.096  27.246  1.00  0.00     0.042 C 
ENDROOT
BRANCH   1   2
ATOM      2  C   UNL A   1      39.598  22.580  26.731  1.00  0.00     0.117 C 
BRANCH   2   3
ATOM      3  N   UNL A   1      39.049  21.687  25.726  1.00  0.00    -0.355 N 
ATOM      4  C   UNL A   1      37.770  21.559  25.278  1.00  0.00     0.230 C 
ATOM      5  O   UNL A   1      37.549  20.704  24.414  1.00  0.00    -0.274 OA
ATOM      6  H   UNL A   1      39.701  21.082  25.304  1.00  0.00     0.163 HD
BRANCH   4   7
ATOM      7  C   UNL A   1      36.669  22.491  25.741  1.00  0.00     0.174 C 
BRANCH   7   8
ATOM      8  S   UNL A   1      35.171  21.668  26.363  1.00  0.00    -0.115 SA
BRANCH   8   9
ATOM      9  C   UNL A   1      33.919  21.813  25.071  1.00  0.00     0.019 A 
ATOM     10  C   UNL A   1      31.752  24.385  23.338  1.00  0.00     0.067 C 
ATOM     11  C   UNL A   1      32.384  23.085  23.736  1.00  0.00     0.039 A 
ATOM     12  C   UNL A   1      33.317  23.031  24.760  1.00  0.00     0.039 A 
ATOM     13  N   UNL A   1      31.983  21.990  23.060  1.00  0.00    -0.253 NA
ATOM     14  C   UNL A   1      32.520  20.802  23.370  1.00  0.00     0.072 A 
ATOM     15  C   UNL A   1      33.507  20.640  24.366  1.00  0.00     0.014 A 
ATOM     16  C   UNL A   1      32.069  19.691  22.671  1.00  0.00     0.029 A 
ATOM     17  C   UNL A   1      34.004  19.326  24.599  1.00  0.00     0.024 A 
ATOM     18  C   UNL A   1      32.557  18.405  22.919  1.00  0.00     0.015 A 
ATOM     19  C   UNL A   1      33.535  18.208  23.890  1.00  0.00     0.056 A 
BRANCH  19  20
ATOM     20  C   UNL A   1      34.087  16.834  24.195  1.00  0.00     0.416 C 
ATOM     21  F   UNL A   1      34.331  16.116  23.066  1.00  0.00    -0.166 F 
ATOM     22  F   UNL A   1      35.274  16.902  24.862  1.00  0.00    -0.166 F 
ATOM     23  F   UNL A   1      33.264  16.077  24.966  1.00  0.00    -0.166 F 
ENDBRANCH  19  20
ENDBRANCH   8   9
ENDBRANCH   7   8
ENDBRANCH   4   7
ENDBRANCH   2   3
ENDBRANCH   1   2
BRANCH   1  24
ATOM     24  C   UNL A   1      42.065  23.142  27.181  1.00  0.00     0.118 C 
BRANCH  24  25
ATOM     25  N   UNL A   1      41.920  24.055  26.054  1.00  0.00    -0.352 N 
ATOM     26  C   UNL A   1      41.589  25.386  26.026  1.00  0.00     0.251 C 
ATOM     27  H   UNL A   1      42.086  23.651  25.172  1.00  0.00     0.163 HD
ATOM     28  O   UNL A   1      41.351  25.920  24.941  1.00  0.00    -0.269 OA
BRANCH  26  29
ATOM     29  C   UNL A   1      41.492  26.177  27.272  1.00  0.00     0.039 A 
ATOM     30  C   UNL A   1      42.499  27.103  27.558  1.00  0.00     0.014 A 
ATOM     31  C   UNL A   1      40.435  26.001  28.169  1.00  0.00     0.014 A 
ATOM     32  C   UNL A   1      42.404  27.906  28.699  1.00  0.00     0.010 A 
ATOM     33  C   UNL A   1      40.305  26.849  29.269  1.00  0.00     0.010 A 
ATOM     34  C   UNL A   1      41.282  27.819  29.540  1.00  0.00    -0.014 A 
BRANCH  34  35
ATOM     35  C   UNL A   1      41.095  28.769  30.670  1.00  0.00     0.031 A 
ATOM     36  C   UNL A   1      41.919  28.647  31.923  1.00  0.00     0.074 A 
ATOM     37  C   UNL A   1      40.126  29.704  30.589  1.00  0.00     0.049 A 
ATOM     38  N   UNL A   1      41.844  29.343  33.029  1.00  0.00    -0.248 NA
ATOM     39  C   UNL A   1      42.945  27.593  31.948  1.00  0.00     0.031 C 
ATOM     40  C   UNL A   1      39.226  29.891  29.447  1.00  0.00     0.029 A 
ATOM     41  N   UNL A   1      39.723  30.663  31.484  1.00  0.00    -0.354 N 
ATOM     42  C   UNL A   1      42.803  28.809  33.883  1.00  0.00     0.074 A 
ATOM     43  C   UNL A   1      43.417  27.701  33.183  1.00  0.00     0.031 C 
ATOM     44  C   UNL A   1      38.392  30.909  29.704  1.00  0.00     0.029 A 
ATOM     45  C   UNL A   1      38.663  31.421  31.043  1.00  0.00     0.049 A 
ATOM     46  H   UNL A   1      40.152  30.797  32.359  1.00  0.00     0.167 HD
ATOM     47  C   UNL A   1      43.149  29.217  35.127  1.00  0.00     0.037 A 
ATOM     48  C   UNL A   1      37.972  32.405  31.652  1.00  0.00     0.037 A 
ATOM     49  C   UNL A   1      42.546  30.333  35.811  1.00  0.00     0.049 A 
ATOM     50  C   UNL A   1      38.370  32.830  33.039  1.00  0.00     0.074 A 
ATOM     51  C   UNL A   1      42.875  30.864  37.046  1.00  0.00     0.029 A 
ATOM     52  N   UNL A   1      41.485  31.086  35.326  1.00  0.00    -0.354 N 
ATOM     53  N   UNL A   1      39.332  32.363  33.800  1.00  0.00    -0.248 NA
ATOM     54  C   UNL A   1      37.595  33.917  33.651  1.00  0.00     0.031 C 
ATOM     55  C   UNL A   1      41.980  31.899  37.332  1.00  0.00     0.029 A 
ATOM     56  C   UNL A   1      41.129  32.054  36.250  1.00  0.00     0.049 A 
ATOM     57  H   UNL A   1      41.050  30.950  34.453  1.00  0.00     0.167 HD
ATOM     58  C   UNL A   1      39.290  33.115  34.969  1.00  0.00     0.074 A 
ATOM     59  C   UNL A   1      38.223  34.080  34.808  1.00  0.00     0.031 C 
ATOM     60  C   UNL A   1      40.065  33.012  36.078  1.00  0.00     0.037 A 
BRANCH  47  61
ATOM     61  C   UNL A   1      44.236  28.458  35.842  1.00  0.00     0.058 A 
ATOM     62  C   UNL A   1      43.946  27.370  36.680  1.00  0.00     0.135 A 
ATOM     63  C   UNL A   1      45.587  28.778  35.631  1.00  0.00     0.135 A 
ATOM     64  F   UNL A   1      42.673  27.027  36.928  1.00  0.00    -0.206 F 
ATOM     65  C   UNL A   1      44.956  26.636  37.296  1.00  0.00     0.059 A 
ATOM     66  C   UNL A   1      46.614  28.042  36.215  1.00  0.00     0.059 A 
ATOM     67  F   UNL A   1      45.921  29.810  34.839  1.00  0.00    -0.206 F 
ATOM     68  C   UNL A   1      46.288  26.978  37.054  1.00  0.00     0.060 A 
BRANCH  68  69
ATOM     69  S   UNL A   1      47.584  25.998  37.841  1.00  0.00     0.124 S 
ATOM     70  O   UNL A   1      46.977  24.671  37.857  1.00  0.00    -0.237 OA
ATOM     71  O   UNL A   1      48.705  26.171  36.923  1.00  0.00    -0.237 OA
ATOM     72  O   UNL A   1      47.743  26.629  39.147  1.00  0.00    -0.744 OA
ENDBRANCH  68  69
ENDBRANCH  47  61
BRANCH  48  73
ATOM     73  C   UNL A   1      36.832  33.059  30.954  1.00  0.00     0.058 A 
ATOM     74  C   UNL A   1      37.049  33.991  29.927  1.00  0.00     0.135 A 
ATOM     75  C   UNL A   1      35.502  32.768  31.300  1.00  0.00     0.135 A 
ATOM     76  F   UNL A   1      38.300  34.308  29.563  1.00  0.00    -0.206 F 
ATOM     77  C   UNL A   1      35.992  34.630  29.287  1.00  0.00     0.059 A 
ATOM     78  C   UNL A   1      34.428  33.371  30.654  1.00  0.00     0.059 A 
ATOM     79  F   UNL A   1      35.240  31.871  32.263  1.00  0.00    -0.206 F 
ATOM     80  C   UNL A   1      34.684  34.311  29.657  1.00  0.00     0.060 A 
BRANCH  80  81
ATOM     81  S   UNL A   1      33.320  35.125  28.798  1.00  0.00     0.124 S 
ATOM     82  O   UNL A   1      34.020  36.168  28.058  1.00  0.00    -0.237 OA
ATOM     83  O   UNL A   1      32.768  34.035  27.999  1.00  0.00    -0.237 OA
ATOM     84  O   UNL A   1      32.465  35.587  29.888  1.00  0.00    -0.744 OA
ENDBRANCH  80  81
ENDBRANCH  48  73
BRANCH  60  85
ATOM     85  C   UNL A   1      39.807  33.985  37.197  1.00  0.00     0.058 A 
ATOM     86  C   UNL A   1      38.981  33.658  38.284  1.00  0.00     0.135 A 
ATOM     87  C   UNL A   1      40.432  35.243  37.204  1.00  0.00     0.135 A 
ATOM     88  F   UNL A   1      38.354  32.472  38.323  1.00  0.00    -0.206 F 
ATOM     89  C   UNL A   1      38.765  34.553  39.327  1.00  0.00     0.059 A 
ATOM     90  C   UNL A   1      40.254  36.141  38.251  1.00  0.00     0.059 A 
ATOM     91  F   UNL A   1      41.239  35.604  36.193  1.00  0.00    -0.206 F 
ATOM     92  C   UNL A   1      39.409  35.791  39.303  1.00  0.00     0.060 A 
BRANCH  92  93
ATOM     93  S   UNL A   1      39.146  36.929  40.680  1.00  0.00     0.124 S 
ATOM     94  O   UNL A   1      40.515  37.319  41.005  1.00  0.00    -0.237 OA
ATOM     95  O   UNL A   1      38.318  37.967  40.074  1.00  0.00    -0.237 OA
ATOM     96  O   UNL A   1      38.475  36.105  41.681  1.00  0.00    -0.744 OA
ENDBRANCH  92  93
ENDBRANCH  60  85
ENDBRANCH  34  35
ENDBRANCH  26  29
ENDBRANCH  24  25
ENDBRANCH   1  24
TORSDOF 16
ENDMDL
MODEL 3
REMARK VINA RESULT:     -11.8      4.285      6.024
REMARK SMILES Cc1cc(SCC(=O)NCCCNC(=O)c2ccc(-c3c4nc(c(-c5c(F)cc(S(=O)(=O)[O-])cc5F)c5ccc([nH]5)c(-c5c(F)cc(S(=O)(=O)[O-])cc5F)c5nc(c(-c6c(F)cc(S(=O)(=O)[O-])cc6F)c6ccc3[nH]6)C=C5)C=C4)cc2)c2cc(C(F)(F)F)ccc2n1
REMARK SMILES IDX 11 1 10 2 9 3 7 4 8 5 6 7 5 8 4 9 1 10 2 11 3 12 92 13 91 14
REMARK SMILES IDX 82 15 90 16 83 17 89 18 84 19 85 20 86 21 87 22 88 23 12 24
REMARK SMILES IDX 13 25 14 26 15 28 16 29 17 30 81 31 18 32 80 33 19 34 20 35
REMARK SMILES IDX 21 36 74 37 22 38 79 39 73 40 75 41 23 42 78 43 72 44 71 45
REMARK SMILES IDX 24 47 58 48 37 49 57 50 38 51 41 52 56 53 76 54 39 55 40 56
REMARK SMILES IDX 55 58 77 59 42 60 25 61 26 62 35 63 27 64 28 65 34 66 36 67
REMARK SMILES IDX 29 68 30 69 31 70 32 71 33 72 59 73 60 74 69 75 61 76 62 77
REMARK SMILES IDX 68 78 70 79 63 80 64 81 65 82 66 83 67 84 43 85 44 86 53 87
REMARK SMILES IDX 45 88 46 89 52 90 54 91 47 92 48 93 49 94 50 95 51 96
REMARK H PARENT 9 6 13 27 75 46 41 57
REMARK Flexibility Score: inf
ROOT
ATOM      1  C   UNL A   1      35.478  32.867  28.196  1.00  0.00     0.042 C 
ENDROOT
BRANCH   1   2
ATOM      2  C   UNL A   1      34.927  31.510  27.767  1.00  0.00     0.117 C 
BRANCH   2   3
ATOM      3  N   UNL A   1      33.493  31.553  27.543  1.00  0.00    -0.355 N 
ATOM      4  C   UNL A   1      32.688  30.687  26.869  1.00  0.00     0.230 C 
ATOM      5  O   UNL A   1      31.484  30.954  26.805  1.00  0.00    -0.274 OA
ATOM      6  H   UNL A   1      33.031  32.327  27.938  1.00  0.00     0.163 HD
BRANCH   4   7
ATOM      7  C   UNL A   1      33.221  29.387  26.300  1.00  0.00     0.174 C 
BRANCH   7   8
ATOM      8  S   UNL A   1      33.027  29.195  24.501  1.00  0.00    -0.115 SA
BRANCH   8   9
ATOM      9  C   UNL A   1      31.754  27.942  24.243  1.00  0.00     0.019 A 
ATOM     10  C   UNL A   1      31.237  24.195  24.351  1.00  0.00     0.067 C 
ATOM     11  C   UNL A   1      30.997  25.665  24.182  1.00  0.00     0.039 A 
ATOM     12  C   UNL A   1      32.024  26.579  24.362  1.00  0.00     0.039 A 
ATOM     13  N   UNL A   1      29.749  26.035  23.835  1.00  0.00    -0.253 NA
ATOM     14  C   UNL A   1      29.477  27.337  23.677  1.00  0.00     0.072 A 
ATOM     15  C   UNL A   1      30.437  28.353  23.875  1.00  0.00     0.014 A 
ATOM     16  C   UNL A   1      28.188  27.683  23.296  1.00  0.00     0.029 A 
ATOM     17  C   UNL A   1      30.022  29.702  23.681  1.00  0.00     0.024 A 
ATOM     18  C   UNL A   1      27.799  29.011  23.098  1.00  0.00     0.015 A 
ATOM     19  C   UNL A   1      28.717  30.040  23.289  1.00  0.00     0.056 A 
BRANCH  19  20
ATOM     20  C   UNL A   1      28.341  31.489  23.080  1.00  0.00     0.416 C 
ATOM     21  F   UNL A   1      27.145  31.797  23.650  1.00  0.00    -0.166 F 
ATOM     22  F   UNL A   1      29.253  32.334  23.640  1.00  0.00    -0.166 F 
ATOM     23  F   UNL A   1      28.251  31.844  21.772  1.00  0.00    -0.166 F 
ENDBRANCH  19  20
ENDBRANCH   8   9
ENDBRANCH   7   8
ENDBRANCH   4   7
ENDBRANCH   2   3
ENDBRANCH   1   2
BRANCH   1  24
ATOM     24  C   UNL A   1      36.277  32.843  29.500  1.00  0.00     0.118 C 
BRANCH  24  25
ATOM     25  N   UNL A   1      35.907  31.735  30.371  1.00  0.00    -0.352 N 
ATOM     26  C   UNL A   1      36.562  30.560  30.641  1.00  0.00     0.251 C 
ATOM     27  H   UNL A   1      35.049  31.848  30.840  1.00  0.00     0.163 HD
ATOM     28  O   UNL A   1      35.976  29.683  31.279  1.00  0.00    -0.269 OA
BRANCH  26  29
ATOM     29  C   UNL A   1      37.941  30.325  30.163  1.00  0.00     0.039 A 
ATOM     30  C   UNL A   1      38.986  30.352  31.090  1.00  0.00     0.014 A 
ATOM     31  C   UNL A   1      38.218  30.103  28.811  1.00  0.00     0.014 A 
ATOM     32  C   UNL A   1      40.294  30.076  30.677  1.00  0.00     0.010 A 
ATOM     33  C   UNL A   1      39.509  29.760  28.411  1.00  0.00     0.010 A 
ATOM     34  C   UNL A   1      40.560  29.731  29.341  1.00  0.00    -0.014 A 
BRANCH  34  35
ATOM     35  C   UNL A   1      41.916  29.289  28.919  1.00  0.00     0.031 A 
ATOM     36  C   UNL A   1      43.049  30.273  28.815  1.00  0.00     0.074 A 
ATOM     37  C   UNL A   1      42.106  28.002  28.561  1.00  0.00     0.049 A 
ATOM     38  N   UNL A   1      44.275  30.076  28.402  1.00  0.00    -0.248 NA
ATOM     39  C   UNL A   1      42.765  31.662  29.206  1.00  0.00     0.031 C 
ATOM     40  C   UNL A   1      41.073  26.962  28.569  1.00  0.00     0.029 A 
ATOM     41  N   UNL A   1      43.224  27.349  28.106  1.00  0.00    -0.354 N 
ATOM     42  C   UNL A   1      44.906  31.314  28.472  1.00  0.00     0.074 A 
ATOM     43  C   UNL A   1      43.914  32.264  28.927  1.00  0.00     0.031 C 
ATOM     44  C   UNL A   1      41.610  25.803  28.157  1.00  0.00     0.029 A 
ATOM     45  C   UNL A   1      43.010  26.022  27.813  1.00  0.00     0.049 A 
ATOM     46  H   UNL A   1      44.099  27.789  28.001  1.00  0.00     0.167 HD
ATOM     47  C   UNL A   1      46.196  31.623  28.200  1.00  0.00     0.037 A 
ATOM     48  C   UNL A   1      43.840  25.089  27.305  1.00  0.00     0.037 A 
ATOM     49  C   UNL A   1      47.184  30.667  27.765  1.00  0.00     0.049 A 
ATOM     50  C   UNL A   1      45.265  25.463  27.000  1.00  0.00     0.074 A 
ATOM     51  C   UNL A   1      48.531  30.872  27.528  1.00  0.00     0.029 A 
ATOM     52  N   UNL A   1      46.932  29.330  27.493  1.00  0.00    -0.354 N 
ATOM     53  N   UNL A   1      45.862  26.622  27.148  1.00  0.00    -0.248 NA
ATOM     54  C   UNL A   1      46.130  24.404  26.464  1.00  0.00     0.031 C 
ATOM     55  C   UNL A   1      49.083  29.676  27.061  1.00  0.00     0.029 A 
ATOM     56  C   UNL A   1      48.092  28.708  27.061  1.00  0.00     0.049 A 
ATOM     57  H   UNL A   1      46.057  28.888  27.592  1.00  0.00     0.167 HD
ATOM     58  C   UNL A   1      47.178  26.424  26.744  1.00  0.00     0.074 A 
ATOM     59  C   UNL A   1      47.295  25.032  26.366  1.00  0.00     0.031 C 
ATOM     60  C   UNL A   1      48.197  27.318  26.689  1.00  0.00     0.037 A 
BRANCH  47  61
ATOM     61  C   UNL A   1      46.629  33.056  28.363  1.00  0.00     0.058 A 
ATOM     62  C   UNL A   1      46.554  33.974  27.304  1.00  0.00     0.135 A 
ATOM     63  C   UNL A   1      47.054  33.534  29.613  1.00  0.00     0.135 A 
ATOM     64  F   UNL A   1      46.167  33.570  26.084  1.00  0.00    -0.206 F 
ATOM     65  C   UNL A   1      46.904  35.311  27.473  1.00  0.00     0.059 A 
ATOM     66  C   UNL A   1      47.382  34.873  29.812  1.00  0.00     0.059 A 
ATOM     67  F   UNL A   1      47.144  32.700  30.661  1.00  0.00    -0.206 F 
ATOM     68  C   UNL A   1      47.313  35.751  28.733  1.00  0.00     0.060 A 
BRANCH  68  69
ATOM     69  S   UNL A   1      47.736  37.494  28.939  1.00  0.00     0.124 S 
ATOM     70  O   UNL A   1      47.020  38.102  27.822  1.00  0.00    -0.237 OA
ATOM     71  O   UNL A   1      47.205  37.789  30.266  1.00  0.00    -0.237 OA
ATOM     72  O   UNL A   1      49.191  37.507  28.831  1.00  0.00    -0.744 OA
ENDBRANCH  68  69
ENDBRANCH  47  61
BRANCH  48  73
ATOM     73  C   UNL A   1      43.344  23.708  27.055  1.00  0.00     0.058 A 
ATOM     74  C   UNL A   1      43.184  22.793  28.107  1.00  0.00     0.135 A 
ATOM     75  C   UNL A   1      43.025  23.273  25.759  1.00  0.00     0.135 A 
ATOM     76  F   UNL A   1      43.482  23.158  29.363  1.00  0.00    -0.206 F 
ATOM     77  C   UNL A   1      42.750  21.491  27.881  1.00  0.00     0.059 A 
ATOM     78  C   UNL A   1      42.560  21.986  25.511  1.00  0.00     0.059 A 
ATOM     79  F   UNL A   1      43.144  24.114  24.719  1.00  0.00    -0.206 F 
ATOM     80  C   UNL A   1      42.439  21.097  26.579  1.00  0.00     0.060 A 
BRANCH  80  81
ATOM     81  S   UNL A   1      41.847  19.413  26.302  1.00  0.00     0.124 S 
ATOM     82  O   UNL A   1      42.560  19.049  25.084  1.00  0.00    -0.237 OA
ATOM     83  O   UNL A   1      42.275  18.735  27.522  1.00  0.00    -0.237 OA
ATOM     84  O   UNL A   1      40.403  19.584  26.163  1.00  0.00    -0.744 OA
ENDBRANCH  80  81
ENDBRANCH  48  73
BRANCH  60  85
ATOM     85  C   UNL A   1      49.538  26.813  26.227  1.00  0.00     0.058 A 
ATOM     86  C   UNL A   1      49.945  26.919  24.888  1.00  0.00     0.135 A 
ATOM     87  C   UNL A   1      50.445  26.260  27.146  1.00  0.00     0.135 A 
ATOM     88  F   UNL A   1      49.114  27.432  23.968  1.00  0.00    -0.206 F 
ATOM     89  C   UNL A   1      51.195  26.472  24.472  1.00  0.00     0.059 A 
ATOM     90  C   UNL A   1      51.711  25.836  26.757  1.00  0.00     0.059 A 
ATOM     91  F   UNL A   1      50.111  26.145  28.442  1.00  0.00    -0.206 F 
ATOM     92  C   UNL A   1      52.073  25.934  25.415  1.00  0.00     0.060 A 
BRANCH  92  93
ATOM     93  S   UNL A   1      53.704  25.390  24.867  1.00  0.00     0.124 S 
ATOM     94  O   UNL A   1      53.832  26.083  23.588  1.00  0.00    -0.237 OA
ATOM     95  O   UNL A   1      54.571  25.873  25.938  1.00  0.00    -0.237 OA
ATOM     96  O   UNL A   1      53.571  23.939  24.783  1.00  0.00    -0.744 OA
ENDBRANCH  92  93
ENDBRANCH  60  85
ENDBRANCH  34  35
ENDBRANCH  26  29
ENDBRANCH  24  25
ENDBRANCH   1  24
TORSDOF 16
ENDMDL
