MODEL 1
REMARK VINA RESULT:     -11.6      0.000      0.000
REMARK SMILES O=C(NCCCNC(=O)[C@@H]1C=C[C@@H](Nc2ccc3ccccc3n2)C1)c1ccc(-c2c3nc(c(-c4c(F)cc(S(=O)(=O)[O-])cc4F)c4ccc([nH]4)c(-c4c(F)cc(S(=O)(=O)[O-])cc4F)c4nc(c(-c5c(F)cc(S(=O)(=O)[O-])cc5F)c5ccc2[nH]5)C=C4)C=C3)cc1
REMARK SMILES IDX 4 1 3 2 1 3 2 4 26 6 27 7 91 8 28 9 90 10 29 11 30 12 31 13
REMARK SMILES IDX 84 14 32 15 89 16 83 17 85 18 33 19 88 20 82 21 81 22 34 24
REMARK SMILES IDX 68 25 47 26 67 27 48 28 51 29 66 30 86 31 49 32 50 33 65 35
REMARK SMILES IDX 87 36 52 37 35 38 36 39 45 40 37 41 38 42 44 43 46 44 39 45
REMARK SMILES IDX 40 46 41 47 42 48 43 49 69 50 70 51 79 52 71 53 72 54 78 55
REMARK SMILES IDX 80 56 73 57 74 58 75 59 76 60 77 61 53 62 54 63 63 64 55 65
REMARK SMILES IDX 56 66 62 67 64 68 57 69 58 70 59 71 60 72 61 73 5 74 6 75
REMARK SMILES IDX 7 76 8 77 9 79 10 80 11 81 25 82 12 83 13 84 14 85 15 87
REMARK SMILES IDX 16 88 24 89 17 90 23 91 18 92 22 93 19 94 21 95 20 96
REMARK H PARENT 3 5 85 23 51 34 7 78 14 86
REMARK Flexibility Score: inf
ROOT
ATOM      1  C   UNL A   1      34.887  32.474  29.077  1.00  0.00     0.118 C 
ENDROOT
BRANCH   1   2
ATOM      2  N   UNL A   1      34.222  31.258  28.626  1.00  0.00    -0.352 N 
ATOM      3  O   UNL A   1      34.023  29.267  27.602  1.00  0.00    -0.269 OA
ATOM      4  C   UNL A   1      34.755  30.078  28.179  1.00  0.00     0.251 C 
ATOM      5  H   UNL A   1      33.238  31.289  28.644  1.00  0.00     0.163 HD
BRANCH   4   6
ATOM      6  C   UNL A   1      36.187  29.770  28.374  1.00  0.00     0.039 A 
ATOM      7  C   UNL A   1      37.111  29.994  27.350  1.00  0.00     0.014 A 
ATOM      8  C   UNL A   1      36.625  29.304  29.617  1.00  0.00     0.014 A 
ATOM      9  C   UNL A   1      38.442  29.628  27.522  1.00  0.00     0.010 A 
ATOM     10  C   UNL A   1      37.979  29.021  29.818  1.00  0.00     0.010 A 
ATOM     11  C   UNL A   1      38.895  29.160  28.764  1.00  0.00    -0.014 A 
BRANCH  11  12
ATOM     12  C   UNL A   1      40.341  28.883  28.960  1.00  0.00     0.031 A 
ATOM     13  C   UNL A   1      40.931  27.551  28.587  1.00  0.00     0.074 A 
ATOM     14  C   UNL A   1      41.122  29.852  29.475  1.00  0.00     0.049 A 
ATOM     15  N   UNL A   1      42.165  27.134  28.714  1.00  0.00    -0.248 NA
ATOM     16  C   UNL A   1      40.018  26.556  28.005  1.00  0.00     0.031 C 
ATOM     17  C   UNL A   1      40.656  31.181  29.881  1.00  0.00     0.029 A 
ATOM     18  N   UNL A   1      42.467  29.879  29.741  1.00  0.00    -0.354 N 
ATOM     19  C   UNL A   1      42.175  25.825  28.248  1.00  0.00     0.074 A 
ATOM     20  C   UNL A   1      40.816  25.508  27.861  1.00  0.00     0.031 C 
ATOM     21  C   UNL A   1      41.700  31.903  30.312  1.00  0.00     0.029 A 
ATOM     22  C   UNL A   1      42.896  31.071  30.276  1.00  0.00     0.049 A 
ATOM     23  H   UNL A   1      43.067  29.119  29.566  1.00  0.00     0.167 HD
ATOM     24  C   UNL A   1      43.225  24.973  28.145  1.00  0.00     0.037 A 
ATOM     25  C   UNL A   1      44.113  31.447  30.714  1.00  0.00     0.037 A 
ATOM     26  C   UNL A   1      44.574  25.306  28.529  1.00  0.00     0.049 A 
ATOM     27  C   UNL A   1      45.252  30.474  30.619  1.00  0.00     0.074 A 
ATOM     28  C   UNL A   1      45.711  24.523  28.440  1.00  0.00     0.029 A 
ATOM     29  N   UNL A   1      44.967  26.517  29.082  1.00  0.00    -0.354 N 
ATOM     30  N   UNL A   1      45.250  29.249  30.148  1.00  0.00    -0.248 NA
ATOM     31  C   UNL A   1      46.558  30.930  31.112  1.00  0.00     0.031 C 
ATOM     32  C   UNL A   1      46.783  25.243  28.983  1.00  0.00     0.029 A 
ATOM     33  C   UNL A   1      46.324  26.495  29.359  1.00  0.00     0.049 A 
ATOM     34  H   UNL A   1      44.368  27.280  29.253  1.00  0.00     0.167 HD
ATOM     35  C   UNL A   1      46.557  28.795  30.269  1.00  0.00     0.074 A 
ATOM     36  C   UNL A   1      47.324  29.882  30.845  1.00  0.00     0.031 C 
ATOM     37  C   UNL A   1      47.074  27.588  29.930  1.00  0.00     0.037 A 
BRANCH  24  38
ATOM     38  C   UNL A   1      42.949  23.589  27.620  1.00  0.00     0.058 A 
ATOM     39  C   UNL A   1      42.619  22.524  28.475  1.00  0.00     0.135 A 
ATOM     40  C   UNL A   1      42.993  23.328  26.240  1.00  0.00     0.135 A 
ATOM     41  F   UNL A   1      42.573  22.711  29.803  1.00  0.00    -0.206 F 
ATOM     42  C   UNL A   1      42.383  21.244  27.984  1.00  0.00     0.059 A 
ATOM     43  C   UNL A   1      42.732  22.060  25.725  1.00  0.00     0.059 A 
ATOM     44  F   UNL A   1      43.297  24.309  25.377  1.00  0.00    -0.206 F 
ATOM     45  C   UNL A   1      42.450  21.020  26.608  1.00  0.00     0.060 A 
BRANCH  45  46
ATOM     46  S   UNL A   1      42.176  19.345  25.995  1.00  0.00     0.124 S 
ATOM     47  O   UNL A   1      40.735  19.356  25.758  1.00  0.00    -0.237 OA
ATOM     48  O   UNL A   1      43.011  19.308  24.799  1.00  0.00    -0.237 OA
ATOM     49  O   UNL A   1      42.624  18.500  27.097  1.00  0.00    -0.744 OA
ENDBRANCH  45  46
ENDBRANCH  24  38
BRANCH  25  50
ATOM     50  C   UNL A   1      44.298  32.808  31.284  1.00  0.00     0.058 A 
ATOM     51  C   UNL A   1      44.635  33.895  30.465  1.00  0.00     0.135 A 
ATOM     52  C   UNL A   1      44.095  33.054  32.651  1.00  0.00     0.135 A 
ATOM     53  F   UNL A   1      44.843  33.708  29.153  1.00  0.00    -0.206 F 
ATOM     54  C   UNL A   1      44.768  35.180  30.982  1.00  0.00     0.059 A 
ATOM     55  C   UNL A   1      44.195  34.334  33.186  1.00  0.00     0.059 A 
ATOM     56  F   UNL A   1      43.753  32.050  33.472  1.00  0.00    -0.206 F 
ATOM     57  C   UNL A   1      44.539  35.390  32.343  1.00  0.00     0.060 A 
BRANCH  57  58
ATOM     58  S   UNL A   1      44.651  37.072  32.990  1.00  0.00     0.124 S 
ATOM     59  O   UNL A   1      46.091  37.227  33.158  1.00  0.00    -0.237 OA
ATOM     60  O   UNL A   1      44.044  37.853  31.917  1.00  0.00    -0.237 OA
ATOM     61  O   UNL A   1      43.874  37.009  34.225  1.00  0.00    -0.744 OA
ENDBRANCH  57  58
ENDBRANCH  25  50
BRANCH  37  62
ATOM     62  C   UNL A   1      48.550  27.388  30.140  1.00  0.00     0.058 A 
ATOM     63  C   UNL A   1      49.064  26.849  31.329  1.00  0.00     0.135 A 
ATOM     64  C   UNL A   1      49.458  27.696  29.112  1.00  0.00     0.135 A 
ATOM     65  F   UNL A   1      48.240  26.547  32.345  1.00  0.00    -0.206 F 
ATOM     66  C   UNL A   1      50.428  26.640  31.501  1.00  0.00     0.059 A 
ATOM     67  C   UNL A   1      50.823  27.469  29.252  1.00  0.00     0.059 A 
ATOM     68  F   UNL A   1      49.017  28.207  27.952  1.00  0.00    -0.206 F 
ATOM     69  C   UNL A   1      51.300  26.950  30.455  1.00  0.00     0.060 A 
BRANCH  69  70
ATOM     70  S   UNL A   1      53.064  26.637  30.676  1.00  0.00     0.124 S 
ATOM     71  O   UNL A   1      53.049  25.442  31.513  1.00  0.00    -0.237 OA
ATOM     72  O   UNL A   1      53.520  26.444  29.303  1.00  0.00    -0.237 OA
ATOM     73  O   UNL A   1      53.546  27.852  31.325  1.00  0.00    -0.744 OA
ENDBRANCH  69  70
ENDBRANCH  37  62
ENDBRANCH  11  12
ENDBRANCH   4   6
ENDBRANCH   1   2
BRANCH   1  74
ATOM     74  C   UNL A   1      34.698  33.625  28.098  1.00  0.00     0.042 C 
BRANCH  74  75
ATOM     75  C   UNL A   1      33.277  34.177  28.078  1.00  0.00     0.117 C 
BRANCH  75  76
ATOM     76  N   UNL A   1      33.225  35.595  28.378  1.00  0.00    -0.356 N 
ATOM     77  C   UNL A   1      33.128  36.270  29.553  1.00  0.00     0.227 C 
ATOM     78  H   UNL A   1      33.269  36.175  27.584  1.00  0.00     0.163 HD
ATOM     79  O   UNL A   1      33.207  37.504  29.486  1.00  0.00    -0.274 OA
BRANCH  77  80
ATOM     80  C   UNL A   1      32.906  35.599  30.914  1.00  0.00     0.103 C 
ATOM     81  C   UNL A   1      32.215  36.409  31.967  1.00  0.00    -0.016 C 
ATOM     82  C   UNL A   1      34.179  35.110  31.607  1.00  0.00     0.046 C 
ATOM     83  C   UNL A   1      32.981  36.559  33.055  1.00  0.00    -0.006 C 
ATOM     84  C   UNL A   1      34.342  35.971  32.871  1.00  0.00     0.104 C 
BRANCH  84  85
ATOM     85  N   UNL A   1      34.702  35.146  33.986  1.00  0.00    -0.364 N 
ATOM     86  H   UNL A   1      34.156  35.154  34.805  1.00  0.00     0.162 HD
BRANCH  85  87
ATOM     87  C   UNL A   1      35.821  34.340  33.904  1.00  0.00     0.127 A 
ATOM     88  C   UNL A   1      35.644  32.973  33.749  1.00  0.00     0.047 A 
ATOM     89  N   UNL A   1      37.047  34.904  33.894  1.00  0.00    -0.231 NA
ATOM     90  C   UNL A   1      36.755  32.155  33.570  1.00  0.00     0.014 A 
ATOM     91  C   UNL A   1      38.132  34.111  33.769  1.00  0.00     0.073 A 
ATOM     92  C   UNL A   1      38.031  32.717  33.588  1.00  0.00     0.000 A 
ATOM     93  C   UNL A   1      39.407  34.666  33.821  1.00  0.00     0.029 A 
ATOM     94  C   UNL A   1      39.185  31.929  33.435  1.00  0.00     0.010 A 
ATOM     95  C   UNL A   1      40.560  33.883  33.690  1.00  0.00     0.002 A 
ATOM     96  C   UNL A   1      40.448  32.512  33.489  1.00  0.00     0.001 A 
ENDBRANCH  85  87
ENDBRANCH  84  85
ENDBRANCH  77  80
ENDBRANCH  75  76
ENDBRANCH  74  75
ENDBRANCH   1  74
TORSDOF 15
ENDMDL
MODEL 2
REMARK VINA RESULT:     -11.4      0.657      8.331
REMARK SMILES O=C(NCCCNC(=O)[C@@H]1C=C[C@@H](Nc2ccc3ccccc3n2)C1)c1ccc(-c2c3nc(c(-c4c(F)cc(S(=O)(=O)[O-])cc4F)c4ccc([nH]4)c(-c4c(F)cc(S(=O)(=O)[O-])cc4F)c4nc(c(-c5c(F)cc(S(=O)(=O)[O-])cc5F)c5ccc2[nH]5)C=C4)C=C3)cc1
REMARK SMILES IDX 4 1 3 2 1 3 2 4 26 6 27 7 91 8 28 9 90 10 29 11 30 12 31 13
REMARK SMILES IDX 84 14 32 15 89 16 83 17 85 18 33 19 88 20 82 21 81 22 34 24
REMARK SMILES IDX 68 25 47 26 67 27 48 28 51 29 66 30 86 31 49 32 50 33 65 35
REMARK SMILES IDX 87 36 52 37 35 38 36 39 45 40 37 41 38 42 44 43 46 44 39 45
REMARK SMILES IDX 40 46 41 47 42 48 43 49 69 50 70 51 79 52 71 53 72 54 78 55
REMARK SMILES IDX 80 56 73 57 74 58 75 59 76 60 77 61 53 62 54 63 63 64 55 65
REMARK SMILES IDX 56 66 62 67 64 68 57 69 58 70 59 71 60 72 61 73 5 74 6 75
REMARK SMILES IDX 7 76 8 77 9 79 10 80 11 81 25 82 12 83 13 84 14 85 15 87
REMARK SMILES IDX 16 88 24 89 17 90 23 91 18 92 22 93 19 94 21 95 20 96
REMARK H PARENT 3 5 85 23 51 34 7 78 14 86
REMARK Flexibility Score: inf
ROOT
ATOM      1  C   UNL A   1      34.573  32.444  29.013  1.00  0.00     0.118 C 
ENDROOT
BRANCH   1   2
ATOM      2  N   UNL A   1      33.943  31.257  28.451  1.00  0.00    -0.352 N 
ATOM      3  O   UNL A   1      33.814  29.331  27.299  1.00  0.00    -0.269 OA
ATOM      4  C   UNL A   1      34.507  30.107  27.964  1.00  0.00     0.251 C 
ATOM      5  H   UNL A   1      32.959  31.284  28.415  1.00  0.00     0.163 HD
BRANCH   4   6
ATOM      6  C   UNL A   1      35.928  29.792  28.222  1.00  0.00     0.039 A 
ATOM      7  C   UNL A   1      36.897  30.015  27.240  1.00  0.00     0.014 A 
ATOM      8  C   UNL A   1      36.308  29.319  29.481  1.00  0.00     0.014 A 
ATOM      9  C   UNL A   1      38.218  29.642  27.470  1.00  0.00     0.010 A 
ATOM     10  C   UNL A   1      37.650  29.030  29.741  1.00  0.00     0.010 A 
ATOM     11  C   UNL A   1      38.613  29.167  28.729  1.00  0.00    -0.014 A 
BRANCH  11  12
ATOM     12  C   UNL A   1      40.047  28.882  28.988  1.00  0.00     0.031 A 
ATOM     13  C   UNL A   1      40.938  29.913  29.622  1.00  0.00     0.074 A 
ATOM     14  C   UNL A   1      40.540  27.675  28.648  1.00  0.00     0.049 A 
ATOM     15  N   UNL A   1      42.216  29.840  29.896  1.00  0.00    -0.248 NA
ATOM     16  C   UNL A   1      40.319  31.195  29.990  1.00  0.00     0.031 C 
ATOM     17  C   UNL A   1      39.768  26.599  28.018  1.00  0.00     0.029 A 
ATOM     18  N   UNL A   1      41.796  27.143  28.785  1.00  0.00    -0.354 N 
ATOM     19  C   UNL A   1      42.560  31.067  30.448  1.00  0.00     0.074 A 
ATOM     20  C   UNL A   1      41.360  31.879  30.445  1.00  0.00     0.031 C 
ATOM     21  C   UNL A   1      40.557  25.527  27.855  1.00  0.00     0.029 A 
ATOM     22  C   UNL A   1      41.903  25.859  28.306  1.00  0.00     0.049 A 
ATOM     23  H   UNL A   1      42.547  27.633  29.189  1.00  0.00     0.167 HD
ATOM     24  C   UNL A   1      43.763  31.474  30.921  1.00  0.00     0.037 A 
ATOM     25  C   UNL A   1      42.972  25.044  28.214  1.00  0.00     0.037 A 
ATOM     26  C   UNL A   1      44.948  30.652  30.923  1.00  0.00     0.049 A 
ATOM     27  C   UNL A   1      44.300  25.529  28.716  1.00  0.00     0.074 A 
ATOM     28  C   UNL A   1      46.208  30.961  31.405  1.00  0.00     0.029 A 
ATOM     29  N   UNL A   1      45.021  29.363  30.414  1.00  0.00    -0.354 N 
ATOM     30  N   UNL A   1      44.601  26.684  29.262  1.00  0.00    -0.248 NA
ATOM     31  C   UNL A   1      45.435  24.606  28.592  1.00  0.00     0.031 C 
ATOM     32  C   UNL A   1      47.055  29.878  31.142  1.00  0.00     0.029 A 
ATOM     33  C   UNL A   1      46.310  28.871  30.549  1.00  0.00     0.049 A 
ATOM     34  H   UNL A   1      44.268  28.870  30.015  1.00  0.00     0.167 HD
ATOM     35  C   UNL A   1      45.955  26.618  29.566  1.00  0.00     0.074 A 
ATOM     36  C   UNL A   1      46.411  25.305  29.155  1.00  0.00     0.031 C 
ATOM     37  C   UNL A   1      46.747  27.559  30.137  1.00  0.00     0.037 A 
BRANCH  24  38
ATOM     38  C   UNL A   1      43.865  32.879  31.452  1.00  0.00     0.058 A 
ATOM     39  C   UNL A   1      43.593  33.185  32.796  1.00  0.00     0.135 A 
ATOM     40  C   UNL A   1      44.261  33.933  30.611  1.00  0.00     0.135 A 
ATOM     41  F   UNL A   1      43.200  32.221  33.644  1.00  0.00    -0.206 F 
ATOM     42  C   UNL A   1      43.672  34.488  33.276  1.00  0.00     0.059 A 
ATOM     43  C   UNL A   1      44.374  35.240  31.078  1.00  0.00     0.059 A 
ATOM     44  F   UNL A   1      44.538  33.698  29.320  1.00  0.00    -0.206 F 
ATOM     45  C   UNL A   1      44.055  35.511  32.407  1.00  0.00     0.060 A 
BRANCH  45  46
ATOM     46  S   UNL A   1      44.116  37.200  33.040  1.00  0.00     0.124 S 
ATOM     47  O   UNL A   1      42.967  37.211  33.943  1.00  0.00    -0.237 OA
ATOM     48  O   UNL A   1      45.424  37.246  33.686  1.00  0.00    -0.237 OA
ATOM     49  O   UNL A   1      43.981  38.020  31.841  1.00  0.00    -0.744 OA
ENDBRANCH  45  46
ENDBRANCH  24  38
BRANCH  25  50
ATOM     50  C   UNL A   1      42.812  23.692  27.616  1.00  0.00     0.058 A 
ATOM     51  C   UNL A   1      43.012  23.479  26.246  1.00  0.00     0.135 A 
ATOM     52  C   UNL A   1      42.504  22.580  28.415  1.00  0.00     0.135 A 
ATOM     53  F   UNL A   1      43.304  24.512  25.441  1.00  0.00    -0.206 F 
ATOM     54  C   UNL A   1      42.908  22.210  25.684  1.00  0.00     0.059 A 
ATOM     55  C   UNL A   1      42.421  21.297  27.883  1.00  0.00     0.059 A 
ATOM     56  F   UNL A   1      42.322  22.729  29.736  1.00  0.00    -0.206 F 
ATOM     57  C   UNL A   1      42.619  21.124  26.514  1.00  0.00     0.060 A 
BRANCH  57  58
ATOM     58  S   UNL A   1      42.550  19.473  25.785  1.00  0.00     0.124 S 
ATOM     59  O   UNL A   1      41.143  19.374  25.417  1.00  0.00    -0.237 OA
ATOM     60  O   UNL A   1      43.494  19.587  24.679  1.00  0.00    -0.237 OA
ATOM     61  O   UNL A   1      42.979  18.606  26.879  1.00  0.00    -0.744 OA
ENDBRANCH  57  58
ENDBRANCH  25  50
BRANCH  37  62
ATOM     62  C   UNL A   1      48.183  27.191  30.385  1.00  0.00     0.058 A 
ATOM     63  C   UNL A   1      49.208  27.564  29.502  1.00  0.00     0.135 A 
ATOM     64  C   UNL A   1      48.544  26.496  31.553  1.00  0.00     0.135 A 
ATOM     65  F   UNL A   1      48.916  28.222  28.368  1.00  0.00    -0.206 F 
ATOM     66  C   UNL A   1      50.537  27.246  29.757  1.00  0.00     0.059 A 
ATOM     67  C   UNL A   1      49.870  26.191  31.840  1.00  0.00     0.059 A 
ATOM     68  F   UNL A   1      47.603  26.122  32.434  1.00  0.00    -0.206 F 
ATOM     69  C   UNL A   1      50.860  26.561  30.931  1.00  0.00     0.060 A 
BRANCH  69  70
ATOM     70  S   UNL A   1      52.593  26.188  31.269  1.00  0.00     0.124 S 
ATOM     71  O   UNL A   1      53.153  26.147  29.922  1.00  0.00    -0.237 OA
ATOM     72  O   UNL A   1      53.001  27.323  32.091  1.00  0.00    -0.237 OA
ATOM     73  O   UNL A   1      52.535  24.907  31.964  1.00  0.00    -0.744 OA
ENDBRANCH  69  70
ENDBRANCH  37  62
ENDBRANCH  11  12
ENDBRANCH   4   6
ENDBRANCH   1   2
BRANCH   1  74
ATOM     74  C   UNL A   1      34.362  33.671  28.136  1.00  0.00     0.042 C 
BRANCH  74  75
ATOM     75  C   UNL A   1      32.998  34.324  28.325  1.00  0.00     0.117 C 
BRANCH  75  76
ATOM     76  N   UNL A   1      33.095  35.736  28.645  1.00  0.00    -0.356 N 
ATOM     77  C   UNL A   1      33.171  36.393  29.831  1.00  0.00     0.227 C 
ATOM     78  H   UNL A   1      33.107  36.326  27.857  1.00  0.00     0.163 HD
ATOM     79  O   UNL A   1      33.345  37.617  29.772  1.00  0.00    -0.274 OA
BRANCH  77  80
ATOM     80  C   UNL A   1      33.030  35.715  31.200  1.00  0.00     0.103 C 
ATOM     81  C   UNL A   1      32.791  36.607  32.379  1.00  0.00    -0.016 C 
ATOM     82  C   UNL A   1      34.228  34.864  31.625  1.00  0.00     0.046 C 
ATOM     83  C   UNL A   1      33.756  36.477  33.299  1.00  0.00    -0.006 C 
ATOM     84  C   UNL A   1      34.848  35.565  32.844  1.00  0.00     0.104 C 
BRANCH  84  85
ATOM     85  N   UNL A   1      35.170  34.602  33.856  1.00  0.00    -0.364 N 
ATOM     86  H   UNL A   1      34.546  34.436  34.598  1.00  0.00     0.162 HD
BRANCH  85  87
ATOM     87  C   UNL A   1      36.363  33.909  33.781  1.00  0.00     0.127 A 
ATOM     88  C   UNL A   1      37.544  34.593  34.034  1.00  0.00     0.047 A 
ATOM     89  N   UNL A   1      36.347  32.580  33.548  1.00  0.00    -0.231 NA
ATOM     90  C   UNL A   1      38.747  33.895  34.056  1.00  0.00     0.014 A 
ATOM     91  C   UNL A   1      37.515  31.905  33.521  1.00  0.00     0.073 A 
ATOM     92  C   UNL A   1      38.752  32.526  33.787  1.00  0.00     0.000 A 
ATOM     93  C   UNL A   1      37.525  30.547  33.219  1.00  0.00     0.029 A 
ATOM     94  C   UNL A   1      39.945  31.782  33.775  1.00  0.00     0.010 A 
ATOM     95  C   UNL A   1      38.712  29.806  33.185  1.00  0.00     0.002 A 
ATOM     96  C   UNL A   1      39.923  30.424  33.472  1.00  0.00     0.001 A 
ENDBRANCH  85  87
ENDBRANCH  84  85
ENDBRANCH  77  80
ENDBRANCH  75  76
ENDBRANCH  74  75
ENDBRANCH   1  74
TORSDOF 15
ENDMDL
MODEL 3
REMARK VINA RESULT:     -11.4      3.558     10.301
REMARK SMILES O=C(NCCCNC(=O)[C@@H]1C=C[C@@H](Nc2ccc3ccccc3n2)C1)c1ccc(-c2c3nc(c(-c4c(F)cc(S(=O)(=O)[O-])cc4F)c4ccc([nH]4)c(-c4c(F)cc(S(=O)(=O)[O-])cc4F)c4nc(c(-c5c(F)cc(S(=O)(=O)[O-])cc5F)c5ccc2[nH]5)C=C4)C=C3)cc1
REMARK SMILES IDX 4 1 3 2 1 3 2 4 26 6 27 7 91 8 28 9 90 10 29 11 30 12 31 13
REMARK SMILES IDX 84 14 32 15 89 16 83 17 85 18 33 19 88 20 82 21 81 22 34 24
REMARK SMILES IDX 68 25 47 26 67 27 48 28 51 29 66 30 86 31 49 32 50 33 65 35
REMARK SMILES IDX 87 36 52 37 35 38 36 39 45 40 37 41 38 42 44 43 46 44 39 45
REMARK SMILES IDX 40 46 41 47 42 48 43 49 69 50 70 51 79 52 71 53 72 54 78 55
REMARK SMILES IDX 80 56 73 57 74 58 75 59 76 60 77 61 53 62 54 63 63 64 55 65
REMARK SMILES IDX 56 66 62 67 64 68 57 69 58 70 59 71 60 72 61 73 5 74 6 75
REMARK SMILES IDX 7 76 8 77 9 79 10 80 11 81 25 82 12 83 13 84 14 85 15 87
REMARK SMILES IDX 16 88 24 89 17 90 23 91 18 92 22 93 19 94 21 95 20 96
REMARK H PARENT 3 5 85 23 51 34 7 78 14 86
REMARK Flexibility Score: inf
ROOT
ATOM      1  C   UNL A   1      35.519  31.000  28.239  1.00  0.00     0.118 C 
ENDROOT
BRANCH   1   2
ATOM      2  N   UNL A   1      35.483  30.884  29.691  1.00  0.00    -0.352 N 
ATOM      3  O   UNL A   1      36.036  30.083  31.717  1.00  0.00    -0.269 OA
ATOM      4  C   UNL A   1      36.377  30.300  30.549  1.00  0.00     0.251 C 
ATOM      5  H   UNL A   1      34.694  31.286  30.122  1.00  0.00     0.163 HD
BRANCH   4   6
ATOM      6  C   UNL A   1      37.733  29.928  30.095  1.00  0.00     0.039 A 
ATOM      7  C   UNL A   1      38.105  30.085  28.757  1.00  0.00     0.014 A 
ATOM      8  C   UNL A   1      38.666  29.467  31.028  1.00  0.00     0.014 A 
ATOM      9  C   UNL A   1      39.358  29.659  28.330  1.00  0.00     0.010 A 
ATOM     10  C   UNL A   1      39.956  29.124  30.612  1.00  0.00     0.010 A 
ATOM     11  C   UNL A   1      40.305  29.195  29.255  1.00  0.00    -0.014 A 
BRANCH  11  12
ATOM     12  C   UNL A   1      41.674  28.853  28.794  1.00  0.00     0.031 A 
ATOM     13  C   UNL A   1      42.758  29.894  28.749  1.00  0.00     0.074 A 
ATOM     14  C   UNL A   1      41.933  27.585  28.418  1.00  0.00     0.049 A 
ATOM     15  N   UNL A   1      43.999  29.772  28.351  1.00  0.00    -0.248 NA
ATOM     16  C   UNL A   1      42.403  31.247  29.202  1.00  0.00     0.031 C 
ATOM     17  C   UNL A   1      40.955  26.493  28.413  1.00  0.00     0.029 A 
ATOM     18  N   UNL A   1      43.089  26.995  27.976  1.00  0.00    -0.354 N 
ATOM     19  C   UNL A   1      44.568  31.033  28.485  1.00  0.00     0.074 A 
ATOM     20  C   UNL A   1      43.528  31.912  28.976  1.00  0.00     0.031 C 
ATOM     21  C   UNL A   1      41.559  25.362  28.021  1.00  0.00     0.029 A 
ATOM     22  C   UNL A   1      42.946  25.659  27.685  1.00  0.00     0.049 A 
ATOM     23  H   UNL A   1      43.939  27.481  27.878  1.00  0.00     0.167 HD
ATOM     24  C   UNL A   1      45.843  31.415  28.229  1.00  0.00     0.037 A 
ATOM     25  C   UNL A   1      43.825  24.773  27.180  1.00  0.00     0.037 A 
ATOM     26  C   UNL A   1      46.871  30.526  27.747  1.00  0.00     0.049 A 
ATOM     27  C   UNL A   1      45.222  25.229  26.876  1.00  0.00     0.074 A 
ATOM     28  C   UNL A   1      48.199  30.809  27.483  1.00  0.00     0.029 A 
ATOM     29  N   UNL A   1      46.683  29.183  27.448  1.00  0.00    -0.354 N 
ATOM     30  N   UNL A   1      45.752  26.419  27.036  1.00  0.00    -0.248 NA
ATOM     31  C   UNL A   1      46.143  24.227  26.324  1.00  0.00     0.031 C 
ATOM     32  C   UNL A   1      48.803  29.651  26.979  1.00  0.00     0.029 A 
ATOM     33  C   UNL A   1      47.865  28.631  26.982  1.00  0.00     0.049 A 
ATOM     34  H   UNL A   1      45.834  28.695  27.552  1.00  0.00     0.167 HD
ATOM     35  C   UNL A   1      47.074  26.303  26.624  1.00  0.00     0.074 A 
ATOM     36  C   UNL A   1      47.265  24.925  26.220  1.00  0.00     0.031 C 
ATOM     37  C   UNL A   1      48.041  27.254  26.587  1.00  0.00     0.037 A 
BRANCH  24  38
ATOM     38  C   UNL A   1      46.192  32.864  28.443  1.00  0.00     0.058 A 
ATOM     39  C   UNL A   1      46.059  33.817  27.420  1.00  0.00     0.135 A 
ATOM     40  C   UNL A   1      46.643  33.312  29.696  1.00  0.00     0.135 A 
ATOM     41  F   UNL A   1      45.642  33.446  26.199  1.00  0.00    -0.206 F 
ATOM     42  C   UNL A   1      46.399  35.151  27.619  1.00  0.00     0.059 A 
ATOM     43  C   UNL A   1      46.962  34.649  29.925  1.00  0.00     0.059 A 
ATOM     44  F   UNL A   1      46.784  32.448  30.712  1.00  0.00    -0.206 F 
ATOM     45  C   UNL A   1      46.857  35.557  28.874  1.00  0.00     0.060 A 
BRANCH  45  46
ATOM     46  S   UNL A   1      47.328  37.284  29.101  1.00  0.00     0.124 S 
ATOM     47  O   UNL A   1      46.039  37.956  28.955  1.00  0.00    -0.237 OA
ATOM     48  O   UNL A   1      47.888  37.281  30.449  1.00  0.00    -0.237 OA
ATOM     49  O   UNL A   1      48.285  37.522  28.026  1.00  0.00    -0.744 OA
ENDBRANCH  45  46
ENDBRANCH  24  38
BRANCH  25  50
ATOM     50  C   UNL A   1      43.393  23.372  26.931  1.00  0.00     0.058 A 
ATOM     51  C   UNL A   1      43.172  22.903  25.629  1.00  0.00     0.135 A 
ATOM     52  C   UNL A   1      43.238  22.464  27.990  1.00  0.00     0.135 A 
ATOM     53  F   UNL A   1      43.303  23.736  24.585  1.00  0.00    -0.206 F 
ATOM     54  C   UNL A   1      42.810  21.583  25.383  1.00  0.00     0.059 A 
ATOM     55  C   UNL A   1      42.904  21.132  27.769  1.00  0.00     0.059 A 
ATOM     56  F   UNL A   1      43.456  22.859  29.254  1.00  0.00    -0.206 F 
ATOM     57  C   UNL A   1      42.684  20.703  26.461  1.00  0.00     0.060 A 
BRANCH  57  58
ATOM     58  S   UNL A   1      42.277  18.976  26.125  1.00  0.00     0.124 S 
ATOM     59  O   UNL A   1      42.561  18.352  27.411  1.00  0.00    -0.237 OA
ATOM     60  O   UNL A   1      40.869  19.061  25.752  1.00  0.00    -0.237 OA
ATOM     61  O   UNL A   1      43.184  18.622  25.037  1.00  0.00    -0.744 OA
ENDBRANCH  57  58
ENDBRANCH  25  50
BRANCH  37  62
ATOM     62  C   UNL A   1      49.407  26.827  26.127  1.00  0.00     0.058 A 
ATOM     63  C   UNL A   1      50.296  26.147  26.974  1.00  0.00     0.135 A 
ATOM     64  C   UNL A   1      49.812  27.060  24.801  1.00  0.00     0.135 A 
ATOM     65  F   UNL A   1      49.961  25.907  28.252  1.00  0.00    -0.206 F 
ATOM     66  C   UNL A   1      51.545  25.729  26.529  1.00  0.00     0.059 A 
ATOM     67  C   UNL A   1      51.046  26.627  24.328  1.00  0.00     0.059 A 
ATOM     68  F   UNL A   1      48.996  27.701  23.949  1.00  0.00    -0.206 F 
ATOM     69  C   UNL A   1      51.910  25.970  25.203  1.00  0.00     0.060 A 
BRANCH  69  70
ATOM     70  S   UNL A   1      53.519  25.388  24.627  1.00  0.00     0.124 S 
ATOM     71  O   UNL A   1      53.512  24.003  25.085  1.00  0.00    -0.237 OA
ATOM     72  O   UNL A   1      53.421  25.580  23.183  1.00  0.00    -0.237 OA
ATOM     73  O   UNL A   1      54.463  26.269  25.307  1.00  0.00    -0.744 OA
ENDBRANCH  69  70
ENDBRANCH  37  62
ENDBRANCH  11  12
ENDBRANCH   4   6
ENDBRANCH   1   2
BRANCH   1  74
ATOM     74  C   UNL A   1      34.186  31.465  27.669  1.00  0.00     0.042 C 
BRANCH  74  75
ATOM     75  C   UNL A   1      33.493  30.414  26.811  1.00  0.00     0.117 C 
BRANCH  75  76
ATOM     76  N   UNL A   1      32.606  29.561  27.580  1.00  0.00    -0.356 N 
ATOM     77  C   UNL A   1      32.045  28.355  27.307  1.00  0.00     0.227 C 
ATOM     78  H   UNL A   1      32.369  29.924  28.464  1.00  0.00     0.163 HD
ATOM     79  O   UNL A   1      31.400  27.828  28.222  1.00  0.00    -0.274 OA
BRANCH  77  80
ATOM     80  C   UNL A   1      32.145  27.648  25.949  1.00  0.00     0.103 C 
ATOM     81  C   UNL A   1      31.099  26.624  25.636  1.00  0.00    -0.016 C 
ATOM     82  C   UNL A   1      33.462  26.909  25.703  1.00  0.00     0.046 C 
ATOM     83  C   UNL A   1      31.639  25.419  25.412  1.00  0.00    -0.006 C 
ATOM     84  C   UNL A   1      33.115  25.413  25.642  1.00  0.00     0.104 C 
BRANCH  84  85
ATOM     85  N   UNL A   1      33.804  24.791  24.550  1.00  0.00    -0.364 N 
ATOM     86  H   UNL A   1      33.524  24.966  23.623  1.00  0.00     0.162 HD
BRANCH  85  87
ATOM     87  C   UNL A   1      34.865  23.944  24.808  1.00  0.00     0.127 A 
ATOM     88  C   UNL A   1      34.818  22.651  24.307  1.00  0.00     0.047 A 
ATOM     89  N   UNL A   1      35.947  24.415  25.463  1.00  0.00    -0.231 NA
ATOM     90  C   UNL A   1      35.915  21.813  24.475  1.00  0.00     0.014 A 
ATOM     91  C   UNL A   1      36.996  23.592  25.671  1.00  0.00     0.073 A 
ATOM     92  C   UNL A   1      37.029  22.272  25.176  1.00  0.00     0.000 A 
ATOM     93  C   UNL A   1      38.094  24.037  26.400  1.00  0.00     0.029 A 
ATOM     94  C   UNL A   1      38.153  21.455  25.391  1.00  0.00     0.010 A 
ATOM     95  C   UNL A   1      39.206  23.220  26.635  1.00  0.00     0.002 A 
ATOM     96  C   UNL A   1      39.238  21.928  26.123  1.00  0.00     0.001 A 
ENDBRANCH  85  87
ENDBRANCH  84  85
ENDBRANCH  77  80
ENDBRANCH  75  76
ENDBRANCH  74  75
ENDBRANCH   1  74
TORSDOF 15
ENDMDL
