MODEL 1
REMARK VINA RESULT:     -14.9      0.000      0.000
REMARK SMILES O=C(COc1ccccc1[C@@H]1C2=C(CCCC2=O)Nc2nc(SCc3ccccn3)nn21)NCCCNC(=O)c1ccc(-c2c3nc(c(-c4c(F)cc(S(=O)(=O)[O-])cc4F)c4ccc([nH]4)c(-c4c(F)cc(S(=O)(=O)[O-])cc4F)c4nc(c(-c5c(F)cc(S(=O)(=O)[O-])cc5F)c5ccc2[nH]5)C=C4)C=C3)cc1
REMARK SMILES IDX 1 1 2 2 33 3 3 5 4 6 5 7 6 8 10 9 7 10 9 11 8 12 11 13 12 14
REMARK SMILES IDX 32 15 13 16 17 17 20 18 31 19 14 20 19 21 16 22 18 23 21 24
REMARK SMILES IDX 22 25 15 26 23 28 24 29 25 30 26 31 30 32 27 33 29 34 28 35
REMARK SMILES IDX 34 36 35 37 36 38 37 39 38 40 39 42 40 43 41 44 105 45 42 46
REMARK SMILES IDX 104 47 43 48 44 49 45 50 98 51 46 52 103 53 97 54 99 55
REMARK SMILES IDX 47 56 102 57 96 58 95 59 48 61 82 62 61 63 81 64 62 65 65 66
REMARK SMILES IDX 80 67 100 68 63 69 64 70 79 72 101 73 66 74 49 75 50 76
REMARK SMILES IDX 59 77 51 78 52 79 58 80 60 81 53 82 54 83 55 84 56 85 57 86
REMARK SMILES IDX 83 87 84 88 93 89 85 90 86 91 92 92 94 93 87 94 88 95 89 96
REMARK SMILES IDX 90 97 91 98 67 99 68 100 77 101 69 102 70 103 76 104 78 105
REMARK SMILES IDX 71 106 72 107 73 108 74 109 75 110
REMARK H PARENT 33 4 19 27 37 41 99 60 65 71
REMARK Flexibility Score: inf
ROOT
ATOM      1  O   UNL A   1      32.098  22.217  26.346  1.00  0.00    -0.271 OA
ATOM      2  C   UNL A   1      32.224  22.818  25.230  1.00  0.00     0.257 C 
ATOM      3  N   UNL A   1      33.220  21.960  24.579  1.00  0.00    -0.353 N 
ATOM      4  H   UNL A   1      33.368  22.058  23.610  1.00  0.00     0.163 HD
ENDROOT
BRANCH   2   5
ATOM      5  C   UNL A   1      31.223  24.627  24.544  1.00  0.00     0.329 C 
BRANCH   5   6
ATOM      6  O   UNL A   1      31.373  26.130  24.725  1.00  0.00    -0.483 OA
BRANCH   6   7
ATOM      7  C   UNL A   1      32.104  26.754  23.765  1.00  0.00     0.125 A 
ATOM      8  C   UNL A   1      33.087  26.078  23.058  1.00  0.00     0.047 A 
ATOM      9  C   UNL A   1      31.972  28.118  23.678  1.00  0.00     0.024 A 
ATOM     10  C   UNL A   1      33.971  26.812  22.266  1.00  0.00     0.004 A 
ATOM     11  C   UNL A   1      32.860  28.863  22.905  1.00  0.00     0.010 A 
ATOM     12  C   UNL A   1      33.865  28.204  22.199  1.00  0.00     0.001 A 
BRANCH   9  13
ATOM     13  C   UNL A   1      31.060  28.700  24.705  1.00  0.00     0.181 C 
ATOM     14  C   UNL A   1      29.604  29.596  23.745  1.00  0.00     0.044 C 
ATOM     15  N   UNL A   1      31.915  29.828  25.918  1.00  0.00    -0.218 N 
ATOM     16  C   UNL A   1      29.360  31.148  23.825  1.00  0.00     0.027 C 
ATOM     17  C   UNL A   1      28.619  28.726  23.085  1.00  0.00     0.163 C 
ATOM     18  C   UNL A   1      31.477  31.527  26.044  1.00  0.00     0.227 A 
ATOM     19  N   UNL A   1      33.010  29.687  26.675  1.00  0.00    -0.141 NA
ATOM     20  C   UNL A   1      28.223  31.748  23.102  1.00  0.00     0.055 C 
ATOM     21  N   UNL A   1      30.266  32.170  25.015  1.00  0.00    -0.328 N 
ATOM     22  C   UNL A   1      27.487  29.387  22.330  1.00  0.00     0.081 C 
ATOM     23  O   UNL A   1      28.674  27.512  23.264  1.00  0.00    -0.294 OA
ATOM     24  N   UNL A   1      32.273  31.965  26.980  1.00  0.00    -0.185 NA
ATOM     25  C   UNL A   1      33.140  30.889  27.273  1.00  0.00     0.210 A 
ATOM     26  C   UNL A   1      27.732  30.856  21.957  1.00  0.00     0.014 C 
ATOM     27  H   UNL A   1      30.056  33.131  25.073  1.00  0.00     0.169 HD
BRANCH  25  28
ATOM     28  S   UNL A   1      34.598  31.165  28.217  1.00  0.00    -0.078 SA
BRANCH  28  29
ATOM     29  C   UNL A   1      34.758  32.963  28.147  1.00  0.00     0.134 C 
BRANCH  29  30
ATOM     30  C   UNL A   1      34.171  33.829  29.246  1.00  0.00     0.051 A 
ATOM     31  C   UNL A   1      34.532  33.745  30.591  1.00  0.00     0.025 A 
ATOM     32  N   UNL A   1      33.373  34.840  28.806  1.00  0.00    -0.260 NA
ATOM     33  C   UNL A   1      34.186  34.765  31.473  1.00  0.00     0.003 A 
ATOM     34  C   UNL A   1      33.000  35.788  29.699  1.00  0.00     0.111 A 
ATOM     35  C   UNL A   1      33.407  35.813  31.019  1.00  0.00     0.020 A 
ENDBRANCH  29  30
ENDBRANCH  28  29
ENDBRANCH  25  28
ENDBRANCH   9  13
ENDBRANCH   6   7
ENDBRANCH   5   6
ENDBRANCH   2   5
BRANCH   3  36
ATOM     36  C   UNL A   1      34.001  20.968  25.310  1.00  0.00     0.117 C 
BRANCH  36  37
ATOM     37  C   UNL A   1      35.402  21.407  25.727  1.00  0.00     0.042 C 
BRANCH  37  38
ATOM     38  C   UNL A   1      36.508  21.127  24.715  1.00  0.00     0.118 C 
BRANCH  38  39
ATOM     39  N   UNL A   1      37.464  20.072  25.108  1.00  0.00    -0.352 N 
ATOM     40  C   UNL A   1      38.807  20.196  25.490  1.00  0.00     0.251 C 
ATOM     41  H   UNL A   1      37.108  19.153  25.101  1.00  0.00     0.163 HD
ATOM     42  O   UNL A   1      39.558  19.229  25.484  1.00  0.00    -0.269 OA
BRANCH  40  43
ATOM     43  C   UNL A   1      39.262  21.479  26.076  1.00  0.00     0.039 A 
ATOM     44  C   UNL A   1      38.703  22.748  26.006  1.00  0.00     0.014 A 
ATOM     45  C   UNL A   1      40.458  21.343  26.724  1.00  0.00     0.014 A 
ATOM     46  C   UNL A   1      39.413  23.826  26.582  1.00  0.00     0.010 A 
ATOM     47  C   UNL A   1      40.871  22.267  27.617  1.00  0.00     0.010 A 
ATOM     48  C   UNL A   1      40.562  23.569  27.346  1.00  0.00    -0.014 A 
BRANCH  48  49
ATOM     49  C   UNL A   1      41.325  24.514  28.151  1.00  0.00     0.031 A 
ATOM     50  C   UNL A   1      40.540  25.759  28.348  1.00  0.00     0.074 A 
ATOM     51  C   UNL A   1      42.447  24.172  28.846  1.00  0.00     0.049 A 
ATOM     52  N   UNL A   1      40.679  26.845  27.666  1.00  0.00    -0.248 NA
ATOM     53  C   UNL A   1      39.278  25.720  29.119  1.00  0.00     0.031 C 
ATOM     54  C   UNL A   1      43.161  22.886  28.911  1.00  0.00     0.029 A 
ATOM     55  N   UNL A   1      43.186  24.941  29.710  1.00  0.00    -0.354 N 
ATOM     56  C   UNL A   1      39.732  27.721  28.177  1.00  0.00     0.074 A 
ATOM     57  C   UNL A   1      38.734  26.896  28.792  1.00  0.00     0.031 C 
ATOM     58  C   UNL A   1      44.076  22.902  29.913  1.00  0.00     0.029 A 
ATOM     59  C   UNL A   1      44.115  24.229  30.498  1.00  0.00     0.049 A 
ATOM     60  H   UNL A   1      43.076  25.916  29.775  1.00  0.00     0.167 HD
ATOM     61  C   UNL A   1      40.035  29.037  28.352  1.00  0.00     0.037 A 
ATOM     62  C   UNL A   1      44.846  24.737  31.541  1.00  0.00     0.037 A 
ATOM     63  C   UNL A   1      41.283  29.342  27.688  1.00  0.00     0.049 A 
ATOM     64  C   UNL A   1      44.874  26.217  31.331  1.00  0.00     0.074 A 
ATOM     65  C   UNL A   1      41.713  29.259  26.378  1.00  0.00     0.029 A 
ATOM     66  N   UNL A   1      42.415  29.330  28.471  1.00  0.00    -0.354 N 
ATOM     67  N   UNL A   1      45.472  26.762  30.300  1.00  0.00    -0.248 NA
ATOM     68  C   UNL A   1      43.759  26.979  31.883  1.00  0.00     0.031 C 
ATOM     69  C   UNL A   1      43.027  28.714  26.461  1.00  0.00     0.029 A 
ATOM     70  C   UNL A   1      43.394  28.634  27.805  1.00  0.00     0.049 A 
ATOM     71  H   UNL A   1      42.507  29.748  29.357  1.00  0.00     0.167 HD
ATOM     72  C   UNL A   1      44.547  27.668  29.796  1.00  0.00     0.074 A 
ATOM     73  C   UNL A   1      43.515  27.774  30.834  1.00  0.00     0.031 C 
ATOM     74  C   UNL A   1      44.508  27.987  28.466  1.00  0.00     0.037 A 
BRANCH  61  75
ATOM     75  C   UNL A   1      39.474  29.932  29.430  1.00  0.00     0.058 A 
ATOM     76  C   UNL A   1      39.790  29.638  30.773  1.00  0.00     0.135 A 
ATOM     77  C   UNL A   1      38.448  30.886  29.244  1.00  0.00     0.135 A 
ATOM     78  F   UNL A   1      40.756  28.754  31.070  1.00  0.00    -0.206 F 
ATOM     79  C   UNL A   1      39.085  30.183  31.844  1.00  0.00     0.059 A 
ATOM     80  C   UNL A   1      37.765  31.478  30.300  1.00  0.00     0.059 A 
ATOM     81  F   UNL A   1      37.993  31.233  28.036  1.00  0.00    -0.206 F 
ATOM     82  C   UNL A   1      38.066  31.094  31.596  1.00  0.00     0.060 A 
BRANCH  82  83
ATOM     83  S   UNL A   1      37.118  31.749  32.978  1.00  0.00     0.124 S 
ATOM     84  O   UNL A   1      35.762  31.347  32.621  1.00  0.00    -0.237 OA
ATOM     85  O   UNL A   1      37.719  31.048  34.108  1.00  0.00    -0.237 OA
ATOM     86  O   UNL A   1      37.388  33.183  32.921  1.00  0.00    -0.744 OA
ENDBRANCH  82  83
ENDBRANCH  61  75
BRANCH  62  87
ATOM     87  C   UNL A   1      45.146  24.099  32.870  1.00  0.00     0.058 A 
ATOM     88  C   UNL A   1      44.343  23.092  33.456  1.00  0.00     0.135 A 
ATOM     89  C   UNL A   1      46.411  24.272  33.462  1.00  0.00     0.135 A 
ATOM     90  F   UNL A   1      43.119  22.832  32.966  1.00  0.00    -0.206 F 
ATOM     91  C   UNL A   1      44.795  22.278  34.518  1.00  0.00     0.059 A 
ATOM     92  C   UNL A   1      46.878  23.482  34.513  1.00  0.00     0.059 A 
ATOM     93  F   UNL A   1      47.287  25.159  32.970  1.00  0.00    -0.206 F 
ATOM     94  C   UNL A   1      46.083  22.465  35.021  1.00  0.00     0.060 A 
BRANCH  94  95
ATOM     95  S   UNL A   1      46.790  21.310  36.230  1.00  0.00     0.124 S 
ATOM     96  O   UNL A   1      48.172  21.764  36.319  1.00  0.00    -0.237 OA
ATOM     97  O   UNL A   1      45.961  21.543  37.407  1.00  0.00    -0.237 OA
ATOM     98  O   UNL A   1      46.603  20.005  35.596  1.00  0.00    -0.744 OA
ENDBRANCH  94  95
ENDBRANCH  62  87
BRANCH  74  99
ATOM     99  C   UNL A   1      45.619  27.497  27.565  1.00  0.00     0.058 A 
ATOM    100  C   UNL A   1      45.566  26.337  26.768  1.00  0.00     0.135 A 
ATOM    101  C   UNL A   1      46.705  28.356  27.355  1.00  0.00     0.135 A 
ATOM    102  F   UNL A   1      44.508  25.518  26.813  1.00  0.00    -0.206 F 
ATOM    103  C   UNL A   1      46.570  26.022  25.846  1.00  0.00     0.059 A 
ATOM    104  C   UNL A   1      47.699  28.083  26.421  1.00  0.00     0.059 A 
ATOM    105  F   UNL A   1      46.775  29.520  28.022  1.00  0.00    -0.206 F 
ATOM    106  C   UNL A   1      47.638  26.903  25.685  1.00  0.00     0.060 A 
BRANCH 106 107
ATOM    107  S   UNL A   1      48.928  26.523  24.480  1.00  0.00     0.124 S 
ATOM    108  O   UNL A   1      48.268  25.538  23.629  1.00  0.00    -0.237 OA
ATOM    109  O   UNL A   1      49.183  27.823  23.866  1.00  0.00    -0.237 OA
ATOM    110  O   UNL A   1      50.020  26.006  25.301  1.00  0.00    -0.744 OA
ENDBRANCH 106 107
ENDBRANCH  74  99
ENDBRANCH  48  49
ENDBRANCH  40  43
ENDBRANCH  38  39
ENDBRANCH  37  38
ENDBRANCH  36  37
ENDBRANCH   3  36
TORSDOF 19
ENDMDL
MODEL 2
REMARK VINA RESULT:     -14.5      3.341      8.794
REMARK SMILES O=C(COc1ccccc1[C@@H]1C2=C(CCCC2=O)Nc2nc(SCc3ccccn3)nn21)NCCCNC(=O)c1ccc(-c2c3nc(c(-c4c(F)cc(S(=O)(=O)[O-])cc4F)c4ccc([nH]4)c(-c4c(F)cc(S(=O)(=O)[O-])cc4F)c4nc(c(-c5c(F)cc(S(=O)(=O)[O-])cc5F)c5ccc2[nH]5)C=C4)C=C3)cc1
REMARK SMILES IDX 1 1 2 2 33 3 3 5 4 6 5 7 6 8 10 9 7 10 9 11 8 12 11 13 12 14
REMARK SMILES IDX 32 15 13 16 17 17 20 18 31 19 14 20 19 21 16 22 18 23 21 24
REMARK SMILES IDX 22 25 15 26 23 28 24 29 25 30 26 31 30 32 27 33 29 34 28 35
REMARK SMILES IDX 34 36 35 37 36 38 37 39 38 40 39 42 40 43 41 44 105 45 42 46
REMARK SMILES IDX 104 47 43 48 44 49 45 50 98 51 46 52 103 53 97 54 99 55
REMARK SMILES IDX 47 56 102 57 96 58 95 59 48 61 82 62 61 63 81 64 62 65 65 66
REMARK SMILES IDX 80 67 100 68 63 69 64 70 79 72 101 73 66 74 49 75 50 76
REMARK SMILES IDX 59 77 51 78 52 79 58 80 60 81 53 82 54 83 55 84 56 85 57 86
REMARK SMILES IDX 83 87 84 88 93 89 85 90 86 91 92 92 94 93 87 94 88 95 89 96
REMARK SMILES IDX 90 97 91 98 67 99 68 100 77 101 69 102 70 103 76 104 78 105
REMARK SMILES IDX 71 106 72 107 73 108 74 109 75 110
REMARK H PARENT 33 4 19 27 37 41 99 60 65 71
REMARK Flexibility Score: inf
ROOT
ATOM      1  O   UNL A   1      33.321  28.876  23.672  1.00  0.00    -0.271 OA
ATOM      2  C   UNL A   1      32.591  27.889  24.013  1.00  0.00     0.257 C 
ATOM      3  N   UNL A   1      31.721  28.534  25.003  1.00  0.00    -0.353 N 
ATOM      4  H   UNL A   1      30.907  28.064  25.295  1.00  0.00     0.163 HD
ENDROOT
BRANCH   2   5
ATOM      5  C   UNL A   1      32.673  25.832  23.301  1.00  0.00     0.329 C 
BRANCH   5   6
ATOM      6  O   UNL A   1      33.263  24.508  23.761  1.00  0.00    -0.483 OA
BRANCH   6   7
ATOM      7  C   UNL A   1      32.657  23.955  24.844  1.00  0.00     0.125 A 
ATOM      8  C   UNL A   1      31.893  24.723  25.710  1.00  0.00     0.047 A 
ATOM      9  C   UNL A   1      33.007  22.664  25.156  1.00  0.00     0.024 A 
ATOM     10  C   UNL A   1      31.498  24.171  26.930  1.00  0.00     0.004 A 
ATOM     11  C   UNL A   1      32.635  22.109  26.378  1.00  0.00     0.010 A 
ATOM     12  C   UNL A   1      31.880  22.870  27.268  1.00  0.00     0.001 A 
BRANCH   9  13
ATOM     13  C   UNL A   1      34.049  22.091  24.254  1.00  0.00     0.181 C 
ATOM     14  C   UNL A   1      33.612  20.197  23.995  1.00  0.00     0.044 C 
ATOM     15  N   UNL A   1      35.792  22.345  24.865  1.00  0.00    -0.218 N 
ATOM     16  C   UNL A   1      34.552  19.032  24.482  1.00  0.00     0.027 C 
ATOM     17  C   UNL A   1      32.446  19.902  23.150  1.00  0.00     0.163 C 
ATOM     18  C   UNL A   1      36.829  20.976  25.250  1.00  0.00     0.227 A 
ATOM     19  N   UNL A   1      36.459  23.425  25.287  1.00  0.00    -0.141 NA
ATOM     20  C   UNL A   1      34.174  17.632  24.222  1.00  0.00     0.055 C 
ATOM     21  N   UNL A   1      36.221  19.381  25.094  1.00  0.00    -0.328 N 
ATOM     22  C   UNL A   1      32.079  18.449  22.937  1.00  0.00     0.081 C 
ATOM     23  O   UNL A   1      31.887  20.819  22.555  1.00  0.00    -0.294 OA
ATOM     24  N   UNL A   1      37.939  21.548  25.627  1.00  0.00    -0.185 NA
ATOM     25  C   UNL A   1      37.658  22.932  25.661  1.00  0.00     0.210 A 
ATOM     26  C   UNL A   1      32.671  17.477  23.966  1.00  0.00     0.014 C 
ATOM     27  H   UNL A   1      36.802  18.626  25.346  1.00  0.00     0.169 HD
BRANCH  25  28
ATOM     28  S   UNL A   1      38.767  24.036  26.465  1.00  0.00    -0.078 SA
BRANCH  28  29
ATOM     29  C   UNL A   1      39.877  22.897  27.322  1.00  0.00     0.134 C 
BRANCH  29  30
ATOM     30  C   UNL A   1      41.225  23.375  27.831  1.00  0.00     0.051 A 
ATOM     31  C   UNL A   1      41.451  24.631  28.395  1.00  0.00     0.025 A 
ATOM     32  N   UNL A   1      42.191  22.418  27.863  1.00  0.00    -0.260 NA
ATOM     33  C   UNL A   1      42.620  24.875  29.110  1.00  0.00     0.003 A 
ATOM     34  C   UNL A   1      43.345  22.703  28.514  1.00  0.00     0.111 A 
ATOM     35  C   UNL A   1      43.589  23.890  29.177  1.00  0.00     0.020 A 
ENDBRANCH  29  30
ENDBRANCH  28  29
ENDBRANCH  25  28
ENDBRANCH   9  13
ENDBRANCH   6   7
ENDBRANCH   5   6
ENDBRANCH   2   5
BRANCH   3  36
ATOM     36  C   UNL A   1      32.015  29.845  25.571  1.00  0.00     0.117 C 
BRANCH  36  37
ATOM     37  C   UNL A   1      32.467  29.847  27.030  1.00  0.00     0.042 C 
BRANCH  37  38
ATOM     38  C   UNL A   1      33.960  30.062  27.256  1.00  0.00     0.118 C 
BRANCH  38  39
ATOM     39  N   UNL A   1      34.338  31.423  27.688  1.00  0.00    -0.352 N 
ATOM     40  C   UNL A   1      35.449  31.833  28.438  1.00  0.00     0.251 C 
ATOM     41  H   UNL A   1      33.724  32.141  27.410  1.00  0.00     0.163 HD
ATOM     42  O   UNL A   1      35.473  32.929  28.985  1.00  0.00    -0.269 OA
BRANCH  40  43
ATOM     43  C   UNL A   1      36.672  30.996  28.412  1.00  0.00     0.039 A 
ATOM     44  C   UNL A   1      36.933  29.809  27.741  1.00  0.00     0.014 A 
ATOM     45  C   UNL A   1      37.637  31.486  29.245  1.00  0.00     0.014 A 
ATOM     46  C   UNL A   1      38.168  29.163  27.980  1.00  0.00     0.010 A 
ATOM     47  C   UNL A   1      38.926  31.105  29.111  1.00  0.00     0.010 A 
ATOM     48  C   UNL A   1      39.153  29.811  28.743  1.00  0.00    -0.014 A 
BRANCH  48  49
ATOM     49  C   UNL A   1      40.532  29.392  28.957  1.00  0.00     0.031 A 
ATOM     50  C   UNL A   1      40.753  29.100  30.396  1.00  0.00     0.074 A 
ATOM     51  C   UNL A   1      41.376  29.046  27.944  1.00  0.00     0.049 A 
ATOM     52  N   UNL A   1      41.289  29.907  31.248  1.00  0.00    -0.248 NA
ATOM     53  C   UNL A   1      40.037  27.975  31.038  1.00  0.00     0.031 C 
ATOM     54  C   UNL A   1      41.160  29.065  26.488  1.00  0.00     0.029 A 
ATOM     55  N   UNL A   1      42.651  28.545  28.026  1.00  0.00    -0.354 N 
ATOM     56  C   UNL A   1      41.269  29.226  32.457  1.00  0.00     0.074 A 
ATOM     57  C   UNL A   1      40.231  28.245  32.332  1.00  0.00     0.031 C 
ATOM     58  C   UNL A   1      42.161  28.405  25.852  1.00  0.00     0.029 A 
ATOM     59  C   UNL A   1      43.162  28.011  26.824  1.00  0.00     0.049 A 
ATOM     60  H   UNL A   1      43.171  28.558  28.862  1.00  0.00     0.167 HD
ATOM     61  C   UNL A   1      42.330  29.301  33.306  1.00  0.00     0.037 A 
ATOM     62  C   UNL A   1      44.332  27.309  26.686  1.00  0.00     0.037 A 
ATOM     63  C   UNL A   1      43.228  30.348  32.874  1.00  0.00     0.049 A 
ATOM     64  C   UNL A   1      45.168  27.680  27.869  1.00  0.00     0.074 A 
ATOM     65  C   UNL A   1      43.087  31.710  32.686  1.00  0.00     0.029 A 
ATOM     66  N   UNL A   1      44.304  29.959  32.108  1.00  0.00    -0.354 N 
ATOM     67  N   UNL A   1      45.612  28.898  28.053  1.00  0.00    -0.248 NA
ATOM     68  C   UNL A   1      44.968  26.897  29.083  1.00  0.00     0.031 C 
ATOM     69  C   UNL A   1      43.761  31.980  31.460  1.00  0.00     0.029 A 
ATOM     70  C   UNL A   1      44.406  30.815  31.039  1.00  0.00     0.049 A 
ATOM     71  H   UNL A   1      44.899  29.198  32.294  1.00  0.00     0.167 HD
ATOM     72  C   UNL A   1      45.308  29.187  29.378  1.00  0.00     0.074 A 
ATOM     73  C   UNL A   1      44.932  27.899  29.970  1.00  0.00     0.031 C 
ATOM     74  C   UNL A   1      45.052  30.466  29.791  1.00  0.00     0.037 A 
BRANCH  61  75
ATOM     75  C   UNL A   1      42.785  28.207  34.242  1.00  0.00     0.058 A 
ATOM     76  C   UNL A   1      42.880  28.503  35.618  1.00  0.00     0.135 A 
ATOM     77  C   UNL A   1      43.377  26.987  33.842  1.00  0.00     0.135 A 
ATOM     78  F   UNL A   1      42.344  29.630  36.113  1.00  0.00    -0.206 F 
ATOM     79  C   UNL A   1      43.580  27.694  36.511  1.00  0.00     0.059 A 
ATOM     80  C   UNL A   1      44.039  26.143  34.726  1.00  0.00     0.059 A 
ATOM     81  F   UNL A   1      43.423  26.588  32.567  1.00  0.00    -0.206 F 
ATOM     82  C   UNL A   1      44.167  26.521  36.052  1.00  0.00     0.060 A 
BRANCH  82  83
ATOM     83  S   UNL A   1      45.122  25.511  37.194  1.00  0.00     0.124 S 
ATOM     84  O   UNL A   1      46.126  26.462  37.658  1.00  0.00    -0.237 OA
ATOM     85  O   UNL A   1      44.106  25.124  38.167  1.00  0.00    -0.237 OA
ATOM     86  O   UNL A   1      45.620  24.428  36.350  1.00  0.00    -0.744 OA
ENDBRANCH  82  83
ENDBRANCH  61  75
BRANCH  62  87
ATOM     87  C   UNL A   1      44.590  26.077  25.862  1.00  0.00     0.058 A 
ATOM     88  C   UNL A   1      45.872  25.506  25.682  1.00  0.00     0.135 A 
ATOM     89  C   UNL A   1      43.514  25.262  25.464  1.00  0.00     0.135 A 
ATOM     90  F   UNL A   1      46.972  26.191  26.037  1.00  0.00    -0.206 F 
ATOM     91  C   UNL A   1      46.062  24.193  25.196  1.00  0.00     0.059 A 
ATOM     92  C   UNL A   1      43.677  23.964  24.979  1.00  0.00     0.059 A 
ATOM     93  F   UNL A   1      42.246  25.666  25.627  1.00  0.00    -0.206 F 
ATOM     94  C   UNL A   1      44.948  23.418  24.873  1.00  0.00     0.060 A 
BRANCH  94  95
ATOM     95  S   UNL A   1      45.123  21.660  24.454  1.00  0.00     0.124 S 
ATOM     96  O   UNL A   1      44.265  21.020  25.443  1.00  0.00    -0.237 OA
ATOM     97  O   UNL A   1      44.654  21.620  23.074  1.00  0.00    -0.237 OA
ATOM     98  O   UNL A   1      46.556  21.418  24.623  1.00  0.00    -0.744 OA
ENDBRANCH  94  95
ENDBRANCH  62  87
BRANCH  74  99
ATOM     99  C   UNL A   1      45.301  31.608  28.832  1.00  0.00     0.058 A 
ATOM    100  C   UNL A   1      46.565  32.145  28.519  1.00  0.00     0.135 A 
ATOM    101  C   UNL A   1      44.222  32.038  28.048  1.00  0.00     0.135 A 
ATOM    102  F   UNL A   1      47.670  31.705  29.132  1.00  0.00    -0.206 F 
ATOM    103  C   UNL A   1      46.739  33.100  27.511  1.00  0.00     0.059 A 
ATOM    104  C   UNL A   1      44.374  32.962  27.019  1.00  0.00     0.059 A 
ATOM    105  F   UNL A   1      43.004  31.506  28.238  1.00  0.00    -0.206 F 
ATOM    106  C   UNL A   1      45.631  33.507  26.770  1.00  0.00     0.060 A 
BRANCH 106 107
ATOM    107  S   UNL A   1      45.843  34.720  25.449  1.00  0.00     0.124 S 
ATOM    108  O   UNL A   1      44.968  34.189  24.408  1.00  0.00    -0.237 OA
ATOM    109  O   UNL A   1      45.398  35.959  26.080  1.00  0.00    -0.237 OA
ATOM    110  O   UNL A   1      47.273  34.656  25.155  1.00  0.00    -0.744 OA
ENDBRANCH 106 107
ENDBRANCH  74  99
ENDBRANCH  48  49
ENDBRANCH  40  43
ENDBRANCH  38  39
ENDBRANCH  37  38
ENDBRANCH  36  37
ENDBRANCH   3  36
TORSDOF 19
ENDMDL
MODEL 3
REMARK VINA RESULT:     -13.5      3.647      8.009
REMARK SMILES O=C(COc1ccccc1[C@@H]1C2=C(CCCC2=O)Nc2nc(SCc3ccccn3)nn21)NCCCNC(=O)c1ccc(-c2c3nc(c(-c4c(F)cc(S(=O)(=O)[O-])cc4F)c4ccc([nH]4)c(-c4c(F)cc(S(=O)(=O)[O-])cc4F)c4nc(c(-c5c(F)cc(S(=O)(=O)[O-])cc5F)c5ccc2[nH]5)C=C4)C=C3)cc1
REMARK SMILES IDX 1 1 2 2 33 3 3 5 4 6 5 7 6 8 10 9 7 10 9 11 8 12 11 13 12 14
REMARK SMILES IDX 32 15 13 16 17 17 20 18 31 19 14 20 19 21 16 22 18 23 21 24
REMARK SMILES IDX 22 25 15 26 23 28 24 29 25 30 26 31 30 32 27 33 29 34 28 35
REMARK SMILES IDX 34 36 35 37 36 38 37 39 38 40 39 42 40 43 41 44 105 45 42 46
REMARK SMILES IDX 104 47 43 48 44 49 45 50 98 51 46 52 103 53 97 54 99 55
REMARK SMILES IDX 47 56 102 57 96 58 95 59 48 61 82 62 61 63 81 64 62 65 65 66
REMARK SMILES IDX 80 67 100 68 63 69 64 70 79 72 101 73 66 74 49 75 50 76
REMARK SMILES IDX 59 77 51 78 52 79 58 80 60 81 53 82 54 83 55 84 56 85 57 86
REMARK SMILES IDX 83 87 84 88 93 89 85 90 86 91 92 92 94 93 87 94 88 95 89 96
REMARK SMILES IDX 90 97 91 98 67 99 68 100 77 101 69 102 70 103 76 104 78 105
REMARK SMILES IDX 71 106 72 107 73 108 74 109 75 110
REMARK H PARENT 33 4 19 27 37 41 99 60 65 71
REMARK Flexibility Score: inf
ROOT
ATOM      1  O   UNL A   1      36.094  24.137  24.415  1.00  0.00    -0.271 OA
ATOM      2  C   UNL A   1      35.402  23.669  25.377  1.00  0.00     0.257 C 
ATOM      3  N   UNL A   1      36.329  22.660  25.902  1.00  0.00    -0.353 N 
ATOM      4  H   UNL A   1      36.151  22.270  26.788  1.00  0.00     0.163 HD
ENDROOT
BRANCH   2   5
ATOM      5  C   UNL A   1      33.397  24.241  26.009  1.00  0.00     0.329 C 
BRANCH   5   6
ATOM      6  O   UNL A   1      32.136  24.799  25.369  1.00  0.00    -0.483 OA
BRANCH   6   7
ATOM      7  C   UNL A   1      32.245  25.094  24.047  1.00  0.00     0.125 A 
ATOM      8  C   UNL A   1      33.014  24.312  23.199  1.00  0.00     0.047 A 
ATOM      9  C   UNL A   1      31.740  26.305  23.640  1.00  0.00     0.024 A 
ATOM     10  C   UNL A   1      33.296  24.786  21.916  1.00  0.00     0.004 A 
ATOM     11  C   UNL A   1      32.030  26.797  22.369  1.00  0.00     0.010 A 
ATOM     12  C   UNL A   1      32.814  26.033  21.507  1.00  0.00     0.001 A 
BRANCH   9  13
ATOM     13  C   UNL A   1      31.184  27.127  24.754  1.00  0.00     0.181 C 
ATOM     14  C   UNL A   1      29.773  28.256  23.990  1.00  0.00     0.044 C 
ATOM     15  N   UNL A   1      32.469  28.115  25.674  1.00  0.00    -0.218 N 
ATOM     16  C   UNL A   1      29.863  29.826  23.959  1.00  0.00     0.027 C 
ATOM     17  C   UNL A   1      28.525  27.579  23.610  1.00  0.00     0.163 C 
ATOM     18  C   UNL A   1      32.411  29.873  25.709  1.00  0.00     0.227 A 
ATOM     19  N   UNL A   1      33.641  27.788  26.229  1.00  0.00    -0.141 NA
ATOM     20  C   UNL A   1      28.748  30.611  23.400  1.00  0.00     0.055 C 
ATOM     21  N   UNL A   1      31.172  30.699  24.858  1.00  0.00    -0.328 N 
ATOM     22  C   UNL A   1      27.420  28.422  23.011  1.00  0.00     0.081 C 
ATOM     23  O   UNL A   1      28.372  26.395  23.895  1.00  0.00    -0.294 OA
ATOM     24  N   UNL A   1      33.447  30.185  26.437  1.00  0.00    -0.185 NA
ATOM     25  C   UNL A   1      34.124  28.968  26.672  1.00  0.00     0.210 A 
ATOM     26  C   UNL A   1      27.873  29.779  22.456  1.00  0.00     0.014 C 
ATOM     27  H   UNL A   1      31.172  31.684  24.858  1.00  0.00     0.169 HD
BRANCH  25  28
ATOM     28  S   UNL A   1      35.765  28.980  27.303  1.00  0.00    -0.078 SA
BRANCH  28  29
ATOM     29  C   UNL A   1      35.573  29.921  28.834  1.00  0.00     0.134 C 
BRANCH  29  30
ATOM     30  C   UNL A   1      35.546  31.438  28.805  1.00  0.00     0.051 A 
ATOM     31  C   UNL A   1      36.578  32.233  28.304  1.00  0.00     0.025 A 
ATOM     32  N   UNL A   1      34.352  31.990  29.148  1.00  0.00    -0.260 NA
ATOM     33  C   UNL A   1      36.352  33.579  28.030  1.00  0.00     0.003 A 
ATOM     34  C   UNL A   1      34.178  33.316  28.928  1.00  0.00     0.111 A 
ATOM     35  C   UNL A   1      35.125  34.135  28.343  1.00  0.00     0.020 A 
ENDBRANCH  29  30
ENDBRANCH  28  29
ENDBRANCH  25  28
ENDBRANCH   9  13
ENDBRANCH   6   7
ENDBRANCH   5   6
ENDBRANCH   2   5
BRANCH   3  36
ATOM     36  C   UNL A   1      37.502  22.210  25.161  1.00  0.00     0.117 C 
BRANCH  36  37
ATOM     37  C   UNL A   1      38.571  21.497  25.986  1.00  0.00     0.042 C 
BRANCH  37  38
ATOM     38  C   UNL A   1      39.502  22.405  26.783  1.00  0.00     0.118 C 
BRANCH  38  39
ATOM     39  N   UNL A   1      40.938  22.258  26.470  1.00  0.00    -0.352 N 
ATOM     40  C   UNL A   1      41.886  23.253  26.188  1.00  0.00     0.251 C 
ATOM     41  H   UNL A   1      41.277  21.333  26.458  1.00  0.00     0.163 HD
ATOM     42  O   UNL A   1      42.948  22.977  25.645  1.00  0.00    -0.269 OA
BRANCH  40  43
ATOM     43  C   UNL A   1      41.662  24.617  26.720  1.00  0.00     0.039 A 
ATOM     44  C   UNL A   1      40.737  25.585  26.352  1.00  0.00     0.014 A 
ATOM     45  C   UNL A   1      42.580  24.943  27.678  1.00  0.00     0.014 A 
ATOM     46  C   UNL A   1      40.815  26.855  26.968  1.00  0.00     0.010 A 
ATOM     47  C   UNL A   1      42.356  25.962  28.535  1.00  0.00     0.010 A 
ATOM     48  C   UNL A   1      41.700  27.052  28.039  1.00  0.00    -0.014 A 
BRANCH  48  49
ATOM     49  C   UNL A   1      41.805  28.220  28.904  1.00  0.00     0.031 A 
ATOM     50  C   UNL A   1      42.912  29.094  28.439  1.00  0.00     0.074 A 
ATOM     51  C   UNL A   1      40.844  28.577  29.802  1.00  0.00     0.049 A 
ATOM     52  N   UNL A   1      44.103  29.119  28.935  1.00  0.00    -0.248 NA
ATOM     53  C   UNL A   1      42.824  29.755  27.118  1.00  0.00     0.031 C 
ATOM     54  C   UNL A   1      39.585  27.901  30.155  1.00  0.00     0.029 A 
ATOM     55  N   UNL A   1      40.785  29.698  30.592  1.00  0.00    -0.354 N 
ATOM     56  C   UNL A   1      44.793  30.058  28.180  1.00  0.00     0.074 A 
ATOM     57  C   UNL A   1      44.089  30.146  26.935  1.00  0.00     0.031 C 
ATOM     58  C   UNL A   1      38.803  28.718  30.906  1.00  0.00     0.029 A 
ATOM     59  C   UNL A   1      39.534  29.935  31.201  1.00  0.00     0.049 A 
ATOM     60  H   UNL A   1      41.558  30.293  30.724  1.00  0.00     0.167 HD
ATOM     61  C   UNL A   1      45.661  30.918  28.779  1.00  0.00     0.037 A 
ATOM     62  C   UNL A   1      39.174  31.063  31.893  1.00  0.00     0.037 A 
ATOM     63  C   UNL A   1      45.908  30.494  30.139  1.00  0.00     0.049 A 
ATOM     64  C   UNL A   1      40.456  31.701  32.320  1.00  0.00     0.074 A 
ATOM     65  C   UNL A   1      46.422  29.342  30.703  1.00  0.00     0.029 A 
ATOM     66  N   UNL A   1      45.159  31.106  31.120  1.00  0.00    -0.354 N 
ATOM     67  N   UNL A   1      41.274  31.123  33.165  1.00  0.00    -0.248 NA
ATOM     68  C   UNL A   1      41.081  32.615  31.371  1.00  0.00     0.031 C 
ATOM     69  C   UNL A   1      45.574  29.071  31.814  1.00  0.00     0.029 A 
ATOM     70  C   UNL A   1      44.686  30.137  31.970  1.00  0.00     0.049 A 
ATOM     71  H   UNL A   1      44.991  32.072  31.198  1.00  0.00     0.167 HD
ATOM     72  C   UNL A   1      42.526  31.230  32.572  1.00  0.00     0.074 A 
ATOM     73  C   UNL A   1      42.345  32.186  31.474  1.00  0.00     0.031 C 
ATOM     74  C   UNL A   1      43.503  30.297  32.789  1.00  0.00     0.037 A 
BRANCH  61  75
ATOM     75  C   UNL A   1      45.954  32.328  28.326  1.00  0.00     0.058 A 
ATOM     76  C   UNL A   1      47.300  32.702  28.138  1.00  0.00     0.135 A 
ATOM     77  C   UNL A   1      45.023  33.392  28.321  1.00  0.00     0.135 A 
ATOM     78  F   UNL A   1      48.271  31.775  28.113  1.00  0.00    -0.206 F 
ATOM     79  C   UNL A   1      47.701  34.033  28.038  1.00  0.00     0.059 A 
ATOM     80  C   UNL A   1      45.397  34.723  28.176  1.00  0.00     0.059 A 
ATOM     81  F   UNL A   1      43.717  33.212  28.542  1.00  0.00    -0.206 F 
ATOM     82  C   UNL A   1      46.741  35.038  28.071  1.00  0.00     0.060 A 
BRANCH  82  83
ATOM     83  S   UNL A   1      47.266  36.757  28.005  1.00  0.00     0.124 S 
ATOM     84  O   UNL A   1      48.701  36.618  27.788  1.00  0.00    -0.237 OA
ATOM     85  O   UNL A   1      46.491  37.260  26.875  1.00  0.00    -0.237 OA
ATOM     86  O   UNL A   1      46.871  37.279  29.310  1.00  0.00    -0.744 OA
ENDBRANCH  82  83
ENDBRANCH  61  75
BRANCH  62  87
ATOM     87  C   UNL A   1      37.869  31.810  31.846  1.00  0.00     0.058 A 
ATOM     88  C   UNL A   1      36.679  31.352  32.459  1.00  0.00     0.135 A 
ATOM     89  C   UNL A   1      37.846  33.154  31.430  1.00  0.00     0.135 A 
ATOM     90  F   UNL A   1      36.592  30.088  32.905  1.00  0.00    -0.206 F 
ATOM     91  C   UNL A   1      35.568  32.193  32.692  1.00  0.00     0.059 A 
ATOM     92  C   UNL A   1      36.760  34.003  31.647  1.00  0.00     0.059 A 
ATOM     93  F   UNL A   1      38.927  33.725  30.880  1.00  0.00    -0.206 F 
ATOM     94  C   UNL A   1      35.633  33.532  32.305  1.00  0.00     0.060 A 
BRANCH  94  95
ATOM     95  S   UNL A   1      34.329  34.704  32.774  1.00  0.00     0.124 S 
ATOM     96  O   UNL A   1      34.151  35.475  31.550  1.00  0.00    -0.237 OA
ATOM     97  O   UNL A   1      33.229  33.818  33.140  1.00  0.00    -0.237 OA
ATOM     98  O   UNL A   1      34.924  35.437  33.891  1.00  0.00    -0.744 OA
ENDBRANCH  94  95
ENDBRANCH  62  87
BRANCH  74  99
ATOM     99  C   UNL A   1      43.282  29.241  33.849  1.00  0.00     0.058 A 
ATOM    100  C   UNL A   1      43.431  29.439  35.235  1.00  0.00     0.135 A 
ATOM    101  C   UNL A   1      42.701  28.033  33.443  1.00  0.00     0.135 A 
ATOM    102  F   UNL A   1      43.865  30.608  35.721  1.00  0.00    -0.206 F 
ATOM    103  C   UNL A   1      43.067  28.463  36.169  1.00  0.00     0.059 A 
ATOM    104  C   UNL A   1      42.300  27.059  34.353  1.00  0.00     0.059 A 
ATOM    105  F   UNL A   1      42.455  27.813  32.142  1.00  0.00    -0.206 F 
ATOM    106  C   UNL A   1      42.506  27.270  35.714  1.00  0.00     0.060 A 
BRANCH 106 107
ATOM    107  S   UNL A   1      42.008  26.011  36.908  1.00  0.00     0.124 S 
ATOM    108  O   UNL A   1      42.323  24.777  36.195  1.00  0.00    -0.237 OA
ATOM    109  O   UNL A   1      42.853  26.312  38.060  1.00  0.00    -0.237 OA
ATOM    110  O   UNL A   1      40.584  26.272  37.104  1.00  0.00    -0.744 OA
ENDBRANCH 106 107
ENDBRANCH  74  99
ENDBRANCH  48  49
ENDBRANCH  40  43
ENDBRANCH  38  39
ENDBRANCH  37  38
ENDBRANCH  36  37
ENDBRANCH   3  36
TORSDOF 19
ENDMDL
