MODEL 1
REMARK VINA RESULT:     -11.7      0.000      0.000
REMARK SMILES CO[C@H]1CCC[C@H]1NC(=O)N[C@](C)(C(=O)NCCCNC(=O)c1ccc(-c2c3nc(c(-c4c(F)cc(S(=O)(=O)[O-])cc4F)c4ccc([nH]4)c(-c4c(F)cc(S(=O)(=O)[O-])cc4F)c4nc(c(-c5c(F)cc(S(=O)(=O)[O-])cc5F)c5ccc2[nH]5)C=C4)C=C3)cc1)C(F)(F)F
REMARK SMILES IDX 18 1 17 2 16 3 14 4 15 5 12 7 13 8 11 9 8 10 9 11 10 13 7 15
REMARK SMILES IDX 3 16 4 17 5 18 6 19 2 20 1 21 89 22 90 23 91 24 92 25 19 26
REMARK SMILES IDX 20 27 21 28 22 30 23 31 24 32 88 33 25 34 87 35 26 36 27 37
REMARK SMILES IDX 28 38 81 39 29 40 86 41 80 42 82 43 30 44 85 45 79 46 78 47
REMARK SMILES IDX 31 49 65 50 44 51 64 52 45 53 48 54 63 55 83 56 46 57 47 58
REMARK SMILES IDX 62 60 84 61 49 62 32 63 33 64 42 65 34 66 35 67 41 68 43 69
REMARK SMILES IDX 36 70 37 71 38 72 39 73 40 74 66 75 67 76 76 77 68 78 69 79
REMARK SMILES IDX 75 80 77 81 70 82 71 83 72 84 73 85 74 86 50 87 51 88 60 89
REMARK SMILES IDX 52 90 53 91 59 92 61 93 54 94 55 95 56 96 57 97 58 98
REMARK H PARENT 16 6 8 12 11 14 20 29 82 48 48 59
REMARK Flexibility Score: inf
ROOT
ATOM      1  C   UNL A   1      37.540  23.074  25.724  1.00  0.00     0.042 C 
ENDROOT
BRANCH   1   2
ATOM      2  C   UNL A   1      36.377  23.645  24.909  1.00  0.00     0.117 C 
BRANCH   2   3
ATOM      3  N   UNL A   1      35.301  24.090  25.789  1.00  0.00    -0.354 N 
ATOM      4  C   UNL A   1      33.972  23.747  25.847  1.00  0.00     0.255 C 
ATOM      5  O   UNL A   1      33.249  24.551  26.440  1.00  0.00    -0.272 OA
ATOM      6  H   UNL A   1      35.577  24.754  26.461  1.00  0.00     0.163 HD
BRANCH   4   7
ATOM      7  C   UNL A   1      33.420  22.489  25.121  1.00  0.00     0.213 C 
ATOM      8  C   UNL A   1      31.886  22.505  25.337  1.00  0.00     0.056 C 
BRANCH   7   9
ATOM      9  N   UNL A   1      33.744  22.648  23.668  1.00  0.00    -0.316 N 
ATOM     10  N   UNL A   1      32.545  24.538  22.840  1.00  0.00    -0.333 N 
ATOM     11  C   UNL A   1      33.405  23.523  22.713  1.00  0.00     0.316 C 
ATOM     12  H   UNL A   1      32.412  25.005  21.984  1.00  0.00     0.165 HD
ATOM     13  O   UNL A   1      33.922  23.355  21.605  1.00  0.00    -0.249 OA
ATOM     14  H   UNL A   1      34.350  21.946  23.338  1.00  0.00     0.166 HD
BRANCH  10  15
ATOM     15  C   UNL A   1      31.754  25.138  23.901  1.00  0.00     0.112 C 
ATOM     16  C   UNL A   1      31.983  26.641  24.177  1.00  0.00     0.140 C 
ATOM     17  C   UNL A   1      30.826  26.936  25.139  1.00  0.00     0.034 C 
ATOM     18  C   UNL A   1      29.669  26.037  24.684  1.00  0.00     0.005 C 
ATOM     19  C   UNL A   1      30.252  25.090  23.632  1.00  0.00     0.028 C 
BRANCH  16  20
ATOM     20  O   UNL A   1      31.808  27.465  23.017  1.00  0.00    -0.379 OA
ATOM     21  C   UNL A   1      31.796  28.854  23.324  1.00  0.00     0.195 C 
ENDBRANCH  16  20
ENDBRANCH  10  15
ENDBRANCH   7   9
BRANCH   7  22
ATOM     22  C   UNL A   1      33.902  21.127  25.700  1.00  0.00     0.420 C 
ATOM     23  F   UNL A   1      32.930  20.227  25.938  1.00  0.00    -0.168 F 
ATOM     24  F   UNL A   1      34.791  20.516  24.869  1.00  0.00    -0.168 F 
ATOM     25  F   UNL A   1      34.586  21.284  26.860  1.00  0.00    -0.168 F 
ENDBRANCH   7  22
ENDBRANCH   4   7
ENDBRANCH   2   3
ENDBRANCH   1   2
BRANCH   1  26
ATOM     26  C   UNL A   1      38.405  24.142  26.381  1.00  0.00     0.118 C 
BRANCH  26  27
ATOM     27  N   UNL A   1      39.821  23.929  26.126  1.00  0.00    -0.352 N 
ATOM     28  C   UNL A   1      40.908  24.667  26.531  1.00  0.00     0.251 C 
ATOM     29  H   UNL A   1      40.033  23.137  25.583  1.00  0.00     0.163 HD
ATOM     30  O   UNL A   1      42.004  24.446  26.025  1.00  0.00    -0.269 OA
BRANCH  28  31
ATOM     31  C   UNL A   1      40.763  25.735  27.548  1.00  0.00     0.039 A 
ATOM     32  C   UNL A   1      39.754  25.618  28.509  1.00  0.00     0.014 A 
ATOM     33  C   UNL A   1      41.590  26.861  27.546  1.00  0.00     0.014 A 
ATOM     34  C   UNL A   1      39.615  26.596  29.497  1.00  0.00     0.010 A 
ATOM     35  C   UNL A   1      41.506  27.791  28.581  1.00  0.00     0.010 A 
ATOM     36  C   UNL A   1      40.513  27.674  29.565  1.00  0.00    -0.014 A 
BRANCH  36  37
ATOM     37  C   UNL A   1      40.426  28.685  30.654  1.00  0.00     0.031 A 
ATOM     38  C   UNL A   1      41.288  28.551  31.884  1.00  0.00     0.074 A 
ATOM     39  C   UNL A   1      39.525  29.685  30.565  1.00  0.00     0.049 A 
ATOM     40  N   UNL A   1      41.302  29.291  32.964  1.00  0.00    -0.248 NA
ATOM     41  C   UNL A   1      42.237  27.427  31.920  1.00  0.00     0.031 C 
ATOM     42  C   UNL A   1      38.596  29.891  29.451  1.00  0.00     0.029 A 
ATOM     43  N   UNL A   1      39.230  30.709  31.432  1.00  0.00    -0.354 N 
ATOM     44  C   UNL A   1      42.237  28.708  33.812  1.00  0.00     0.074 A 
ATOM     45  C   UNL A   1      42.744  27.533  33.140  1.00  0.00     0.031 C 
ATOM     46  C   UNL A   1      37.845  30.977  29.696  1.00  0.00     0.029 A 
ATOM     47  C   UNL A   1      38.207  31.522  31.000  1.00  0.00     0.049 A 
ATOM     48  H   UNL A   1      39.705  30.847  32.283  1.00  0.00     0.167 HD
ATOM     49  C   UNL A   1      42.646  29.126  35.033  1.00  0.00     0.037 A 
ATOM     50  C   UNL A   1      37.615  32.578  31.593  1.00  0.00     0.037 A 
ATOM     51  C   UNL A   1      42.172  30.324  35.677  1.00  0.00     0.049 A 
ATOM     52  C   UNL A   1      38.106  33.031  32.944  1.00  0.00     0.074 A 
ATOM     53  C   UNL A   1      42.599  30.882  36.870  1.00  0.00     0.029 A 
ATOM     54  N   UNL A   1      41.165  31.142  35.191  1.00  0.00    -0.354 N 
ATOM     55  N   UNL A   1      39.060  32.521  33.687  1.00  0.00    -0.248 NA
ATOM     56  C   UNL A   1      37.449  34.205  33.534  1.00  0.00     0.031 C 
ATOM     57  C   UNL A   1      41.810  32.004  37.134  1.00  0.00     0.029 A 
ATOM     58  C   UNL A   1      40.933  32.182  36.076  1.00  0.00     0.049 A 
ATOM     59  H   UNL A   1      40.684  31.005  34.342  1.00  0.00     0.167 HD
ATOM     60  C   UNL A   1      39.137  33.331  34.816  1.00  0.00     0.074 A 
ATOM     61  C   UNL A   1      38.144  34.372  34.651  1.00  0.00     0.031 C 
ATOM     62  C   UNL A   1      39.954  33.222  35.892  1.00  0.00     0.037 A 
BRANCH  49  63
ATOM     63  C   UNL A   1      43.661  28.295  35.770  1.00  0.00     0.058 A 
ATOM     64  C   UNL A   1      43.283  27.279  36.661  1.00  0.00     0.135 A 
ATOM     65  C   UNL A   1      45.031  28.458  35.508  1.00  0.00     0.135 A 
ATOM     66  F   UNL A   1      41.988  27.090  36.962  1.00  0.00    -0.206 F 
ATOM     67  C   UNL A   1      44.226  26.457  37.269  1.00  0.00     0.059 A 
ATOM     68  C   UNL A   1      45.991  27.630  36.083  1.00  0.00     0.059 A 
ATOM     69  F   UNL A   1      45.449  29.417  34.667  1.00  0.00    -0.206 F 
ATOM     70  C   UNL A   1      45.578  26.634  36.966  1.00  0.00     0.060 A 
BRANCH  70  71
ATOM     71  S   UNL A   1      46.783  25.523  37.724  1.00  0.00     0.124 S 
ATOM     72  O   UNL A   1      45.942  24.768  38.648  1.00  0.00    -0.237 OA
ATOM     73  O   UNL A   1      47.286  24.780  36.573  1.00  0.00    -0.237 OA
ATOM     74  O   UNL A   1      47.740  26.433  38.346  1.00  0.00    -0.744 OA
ENDBRANCH  70  71
ENDBRANCH  49  63
BRANCH  50  75
ATOM     75  C   UNL A   1      36.485  33.282  30.926  1.00  0.00     0.058 A 
ATOM     76  C   UNL A   1      36.696  34.094  29.801  1.00  0.00     0.135 A 
ATOM     77  C   UNL A   1      35.175  33.181  31.420  1.00  0.00     0.135 A 
ATOM     78  F   UNL A   1      37.930  34.227  29.292  1.00  0.00    -0.206 F 
ATOM     79  C   UNL A   1      35.658  34.811  29.213  1.00  0.00     0.059 A 
ATOM     80  C   UNL A   1      34.115  33.863  30.829  1.00  0.00     0.059 A 
ATOM     81  F   UNL A   1      34.912  32.402  32.480  1.00  0.00    -0.206 F 
ATOM     82  C   UNL A   1      34.370  34.692  29.739  1.00  0.00     0.060 A 
BRANCH  82  83
ATOM     83  S   UNL A   1      33.028  35.621  28.968  1.00  0.00     0.124 S 
ATOM     84  O   UNL A   1      32.275  36.069  30.133  1.00  0.00    -0.237 OA
ATOM     85  O   UNL A   1      33.752  36.656  28.237  1.00  0.00    -0.237 OA
ATOM     86  O   UNL A   1      32.367  34.622  28.134  1.00  0.00    -0.744 OA
ENDBRANCH  82  83
ENDBRANCH  50  75
BRANCH  62  87
ATOM     87  C   UNL A   1      39.849  34.280  36.956  1.00  0.00     0.058 A 
ATOM     88  C   UNL A   1      40.465  35.535  36.818  1.00  0.00     0.135 A 
ATOM     89  C   UNL A   1      39.075  34.053  38.106  1.00  0.00     0.135 A 
ATOM     90  F   UNL A   1      41.220  35.802  35.741  1.00  0.00    -0.206 F 
ATOM     91  C   UNL A   1      40.336  36.518  37.794  1.00  0.00     0.059 A 
ATOM     92  C   UNL A   1      38.907  35.033  39.080  1.00  0.00     0.059 A 
ATOM     93  F   UNL A   1      38.456  32.875  38.283  1.00  0.00    -0.206 F 
ATOM     94  C   UNL A   1      39.552  36.257  38.920  1.00  0.00     0.060 A 
BRANCH  94  95
ATOM     95  S   UNL A   1      39.367  37.553  40.163  1.00  0.00     0.124 S 
ATOM     96  O   UNL A   1      40.739  38.031  40.297  1.00  0.00    -0.237 OA
ATOM     97  O   UNL A   1      38.435  38.473  39.519  1.00  0.00    -0.237 OA
ATOM     98  O   UNL A   1      38.835  36.841  41.321  1.00  0.00    -0.744 OA
ENDBRANCH  94  95
ENDBRANCH  62  87
ENDBRANCH  36  37
ENDBRANCH  28  31
ENDBRANCH  26  27
ENDBRANCH   1  26
TORSDOF 17
ENDMDL
MODEL 2
REMARK VINA RESULT:     -11.7      6.470      8.797
REMARK SMILES CO[C@H]1CCC[C@H]1NC(=O)N[C@](C)(C(=O)NCCCNC(=O)c1ccc(-c2c3nc(c(-c4c(F)cc(S(=O)(=O)[O-])cc4F)c4ccc([nH]4)c(-c4c(F)cc(S(=O)(=O)[O-])cc4F)c4nc(c(-c5c(F)cc(S(=O)(=O)[O-])cc5F)c5ccc2[nH]5)C=C4)C=C3)cc1)C(F)(F)F
REMARK SMILES IDX 18 1 17 2 16 3 14 4 15 5 12 7 13 8 11 9 8 10 9 11 10 13 7 15
REMARK SMILES IDX 3 16 4 17 5 18 6 19 2 20 1 21 89 22 90 23 91 24 92 25 19 26
REMARK SMILES IDX 20 27 21 28 22 30 23 31 24 32 88 33 25 34 87 35 26 36 27 37
REMARK SMILES IDX 28 38 81 39 29 40 86 41 80 42 82 43 30 44 85 45 79 46 78 47
REMARK SMILES IDX 31 49 65 50 44 51 64 52 45 53 48 54 63 55 83 56 46 57 47 58
REMARK SMILES IDX 62 60 84 61 49 62 32 63 33 64 42 65 34 66 35 67 41 68 43 69
REMARK SMILES IDX 36 70 37 71 38 72 39 73 40 74 66 75 67 76 76 77 68 78 69 79
REMARK SMILES IDX 75 80 77 81 70 82 71 83 72 84 73 85 74 86 50 87 51 88 60 89
REMARK SMILES IDX 52 90 53 91 59 92 61 93 54 94 55 95 56 96 57 97 58 98
REMARK H PARENT 16 6 8 12 11 14 20 29 82 48 48 59
REMARK Flexibility Score: inf
ROOT
ATOM      1  C   UNL A   1      37.962  20.000  24.921  1.00  0.00     0.042 C 
ENDROOT
BRANCH   1   2
ATOM      2  C   UNL A   1      36.821  21.012  24.794  1.00  0.00     0.117 C 
BRANCH   2   3
ATOM      3  N   UNL A   1      35.900  20.896  25.920  1.00  0.00    -0.354 N 
ATOM      4  C   UNL A   1      34.836  21.673  26.310  1.00  0.00     0.255 C 
ATOM      5  O   UNL A   1      34.493  21.537  27.487  1.00  0.00    -0.272 OA
ATOM      6  H   UNL A   1      36.073  20.123  26.505  1.00  0.00     0.163 HD
BRANCH   4   7
ATOM      7  C   UNL A   1      34.193  22.716  25.356  1.00  0.00     0.213 C 
ATOM      8  C   UNL A   1      34.393  22.170  23.921  1.00  0.00     0.056 C 
BRANCH   7   9
ATOM      9  N   UNL A   1      32.735  22.772  25.693  1.00  0.00    -0.316 N 
ATOM     10  N   UNL A   1      31.735  20.711  25.024  1.00  0.00    -0.333 N 
ATOM     11  C   UNL A   1      31.705  21.924  25.585  1.00  0.00     0.316 C 
ATOM     12  H   UNL A   1      30.841  20.301  25.007  1.00  0.00     0.165 HD
ATOM     13  O   UNL A   1      30.621  22.315  26.027  1.00  0.00    -0.249 OA
ATOM     14  H   UNL A   1      32.472  23.635  26.089  1.00  0.00     0.166 HD
BRANCH  10  15
ATOM     15  C   UNL A   1      32.732  19.837  24.430  1.00  0.00     0.112 C 
ATOM     16  C   UNL A   1      33.217  18.648  25.290  1.00  0.00     0.140 C 
ATOM     17  C   UNL A   1      34.026  17.856  24.257  1.00  0.00     0.034 C 
ATOM     18  C   UNL A   1      33.301  18.058  22.920  1.00  0.00     0.005 C 
ATOM     19  C   UNL A   1      32.241  19.134  23.167  1.00  0.00     0.028 C 
BRANCH  16  20
ATOM     20  O   UNL A   1      32.151  17.806  25.749  1.00  0.00    -0.379 OA
ATOM     21  C   UNL A   1      32.522  16.434  25.818  1.00  0.00     0.195 C 
ENDBRANCH  16  20
ENDBRANCH  10  15
ENDBRANCH   7   9
BRANCH   7  22
ATOM     22  C   UNL A   1      34.866  24.119  25.360  1.00  0.00     0.420 C 
ATOM     23  F   UNL A   1      35.058  24.669  24.146  1.00  0.00    -0.168 F 
ATOM     24  F   UNL A   1      34.140  25.021  26.075  1.00  0.00    -0.168 F 
ATOM     25  F   UNL A   1      36.072  24.100  25.978  1.00  0.00    -0.168 F 
ENDBRANCH   7  22
ENDBRANCH   4   7
ENDBRANCH   2   3
ENDBRANCH   1   2
BRANCH   1  26
ATOM     26  C   UNL A   1      39.094  20.471  25.825  1.00  0.00     0.118 C 
BRANCH  26  27
ATOM     27  N   UNL A   1      40.115  19.450  25.997  1.00  0.00    -0.352 N 
ATOM     28  C   UNL A   1      41.475  19.582  26.145  1.00  0.00     0.251 C 
ATOM     29  H   UNL A   1      39.781  18.524  26.011  1.00  0.00     0.163 HD
ATOM     30  O   UNL A   1      42.187  18.586  26.053  1.00  0.00    -0.269 OA
BRANCH  28  31
ATOM     31  C   UNL A   1      42.085  20.910  26.389  1.00  0.00     0.039 A 
ATOM     32  C   UNL A   1      42.360  21.737  25.296  1.00  0.00     0.014 A 
ATOM     33  C   UNL A   1      42.416  21.335  27.679  1.00  0.00     0.014 A 
ATOM     34  C   UNL A   1      42.908  23.006  25.501  1.00  0.00     0.010 A 
ATOM     35  C   UNL A   1      42.882  22.631  27.889  1.00  0.00     0.010 A 
ATOM     36  C   UNL A   1      43.141  23.481  26.802  1.00  0.00    -0.014 A 
BRANCH  36  37
ATOM     37  C   UNL A   1      43.653  24.857  27.043  1.00  0.00     0.031 A 
ATOM     38  C   UNL A   1      45.105  25.180  26.798  1.00  0.00     0.074 A 
ATOM     39  C   UNL A   1      42.827  25.798  27.545  1.00  0.00     0.049 A 
ATOM     40  N   UNL A   1      45.749  26.299  27.016  1.00  0.00    -0.248 NA
ATOM     41  C   UNL A   1      45.953  24.100  26.265  1.00  0.00     0.031 C 
ATOM     42  C   UNL A   1      41.414  25.594  27.876  1.00  0.00     0.029 A 
ATOM     43  N   UNL A   1      43.056  27.110  27.880  1.00  0.00    -0.354 N 
ATOM     44  C   UNL A   1      47.073  26.050  26.674  1.00  0.00     0.074 A 
ATOM     45  C   UNL A   1      47.152  24.665  26.267  1.00  0.00     0.031 C 
ATOM     46  C   UNL A   1      40.902  26.740  28.353  1.00  0.00     0.029 A 
ATOM     47  C   UNL A   1      41.955  27.749  28.403  1.00  0.00     0.049 A 
ATOM     48  H   UNL A   1      43.927  27.552  27.757  1.00  0.00     0.167 HD
ATOM     49  C   UNL A   1      48.123  26.905  26.682  1.00  0.00     0.037 A 
ATOM     50  C   UNL A   1      41.812  29.000  28.884  1.00  0.00     0.037 A 
ATOM     51  C   UNL A   1      48.028  28.296  27.042  1.00  0.00     0.049 A 
ATOM     52  C   UNL A   1      42.995  29.933  28.862  1.00  0.00     0.074 A 
ATOM     53  C   UNL A   1      49.015  29.265  26.987  1.00  0.00     0.029 A 
ATOM     54  N   UNL A   1      46.887  28.915  27.530  1.00  0.00    -0.354 N 
ATOM     55  N   UNL A   1      44.216  29.705  28.442  1.00  0.00    -0.248 NA
ATOM     56  C   UNL A   1      42.779  31.295  29.370  1.00  0.00     0.031 C 
ATOM     57  C   UNL A   1      48.489  30.454  27.497  1.00  0.00     0.029 A 
ATOM     58  C   UNL A   1      47.156  30.245  27.811  1.00  0.00     0.049 A 
ATOM     59  H   UNL A   1      46.016  28.475  27.657  1.00  0.00     0.167 HD
ATOM     60  C   UNL A   1      44.905  30.903  28.606  1.00  0.00     0.074 A 
ATOM     61  C   UNL A   1      43.960  31.857  29.149  1.00  0.00     0.031 C 
ATOM     62  C   UNL A   1      46.202  31.188  28.334  1.00  0.00     0.037 A 
BRANCH  49  63
ATOM     63  C   UNL A   1      49.476  26.379  26.289  1.00  0.00     0.058 A 
ATOM     64  C   UNL A   1      50.018  26.601  25.014  1.00  0.00     0.135 A 
ATOM     65  C   UNL A   1      50.281  25.724  27.236  1.00  0.00     0.135 A 
ATOM     66  F   UNL A   1      49.287  27.207  24.065  1.00  0.00    -0.206 F 
ATOM     67  C   UNL A   1      51.307  26.188  24.689  1.00  0.00     0.059 A 
ATOM     68  C   UNL A   1      51.582  25.326  26.943  1.00  0.00     0.059 A 
ATOM     69  F   UNL A   1      49.811  25.482  28.470  1.00  0.00    -0.206 F 
ATOM     70  C   UNL A   1      52.085  25.561  25.664  1.00  0.00     0.060 A 
BRANCH  70  71
ATOM     71  S   UNL A   1      53.773  25.081  25.240  1.00  0.00     0.124 S 
ATOM     72  O   UNL A   1      53.705  23.629  25.371  1.00  0.00    -0.237 OA
ATOM     73  O   UNL A   1      53.908  25.590  23.880  1.00  0.00    -0.237 OA
ATOM     74  O   UNL A   1      54.583  25.763  26.245  1.00  0.00    -0.744 OA
ENDBRANCH  70  71
ENDBRANCH  49  63
BRANCH  50  75
ATOM     75  C   UNL A   1      40.505  29.449  29.439  1.00  0.00     0.058 A 
ATOM     76  C   UNL A   1      39.438  29.795  28.597  1.00  0.00     0.135 A 
ATOM     77  C   UNL A   1      40.308  29.571  30.824  1.00  0.00     0.135 A 
ATOM     78  F   UNL A   1      39.575  29.699  27.265  1.00  0.00    -0.206 F 
ATOM     79  C   UNL A   1      38.237  30.283  29.103  1.00  0.00     0.059 A 
ATOM     80  C   UNL A   1      39.105  30.026  31.355  1.00  0.00     0.059 A 
ATOM     81  F   UNL A   1      41.288  29.235  31.676  1.00  0.00    -0.206 F 
ATOM     82  C   UNL A   1      38.082  30.400  30.485  1.00  0.00     0.060 A 
BRANCH  82  83
ATOM     83  S   UNL A   1      36.519  31.028  31.135  1.00  0.00     0.124 S 
ATOM     84  O   UNL A   1      36.106  29.936  32.009  1.00  0.00    -0.237 OA
ATOM     85  O   UNL A   1      36.937  32.257  31.802  1.00  0.00    -0.237 OA
ATOM     86  O   UNL A   1      35.711  31.218  29.935  1.00  0.00    -0.744 OA
ENDBRANCH  82  83
ENDBRANCH  50  75
BRANCH  62  87
ATOM     87  C   UNL A   1      46.670  32.598  28.569  1.00  0.00     0.058 A 
ATOM     88  C   UNL A   1      46.564  33.589  27.580  1.00  0.00     0.135 A 
ATOM     89  C   UNL A   1      47.181  32.975  29.823  1.00  0.00     0.135 A 
ATOM     90  F   UNL A   1      46.088  33.281  26.364  1.00  0.00    -0.206 F 
ATOM     91  C   UNL A   1      46.971  34.898  27.818  1.00  0.00     0.059 A 
ATOM     92  C   UNL A   1      47.564  34.285  30.092  1.00  0.00     0.059 A 
ATOM     93  F   UNL A   1      47.294  32.069  30.807  1.00  0.00    -0.206 F 
ATOM     94  C   UNL A   1      47.468  35.236  29.078  1.00  0.00     0.060 A 
BRANCH  94  95
ATOM     95  S   UNL A   1      47.961  36.945  29.383  1.00  0.00     0.124 S 
ATOM     96  O   UNL A   1      48.571  36.845  30.705  1.00  0.00    -0.237 OA
ATOM     97  O   UNL A   1      48.880  37.207  28.279  1.00  0.00    -0.237 OA
ATOM     98  O   UNL A   1      46.700  37.679  29.327  1.00  0.00    -0.744 OA
ENDBRANCH  94  95
ENDBRANCH  62  87
ENDBRANCH  36  37
ENDBRANCH  28  31
ENDBRANCH  26  27
ENDBRANCH   1  26
TORSDOF 17
ENDMDL
MODEL 3
REMARK VINA RESULT:     -11.6      1.546      2.509
REMARK SMILES CO[C@H]1CCC[C@H]1NC(=O)N[C@](C)(C(=O)NCCCNC(=O)c1ccc(-c2c3nc(c(-c4c(F)cc(S(=O)(=O)[O-])cc4F)c4ccc([nH]4)c(-c4c(F)cc(S(=O)(=O)[O-])cc4F)c4nc(c(-c5c(F)cc(S(=O)(=O)[O-])cc5F)c5ccc2[nH]5)C=C4)C=C3)cc1)C(F)(F)F
REMARK SMILES IDX 18 1 17 2 16 3 14 4 15 5 12 7 13 8 11 9 8 10 9 11 10 13 7 15
REMARK SMILES IDX 3 16 4 17 5 18 6 19 2 20 1 21 89 22 90 23 91 24 92 25 19 26
REMARK SMILES IDX 20 27 21 28 22 30 23 31 24 32 88 33 25 34 87 35 26 36 27 37
REMARK SMILES IDX 28 38 81 39 29 40 86 41 80 42 82 43 30 44 85 45 79 46 78 47
REMARK SMILES IDX 31 49 65 50 44 51 64 52 45 53 48 54 63 55 83 56 46 57 47 58
REMARK SMILES IDX 62 60 84 61 49 62 32 63 33 64 42 65 34 66 35 67 41 68 43 69
REMARK SMILES IDX 36 70 37 71 38 72 39 73 40 74 66 75 67 76 76 77 68 78 69 79
REMARK SMILES IDX 75 80 77 81 70 82 71 83 72 84 73 85 74 86 50 87 51 88 60 89
REMARK SMILES IDX 52 90 53 91 59 92 61 93 54 94 55 95 56 96 57 97 58 98
REMARK H PARENT 16 6 8 12 11 14 20 29 82 48 48 59
REMARK Flexibility Score: inf
ROOT
ATOM      1  C   UNL A   1      39.948  21.850  26.662  1.00  0.00     0.042 C 
ENDROOT
BRANCH   1   2
ATOM      2  C   UNL A   1      38.570  22.161  26.073  1.00  0.00     0.117 C 
BRANCH   2   3
ATOM      3  N   UNL A   1      38.041  21.004  25.358  1.00  0.00    -0.354 N 
ATOM      4  C   UNL A   1      36.769  20.691  24.946  1.00  0.00     0.255 C 
ATOM      5  O   UNL A   1      36.577  19.497  24.701  1.00  0.00    -0.272 OA
ATOM      6  H   UNL A   1      38.719  20.327  25.128  1.00  0.00     0.163 HD
BRANCH   4   7
ATOM      7  C   UNL A   1      35.639  21.756  24.900  1.00  0.00     0.213 C 
ATOM      8  C   UNL A   1      34.398  21.043  24.308  1.00  0.00     0.056 C 
BRANCH   7   9
ATOM      9  N   UNL A   1      35.376  22.171  26.315  1.00  0.00    -0.316 N 
ATOM     10  N   UNL A   1      33.291  23.331  26.375  1.00  0.00    -0.333 N 
ATOM     11  C   UNL A   1      34.379  22.804  26.945  1.00  0.00     0.316 C 
ATOM     12  H   UNL A   1      32.731  23.799  27.035  1.00  0.00     0.165 HD
ATOM     13  O   UNL A   1      34.495  22.932  28.168  1.00  0.00    -0.249 OA
ATOM     14  H   UNL A   1      36.106  21.918  26.924  1.00  0.00     0.166 HD
BRANCH  10  15
ATOM     15  C   UNL A   1      32.713  23.398  25.044  1.00  0.00     0.112 C 
ATOM     16  C   UNL A   1      31.229  22.992  24.907  1.00  0.00     0.140 C 
ATOM     17  C   UNL A   1      30.941  23.433  23.468  1.00  0.00     0.034 C 
ATOM     18  C   UNL A   1      31.790  24.691  23.242  1.00  0.00     0.005 C 
ATOM     19  C   UNL A   1      32.710  24.809  24.460  1.00  0.00     0.028 C 
BRANCH  16  20
ATOM     20  O   UNL A   1      30.355  23.728  25.773  1.00  0.00    -0.379 OA
ATOM     21  C   UNL A   1      29.914  22.965  26.890  1.00  0.00     0.195 C 
ENDBRANCH  16  20
ENDBRANCH  10  15
ENDBRANCH   7   9
BRANCH   7  22
ATOM     22  C   UNL A   1      35.907  22.965  23.958  1.00  0.00     0.420 C 
ATOM     23  F   UNL A   1      34.967  23.183  23.020  1.00  0.00    -0.168 F 
ATOM     24  F   UNL A   1      36.026  24.127  24.656  1.00  0.00    -0.168 F 
ATOM     25  F   UNL A   1      37.091  22.846  23.308  1.00  0.00    -0.168 F 
ENDBRANCH   7  22
ENDBRANCH   4   7
ENDBRANCH   2   3
ENDBRANCH   1   2
BRANCH   1  26
ATOM     26  C   UNL A   1      40.667  23.077  27.208  1.00  0.00     0.118 C 
BRANCH  26  27
ATOM     27  N   UNL A   1      41.342  23.825  26.159  1.00  0.00    -0.352 N 
ATOM     28  C   UNL A   1      41.637  25.165  26.086  1.00  0.00     0.251 C 
ATOM     29  H   UNL A   1      41.632  23.290  25.386  1.00  0.00     0.163 HD
ATOM     30  O   UNL A   1      42.013  25.637  25.017  1.00  0.00    -0.269 OA
BRANCH  28  31
ATOM     31  C   UNL A   1      41.483  26.041  27.270  1.00  0.00     0.039 A 
ATOM     32  C   UNL A   1      42.462  27.006  27.527  1.00  0.00     0.014 A 
ATOM     33  C   UNL A   1      40.403  25.901  28.147  1.00  0.00     0.014 A 
ATOM     34  C   UNL A   1      42.326  27.865  28.620  1.00  0.00     0.010 A 
ATOM     35  C   UNL A   1      40.225  26.811  29.186  1.00  0.00     0.010 A 
ATOM     36  C   UNL A   1      41.187  27.800  29.441  1.00  0.00    -0.014 A 
BRANCH  36  37
ATOM     37  C   UNL A   1      40.989  28.755  30.565  1.00  0.00     0.031 A 
ATOM     38  C   UNL A   1      41.807  28.625  31.824  1.00  0.00     0.074 A 
ATOM     39  C   UNL A   1      40.027  29.697  30.478  1.00  0.00     0.049 A 
ATOM     40  N   UNL A   1      41.728  29.317  32.933  1.00  0.00    -0.248 NA
ATOM     41  C   UNL A   1      42.828  27.565  31.856  1.00  0.00     0.031 C 
ATOM     42  C   UNL A   1      39.132  29.889  29.334  1.00  0.00     0.029 A 
ATOM     43  N   UNL A   1      39.629  30.661  31.372  1.00  0.00    -0.354 N 
ATOM     44  C   UNL A   1      42.665  28.760  33.797  1.00  0.00     0.074 A 
ATOM     45  C   UNL A   1      43.277  27.651  33.100  1.00  0.00     0.031 C 
ATOM     46  C   UNL A   1      38.300  30.913  29.590  1.00  0.00     0.029 A 
ATOM     47  C   UNL A   1      38.572  31.424  30.930  1.00  0.00     0.049 A 
ATOM     48  H   UNL A   1      40.059  30.793  32.247  1.00  0.00     0.167 HD
ATOM     49  C   UNL A   1      42.996  29.151  35.050  1.00  0.00     0.037 A 
ATOM     50  C   UNL A   1      37.887  32.412  31.539  1.00  0.00     0.037 A 
ATOM     51  C   UNL A   1      42.416  30.286  35.721  1.00  0.00     0.049 A 
ATOM     52  C   UNL A   1      38.292  32.837  32.927  1.00  0.00     0.074 A 
ATOM     53  C   UNL A   1      42.756  30.819  36.952  1.00  0.00     0.029 A 
ATOM     54  N   UNL A   1      41.377  31.057  35.225  1.00  0.00    -0.354 N 
ATOM     55  N   UNL A   1      39.247  32.359  33.689  1.00  0.00    -0.248 NA
ATOM     56  C   UNL A   1      37.533  33.938  33.535  1.00  0.00     0.031 C 
ATOM     57  C   UNL A   1      41.884  31.874  37.228  1.00  0.00     0.029 A 
ATOM     58  C   UNL A   1      41.040  32.041  36.141  1.00  0.00     0.049 A 
ATOM     59  H   UNL A   1      40.942  30.926  34.352  1.00  0.00     0.167 HD
ATOM     60  C   UNL A   1      39.223  33.123  34.852  1.00  0.00     0.074 A 
ATOM     61  C   UNL A   1      38.170  34.103  34.686  1.00  0.00     0.031 C 
ATOM     62  C   UNL A   1      40.002  33.021  35.957  1.00  0.00     0.037 A 
BRANCH  49  63
ATOM     63  C   UNL A   1      44.033  28.357  35.796  1.00  0.00     0.058 A 
ATOM     64  C   UNL A   1      45.403  28.646  35.695  1.00  0.00     0.135 A 
ATOM     65  C   UNL A   1      43.642  27.354  36.698  1.00  0.00     0.135 A 
ATOM     66  F   UNL A   1      45.835  29.583  34.837  1.00  0.00    -0.206 F 
ATOM     67  C   UNL A   1      46.348  27.965  36.457  1.00  0.00     0.059 A 
ATOM     68  C   UNL A   1      44.566  26.680  37.490  1.00  0.00     0.059 A 
ATOM     69  F   UNL A   1      42.345  27.035  36.831  1.00  0.00    -0.206 F 
ATOM     70  C   UNL A   1      45.918  26.991  37.359  1.00  0.00     0.060 A 
BRANCH  70  71
ATOM     71  S   UNL A   1      47.153  26.156  38.378  1.00  0.00     0.124 S 
ATOM     72  O   UNL A   1      46.433  24.953  38.783  1.00  0.00    -0.237 OA
ATOM     73  O   UNL A   1      48.248  25.953  37.435  1.00  0.00    -0.237 OA
ATOM     74  O   UNL A   1      47.419  27.117  39.445  1.00  0.00    -0.744 OA
ENDBRANCH  70  71
ENDBRANCH  49  63
BRANCH  50  75
ATOM     75  C   UNL A   1      36.739  33.068  30.852  1.00  0.00     0.058 A 
ATOM     76  C   UNL A   1      36.944  33.998  29.822  1.00  0.00     0.135 A 
ATOM     77  C   UNL A   1      35.416  32.801  31.236  1.00  0.00     0.135 A 
ATOM     78  F   UNL A   1      38.190  34.291  29.420  1.00  0.00    -0.206 F 
ATOM     79  C   UNL A   1      35.882  34.668  29.222  1.00  0.00     0.059 A 
ATOM     80  C   UNL A   1      34.336  33.435  30.629  1.00  0.00     0.059 A 
ATOM     81  F   UNL A   1      35.162  31.905  32.201  1.00  0.00    -0.206 F 
ATOM     82  C   UNL A   1      34.580  34.383  29.637  1.00  0.00     0.060 A 
BRANCH  82  83
ATOM     83  S   UNL A   1      33.207  35.253  28.851  1.00  0.00     0.124 S 
ATOM     84  O   UNL A   1      32.438  35.693  30.010  1.00  0.00    -0.237 OA
ATOM     85  O   UNL A   1      33.896  36.301  28.105  1.00  0.00    -0.237 OA
ATOM     86  O   UNL A   1      32.581  34.219  28.033  1.00  0.00    -0.744 OA
ENDBRANCH  82  83
ENDBRANCH  50  75
BRANCH  62  87
ATOM     87  C   UNL A   1      39.783  34.023  37.057  1.00  0.00     0.058 A 
ATOM     88  C   UNL A   1      39.042  33.710  38.208  1.00  0.00     0.135 A 
ATOM     89  C   UNL A   1      40.372  35.297  36.983  1.00  0.00     0.135 A 
ATOM     90  F   UNL A   1      38.455  32.510  38.328  1.00  0.00    -0.206 F 
ATOM     91  C   UNL A   1      38.872  34.633  39.235  1.00  0.00     0.059 A 
ATOM     92  C   UNL A   1      40.241  36.224  38.012  1.00  0.00     0.059 A 
ATOM     93  F   UNL A   1      41.100  35.644  35.909  1.00  0.00    -0.206 F 
ATOM     94  C   UNL A   1      39.478  35.887  39.128  1.00  0.00     0.060 A 
BRANCH  94  95
ATOM     95  S   UNL A   1      39.276  37.063  40.482  1.00  0.00     0.124 S 
ATOM     96  O   UNL A   1      40.663  37.332  40.848  1.00  0.00    -0.237 OA
ATOM     97  O   UNL A   1      38.565  38.163  39.838  1.00  0.00    -0.237 OA
ATOM     98  O   UNL A   1      38.500  36.316  41.469  1.00  0.00    -0.744 OA
ENDBRANCH  94  95
ENDBRANCH  62  87
ENDBRANCH  36  37
ENDBRANCH  28  31
ENDBRANCH  26  27
ENDBRANCH   1  26
TORSDOF 17
ENDMDL
