MODEL 1
REMARK VINA RESULT:     -11.9      0.000      0.000
REMARK SMILES O=C(NCCCNC(=O)[C@@]1([NH2+]C2CC2)CCC[C@@H]([NH+]2CCS(=O)(=O)CC2)C1)c1ccc(-c2c3nc(c(-c4c(F)cc(S(=O)(=O)[O-])cc4F)c4ccc([nH]4)c(-c4c(F)cc(S(=O)(=O)[O-])cc4F)c4nc(c(-c5c(F)cc(S(=O)(=O)[O-])cc5F)c5ccc2[nH]5)C=C4)C=C3)cc1
REMARK SMILES IDX 4 1 3 2 1 3 2 4 28 6 29 7 93 8 30 9 92 10 31 11 32 12 33 13
REMARK SMILES IDX 86 14 34 15 91 16 85 17 87 18 35 19 90 20 84 21 83 22 36 24
REMARK SMILES IDX 70 25 49 26 69 27 50 28 53 29 68 30 88 31 51 32 52 33 67 35
REMARK SMILES IDX 89 36 54 37 37 38 38 39 47 40 39 41 40 42 46 43 48 44 41 45
REMARK SMILES IDX 42 46 43 47 44 48 45 49 71 50 72 51 81 52 73 53 74 54 80 55
REMARK SMILES IDX 82 56 75 57 76 58 77 59 78 60 79 61 55 62 56 63 65 64 57 65
REMARK SMILES IDX 58 66 64 67 66 68 59 69 60 70 61 71 62 72 63 73 5 74 6 75
REMARK SMILES IDX 7 76 8 77 9 79 10 80 15 81 27 82 16 83 18 84 17 85 11 86
REMARK SMILES IDX 12 89 13 90 14 91 19 92 20 93 26 94 21 96 25 97 22 98 23 99
REMARK SMILES IDX 24 100
REMARK H PARENT 3 5 87 23 53 34 7 78 11 87 11 88 19 95
REMARK Flexibility Score: inf
ROOT
ATOM      1  C   UNL A   1      32.820  32.612  27.455  1.00  0.00     0.118 C 
ENDROOT
BRANCH   1   2
ATOM      2  N   UNL A   1      32.665  34.037  27.709  1.00  0.00    -0.352 N 
ATOM      3  O   UNL A   1      32.682  35.890  28.976  1.00  0.00    -0.269 OA
ATOM      4  C   UNL A   1      33.186  34.799  28.721  1.00  0.00     0.251 C 
ATOM      5  H   UNL A   1      32.107  34.522  27.059  1.00  0.00     0.163 HD
BRANCH   4   6
ATOM      6  C   UNL A   1      34.350  34.315  29.491  1.00  0.00     0.039 A 
ATOM      7  C   UNL A   1      34.171  33.639  30.703  1.00  0.00     0.014 A 
ATOM      8  C   UNL A   1      35.630  34.468  28.954  1.00  0.00     0.014 A 
ATOM      9  C   UNL A   1      35.276  33.203  31.427  1.00  0.00     0.010 A 
ATOM     10  C   UNL A   1      36.732  33.964  29.644  1.00  0.00     0.010 A 
ATOM     11  C   UNL A   1      36.564  33.339  30.891  1.00  0.00    -0.014 A 
BRANCH  11  12
ATOM     12  C   UNL A   1      37.732  32.761  31.597  1.00  0.00     0.031 A 
ATOM     13  C   UNL A   1      38.429  31.552  31.050  1.00  0.00     0.074 A 
ATOM     14  C   UNL A   1      38.120  33.307  32.765  1.00  0.00     0.049 A 
ATOM     15  N   UNL A   1      39.390  30.842  31.583  1.00  0.00    -0.248 NA
ATOM     16  C   UNL A   1      37.979  31.068  29.737  1.00  0.00     0.031 C 
ATOM     17  C   UNL A   1      37.507  34.482  33.389  1.00  0.00     0.029 A 
ATOM     18  N   UNL A   1      39.104  32.937  33.646  1.00  0.00    -0.354 N 
ATOM     19  C   UNL A   1      39.643  29.813  30.686  1.00  0.00     0.074 A 
ATOM     20  C   UNL A   1      38.716  29.977  29.586  1.00  0.00     0.031 C 
ATOM     21  C   UNL A   1      38.124  34.734  34.552  1.00  0.00     0.029 A 
ATOM     22  C   UNL A   1      39.129  33.703  34.787  1.00  0.00     0.049 A 
ATOM     23  H   UNL A   1      39.730  32.197  33.478  1.00  0.00     0.167 HD
ATOM     24  C   UNL A   1      40.565  28.823  30.778  1.00  0.00     0.037 A 
ATOM     25  C   UNL A   1      39.846  33.566  35.919  1.00  0.00     0.037 A 
ATOM     26  C   UNL A   1      41.471  28.678  31.889  1.00  0.00     0.049 A 
ATOM     27  C   UNL A   1      40.835  32.441  36.022  1.00  0.00     0.074 A 
ATOM     28  C   UNL A   1      42.470  27.736  32.066  1.00  0.00     0.029 A 
ATOM     29  N   UNL A   1      41.475  29.481  33.023  1.00  0.00    -0.354 N 
ATOM     30  N   UNL A   1      41.096  31.498  35.148  1.00  0.00    -0.248 NA
ATOM     31  C   UNL A   1      41.627  32.359  37.255  1.00  0.00     0.031 C 
ATOM     32  C   UNL A   1      43.032  27.930  33.332  1.00  0.00     0.029 A 
ATOM     33  C   UNL A   1      42.436  29.038  33.915  1.00  0.00     0.049 A 
ATOM     34  H   UNL A   1      40.880  30.252  33.170  1.00  0.00     0.167 HD
ATOM     35  C   UNL A   1      42.103  30.726  35.712  1.00  0.00     0.074 A 
ATOM     36  C   UNL A   1      42.402  31.311  37.004  1.00  0.00     0.031 C 
ATOM     37  C   UNL A   1      42.730  29.639  35.196  1.00  0.00     0.037 A 
BRANCH  24  38
ATOM     38  C   UNL A   1      40.601  27.803  29.671  1.00  0.00     0.058 A 
ATOM     39  C   UNL A   1      41.571  27.834  28.657  1.00  0.00     0.135 A 
ATOM     40  C   UNL A   1      39.638  26.780  29.620  1.00  0.00     0.135 A 
ATOM     41  F   UNL A   1      42.511  28.792  28.648  1.00  0.00    -0.206 F 
ATOM     42  C   UNL A   1      41.551  26.927  27.602  1.00  0.00     0.059 A 
ATOM     43  C   UNL A   1      39.619  25.841  28.592  1.00  0.00     0.059 A 
ATOM     44  F   UNL A   1      38.690  26.694  30.566  1.00  0.00    -0.206 F 
ATOM     45  C   UNL A   1      40.564  25.942  27.572  1.00  0.00     0.060 A 
BRANCH  45  46
ATOM     46  S   UNL A   1      40.514  24.812  26.164  1.00  0.00     0.124 S 
ATOM     47  O   UNL A   1      39.084  24.529  26.071  1.00  0.00    -0.237 OA
ATOM     48  O   UNL A   1      41.069  25.629  25.090  1.00  0.00    -0.237 OA
ATOM     49  O   UNL A   1      41.347  23.694  26.594  1.00  0.00    -0.744 OA
ENDBRANCH  45  46
ENDBRANCH  24  38
BRANCH  25  50
ATOM     50  C   UNL A   1      39.623  34.527  37.031  1.00  0.00     0.058 A 
ATOM     51  C   UNL A   1      38.852  34.178  38.147  1.00  0.00     0.135 A 
ATOM     52  C   UNL A   1      40.260  35.779  37.040  1.00  0.00     0.135 A 
ATOM     53  F   UNL A   1      38.220  32.995  38.183  1.00  0.00    -0.206 F 
ATOM     54  C   UNL A   1      38.730  35.030  39.240  1.00  0.00     0.059 A 
ATOM     55  C   UNL A   1      40.175  36.636  38.130  1.00  0.00     0.059 A 
ATOM     56  F   UNL A   1      41.026  36.150  36.001  1.00  0.00    -0.206 F 
ATOM     57  C   UNL A   1      39.407  36.252  39.227  1.00  0.00     0.060 A 
BRANCH  57  58
ATOM     58  S   UNL A   1      39.322  37.302  40.695  1.00  0.00     0.124 S 
ATOM     59  O   UNL A   1      38.725  36.397  41.670  1.00  0.00    -0.237 OA
ATOM     60  O   UNL A   1      40.727  37.635  40.911  1.00  0.00    -0.237 OA
ATOM     61  O   UNL A   1      38.480  38.414  40.266  1.00  0.00    -0.744 OA
ENDBRANCH  57  58
ENDBRANCH  25  50
BRANCH  37  62
ATOM     62  C   UNL A   1      43.846  29.027  35.997  1.00  0.00     0.058 A 
ATOM     63  C   UNL A   1      43.651  27.891  36.798  1.00  0.00     0.135 A 
ATOM     64  C   UNL A   1      45.154  29.520  35.864  1.00  0.00     0.135 A 
ATOM     65  F   UNL A   1      42.419  27.387  36.969  1.00  0.00    -0.206 F 
ATOM     66  C   UNL A   1      44.717  27.261  37.432  1.00  0.00     0.059 A 
ATOM     67  C   UNL A   1      46.238  28.891  36.467  1.00  0.00     0.059 A 
ATOM     68  F   UNL A   1      45.394  30.603  35.107  1.00  0.00    -0.206 F 
ATOM     69  C   UNL A   1      46.009  27.760  37.248  1.00  0.00     0.060 A 
BRANCH  69  70
ATOM     70  S   UNL A   1      47.394  26.876  37.998  1.00  0.00     0.124 S 
ATOM     71  O   UNL A   1      48.449  27.092  37.013  1.00  0.00    -0.237 OA
ATOM     72  O   UNL A   1      47.558  27.579  39.267  1.00  0.00    -0.237 OA
ATOM     73  O   UNL A   1      46.906  25.505  38.106  1.00  0.00    -0.744 OA
ENDBRANCH  69  70
ENDBRANCH  37  62
ENDBRANCH  11  12
ENDBRANCH   4   6
ENDBRANCH   1   2
BRANCH   1  74
ATOM     74  C   UNL A   1      31.584  32.042  26.765  1.00  0.00     0.042 C 
BRANCH  74  75
ATOM     75  C   UNL A   1      31.846  30.671  26.150  1.00  0.00     0.118 C 
BRANCH  75  76
ATOM     76  N   UNL A   1      31.681  29.622  27.131  1.00  0.00    -0.351 N 
ATOM     77  C   UNL A   1      31.691  28.264  27.052  1.00  0.00     0.281 C 
ATOM     78  H   UNL A   1      31.530  29.959  28.044  1.00  0.00     0.163 HD
ATOM     79  O   UNL A   1      31.504  27.696  28.137  1.00  0.00    -0.268 OA
BRANCH  77  80
ATOM     80  C   UNL A   1      32.111  27.463  25.751  1.00  0.00     0.181 C 
ATOM     81  C   UNL A   1      33.425  27.822  25.033  1.00  0.00     0.079 C 
ATOM     82  C   UNL A   1      32.163  26.008  26.294  1.00  0.00     0.144 C 
ATOM     83  C   UNL A   1      33.860  26.760  24.021  1.00  0.00     0.013 C 
ATOM     84  C   UNL A   1      32.923  24.922  25.516  1.00  0.00     0.190 C 
ATOM     85  C   UNL A   1      34.150  25.457  24.755  1.00  0.00     0.065 C 
BRANCH  80  86
ATOM     86  N   UNL A   1      31.011  27.539  24.752  1.00  0.00    -0.331 N 
ATOM     87  H   UNL A   1      31.451  27.525  23.832  1.00  0.00     0.347 HD
ATOM     88  H   UNL A   1      30.510  28.384  25.026  1.00  0.00     0.347 HD
BRANCH  86  89
ATOM     89  C   UNL A   1      29.954  26.517  24.732  1.00  0.00     0.183 C 
ATOM     90  C   UNL A   1      28.716  26.542  23.878  1.00  0.00     0.071 C 
ATOM     91  C   UNL A   1      29.823  25.586  23.556  1.00  0.00     0.071 C 
ENDBRANCH  86  89
ENDBRANCH  80  86
BRANCH  84  92
ATOM     92  N   UNL A   1      33.243  23.706  26.312  1.00  0.00    -0.331 N 
ATOM     93  C   UNL A   1      34.404  22.922  25.874  1.00  0.00     0.278 C 
ATOM     94  C   UNL A   1      32.160  22.836  26.782  1.00  0.00     0.278 C 
ATOM     95  H   UNL A   1      33.510  24.215  27.154  1.00  0.00     0.348 HD
ATOM     96  C   UNL A   1      34.189  21.942  24.731  1.00  0.00     0.198 C 
ATOM     97  C   UNL A   1      31.536  21.935  25.739  1.00  0.00     0.198 C 
ATOM     98  S   UNL A   1      32.759  20.915  24.955  1.00  0.00     0.161 S 
ATOM     99  O   UNL A   1      32.251  20.580  23.634  1.00  0.00    -0.228 OA
ATOM    100  O   UNL A   1      33.114  19.862  25.887  1.00  0.00    -0.228 OA
ENDBRANCH  84  92
ENDBRANCH  77  80
ENDBRANCH  75  76
ENDBRANCH  74  75
ENDBRANCH   1  74
TORSDOF 16
ENDMDL
MODEL 2
REMARK VINA RESULT:     -11.8      2.564      8.745
REMARK SMILES O=C(NCCCNC(=O)[C@@]1([NH2+]C2CC2)CCC[C@@H]([NH+]2CCS(=O)(=O)CC2)C1)c1ccc(-c2c3nc(c(-c4c(F)cc(S(=O)(=O)[O-])cc4F)c4ccc([nH]4)c(-c4c(F)cc(S(=O)(=O)[O-])cc4F)c4nc(c(-c5c(F)cc(S(=O)(=O)[O-])cc5F)c5ccc2[nH]5)C=C4)C=C3)cc1
REMARK SMILES IDX 4 1 3 2 1 3 2 4 28 6 29 7 93 8 30 9 92 10 31 11 32 12 33 13
REMARK SMILES IDX 86 14 34 15 91 16 85 17 87 18 35 19 90 20 84 21 83 22 36 24
REMARK SMILES IDX 70 25 49 26 69 27 50 28 53 29 68 30 88 31 51 32 52 33 67 35
REMARK SMILES IDX 89 36 54 37 37 38 38 39 47 40 39 41 40 42 46 43 48 44 41 45
REMARK SMILES IDX 42 46 43 47 44 48 45 49 71 50 72 51 81 52 73 53 74 54 80 55
REMARK SMILES IDX 82 56 75 57 76 58 77 59 78 60 79 61 55 62 56 63 65 64 57 65
REMARK SMILES IDX 58 66 64 67 66 68 59 69 60 70 61 71 62 72 63 73 5 74 6 75
REMARK SMILES IDX 7 76 8 77 9 79 10 80 15 81 27 82 16 83 18 84 17 85 11 86
REMARK SMILES IDX 12 89 13 90 14 91 19 92 20 93 26 94 21 96 25 97 22 98 23 99
REMARK SMILES IDX 24 100
REMARK H PARENT 3 5 87 23 53 34 7 78 11 87 11 88 19 95
REMARK Flexibility Score: inf
ROOT
ATOM      1  C   UNL A   1      40.195  23.320  27.088  1.00  0.00     0.118 C 
ENDROOT
BRANCH   1   2
ATOM      2  N   UNL A   1      40.907  24.131  26.111  1.00  0.00    -0.352 N 
ATOM      3  O   UNL A   1      41.436  26.037  25.050  1.00  0.00    -0.269 OA
ATOM      4  C   UNL A   1      41.127  25.483  26.102  1.00  0.00     0.251 C 
ATOM      5  H   UNL A   1      41.285  23.637  25.348  1.00  0.00     0.163 HD
BRANCH   4   6
ATOM      6  C   UNL A   1      41.003  26.264  27.349  1.00  0.00     0.039 A 
ATOM      7  C   UNL A   1      41.960  27.228  27.684  1.00  0.00     0.014 A 
ATOM      8  C   UNL A   1      39.875  26.085  28.153  1.00  0.00     0.014 A 
ATOM      9  C   UNL A   1      41.841  27.945  28.870  1.00  0.00     0.010 A 
ATOM     10  C   UNL A   1      39.718  26.857  29.303  1.00  0.00     0.010 A 
ATOM     11  C   UNL A   1      40.706  27.784  29.677  1.00  0.00    -0.014 A 
BRANCH  11  12
ATOM     12  C   UNL A   1      40.512  28.637  30.873  1.00  0.00     0.031 A 
ATOM     13  C   UNL A   1      39.476  29.721  30.875  1.00  0.00     0.074 A 
ATOM     14  C   UNL A   1      41.318  28.457  31.936  1.00  0.00     0.049 A 
ATOM     15  N   UNL A   1      39.240  30.635  31.779  1.00  0.00    -0.248 NA
ATOM     16  C   UNL A   1      38.599  29.796  29.697  1.00  0.00     0.031 C 
ATOM     17  C   UNL A   1      42.362  27.435  32.037  1.00  0.00     0.029 A 
ATOM     18  N   UNL A   1      41.404  29.139  33.123  1.00  0.00    -0.354 N 
ATOM     19  C   UNL A   1      38.206  31.412  31.273  1.00  0.00     0.074 A 
ATOM     20  C   UNL A   1      37.878  30.875  29.968  1.00  0.00     0.031 C 
ATOM     21  C   UNL A   1      42.985  27.559  33.218  1.00  0.00     0.029 A 
ATOM     22  C   UNL A   1      42.432  28.707  33.926  1.00  0.00     0.049 A 
ATOM     23  H   UNL A   1      40.790  29.866  33.375  1.00  0.00     0.167 HD
ATOM     24  C   UNL A   1      37.592  32.474  31.847  1.00  0.00     0.037 A 
ATOM     25  C   UNL A   1      42.910  29.205  35.083  1.00  0.00     0.037 A 
ATOM     26  C   UNL A   1      37.944  32.994  33.145  1.00  0.00     0.049 A 
ATOM     27  C   UNL A   1      42.244  30.407  35.687  1.00  0.00     0.074 A 
ATOM     28  C   UNL A   1      37.361  34.041  33.838  1.00  0.00     0.029 A 
ATOM     29  N   UNL A   1      38.984  32.522  33.935  1.00  0.00    -0.354 N 
ATOM     30  N   UNL A   1      41.239  31.108  35.219  1.00  0.00    -0.248 NA
ATOM     31  C   UNL A   1      42.769  30.887  36.971  1.00  0.00     0.031 C 
ATOM     32  C   UNL A   1      38.090  34.242  35.015  1.00  0.00     0.029 A 
ATOM     33  C   UNL A   1      39.080  33.275  35.093  1.00  0.00     0.049 A 
ATOM     34  H   UNL A   1      39.568  31.763  33.705  1.00  0.00     0.167 HD
ATOM     35  C   UNL A   1      40.990  32.095  36.164  1.00  0.00     0.074 A 
ATOM     36  C   UNL A   1      41.954  31.902  37.230  1.00  0.00     0.031 C 
ATOM     37  C   UNL A   1      40.040  33.063  36.152  1.00  0.00     0.037 A 
BRANCH  24  38
ATOM     38  C   UNL A   1      36.515  33.166  31.054  1.00  0.00     0.058 A 
ATOM     39  C   UNL A   1      36.805  33.974  29.944  1.00  0.00     0.135 A 
ATOM     40  C   UNL A   1      35.165  33.025  31.422  1.00  0.00     0.135 A 
ATOM     41  F   UNL A   1      38.076  34.153  29.551  1.00  0.00    -0.206 F 
ATOM     42  C   UNL A   1      35.807  34.663  29.263  1.00  0.00     0.059 A 
ATOM     43  C   UNL A   1      34.146  33.679  30.734  1.00  0.00     0.059 A 
ATOM     44  F   UNL A   1      34.824  32.259  32.470  1.00  0.00    -0.206 F 
ATOM     45  C   UNL A   1      34.481  34.519  29.674  1.00  0.00     0.060 A 
BRANCH  45  46
ATOM     46  S   UNL A   1      33.204  35.468  28.820  1.00  0.00     0.124 S 
ATOM     47  O   UNL A   1      34.011  36.418  28.059  1.00  0.00    -0.237 OA
ATOM     48  O   UNL A   1      32.526  34.442  28.034  1.00  0.00    -0.237 OA
ATOM     49  O   UNL A   1      32.420  36.042  29.908  1.00  0.00    -0.744 OA
ENDBRANCH  45  46
ENDBRANCH  24  38
BRANCH  25  50
ATOM     50  C   UNL A   1      44.088  28.555  35.713  1.00  0.00     0.058 A 
ATOM     51  C   UNL A   1      45.392  28.983  35.429  1.00  0.00     0.135 A 
ATOM     52  C   UNL A   1      43.924  27.554  36.686  1.00  0.00     0.135 A 
ATOM     53  F   UNL A   1      45.600  29.933  34.505  1.00  0.00    -0.206 F 
ATOM     54  C   UNL A   1      46.491  28.453  36.097  1.00  0.00     0.059 A 
ATOM     55  C   UNL A   1      45.004  27.028  37.385  1.00  0.00     0.059 A 
ATOM     56  F   UNL A   1      42.693  27.124  37.006  1.00  0.00    -0.206 F 
ATOM     57  C   UNL A   1      46.285  27.485  37.083  1.00  0.00     0.060 A 
BRANCH  57  58
ATOM     58  S   UNL A   1      47.712  26.882  38.013  1.00  0.00     0.124 S 
ATOM     59  O   UNL A   1      48.745  26.862  36.984  1.00  0.00    -0.237 OA
ATOM     60  O   UNL A   1      47.858  27.904  39.044  1.00  0.00    -0.237 OA
ATOM     61  O   UNL A   1      47.273  25.575  38.493  1.00  0.00    -0.744 OA
ENDBRANCH  57  58
ENDBRANCH  25  50
BRANCH  37  62
ATOM     62  C   UNL A   1      39.946  33.969  37.349  1.00  0.00     0.058 A 
ATOM     63  C   UNL A   1      40.620  35.198  37.406  1.00  0.00     0.135 A 
ATOM     64  C   UNL A   1      39.074  33.649  38.402  1.00  0.00     0.135 A 
ATOM     65  F   UNL A   1      41.476  35.547  36.432  1.00  0.00    -0.206 F 
ATOM     66  C   UNL A   1      40.425  36.083  38.462  1.00  0.00     0.059 A 
ATOM     67  C   UNL A   1      38.843  34.529  39.453  1.00  0.00     0.059 A 
ATOM     68  F   UNL A   1      38.402  32.486  38.393  1.00  0.00    -0.206 F 
ATOM     69  C   UNL A   1      39.522  35.745  39.473  1.00  0.00     0.060 A 
BRANCH  69  70
ATOM     70  S   UNL A   1      39.206  36.943  40.787  1.00  0.00     0.124 S 
ATOM     71  O   UNL A   1      38.581  36.104  41.806  1.00  0.00    -0.237 OA
ATOM     72  O   UNL A   1      40.548  37.423  41.098  1.00  0.00    -0.237 OA
ATOM     73  O   UNL A   1      38.327  37.921  40.153  1.00  0.00    -0.744 OA
ENDBRANCH  69  70
ENDBRANCH  37  62
ENDBRANCH  11  12
ENDBRANCH   4   6
ENDBRANCH   1   2
BRANCH   1  74
ATOM     74  C   UNL A   1      39.404  22.209  26.404  1.00  0.00     0.042 C 
BRANCH  74  75
ATOM     75  C   UNL A   1      37.963  22.619  26.115  1.00  0.00     0.118 C 
BRANCH  75  76
ATOM     76  N   UNL A   1      37.731  22.726  24.692  1.00  0.00    -0.351 N 
ATOM     77  C   UNL A   1      36.604  22.860  23.941  1.00  0.00     0.281 C 
ATOM     78  H   UNL A   1      38.556  22.695  24.157  1.00  0.00     0.163 HD
ATOM     79  O   UNL A   1      36.817  22.914  22.721  1.00  0.00    -0.268 OA
BRANCH  77  80
ATOM     80  C   UNL A   1      35.169  23.138  24.551  1.00  0.00     0.181 C 
ATOM     81  C   UNL A   1      35.034  23.456  26.052  1.00  0.00     0.079 C 
ATOM     82  C   UNL A   1      34.701  24.344  23.691  1.00  0.00     0.144 C 
ATOM     83  C   UNL A   1      33.664  24.029  26.418  1.00  0.00     0.013 C 
ATOM     84  C   UNL A   1      33.546  25.234  24.176  1.00  0.00     0.190 C 
ATOM     85  C   UNL A   1      33.473  25.364  25.709  1.00  0.00     0.065 C 
BRANCH  80  86
ATOM     86  N   UNL A   1      34.277  21.987  24.247  1.00  0.00    -0.331 N 
ATOM     87  H   UNL A   1      34.499  21.688  23.298  1.00  0.00     0.347 HD
ATOM     88  H   UNL A   1      33.346  22.366  24.420  1.00  0.00     0.347 HD
BRANCH  86  89
ATOM     89  C   UNL A   1      34.307  20.781  25.089  1.00  0.00     0.183 C 
ATOM     90  C   UNL A   1      33.109  20.034  25.607  1.00  0.00     0.071 C 
ATOM     91  C   UNL A   1      33.936  19.442  24.507  1.00  0.00     0.071 C 
ENDBRANCH  86  89
ENDBRANCH  80  86
BRANCH  84  92
ATOM     92  N   UNL A   1      33.462  26.556  23.497  1.00  0.00    -0.331 N 
ATOM     93  C   UNL A   1      32.991  27.683  24.310  1.00  0.00     0.278 C 
ATOM     94  C   UNL A   1      32.950  26.639  22.125  1.00  0.00     0.278 C 
ATOM     95  H   UNL A   1      34.469  26.660  23.373  1.00  0.00     0.348 HD
ATOM     96  C   UNL A   1      31.487  27.836  24.481  1.00  0.00     0.198 C 
ATOM     97  C   UNL A   1      31.450  26.513  21.970  1.00  0.00     0.198 C 
ATOM     98  S   UNL A   1      30.599  27.725  22.948  1.00  0.00     0.161 S 
ATOM     99  O   UNL A   1      29.282  27.183  23.246  1.00  0.00    -0.228 OA
ATOM    100  O   UNL A   1      30.724  29.001  22.273  1.00  0.00    -0.228 OA
ENDBRANCH  84  92
ENDBRANCH  77  80
ENDBRANCH  75  76
ENDBRANCH  74  75
ENDBRANCH   1  74
TORSDOF 16
ENDMDL
MODEL 3
REMARK VINA RESULT:     -11.8      2.560      8.700
REMARK SMILES O=C(NCCCNC(=O)[C@@]1([NH2+]C2CC2)CCC[C@@H]([NH+]2CCS(=O)(=O)CC2)C1)c1ccc(-c2c3nc(c(-c4c(F)cc(S(=O)(=O)[O-])cc4F)c4ccc([nH]4)c(-c4c(F)cc(S(=O)(=O)[O-])cc4F)c4nc(c(-c5c(F)cc(S(=O)(=O)[O-])cc5F)c5ccc2[nH]5)C=C4)C=C3)cc1
REMARK SMILES IDX 4 1 3 2 1 3 2 4 28 6 29 7 93 8 30 9 92 10 31 11 32 12 33 13
REMARK SMILES IDX 86 14 34 15 91 16 85 17 87 18 35 19 90 20 84 21 83 22 36 24
REMARK SMILES IDX 70 25 49 26 69 27 50 28 53 29 68 30 88 31 51 32 52 33 67 35
REMARK SMILES IDX 89 36 54 37 37 38 38 39 47 40 39 41 40 42 46 43 48 44 41 45
REMARK SMILES IDX 42 46 43 47 44 48 45 49 71 50 72 51 81 52 73 53 74 54 80 55
REMARK SMILES IDX 82 56 75 57 76 58 77 59 78 60 79 61 55 62 56 63 65 64 57 65
REMARK SMILES IDX 58 66 64 67 66 68 59 69 60 70 61 71 62 72 63 73 5 74 6 75
REMARK SMILES IDX 7 76 8 77 9 79 10 80 15 81 27 82 16 83 18 84 17 85 11 86
REMARK SMILES IDX 12 89 13 90 14 91 19 92 20 93 26 94 21 96 25 97 22 98 23 99
REMARK SMILES IDX 24 100
REMARK H PARENT 3 5 87 23 53 34 7 78 11 87 11 88 19 95
REMARK Flexibility Score: inf
ROOT
ATOM      1  C   UNL A   1      39.716  23.489  27.081  1.00  0.00     0.118 C 
ENDROOT
BRANCH   1   2
ATOM      2  N   UNL A   1      40.894  23.835  26.300  1.00  0.00    -0.352 N 
ATOM      3  O   UNL A   1      42.359  25.243  25.345  1.00  0.00    -0.269 OA
ATOM      4  C   UNL A   1      41.623  24.995  26.296  1.00  0.00     0.251 C 
ATOM      5  H   UNL A   1      41.212  23.135  25.686  1.00  0.00     0.163 HD
BRANCH   4   6
ATOM      6  C   UNL A   1      41.530  25.933  27.434  1.00  0.00     0.039 A 
ATOM      7  C   UNL A   1      42.426  27.001  27.551  1.00  0.00     0.014 A 
ATOM      8  C   UNL A   1      40.487  25.787  28.351  1.00  0.00     0.014 A 
ATOM      9  C   UNL A   1      42.339  27.867  28.636  1.00  0.00     0.010 A 
ATOM     10  C   UNL A   1      40.354  26.700  29.397  1.00  0.00     0.010 A 
ATOM     11  C   UNL A   1      41.287  27.739  29.554  1.00  0.00    -0.014 A 
BRANCH  11  12
ATOM     12  C   UNL A   1      41.115  28.736  30.637  1.00  0.00     0.031 A 
ATOM     13  C   UNL A   1      41.941  28.652  31.885  1.00  0.00     0.074 A 
ATOM     14  C   UNL A   1      40.167  29.683  30.504  1.00  0.00     0.049 A 
ATOM     15  N   UNL A   1      41.854  29.360  32.981  1.00  0.00    -0.248 NA
ATOM     16  C   UNL A   1      42.996  27.627  31.910  1.00  0.00     0.031 C 
ATOM     17  C   UNL A   1      39.304  29.851  29.333  1.00  0.00     0.029 A 
ATOM     18  N   UNL A   1      39.755  30.667  31.366  1.00  0.00    -0.354 N 
ATOM     19  C   UNL A   1      42.823  28.852  33.838  1.00  0.00     0.074 A 
ATOM     20  C   UNL A   1      43.468  27.759  33.142  1.00  0.00     0.031 C 
ATOM     21  C   UNL A   1      38.463  30.872  29.550  1.00  0.00     0.029 A 
ATOM     22  C   UNL A   1      38.681  31.386  30.898  1.00  0.00     0.049 A 
ATOM     23  H   UNL A   1      40.184  30.841  32.234  1.00  0.00     0.167 HD
ATOM     24  C   UNL A   1      43.138  29.264  35.090  1.00  0.00     0.037 A 
ATOM     25  C   UNL A   1      37.924  32.323  31.500  1.00  0.00     0.037 A 
ATOM     26  C   UNL A   1      42.474  30.352  35.764  1.00  0.00     0.049 A 
ATOM     27  C   UNL A   1      38.261  32.741  32.901  1.00  0.00     0.074 A 
ATOM     28  C   UNL A   1      42.739  30.877  37.016  1.00  0.00     0.029 A 
ATOM     29  N   UNL A   1      41.397  31.065  35.252  1.00  0.00    -0.354 N 
ATOM     30  N   UNL A   1      39.207  32.283  33.687  1.00  0.00    -0.248 NA
ATOM     31  C   UNL A   1      37.438  33.797  33.500  1.00  0.00     0.031 C 
ATOM     32  C   UNL A   1      41.784  31.862  37.286  1.00  0.00     0.029 A 
ATOM     33  C   UNL A   1      40.968  32.004  36.175  1.00  0.00     0.049 A 
ATOM     34  H   UNL A   1      40.998  30.924  34.363  1.00  0.00     0.167 HD
ATOM     35  C   UNL A   1      39.113  33.016  34.863  1.00  0.00     0.074 A 
ATOM     36  C   UNL A   1      38.014  33.945  34.687  1.00  0.00     0.031 C 
ATOM     37  C   UNL A   1      39.878  32.932  35.980  1.00  0.00     0.037 A 
BRANCH  24  38
ATOM     38  C   UNL A   1      44.215  28.506  35.820  1.00  0.00     0.058 A 
ATOM     39  C   UNL A   1      45.577  28.811  35.671  1.00  0.00     0.135 A 
ATOM     40  C   UNL A   1      43.875  27.445  36.677  1.00  0.00     0.135 A 
ATOM     41  F   UNL A   1      45.963  29.809  34.859  1.00  0.00    -0.206 F 
ATOM     42  C   UNL A   1      46.565  28.058  36.296  1.00  0.00     0.059 A 
ATOM     43  C   UNL A   1      44.847  26.698  37.340  1.00  0.00     0.059 A 
ATOM     44  F   UNL A   1      42.590  27.111  36.866  1.00  0.00    -0.206 F 
ATOM     45  C   UNL A   1      46.190  26.995  37.120  1.00  0.00     0.060 A 
BRANCH  45  46
ATOM     46  S   UNL A   1      47.485  25.989  37.874  1.00  0.00     0.124 S 
ATOM     47  O   UNL A   1      48.368  27.016  38.420  1.00  0.00    -0.237 OA
ATOM     48  O   UNL A   1      46.740  25.208  38.857  1.00  0.00    -0.237 OA
ATOM     49  O   UNL A   1      48.025  25.229  36.752  1.00  0.00    -0.744 OA
ENDBRANCH  45  46
ENDBRANCH  24  38
BRANCH  25  50
ATOM     50  C   UNL A   1      36.772  32.901  30.759  1.00  0.00     0.058 A 
ATOM     51  C   UNL A   1      35.460  32.481  31.015  1.00  0.00     0.135 A 
ATOM     52  C   UNL A   1      36.958  33.954  29.848  1.00  0.00     0.135 A 
ATOM     53  F   UNL A   1      35.233  31.476  31.873  1.00  0.00    -0.206 F 
ATOM     54  C   UNL A   1      34.370  33.094  30.405  1.00  0.00     0.059 A 
ATOM     55  C   UNL A   1      35.884  34.600  29.246  1.00  0.00     0.059 A 
ATOM     56  F   UNL A   1      38.195  34.405  29.584  1.00  0.00    -0.206 F 
ATOM     57  C   UNL A   1      34.592  34.162  29.532  1.00  0.00     0.060 A 
BRANCH  57  58
ATOM     58  S   UNL A   1      33.163  35.013  28.828  1.00  0.00     0.124 S 
ATOM     59  O   UNL A   1      32.346  35.247  30.014  1.00  0.00    -0.237 OA
ATOM     60  O   UNL A   1      33.777  36.197  28.234  1.00  0.00    -0.237 OA
ATOM     61  O   UNL A   1      32.630  34.046  27.875  1.00  0.00    -0.744 OA
ENDBRANCH  57  58
ENDBRANCH  25  50
BRANCH  37  62
ATOM     62  C   UNL A   1      39.601  33.902  37.095  1.00  0.00     0.058 A 
ATOM     63  C   UNL A   1      38.846  33.545  38.221  1.00  0.00     0.135 A 
ATOM     64  C   UNL A   1      40.201  35.172  37.082  1.00  0.00     0.135 A 
ATOM     65  F   UNL A   1      38.239  32.348  38.278  1.00  0.00    -0.206 F 
ATOM     66  C   UNL A   1      38.703  34.409  39.302  1.00  0.00     0.059 A 
ATOM     67  C   UNL A   1      40.094  36.042  38.162  1.00  0.00     0.059 A 
ATOM     68  F   UNL A   1      40.936  35.561  36.028  1.00  0.00    -0.206 F 
ATOM     69  C   UNL A   1      39.344  35.650  39.269  1.00  0.00     0.060 A 
BRANCH  69  70
ATOM     70  S   UNL A   1      39.231  36.723  40.717  1.00  0.00     0.124 S 
ATOM     71  O   UNL A   1      38.404  35.922  41.614  1.00  0.00    -0.237 OA
ATOM     72  O   UNL A   1      40.630  36.868  41.105  1.00  0.00    -0.237 OA
ATOM     73  O   UNL A   1      38.602  37.934  40.196  1.00  0.00    -0.744 OA
ENDBRANCH  69  70
ENDBRANCH  37  62
ENDBRANCH  11  12
ENDBRANCH   4   6
ENDBRANCH   1   2
BRANCH   1  74
ATOM     74  C   UNL A   1      38.437  23.785  26.304  1.00  0.00     0.042 C 
BRANCH  74  75
ATOM     75  C   UNL A   1      37.794  22.520  25.746  1.00  0.00     0.118 C 
BRANCH  75  76
ATOM     76  N   UNL A   1      37.465  22.679  24.347  1.00  0.00    -0.351 N 
ATOM     77  C   UNL A   1      36.296  22.889  23.683  1.00  0.00     0.281 C 
ATOM     78  H   UNL A   1      38.248  22.624  23.751  1.00  0.00     0.163 HD
ATOM     79  O   UNL A   1      36.423  22.968  22.453  1.00  0.00    -0.268 OA
BRANCH  77  80
ATOM     80  C   UNL A   1      34.924  23.217  24.404  1.00  0.00     0.181 C 
ATOM     81  C   UNL A   1      34.907  23.457  25.925  1.00  0.00     0.079 C 
ATOM     82  C   UNL A   1      34.479  24.497  23.643  1.00  0.00     0.144 C 
ATOM     83  C   UNL A   1      33.603  24.090  26.413  1.00  0.00     0.013 C 
ATOM     84  C   UNL A   1      33.418  25.426  24.251  1.00  0.00     0.190 C 
ATOM     85  C   UNL A   1      33.452  25.473  25.790  1.00  0.00     0.065 C 
BRANCH  80  86
ATOM     86  N   UNL A   1      33.942  22.141  24.102  1.00  0.00    -0.331 N 
ATOM     87  H   UNL A   1      33.956  22.009  23.090  1.00  0.00     0.347 HD
ATOM     88  H   UNL A   1      33.081  22.491  24.523  1.00  0.00     0.347 HD
BRANCH  86  89
ATOM     89  C   UNL A   1      34.091  20.808  24.704  1.00  0.00     0.183 C 
ATOM     90  C   UNL A   1      33.240  20.235  25.803  1.00  0.00     0.071 C 
ATOM     91  C   UNL A   1      33.090  19.725  24.403  1.00  0.00     0.071 C 
ENDBRANCH  86  89
ENDBRANCH  80  86
BRANCH  84  92
ATOM     92  N   UNL A   1      33.374  26.787  23.650  1.00  0.00    -0.331 N 
ATOM     93  C   UNL A   1      32.846  27.862  24.498  1.00  0.00     0.278 C 
ATOM     94  C   UNL A   1      32.953  26.954  22.255  1.00  0.00     0.278 C 
ATOM     95  H   UNL A   1      34.386  26.898  23.600  1.00  0.00     0.348 HD
ATOM     96  C   UNL A   1      31.334  28.006  24.579  1.00  0.00     0.198 C 
ATOM     97  C   UNL A   1      31.468  26.839  21.994  1.00  0.00     0.198 C 
ATOM     98  S   UNL A   1      30.549  27.989  22.987  1.00  0.00     0.161 S 
ATOM     99  O   UNL A   1      29.218  27.432  23.163  1.00  0.00    -0.228 OA
ATOM    100  O   UNL A   1      30.715  29.305  22.400  1.00  0.00    -0.228 OA
ENDBRANCH  84  92
ENDBRANCH  77  80
ENDBRANCH  75  76
ENDBRANCH  74  75
ENDBRANCH   1  74
TORSDOF 16
ENDMDL
