MODEL 1
REMARK VINA RESULT:     -12.7      0.000      0.000
REMARK SMILES O=C(NCCCNC(=O)c1cc2ncoc2cn1)c1ccc(-c2c3nc(c(-c4c(F)cc(S(=O)(=O)[O-])cc4F)c4ccc([nH]4)c(-c4c(F)cc(S(=O)(=O)[O-])cc4F)c4nc(c(-c5c(F)cc(S(=O)(=O)[O-])cc5F)c5ccc2[nH]5)C=C4)C=C3)cc1
REMARK SMILES IDX 1 1 2 2 3 3 19 5 20 6 84 7 21 8 83 9 22 10 23 11 24 12 77 13
REMARK SMILES IDX 25 14 82 15 76 16 78 17 26 18 81 19 75 20 74 21 27 23 61 24
REMARK SMILES IDX 40 25 60 26 41 27 44 28 59 29 79 30 42 31 43 32 58 34 80 35
REMARK SMILES IDX 45 36 28 37 29 38 38 39 30 40 31 41 37 42 39 43 32 44 33 45
REMARK SMILES IDX 34 46 35 47 36 48 62 49 63 50 72 51 64 52 65 53 71 54 73 55
REMARK SMILES IDX 66 56 67 57 68 58 69 59 70 60 46 61 47 62 56 63 48 64 49 65
REMARK SMILES IDX 55 66 57 67 50 68 51 69 52 70 53 71 54 72 4 73 5 74 6 75
REMARK SMILES IDX 7 76 8 77 9 79 10 80 11 81 18 82 12 83 17 84 13 85 16 86
REMARK SMILES IDX 14 87 15 88
REMARK H PARENT 3 4 78 22 44 33 7 78
REMARK Flexibility Score: inf
ROOT
ATOM      1  O   UNL A   1      33.845  30.608  28.012  1.00  0.00    -0.269 OA
ATOM      2  C   UNL A   1      34.635  31.519  28.105  1.00  0.00     0.251 C 
ATOM      3  N   UNL A   1      34.220  32.850  28.208  1.00  0.00    -0.352 N 
ATOM      4  H   UNL A   1      33.282  32.989  28.470  1.00  0.00     0.163 HD
ENDROOT
BRANCH   2   5
ATOM      5  C   UNL A   1      36.092  31.277  28.126  1.00  0.00     0.039 A 
ATOM      6  C   UNL A   1      36.995  32.074  28.832  1.00  0.00     0.014 A 
ATOM      7  C   UNL A   1      36.490  30.083  27.557  1.00  0.00     0.014 A 
ATOM      8  C   UNL A   1      38.278  31.572  29.065  1.00  0.00     0.010 A 
ATOM      9  C   UNL A   1      37.605  29.484  28.063  1.00  0.00     0.010 A 
ATOM     10  C   UNL A   1      38.566  30.242  28.712  1.00  0.00    -0.014 A 
BRANCH  10  11
ATOM     11  C   UNL A   1      39.826  29.580  29.047  1.00  0.00     0.031 A 
ATOM     12  C   UNL A   1      40.111  29.430  30.500  1.00  0.00     0.074 A 
ATOM     13  C   UNL A   1      40.604  28.977  28.115  1.00  0.00     0.049 A 
ATOM     14  N   UNL A   1      40.993  30.075  31.190  1.00  0.00    -0.248 NA
ATOM     15  C   UNL A   1      39.232  28.579  31.316  1.00  0.00     0.031 C 
ATOM     16  C   UNL A   1      40.360  28.789  26.675  1.00  0.00     0.029 A 
ATOM     17  N   UNL A   1      41.767  28.294  28.290  1.00  0.00    -0.354 N 
ATOM     18  C   UNL A   1      40.945  29.542  32.474  1.00  0.00     0.074 A 
ATOM     19  C   UNL A   1      39.725  28.779  32.541  1.00  0.00     0.031 C 
ATOM     20  C   UNL A   1      41.178  27.836  26.183  1.00  0.00     0.029 A 
ATOM     21  C   UNL A   1      42.153  27.516  27.203  1.00  0.00     0.049 A 
ATOM     22  H   UNL A   1      42.294  28.347  29.120  1.00  0.00     0.167 HD
ATOM     23  C   UNL A   1      42.034  29.581  33.296  1.00  0.00     0.037 A 
ATOM     24  C   UNL A   1      43.218  26.683  27.125  1.00  0.00     0.037 A 
ATOM     25  C   UNL A   1      43.036  30.485  32.785  1.00  0.00     0.049 A 
ATOM     26  C   UNL A   1      44.176  27.140  28.163  1.00  0.00     0.074 A 
ATOM     27  C   UNL A   1      43.058  31.834  32.484  1.00  0.00     0.029 A 
ATOM     28  N   UNL A   1      44.111  29.937  32.126  1.00  0.00    -0.354 N 
ATOM     29  N   UNL A   1      44.788  28.294  28.124  1.00  0.00    -0.248 NA
ATOM     30  C   UNL A   1      44.085  26.528  29.479  1.00  0.00     0.031 C 
ATOM     31  C   UNL A   1      43.824  31.929  31.286  1.00  0.00     0.029 A 
ATOM     32  C   UNL A   1      44.293  30.653  30.968  1.00  0.00     0.049 A 
ATOM     33  H   UNL A   1      44.652  29.172  32.428  1.00  0.00     0.167 HD
ATOM     34  C   UNL A   1      44.774  28.749  29.435  1.00  0.00     0.074 A 
ATOM     35  C   UNL A   1      44.413  27.580  30.236  1.00  0.00     0.031 C 
ATOM     36  C   UNL A   1      44.774  30.084  29.725  1.00  0.00     0.037 A 
BRANCH  23  37
ATOM     37  C   UNL A   1      42.356  28.555  34.355  1.00  0.00     0.058 A 
ATOM     38  C   UNL A   1      42.413  28.951  35.708  1.00  0.00     0.135 A 
ATOM     39  C   UNL A   1      42.883  27.276  34.072  1.00  0.00     0.135 A 
ATOM     40  F   UNL A   1      41.946  30.150  36.090  1.00  0.00    -0.206 F 
ATOM     41  C   UNL A   1      43.018  28.167  36.692  1.00  0.00     0.059 A 
ATOM     42  C   UNL A   1      43.440  26.454  35.047  1.00  0.00     0.059 A 
ATOM     43  F   UNL A   1      42.977  26.801  32.825  1.00  0.00    -0.206 F 
ATOM     44  C   UNL A   1      43.544  26.926  36.345  1.00  0.00     0.060 A 
BRANCH  44  45
ATOM     45  S   UNL A   1      44.428  25.964  37.584  1.00  0.00     0.124 S 
ATOM     46  O   UNL A   1      43.823  26.452  38.818  1.00  0.00    -0.237 OA
ATOM     47  O   UNL A   1      44.091  24.597  37.202  1.00  0.00    -0.237 OA
ATOM     48  O   UNL A   1      45.822  26.343  37.371  1.00  0.00    -0.744 OA
ENDBRANCH  44  45
ENDBRANCH  23  37
BRANCH  24  49
ATOM     49  C   UNL A   1      43.303  25.367  26.440  1.00  0.00     0.058 A 
ATOM     50  C   UNL A   1      44.169  25.177  25.349  1.00  0.00     0.135 A 
ATOM     51  C   UNL A   1      42.762  24.196  27.013  1.00  0.00     0.135 A 
ATOM     52  F   UNL A   1      44.733  26.234  24.746  1.00  0.00    -0.206 F 
ATOM     53  C   UNL A   1      44.535  23.904  24.900  1.00  0.00     0.059 A 
ATOM     54  C   UNL A   1      43.106  22.916  26.575  1.00  0.00     0.059 A 
ATOM     55  F   UNL A   1      41.956  24.257  28.082  1.00  0.00    -0.206 F 
ATOM     56  C   UNL A   1      44.020  22.778  25.540  1.00  0.00     0.060 A 
BRANCH  56  57
ATOM     57  S   UNL A   1      44.654  21.142  25.097  1.00  0.00     0.124 S 
ATOM     58  O   UNL A   1      44.619  21.187  23.639  1.00  0.00    -0.237 OA
ATOM     59  O   UNL A   1      45.981  21.154  25.703  1.00  0.00    -0.237 OA
ATOM     60  O   UNL A   1      43.699  20.227  25.717  1.00  0.00    -0.744 OA
ENDBRANCH  56  57
ENDBRANCH  24  49
BRANCH  36  61
ATOM     61  C   UNL A   1      45.078  31.066  28.618  1.00  0.00     0.058 A 
ATOM     62  C   UNL A   1      44.163  31.450  27.620  1.00  0.00     0.135 A 
ATOM     63  C   UNL A   1      46.280  31.786  28.689  1.00  0.00     0.135 A 
ATOM     64  F   UNL A   1      42.952  30.884  27.538  1.00  0.00    -0.206 F 
ATOM     65  C   UNL A   1      44.441  32.485  26.722  1.00  0.00     0.059 A 
ATOM     66  C   UNL A   1      46.566  32.839  27.823  1.00  0.00     0.059 A 
ATOM     67  F   UNL A   1      47.172  31.509  29.654  1.00  0.00    -0.206 F 
ATOM     68  C   UNL A   1      45.644  33.181  26.837  1.00  0.00     0.060 A 
BRANCH  68  69
ATOM     69  S   UNL A   1      45.961  34.579  25.739  1.00  0.00     0.124 S 
ATOM     70  O   UNL A   1      47.366  34.388  25.392  1.00  0.00    -0.237 OA
ATOM     71  O   UNL A   1      45.005  34.358  24.657  1.00  0.00    -0.237 OA
ATOM     72  O   UNL A   1      45.679  35.743  26.577  1.00  0.00    -0.744 OA
ENDBRANCH  68  69
ENDBRANCH  36  61
ENDBRANCH  10  11
ENDBRANCH   2   5
BRANCH   3  73
ATOM     73  C   UNL A   1      35.013  34.070  27.974  1.00  0.00     0.118 C 
BRANCH  73  74
ATOM     74  C   UNL A   1      34.410  35.322  28.586  1.00  0.00     0.042 C 
BRANCH  74  75
ATOM     75  C   UNL A   1      33.082  35.042  29.294  1.00  0.00     0.118 C 
BRANCH  75  76
ATOM     76  N   UNL A   1      32.674  36.100  30.213  1.00  0.00    -0.351 N 
ATOM     77  C   UNL A   1      32.961  36.267  31.552  1.00  0.00     0.269 C 
ATOM     78  H   UNL A   1      32.109  36.802  29.816  1.00  0.00     0.163 HD
ATOM     79  O   UNL A   1      32.452  37.196  32.174  1.00  0.00    -0.268 OA
BRANCH  77  80
ATOM     80  C   UNL A   1      33.841  35.298  32.264  1.00  0.00     0.130 A 
ATOM     81  C   UNL A   1      35.129  35.708  32.599  1.00  0.00     0.066 A 
ATOM     82  N   UNL A   1      33.294  34.085  32.580  1.00  0.00    -0.247 NA
ATOM     83  C   UNL A   1      35.833  34.818  33.408  1.00  0.00     0.113 A 
ATOM     84  C   UNL A   1      34.002  33.218  33.338  1.00  0.00     0.161 A 
ATOM     85  N   UNL A   1      37.071  34.914  33.996  1.00  0.00    -0.216 NA
ATOM     86  C   UNL A   1      35.251  33.610  33.763  1.00  0.00     0.172 A 
ATOM     87  C   UNL A   1      37.174  33.794  34.679  1.00  0.00     0.309 A 
ATOM     88  O   UNL A   1      36.113  32.944  34.582  1.00  0.00    -0.442 OA
ENDBRANCH  77  80
ENDBRANCH  75  76
ENDBRANCH  74  75
ENDBRANCH  73  74
ENDBRANCH   3  73
TORSDOF 13
ENDMDL
MODEL 2
REMARK VINA RESULT:     -12.4      5.228     12.026
REMARK SMILES O=C(NCCCNC(=O)c1cc2ncoc2cn1)c1ccc(-c2c3nc(c(-c4c(F)cc(S(=O)(=O)[O-])cc4F)c4ccc([nH]4)c(-c4c(F)cc(S(=O)(=O)[O-])cc4F)c4nc(c(-c5c(F)cc(S(=O)(=O)[O-])cc5F)c5ccc2[nH]5)C=C4)C=C3)cc1
REMARK SMILES IDX 1 1 2 2 3 3 19 5 20 6 84 7 21 8 83 9 22 10 23 11 24 12 77 13
REMARK SMILES IDX 25 14 82 15 76 16 78 17 26 18 81 19 75 20 74 21 27 23 61 24
REMARK SMILES IDX 40 25 60 26 41 27 44 28 59 29 79 30 42 31 43 32 58 34 80 35
REMARK SMILES IDX 45 36 28 37 29 38 38 39 30 40 31 41 37 42 39 43 32 44 33 45
REMARK SMILES IDX 34 46 35 47 36 48 62 49 63 50 72 51 64 52 65 53 71 54 73 55
REMARK SMILES IDX 66 56 67 57 68 58 69 59 70 60 46 61 47 62 56 63 48 64 49 65
REMARK SMILES IDX 55 66 57 67 50 68 51 69 52 70 53 71 54 72 4 73 5 74 6 75
REMARK SMILES IDX 7 76 8 77 9 79 10 80 11 81 18 82 12 83 17 84 13 85 16 86
REMARK SMILES IDX 14 87 15 88
REMARK H PARENT 3 4 78 22 44 33 7 78
REMARK Flexibility Score: inf
ROOT
ATOM      1  O   UNL A   1      40.871  21.499  27.736  1.00  0.00    -0.269 OA
ATOM      2  C   UNL A   1      40.063  22.240  27.228  1.00  0.00     0.251 C 
ATOM      3  N   UNL A   1      38.950  21.756  26.533  1.00  0.00    -0.352 N 
ATOM      4  H   UNL A   1      38.712  20.817  26.704  1.00  0.00     0.163 HD
ENDROOT
BRANCH   2   5
ATOM      5  C   UNL A   1      40.198  23.708  27.321  1.00  0.00     0.039 A 
ATOM      6  C   UNL A   1      39.115  24.587  27.244  1.00  0.00     0.014 A 
ATOM      7  C   UNL A   1      41.452  24.154  27.690  1.00  0.00     0.014 A 
ATOM      8  C   UNL A   1      39.300  25.902  27.679  1.00  0.00     0.010 A 
ATOM      9  C   UNL A   1      41.524  25.314  28.401  1.00  0.00     0.010 A 
ATOM     10  C   UNL A   1      40.509  26.252  28.305  1.00  0.00    -0.014 A 
BRANCH  10  11
ATOM     11  C   UNL A   1      40.742  27.556  28.924  1.00  0.00     0.031 A 
ATOM     12  C   UNL A   1      41.815  28.381  28.306  1.00  0.00     0.074 A 
ATOM     13  C   UNL A   1      39.926  28.068  29.878  1.00  0.00     0.049 A 
ATOM     14  N   UNL A   1      42.980  28.640  28.802  1.00  0.00    -0.248 NA
ATOM     15  C   UNL A   1      41.642  28.860  26.926  1.00  0.00     0.031 C 
ATOM     16  C   UNL A   1      38.672  27.521  30.425  1.00  0.00     0.029 A 
ATOM     17  N   UNL A   1      39.999  29.273  30.503  1.00  0.00    -0.354 N 
ATOM     18  C   UNL A   1      43.597  29.509  27.908  1.00  0.00     0.074 A 
ATOM     19  C   UNL A   1      42.819  29.449  26.696  1.00  0.00     0.031 C 
ATOM     20  C   UNL A   1      37.985  28.487  31.070  1.00  0.00     0.029 A 
ATOM     21  C   UNL A   1      38.845  29.645  31.184  1.00  0.00     0.049 A 
ATOM     22  H   UNL A   1      40.805  29.837  30.475  1.00  0.00     0.167 HD
ATOM     23  C   UNL A   1      44.560  30.382  28.322  1.00  0.00     0.037 A 
ATOM     24  C   UNL A   1      38.611  30.812  31.829  1.00  0.00     0.037 A 
ATOM     25  C   UNL A   1      45.027  30.048  29.645  1.00  0.00     0.049 A 
ATOM     26  C   UNL A   1      39.944  31.387  32.140  1.00  0.00     0.074 A 
ATOM     27  C   UNL A   1      45.619  28.933  30.209  1.00  0.00     0.029 A 
ATOM     28  N   UNL A   1      44.536  30.784  30.699  1.00  0.00    -0.354 N 
ATOM     29  N   UNL A   1      40.792  30.837  32.969  1.00  0.00    -0.248 NA
ATOM     30  C   UNL A   1      40.524  32.304  31.172  1.00  0.00     0.031 C 
ATOM     31  C   UNL A   1      45.021  28.813  31.498  1.00  0.00     0.029 A 
ATOM     32  C   UNL A   1      44.162  29.899  31.681  1.00  0.00     0.049 A 
ATOM     33  H   UNL A   1      44.466  31.764  30.742  1.00  0.00     0.167 HD
ATOM     34  C   UNL A   1      42.031  30.994  32.365  1.00  0.00     0.074 A 
ATOM     35  C   UNL A   1      41.815  31.984  31.311  1.00  0.00     0.031 C 
ATOM     36  C   UNL A   1      43.047  30.105  32.583  1.00  0.00     0.037 A 
BRANCH  23  37
ATOM     37  C   UNL A   1      44.827  31.733  27.704  1.00  0.00     0.058 A 
ATOM     38  C   UNL A   1      46.040  31.952  27.018  1.00  0.00     0.135 A 
ATOM     39  C   UNL A   1      44.074  32.892  27.995  1.00  0.00     0.135 A 
ATOM     40  F   UNL A   1      46.839  30.923  26.694  1.00  0.00    -0.206 F 
ATOM     41  C   UNL A   1      46.507  33.233  26.714  1.00  0.00     0.059 A 
ATOM     42  C   UNL A   1      44.493  34.173  27.652  1.00  0.00     0.059 A 
ATOM     43  F   UNL A   1      42.947  32.849  28.715  1.00  0.00    -0.206 F 
ATOM     44  C   UNL A   1      45.731  34.337  27.052  1.00  0.00     0.060 A 
BRANCH  44  45
ATOM     45  S   UNL A   1      46.382  35.993  26.770  1.00  0.00     0.124 S 
ATOM     46  O   UNL A   1      47.186  36.198  27.969  1.00  0.00    -0.237 OA
ATOM     47  O   UNL A   1      47.122  35.818  25.524  1.00  0.00    -0.237 OA
ATOM     48  O   UNL A   1      45.178  36.813  26.667  1.00  0.00    -0.744 OA
ENDBRANCH  44  45
ENDBRANCH  23  37
BRANCH  24  49
ATOM     49  C   UNL A   1      37.340  31.580  31.902  1.00  0.00     0.058 A 
ATOM     50  C   UNL A   1      36.778  31.929  33.143  1.00  0.00     0.135 A 
ATOM     51  C   UNL A   1      36.803  32.236  30.773  1.00  0.00     0.135 A 
ATOM     52  F   UNL A   1      37.230  31.360  34.270  1.00  0.00    -0.206 F 
ATOM     53  C   UNL A   1      35.798  32.919  33.266  1.00  0.00     0.059 A 
ATOM     54  C   UNL A   1      35.819  33.219  30.871  1.00  0.00     0.059 A 
ATOM     55  F   UNL A   1      37.290  32.008  29.544  1.00  0.00    -0.206 F 
ATOM     56  C   UNL A   1      35.346  33.581  32.125  1.00  0.00     0.060 A 
BRANCH  56  57
ATOM     57  S   UNL A   1      34.238  34.999  32.307  1.00  0.00     0.124 S 
ATOM     58  O   UNL A   1      33.084  34.401  32.969  1.00  0.00    -0.237 OA
ATOM     59  O   UNL A   1      35.037  35.910  33.120  1.00  0.00    -0.237 OA
ATOM     60  O   UNL A   1      34.012  35.434  30.931  1.00  0.00    -0.744 OA
ENDBRANCH  56  57
ENDBRANCH  24  49
BRANCH  36  61
ATOM     61  C   UNL A   1      42.907  29.106  33.707  1.00  0.00     0.058 A 
ATOM     62  C   UNL A   1      43.213  29.374  35.054  1.00  0.00     0.135 A 
ATOM     63  C   UNL A   1      42.258  27.894  33.432  1.00  0.00     0.135 A 
ATOM     64  F   UNL A   1      43.746  30.547  35.421  1.00  0.00    -0.206 F 
ATOM     65  C   UNL A   1      42.908  28.469  36.075  1.00  0.00     0.059 A 
ATOM     66  C   UNL A   1      41.918  26.989  34.436  1.00  0.00     0.059 A 
ATOM     67  F   UNL A   1      41.886  27.602  32.175  1.00  0.00    -0.206 F 
ATOM     68  C   UNL A   1      42.252  27.281  35.756  1.00  0.00     0.060 A 
BRANCH  68  69
ATOM     69  S   UNL A   1      41.771  26.156  37.086  1.00  0.00     0.124 S 
ATOM     70  O   UNL A   1      40.509  26.733  37.537  1.00  0.00    -0.237 OA
ATOM     71  O   UNL A   1      41.671  24.873  36.396  1.00  0.00    -0.237 OA
ATOM     72  O   UNL A   1      42.877  26.257  38.035  1.00  0.00    -0.744 OA
ENDBRANCH  68  69
ENDBRANCH  36  61
ENDBRANCH  10  11
ENDBRANCH   2   5
BRANCH   3  73
ATOM     73  C   UNL A   1      38.091  22.478  25.579  1.00  0.00     0.118 C 
BRANCH  73  74
ATOM     74  C   UNL A   1      37.137  21.580  24.810  1.00  0.00     0.042 C 
BRANCH  74  75
ATOM     75  C   UNL A   1      35.908  21.194  25.637  1.00  0.00     0.118 C 
BRANCH  75  76
ATOM     76  N   UNL A   1      34.644  21.411  24.940  1.00  0.00    -0.351 N 
ATOM     77  C   UNL A   1      33.694  20.499  24.528  1.00  0.00     0.269 C 
ATOM     78  H   UNL A   1      34.437  22.351  24.734  1.00  0.00     0.163 HD
ATOM     79  O   UNL A   1      32.722  20.880  23.881  1.00  0.00    -0.268 OA
BRANCH  77  80
ATOM     80  C   UNL A   1      33.863  19.046  24.817  1.00  0.00     0.130 A 
ATOM     81  C   UNL A   1      32.788  18.360  25.374  1.00  0.00     0.066 A 
ATOM     82  N   UNL A   1      35.059  18.484  24.464  1.00  0.00    -0.247 NA
ATOM     83  C   UNL A   1      32.957  16.979  25.459  1.00  0.00     0.113 A 
ATOM     84  C   UNL A   1      35.221  17.146  24.582  1.00  0.00     0.161 A 
ATOM     85  N   UNL A   1      32.101  15.985  25.866  1.00  0.00    -0.216 NA
ATOM     86  C   UNL A   1      34.156  16.411  25.054  1.00  0.00     0.172 A 
ATOM     87  C   UNL A   1      32.796  14.884  25.677  1.00  0.00     0.309 A 
ATOM     88  O   UNL A   1      34.059  15.059  25.194  1.00  0.00    -0.442 OA
ENDBRANCH  77  80
ENDBRANCH  75  76
ENDBRANCH  74  75
ENDBRANCH  73  74
ENDBRANCH   3  73
TORSDOF 13
ENDMDL
MODEL 3
REMARK VINA RESULT:     -12.2      3.241     12.013
REMARK SMILES O=C(NCCCNC(=O)c1cc2ncoc2cn1)c1ccc(-c2c3nc(c(-c4c(F)cc(S(=O)(=O)[O-])cc4F)c4ccc([nH]4)c(-c4c(F)cc(S(=O)(=O)[O-])cc4F)c4nc(c(-c5c(F)cc(S(=O)(=O)[O-])cc5F)c5ccc2[nH]5)C=C4)C=C3)cc1
REMARK SMILES IDX 1 1 2 2 3 3 19 5 20 6 84 7 21 8 83 9 22 10 23 11 24 12 77 13
REMARK SMILES IDX 25 14 82 15 76 16 78 17 26 18 81 19 75 20 74 21 27 23 61 24
REMARK SMILES IDX 40 25 60 26 41 27 44 28 59 29 79 30 42 31 43 32 58 34 80 35
REMARK SMILES IDX 45 36 28 37 29 38 38 39 30 40 31 41 37 42 39 43 32 44 33 45
REMARK SMILES IDX 34 46 35 47 36 48 62 49 63 50 72 51 64 52 65 53 71 54 73 55
REMARK SMILES IDX 66 56 67 57 68 58 69 59 70 60 46 61 47 62 56 63 48 64 49 65
REMARK SMILES IDX 55 66 57 67 50 68 51 69 52 70 53 71 54 72 4 73 5 74 6 75
REMARK SMILES IDX 7 76 8 77 9 79 10 80 11 81 18 82 12 83 17 84 13 85 16 86
REMARK SMILES IDX 14 87 15 88
REMARK H PARENT 3 4 78 22 44 33 7 78
REMARK Flexibility Score: inf
ROOT
ATOM      1  O   UNL A   1      37.711  23.452  25.707  1.00  0.00    -0.269 OA
ATOM      2  C   UNL A   1      38.814  23.277  26.172  1.00  0.00     0.251 C 
ATOM      3  N   UNL A   1      39.463  22.042  26.091  1.00  0.00    -0.352 N 
ATOM      4  H   UNL A   1      39.111  21.415  25.419  1.00  0.00     0.163 HD
ENDROOT
BRANCH   2   5
ATOM      5  C   UNL A   1      39.547  24.366  26.849  1.00  0.00     0.039 A 
ATOM      6  C   UNL A   1      40.439  25.218  26.193  1.00  0.00     0.014 A 
ATOM      7  C   UNL A   1      39.144  24.620  28.146  1.00  0.00     0.014 A 
ATOM      8  C   UNL A   1      40.809  26.405  26.830  1.00  0.00     0.010 A 
ATOM      9  C   UNL A   1      39.250  25.901  28.599  1.00  0.00     0.010 A 
ATOM     10  C   UNL A   1      40.169  26.766  28.028  1.00  0.00    -0.014 A 
BRANCH  10  11
ATOM     11  C   UNL A   1      40.379  28.052  28.692  1.00  0.00     0.031 A 
ATOM     12  C   UNL A   1      41.522  28.860  28.188  1.00  0.00     0.074 A 
ATOM     13  C   UNL A   1      39.494  28.569  29.579  1.00  0.00     0.049 A 
ATOM     14  N   UNL A   1      42.645  29.079  28.790  1.00  0.00    -0.248 NA
ATOM     15  C   UNL A   1      41.485  29.367  26.808  1.00  0.00     0.031 C 
ATOM     16  C   UNL A   1      38.183  28.046  30.002  1.00  0.00     0.029 A 
ATOM     17  N   UNL A   1      39.541  29.760  30.232  1.00  0.00    -0.354 N 
ATOM     18  C   UNL A   1      43.360  29.946  27.972  1.00  0.00     0.074 A 
ATOM     19  C   UNL A   1      42.693  29.928  26.695  1.00  0.00     0.031 C 
ATOM     20  C   UNL A   1      37.466  29.017  30.603  1.00  0.00     0.029 A 
ATOM     21  C   UNL A   1      38.340  30.150  30.816  1.00  0.00     0.049 A 
ATOM     22  H   UNL A   1      40.359  30.303  30.288  1.00  0.00     0.167 HD
ATOM     23  C   UNL A   1      44.304  30.786  28.487  1.00  0.00     0.037 A 
ATOM     24  C   UNL A   1      38.078  31.312  31.461  1.00  0.00     0.037 A 
ATOM     25  C   UNL A   1      44.643  30.417  29.840  1.00  0.00     0.049 A 
ATOM     26  C   UNL A   1      39.392  31.845  31.900  1.00  0.00     0.074 A 
ATOM     27  C   UNL A   1      45.154  29.277  30.431  1.00  0.00     0.029 A 
ATOM     28  N   UNL A   1      44.078  31.147  30.860  1.00  0.00    -0.354 N 
ATOM     29  N   UNL A   1      40.149  31.258  32.790  1.00  0.00    -0.248 NA
ATOM     30  C   UNL A   1      40.079  32.763  31.006  1.00  0.00     0.031 C 
ATOM     31  C   UNL A   1      44.441  29.150  31.659  1.00  0.00     0.029 A 
ATOM     32  C   UNL A   1      43.597  30.255  31.787  1.00  0.00     0.049 A 
ATOM     33  H   UNL A   1      44.029  32.128  30.916  1.00  0.00     0.167 HD
ATOM     34  C   UNL A   1      41.441  31.393  32.301  1.00  0.00     0.074 A 
ATOM     35  C   UNL A   1      41.344  32.407  31.252  1.00  0.00     0.031 C 
ATOM     36  C   UNL A   1      42.411  30.474  32.590  1.00  0.00     0.037 A 
BRANCH  23  37
ATOM     37  C   UNL A   1      44.658  32.141  27.922  1.00  0.00     0.058 A 
ATOM     38  C   UNL A   1      45.910  32.323  27.296  1.00  0.00     0.135 A 
ATOM     39  C   UNL A   1      43.946  33.324  28.216  1.00  0.00     0.135 A 
ATOM     40  F   UNL A   1      46.675  31.268  26.977  1.00  0.00    -0.206 F 
ATOM     41  C   UNL A   1      46.446  33.589  27.052  1.00  0.00     0.059 A 
ATOM     42  C   UNL A   1      44.437  34.593  27.930  1.00  0.00     0.059 A 
ATOM     43  F   UNL A   1      42.787  33.313  28.884  1.00  0.00    -0.206 F 
ATOM     44  C   UNL A   1      45.707  34.718  27.389  1.00  0.00     0.060 A 
BRANCH  44  45
ATOM     45  S   UNL A   1      46.442  36.349  27.186  1.00  0.00     0.124 S 
ATOM     46  O   UNL A   1      47.215  36.169  25.961  1.00  0.00    -0.237 OA
ATOM     47  O   UNL A   1      45.262  37.201  27.079  1.00  0.00    -0.237 OA
ATOM     48  O   UNL A   1      47.223  36.520  28.407  1.00  0.00    -0.744 OA
ENDBRANCH  44  45
ENDBRANCH  23  37
BRANCH  24  49
ATOM     49  C   UNL A   1      36.826  32.112  31.436  1.00  0.00     0.058 A 
ATOM     50  C   UNL A   1      36.098  32.348  32.615  1.00  0.00     0.135 A 
ATOM     51  C   UNL A   1      36.471  32.900  30.320  1.00  0.00     0.135 A 
ATOM     52  F   UNL A   1      36.371  31.648  33.727  1.00  0.00    -0.206 F 
ATOM     53  C   UNL A   1      35.129  33.354  32.706  1.00  0.00     0.059 A 
ATOM     54  C   UNL A   1      35.502  33.902  30.385  1.00  0.00     0.059 A 
ATOM     55  F   UNL A   1      37.126  32.786  29.156  1.00  0.00    -0.206 F 
ATOM     56  C   UNL A   1      34.860  34.146  31.591  1.00  0.00     0.060 A 
BRANCH  56  57
ATOM     57  S   UNL A   1      33.765  35.575  31.767  1.00  0.00     0.124 S 
ATOM     58  O   UNL A   1      32.570  34.973  32.348  1.00  0.00    -0.237 OA
ATOM     59  O   UNL A   1      34.534  36.444  32.651  1.00  0.00    -0.237 OA
ATOM     60  O   UNL A   1      33.616  36.062  30.397  1.00  0.00    -0.744 OA
ENDBRANCH  56  57
ENDBRANCH  24  49
BRANCH  36  61
ATOM     61  C   UNL A   1      42.147  29.460  33.678  1.00  0.00     0.058 A 
ATOM     62  C   UNL A   1      41.567  28.196  33.465  1.00  0.00     0.135 A 
ATOM     63  C   UNL A   1      42.679  29.708  34.952  1.00  0.00     0.135 A 
ATOM     64  F   UNL A   1      41.119  27.836  32.255  1.00  0.00    -0.206 F 
ATOM     65  C   UNL A   1      41.499  27.234  34.477  1.00  0.00     0.059 A 
ATOM     66  C   UNL A   1      42.650  28.755  35.967  1.00  0.00     0.059 A 
ATOM     67  F   UNL A   1      43.299  30.872  35.205  1.00  0.00    -0.206 F 
ATOM     68  C   UNL A   1      42.052  27.520  35.725  1.00  0.00     0.060 A 
BRANCH  68  69
ATOM     69  S   UNL A   1      42.051  26.243  37.002  1.00  0.00     0.124 S 
ATOM     70  O   UNL A   1      43.050  26.744  37.941  1.00  0.00    -0.237 OA
ATOM     71  O   UNL A   1      40.669  26.267  37.475  1.00  0.00    -0.237 OA
ATOM     72  O   UNL A   1      42.430  25.033  36.277  1.00  0.00    -0.744 OA
ENDBRANCH  68  69
ENDBRANCH  36  61
ENDBRANCH  10  11
ENDBRANCH   2   5
BRANCH   3  73
ATOM     73  C   UNL A   1      40.608  21.563  26.885  1.00  0.00     0.118 C 
BRANCH  73  74
ATOM     74  C   UNL A   1      40.947  20.101  26.654  1.00  0.00     0.042 C 
BRANCH  74  75
ATOM     75  C   UNL A   1      42.356  19.747  27.138  1.00  0.00     0.118 C 
BRANCH  75  76
ATOM     76  N   UNL A   1      43.173  19.088  26.125  1.00  0.00    -0.351 N 
ATOM     77  C   UNL A   1      44.068  19.626  25.222  1.00  0.00     0.269 C 
ATOM     78  H   UNL A   1      43.072  18.109  26.079  1.00  0.00     0.163 HD
ATOM     79  O   UNL A   1      44.606  18.900  24.390  1.00  0.00    -0.268 OA
BRANCH  77  80
ATOM     80  C   UNL A   1      44.348  21.090  25.215  1.00  0.00     0.130 A 
ATOM     81  C   UNL A   1      45.566  21.526  25.727  1.00  0.00     0.066 A 
ATOM     82  N   UNL A   1      43.394  21.896  24.656  1.00  0.00    -0.247 NA
ATOM     83  C   UNL A   1      45.830  22.881  25.533  1.00  0.00     0.113 A 
ATOM     84  C   UNL A   1      43.651  23.215  24.505  1.00  0.00     0.161 A 
ATOM     85  N   UNL A   1      46.940  23.637  25.821  1.00  0.00    -0.216 NA
ATOM     86  C   UNL A   1      44.877  23.682  24.922  1.00  0.00     0.172 A 
ATOM     87  C   UNL A   1      46.625  24.831  25.366  1.00  0.00     0.309 A 
ATOM     88  O   UNL A   1      45.383  24.942  24.813  1.00  0.00    -0.442 OA
ENDBRANCH  77  80
ENDBRANCH  75  76
ENDBRANCH  74  75
ENDBRANCH  73  74
ENDBRANCH   3  73
TORSDOF 13
ENDMDL
