MODEL 1
REMARK VINA RESULT:     -13.6      0.000      0.000
REMARK SMILES O=C(NCCCNC(=O)c1ccc(-c2c3nc(c(-c4c(F)cc(S(=O)(=O)[O-])cc4F)c4ccc([nH]4)c(-c4c(F)cc(S(=O)(=O)[O-])cc4F)c4nc(c(-c5c(F)cc(S(=O)(=O)[O-])cc5F)c5ccc2[nH]5)C=C4)C=C3)cc1)C1=Cc2c(ccc(Cl)c2Oc2ccccc2)O[C@H]1C(F)(F)F
REMARK SMILES IDX 5 1 4 2 3 3 1 4 2 5 76 7 77 8 93 9 78 10 92 11 79 12 84 13
REMARK SMILES IDX 80 14 82 15 81 16 83 17 94 18 95 19 96 20 97 21 85 22 86 23
REMARK SMILES IDX 87 24 91 25 88 26 90 27 89 28 6 29 7 30 8 31 9 33 10 34
REMARK SMILES IDX 11 35 75 36 12 37 74 38 13 39 14 40 15 41 68 42 16 43 73 44
REMARK SMILES IDX 67 45 69 46 17 47 72 48 66 49 65 50 18 52 52 53 31 54 51 55
REMARK SMILES IDX 32 56 35 57 50 58 70 59 33 60 34 61 49 63 71 64 36 65 19 66
REMARK SMILES IDX 20 67 29 68 21 69 22 70 28 71 30 72 23 73 24 74 25 75 26 76
REMARK SMILES IDX 27 77 53 78 54 79 63 80 55 81 56 82 62 83 64 84 57 85 58 86
REMARK SMILES IDX 59 87 60 88 61 89 37 90 38 91 47 92 39 93 40 94 46 95 48 96
REMARK SMILES IDX 41 97 42 98 43 99 44 100 45 101
REMARK H PARENT 3 6 7 32 69 51 35 62
REMARK Flexibility Score: inf
ROOT
ATOM      1  C   UNL A   1      31.919  28.171  27.172  1.00  0.00     0.042 C 
ENDROOT
BRANCH   1   2
ATOM      2  C   UNL A   1      31.740  26.997  26.221  1.00  0.00     0.118 C 
BRANCH   2   3
ATOM      3  N   UNL A   1      31.428  25.755  26.913  1.00  0.00    -0.352 N 
ATOM      4  O   UNL A   1      31.030  23.568  27.223  1.00  0.00    -0.270 OA
ATOM      5  C   UNL A   1      31.413  24.460  26.482  1.00  0.00     0.251 C 
ATOM      6  H   UNL A   1      31.184  25.870  27.859  1.00  0.00     0.163 HD
BRANCH   5   7
ATOM      7  C   UNL A   1      31.810  24.130  25.101  1.00  0.00     0.067 C 
ATOM      8  C   UNL A   1      32.147  22.881  24.763  1.00  0.00     0.029 C 
ATOM      9  C   UNL A   1      32.095  25.263  24.174  1.00  0.00     0.314 C 
ATOM     10  C   UNL A   1      33.571  22.810  24.353  1.00  0.00     0.061 A 
ATOM     11  O   UNL A   1      33.402  25.126  23.534  1.00  0.00    -0.475 OA
ATOM     12  C   UNL A   1      34.128  23.986  23.797  1.00  0.00     0.131 A 
ATOM     13  C   UNL A   1      34.407  21.719  24.699  1.00  0.00     0.156 A 
ATOM     14  C   UNL A   1      35.499  24.080  23.577  1.00  0.00     0.049 A 
ATOM     15  C   UNL A   1      35.793  21.858  24.503  1.00  0.00     0.084 A 
ATOM     16  C   UNL A   1      36.332  23.026  23.949  1.00  0.00     0.028 A 
ATOM     17  Cl  UNL A   1      36.899  20.624  25.001  1.00  0.00    -0.080 Cl
BRANCH   9  18
ATOM     18  C   UNL A   1      30.984  25.425  23.118  1.00  0.00     0.429 C 
ATOM     19  F   UNL A   1      30.330  26.608  23.218  1.00  0.00    -0.167 F 
ATOM     20  F   UNL A   1      31.482  25.356  21.862  1.00  0.00    -0.167 F 
ATOM     21  F   UNL A   1      30.037  24.459  23.230  1.00  0.00    -0.167 F 
ENDBRANCH   9  18
BRANCH  13  22
ATOM     22  O   UNL A   1      34.019  20.560  25.365  1.00  0.00    -0.455 OA
BRANCH  22  23
ATOM     23  C   UNL A   1      33.700  19.443  24.637  1.00  0.00     0.127 A 
ATOM     24  C   UNL A   1      32.527  19.457  23.877  1.00  0.00     0.047 A 
ATOM     25  C   UNL A   1      34.543  18.331  24.627  1.00  0.00     0.047 A 
ATOM     26  C   UNL A   1      32.260  18.401  23.007  1.00  0.00     0.004 A 
ATOM     27  C   UNL A   1      34.265  17.271  23.763  1.00  0.00     0.004 A 
ATOM     28  C   UNL A   1      33.138  17.317  22.939  1.00  0.00     0.000 A 
ENDBRANCH  22  23
ENDBRANCH  13  22
ENDBRANCH   5   7
ENDBRANCH   2   3
ENDBRANCH   1   2
BRANCH   1  29
ATOM     29  C   UNL A   1      33.346  28.706  27.182  1.00  0.00     0.118 C 
BRANCH  29  30
ATOM     30  N   UNL A   1      33.482  30.039  27.761  1.00  0.00    -0.352 N 
ATOM     31  C   UNL A   1      34.563  30.682  28.324  1.00  0.00     0.251 C 
ATOM     32  H   UNL A   1      32.655  30.574  27.746  1.00  0.00     0.163 HD
ATOM     33  O   UNL A   1      34.408  31.806  28.799  1.00  0.00    -0.269 OA
BRANCH  31  34
ATOM     34  C   UNL A   1      35.889  30.025  28.421  1.00  0.00     0.039 A 
ATOM     35  C   UNL A   1      36.749  30.075  27.318  1.00  0.00     0.014 A 
ATOM     36  C   UNL A   1      36.306  29.382  29.584  1.00  0.00     0.014 A 
ATOM     37  C   UNL A   1      38.061  29.602  27.431  1.00  0.00     0.010 A 
ATOM     38  C   UNL A   1      37.642  29.022  29.734  1.00  0.00     0.010 A 
ATOM     39  C   UNL A   1      38.543  29.145  28.666  1.00  0.00    -0.014 A 
BRANCH  39  40
ATOM     40  C   UNL A   1      39.976  28.808  28.893  1.00  0.00     0.031 A 
ATOM     41  C   UNL A   1      40.929  29.870  29.376  1.00  0.00     0.074 A 
ATOM     42  C   UNL A   1      40.450  27.592  28.548  1.00  0.00     0.049 A 
ATOM     43  N   UNL A   1      42.237  29.869  29.384  1.00  0.00    -0.248 NA
ATOM     44  C   UNL A   1      40.328  31.120  29.870  1.00  0.00     0.031 C 
ATOM     45  C   UNL A   1      39.649  26.478  28.030  1.00  0.00     0.029 A 
ATOM     46  N   UNL A   1      41.730  27.094  28.560  1.00  0.00    -0.354 N 
ATOM     47  C   UNL A   1      42.614  31.131  29.829  1.00  0.00     0.074 A 
ATOM     48  C   UNL A   1      41.397  31.882  30.051  1.00  0.00     0.031 C 
ATOM     49  C   UNL A   1      40.449  25.424  27.802  1.00  0.00     0.029 A 
ATOM     50  C   UNL A   1      41.826  25.802  28.098  1.00  0.00     0.049 A 
ATOM     51  H   UNL A   1      42.506  27.613  28.870  1.00  0.00     0.167 HD
ATOM     52  C   UNL A   1      43.860  31.615  30.050  1.00  0.00     0.037 A 
ATOM     53  C   UNL A   1      42.904  25.015  27.911  1.00  0.00     0.037 A 
ATOM     54  C   UNL A   1      45.064  30.843  29.901  1.00  0.00     0.049 A 
ATOM     55  C   UNL A   1      44.274  25.560  28.202  1.00  0.00     0.074 A 
ATOM     56  C   UNL A   1      46.370  31.225  30.155  1.00  0.00     0.029 A 
ATOM     57  N   UNL A   1      45.107  29.521  29.482  1.00  0.00    -0.354 N 
ATOM     58  N   UNL A   1      44.610  26.758  28.619  1.00  0.00    -0.248 NA
ATOM     59  C   UNL A   1      45.411  24.654  27.987  1.00  0.00     0.031 C 
ATOM     60  C   UNL A   1      47.204  30.136  29.881  1.00  0.00     0.029 A 
ATOM     61  C   UNL A   1      46.416  29.071  29.478  1.00  0.00     0.049 A 
ATOM     62  H   UNL A   1      44.324  28.984  29.228  1.00  0.00     0.167 HD
ATOM     63  C   UNL A   1      45.995  26.743  28.731  1.00  0.00     0.074 A 
ATOM     64  C   UNL A   1      46.435  25.416  28.350  1.00  0.00     0.031 C 
ATOM     65  C   UNL A   1      46.828  27.741  29.110  1.00  0.00     0.037 A 
BRANCH  52  66
ATOM     66  C   UNL A   1      43.978  33.046  30.492  1.00  0.00     0.058 A 
ATOM     67  C   UNL A   1      43.924  33.401  31.848  1.00  0.00     0.135 A 
ATOM     68  C   UNL A   1      44.164  34.072  29.552  1.00  0.00     0.135 A 
ATOM     69  F   UNL A   1      43.731  32.459  32.786  1.00  0.00    -0.206 F 
ATOM     70  C   UNL A   1      44.015  34.727  32.258  1.00  0.00     0.059 A 
ATOM     71  C   UNL A   1      44.281  35.404  29.940  1.00  0.00     0.059 A 
ATOM     72  F   UNL A   1      44.223  33.788  28.241  1.00  0.00    -0.206 F 
ATOM     73  C   UNL A   1      44.187  35.723  31.295  1.00  0.00     0.060 A 
BRANCH  73  74
ATOM     74  S   UNL A   1      44.291  37.442  31.835  1.00  0.00     0.124 S 
ATOM     75  O   UNL A   1      43.430  37.426  33.014  1.00  0.00    -0.237 OA
ATOM     76  O   UNL A   1      45.718  37.606  32.097  1.00  0.00    -0.237 OA
ATOM     77  O   UNL A   1      43.777  38.187  30.691  1.00  0.00    -0.744 OA
ENDBRANCH  73  74
ENDBRANCH  52  66
BRANCH  53  78
ATOM     78  C   UNL A   1      42.734  23.619  27.428  1.00  0.00     0.058 A 
ATOM     79  C   UNL A   1      42.480  22.579  28.334  1.00  0.00     0.135 A 
ATOM     80  C   UNL A   1      42.818  23.296  26.065  1.00  0.00     0.135 A 
ATOM     81  F   UNL A   1      42.399  22.841  29.648  1.00  0.00    -0.206 F 
ATOM     82  C   UNL A   1      42.332  21.263  27.910  1.00  0.00     0.059 A 
ATOM     83  C   UNL A   1      42.652  21.990  25.615  1.00  0.00     0.059 A 
ATOM     84  F   UNL A   1      43.041  24.259  25.158  1.00  0.00    -0.206 F 
ATOM     85  C   UNL A   1      42.421  20.978  26.547  1.00  0.00     0.060 A 
BRANCH  85  86
ATOM     86  S   UNL A   1      42.184  19.274  25.997  1.00  0.00     0.124 S 
ATOM     87  O   UNL A   1      43.033  19.228  24.812  1.00  0.00    -0.237 OA
ATOM     88  O   UNL A   1      42.652  18.507  27.148  1.00  0.00    -0.237 OA
ATOM     89  O   UNL A   1      40.747  19.203  25.751  1.00  0.00    -0.744 OA
ENDBRANCH  85  86
ENDBRANCH  53  78
BRANCH  65  90
ATOM     90  C   UNL A   1      48.295  27.432  29.163  1.00  0.00     0.058 A 
ATOM     91  C   UNL A   1      49.127  27.651  28.056  1.00  0.00     0.135 A 
ATOM     92  C   UNL A   1      48.884  26.979  30.354  1.00  0.00     0.135 A 
ATOM     93  F   UNL A   1      48.606  28.075  26.892  1.00  0.00    -0.206 F 
ATOM     94  C   UNL A   1      50.498  27.429  28.124  1.00  0.00     0.059 A 
ATOM     95  C   UNL A   1      50.255  26.766  30.450  1.00  0.00     0.059 A 
ATOM     96  F   UNL A   1      48.128  26.760  31.441  1.00  0.00    -0.206 F 
ATOM     97  C   UNL A   1      51.053  26.990  29.329  1.00  0.00     0.060 A 
BRANCH  97  98
ATOM     98  S   UNL A   1      52.842  26.763  29.428  1.00  0.00     0.124 S 
ATOM     99  O   UNL A   1      52.969  25.956  30.636  1.00  0.00    -0.237 OA
ATOM    100  O   UNL A   1      53.143  26.079  28.173  1.00  0.00    -0.237 OA
ATOM    101  O   UNL A   1      53.351  28.127  29.526  1.00  0.00    -0.744 OA
ENDBRANCH  97  98
ENDBRANCH  65  90
ENDBRANCH  39  40
ENDBRANCH  31  34
ENDBRANCH  29  30
ENDBRANCH   1  29
TORSDOF 16
ENDMDL
MODEL 2
REMARK VINA RESULT:     -12.9      5.275     10.832
REMARK SMILES O=C(NCCCNC(=O)c1ccc(-c2c3nc(c(-c4c(F)cc(S(=O)(=O)[O-])cc4F)c4ccc([nH]4)c(-c4c(F)cc(S(=O)(=O)[O-])cc4F)c4nc(c(-c5c(F)cc(S(=O)(=O)[O-])cc5F)c5ccc2[nH]5)C=C4)C=C3)cc1)C1=Cc2c(ccc(Cl)c2Oc2ccccc2)O[C@H]1C(F)(F)F
REMARK SMILES IDX 5 1 4 2 3 3 1 4 2 5 76 7 77 8 93 9 78 10 92 11 79 12 84 13
REMARK SMILES IDX 80 14 82 15 81 16 83 17 94 18 95 19 96 20 97 21 85 22 86 23
REMARK SMILES IDX 87 24 91 25 88 26 90 27 89 28 6 29 7 30 8 31 9 33 10 34
REMARK SMILES IDX 11 35 75 36 12 37 74 38 13 39 14 40 15 41 68 42 16 43 73 44
REMARK SMILES IDX 67 45 69 46 17 47 72 48 66 49 65 50 18 52 52 53 31 54 51 55
REMARK SMILES IDX 32 56 35 57 50 58 70 59 33 60 34 61 49 63 71 64 36 65 19 66
REMARK SMILES IDX 20 67 29 68 21 69 22 70 28 71 30 72 23 73 24 74 25 75 26 76
REMARK SMILES IDX 27 77 53 78 54 79 63 80 55 81 56 82 62 83 64 84 57 85 58 86
REMARK SMILES IDX 59 87 60 88 61 89 37 90 38 91 47 92 39 93 40 94 46 95 48 96
REMARK SMILES IDX 41 97 42 98 43 99 44 100 45 101
REMARK H PARENT 3 6 7 32 69 51 35 62
REMARK Flexibility Score: inf
ROOT
ATOM      1  C   UNL A   1      37.102  22.931  25.453  1.00  0.00     0.042 C 
ENDROOT
BRANCH   1   2
ATOM      2  C   UNL A   1      35.840  23.507  24.825  1.00  0.00     0.118 C 
BRANCH   2   3
ATOM      3  N   UNL A   1      34.868  23.944  25.816  1.00  0.00    -0.352 N 
ATOM      4  O   UNL A   1      32.982  24.819  26.663  1.00  0.00    -0.270 OA
ATOM      5  C   UNL A   1      33.597  24.422  25.684  1.00  0.00     0.251 C 
ATOM      6  H   UNL A   1      35.185  23.886  26.746  1.00  0.00     0.163 HD
BRANCH   5   7
ATOM      7  C   UNL A   1      32.969  24.513  24.354  1.00  0.00     0.067 C 
ATOM      8  C   UNL A   1      33.049  25.633  23.630  1.00  0.00     0.029 C 
ATOM      9  C   UNL A   1      32.015  23.434  23.965  1.00  0.00     0.314 C 
ATOM     10  C   UNL A   1      31.707  26.236  23.436  1.00  0.00     0.061 A 
ATOM     11  O   UNL A   1      30.733  23.975  23.519  1.00  0.00    -0.475 OA
ATOM     12  C   UNL A   1      30.607  25.345  23.443  1.00  0.00     0.131 A 
ATOM     13  C   UNL A   1      31.492  27.636  23.471  1.00  0.00     0.156 A 
ATOM     14  C   UNL A   1      29.305  25.834  23.477  1.00  0.00     0.049 A 
ATOM     15  C   UNL A   1      30.166  28.100  23.545  1.00  0.00     0.084 A 
ATOM     16  C   UNL A   1      29.086  27.209  23.549  1.00  0.00     0.028 A 
ATOM     17  Cl  UNL A   1      29.813  29.787  23.706  1.00  0.00    -0.080 Cl
BRANCH   9  18
ATOM     18  C   UNL A   1      32.617  22.502  22.895  1.00  0.00     0.429 C 
ATOM     19  F   UNL A   1      33.700  21.819  23.339  1.00  0.00    -0.167 F 
ATOM     20  F   UNL A   1      31.716  21.583  22.478  1.00  0.00    -0.167 F 
ATOM     21  F   UNL A   1      33.027  23.190  21.800  1.00  0.00    -0.167 F 
ENDBRANCH   9  18
BRANCH  13  22
ATOM     22  O   UNL A   1      32.469  28.619  23.594  1.00  0.00    -0.455 OA
BRANCH  22  23
ATOM     23  C   UNL A   1      32.924  28.960  24.842  1.00  0.00     0.127 A 
ATOM     24  C   UNL A   1      32.294  30.010  25.515  1.00  0.00     0.047 A 
ATOM     25  C   UNL A   1      33.968  28.254  25.440  1.00  0.00     0.047 A 
ATOM     26  C   UNL A   1      32.630  30.275  26.841  1.00  0.00     0.004 A 
ATOM     27  C   UNL A   1      34.308  28.530  26.765  1.00  0.00     0.004 A 
ATOM     28  C   UNL A   1      33.624  29.523  27.470  1.00  0.00     0.000 A 
ENDBRANCH  22  23
ENDBRANCH  13  22
ENDBRANCH   5   7
ENDBRANCH   2   3
ENDBRANCH   1   2
BRANCH   1  29
ATOM     29  C   UNL A   1      37.970  23.999  26.108  1.00  0.00     0.118 C 
BRANCH  29  30
ATOM     30  N   UNL A   1      39.384  23.647  26.199  1.00  0.00    -0.352 N 
ATOM     31  C   UNL A   1      40.433  24.250  26.860  1.00  0.00     0.251 C 
ATOM     32  H   UNL A   1      39.633  22.835  25.701  1.00  0.00     0.163 HD
ATOM     33  O   UNL A   1      41.563  23.783  26.735  1.00  0.00    -0.269 OA
BRANCH  31  34
ATOM     34  C   UNL A   1      40.234  25.479  27.665  1.00  0.00     0.039 A 
ATOM     35  C   UNL A   1      39.293  25.462  28.701  1.00  0.00     0.014 A 
ATOM     36  C   UNL A   1      40.973  26.637  27.431  1.00  0.00     0.014 A 
ATOM     37  C   UNL A   1      39.194  26.551  29.575  1.00  0.00     0.010 A 
ATOM     38  C   UNL A   1      40.959  27.666  28.367  1.00  0.00     0.010 A 
ATOM     39  C   UNL A   1      40.084  27.629  29.464  1.00  0.00    -0.014 A 
BRANCH  39  40
ATOM     40  C   UNL A   1      40.152  28.723  30.473  1.00  0.00     0.031 A 
ATOM     41  C   UNL A   1      41.129  28.629  31.615  1.00  0.00     0.074 A 
ATOM     42  C   UNL A   1      39.255  29.732  30.441  1.00  0.00     0.049 A 
ATOM     43  N   UNL A   1      41.172  29.315  32.728  1.00  0.00    -0.248 NA
ATOM     44  C   UNL A   1      42.167  27.591  31.512  1.00  0.00     0.031 C 
ATOM     45  C   UNL A   1      38.226  29.929  29.416  1.00  0.00     0.029 A 
ATOM     46  N   UNL A   1      39.052  30.775  31.310  1.00  0.00    -0.354 N 
ATOM     47  C   UNL A   1      42.201  28.757  33.478  1.00  0.00     0.074 A 
ATOM     48  C   UNL A   1      42.736  27.655  32.707  1.00  0.00     0.031 C 
ATOM     49  C   UNL A   1      37.522  31.036  29.700  1.00  0.00     0.029 A 
ATOM     50  C   UNL A   1      38.007  31.596  30.956  1.00  0.00     0.049 A 
ATOM     51  H   UNL A   1      39.603  30.922  32.113  1.00  0.00     0.167 HD
ATOM     52  C   UNL A   1      42.670  29.137  34.690  1.00  0.00     0.037 A 
ATOM     53  C   UNL A   1      37.479  32.666  31.583  1.00  0.00     0.037 A 
ATOM     54  C   UNL A   1      42.187  30.279  35.420  1.00  0.00     0.049 A 
ATOM     55  C   UNL A   1      38.044  33.096  32.908  1.00  0.00     0.074 A 
ATOM     56  C   UNL A   1      42.635  30.781  36.630  1.00  0.00     0.029 A 
ATOM     57  N   UNL A   1      41.163  31.112  34.995  1.00  0.00    -0.354 N 
ATOM     58  N   UNL A   1      39.014  32.552  33.602  1.00  0.00    -0.248 NA
ATOM     59  C   UNL A   1      37.434  34.274  33.540  1.00  0.00     0.031 C 
ATOM     60  C   UNL A   1      41.875  31.914  36.941  1.00  0.00     0.029 A 
ATOM     61  C   UNL A   1      40.969  32.128  35.915  1.00  0.00     0.049 A 
ATOM     62  H   UNL A   1      40.651  30.998  34.163  1.00  0.00     0.167 HD
ATOM     63  C   UNL A   1      39.142  33.332  34.745  1.00  0.00     0.074 A 
ATOM     64  C   UNL A   1      38.159  34.391  34.646  1.00  0.00     0.031 C 
ATOM     65  C   UNL A   1      39.995  33.181  35.787  1.00  0.00     0.037 A 
BRANCH  52  66
ATOM     66  C   UNL A   1      43.774  28.317  35.294  1.00  0.00     0.058 A 
ATOM     67  C   UNL A   1      45.124  28.596  35.029  1.00  0.00     0.135 A 
ATOM     68  C   UNL A   1      43.482  27.252  36.161  1.00  0.00     0.135 A 
ATOM     69  F   UNL A   1      45.456  29.593  34.193  1.00  0.00    -0.206 F 
ATOM     70  C   UNL A   1      46.146  27.825  35.572  1.00  0.00     0.059 A 
ATOM     71  C   UNL A   1      44.490  26.483  36.736  1.00  0.00     0.059 A 
ATOM     72  F   UNL A   1      42.208  26.943  36.450  1.00  0.00    -0.206 F 
ATOM     73  C   UNL A   1      45.819  26.766  36.420  1.00  0.00     0.060 A 
BRANCH  73  74
ATOM     74  S   UNL A   1      47.152  25.765  37.111  1.00  0.00     0.124 S 
ATOM     75  O   UNL A   1      47.945  26.778  37.801  1.00  0.00    -0.237 OA
ATOM     76  O   UNL A   1      46.434  24.830  37.971  1.00  0.00    -0.237 OA
ATOM     77  O   UNL A   1      47.776  25.174  35.932  1.00  0.00    -0.744 OA
ENDBRANCH  73  74
ENDBRANCH  52  66
BRANCH  53  78
ATOM     78  C   UNL A   1      36.356  33.417  30.962  1.00  0.00     0.058 A 
ATOM     79  C   UNL A   1      36.566  34.185  29.807  1.00  0.00     0.135 A 
ATOM     80  C   UNL A   1      35.061  33.381  31.500  1.00  0.00     0.135 A 
ATOM     81  F   UNL A   1      37.791  34.253  29.262  1.00  0.00    -0.206 F 
ATOM     82  C   UNL A   1      35.536  34.908  29.215  1.00  0.00     0.059 A 
ATOM     83  C   UNL A   1      34.009  34.080  30.913  1.00  0.00     0.059 A 
ATOM     84  F   UNL A   1      34.806  32.646  32.593  1.00  0.00    -0.206 F 
ATOM     85  C   UNL A   1      34.260  34.849  29.777  1.00  0.00     0.060 A 
BRANCH  85  86
ATOM     86  S   UNL A   1      32.916  35.755  28.979  1.00  0.00     0.124 S 
ATOM     87  O   UNL A   1      33.639  36.852  28.345  1.00  0.00    -0.237 OA
ATOM     88  O   UNL A   1      32.358  34.752  28.077  1.00  0.00    -0.237 OA
ATOM     89  O   UNL A   1      32.056  36.125  30.099  1.00  0.00    -0.744 OA
ENDBRANCH  85  86
ENDBRANCH  53  78
BRANCH  65  90
ATOM     90  C   UNL A   1      39.926  34.198  36.887  1.00  0.00     0.058 A 
ATOM     91  C   UNL A   1      40.573  35.437  36.777  1.00  0.00     0.135 A 
ATOM     92  C   UNL A   1      39.147  33.958  38.030  1.00  0.00     0.135 A 
ATOM     93  F   UNL A   1      41.338  35.707  35.705  1.00  0.00    -0.206 F 
ATOM     94  C   UNL A   1      40.455  36.407  37.766  1.00  0.00     0.059 A 
ATOM     95  C   UNL A   1      39.001  34.920  39.024  1.00  0.00     0.059 A 
ATOM     96  F   UNL A   1      38.506  32.788  38.176  1.00  0.00    -0.206 F 
ATOM     97  C   UNL A   1      39.662  36.139  38.884  1.00  0.00     0.060 A 
BRANCH  97  98
ATOM     98  S   UNL A   1      39.463  37.427  40.135  1.00  0.00     0.124 S 
ATOM     99  O   UNL A   1      38.924  36.666  41.257  1.00  0.00    -0.237 OA
ATOM    100  O   UNL A   1      40.828  37.920  40.299  1.00  0.00    -0.237 OA
ATOM    101  O   UNL A   1      38.537  38.366  39.509  1.00  0.00    -0.744 OA
ENDBRANCH  97  98
ENDBRANCH  65  90
ENDBRANCH  39  40
ENDBRANCH  31  34
ENDBRANCH  29  30
ENDBRANCH   1  29
TORSDOF 16
ENDMDL
MODEL 3
REMARK VINA RESULT:     -12.8      2.156      3.139
REMARK SMILES O=C(NCCCNC(=O)c1ccc(-c2c3nc(c(-c4c(F)cc(S(=O)(=O)[O-])cc4F)c4ccc([nH]4)c(-c4c(F)cc(S(=O)(=O)[O-])cc4F)c4nc(c(-c5c(F)cc(S(=O)(=O)[O-])cc5F)c5ccc2[nH]5)C=C4)C=C3)cc1)C1=Cc2c(ccc(Cl)c2Oc2ccccc2)O[C@H]1C(F)(F)F
REMARK SMILES IDX 5 1 4 2 3 3 1 4 2 5 76 7 77 8 93 9 78 10 92 11 79 12 84 13
REMARK SMILES IDX 80 14 82 15 81 16 83 17 94 18 95 19 96 20 97 21 85 22 86 23
REMARK SMILES IDX 87 24 91 25 88 26 90 27 89 28 6 29 7 30 8 31 9 33 10 34
REMARK SMILES IDX 11 35 75 36 12 37 74 38 13 39 14 40 15 41 68 42 16 43 73 44
REMARK SMILES IDX 67 45 69 46 17 47 72 48 66 49 65 50 18 52 52 53 31 54 51 55
REMARK SMILES IDX 32 56 35 57 50 58 70 59 33 60 34 61 49 63 71 64 36 65 19 66
REMARK SMILES IDX 20 67 29 68 21 69 22 70 28 71 30 72 23 73 24 74 25 75 26 76
REMARK SMILES IDX 27 77 53 78 54 79 63 80 55 81 56 82 62 83 64 84 57 85 58 86
REMARK SMILES IDX 59 87 60 88 61 89 37 90 38 91 47 92 39 93 40 94 46 95 48 96
REMARK SMILES IDX 41 97 42 98 43 99 44 100 45 101
REMARK H PARENT 3 6 7 32 69 51 35 62
REMARK Flexibility Score: inf
ROOT
ATOM      1  C   UNL A   1      33.411  28.493  27.288  1.00  0.00     0.042 C 
ENDROOT
BRANCH   1   2
ATOM      2  C   UNL A   1      32.741  28.305  25.934  1.00  0.00     0.118 C 
BRANCH   2   3
ATOM      3  N   UNL A   1      33.598  27.631  24.971  1.00  0.00    -0.352 N 
ATOM      4  O   UNL A   1      34.393  26.002  23.647  1.00  0.00    -0.270 OA
ATOM      5  C   UNL A   1      33.498  26.410  24.371  1.00  0.00     0.251 C 
ATOM      6  H   UNL A   1      34.393  28.148  24.706  1.00  0.00     0.163 HD
BRANCH   5   7
ATOM      7  C   UNL A   1      32.330  25.547  24.628  1.00  0.00     0.067 C 
ATOM      8  C   UNL A   1      32.400  24.539  25.503  1.00  0.00     0.029 C 
ATOM      9  C   UNL A   1      31.174  25.651  23.692  1.00  0.00     0.314 C 
ATOM     10  C   UNL A   1      32.225  23.233  24.821  1.00  0.00     0.061 A 
ATOM     11  O   UNL A   1      30.782  24.346  23.164  1.00  0.00    -0.475 OA
ATOM     12  C   UNL A   1      31.447  23.237  23.639  1.00  0.00     0.131 A 
ATOM     13  C   UNL A   1      32.970  22.083  25.181  1.00  0.00     0.156 A 
ATOM     14  C   UNL A   1      31.400  22.110  22.823  1.00  0.00     0.049 A 
ATOM     15  C   UNL A   1      32.935  20.973  24.317  1.00  0.00     0.084 A 
ATOM     16  C   UNL A   1      32.159  20.988  23.151  1.00  0.00     0.028 A 
ATOM     17  Cl  UNL A   1      33.902  19.570  24.617  1.00  0.00    -0.080 Cl
BRANCH   9  18
ATOM     18  C   UNL A   1      29.973  26.358  24.350  1.00  0.00     0.429 C 
ATOM     19  F   UNL A   1      29.885  26.121  25.681  1.00  0.00    -0.167 F 
ATOM     20  F   UNL A   1      30.044  27.700  24.193  1.00  0.00    -0.167 F 
ATOM     21  F   UNL A   1      28.793  25.952  23.815  1.00  0.00    -0.167 F 
ENDBRANCH   9  18
BRANCH  13  22
ATOM     22  O   UNL A   1      33.871  21.980  26.237  1.00  0.00    -0.455 OA
BRANCH  22  23
ATOM     23  C   UNL A   1      35.178  22.344  26.043  1.00  0.00     0.127 A 
ATOM     24  C   UNL A   1      36.109  21.345  25.746  1.00  0.00     0.047 A 
ATOM     25  C   UNL A   1      35.564  23.683  26.105  1.00  0.00     0.047 A 
ATOM     26  C   UNL A   1      37.409  21.702  25.390  1.00  0.00     0.004 A 
ATOM     27  C   UNL A   1      36.869  24.034  25.759  1.00  0.00     0.004 A 
ATOM     28  C   UNL A   1      37.782  23.047  25.380  1.00  0.00     0.000 A 
ENDBRANCH  22  23
ENDBRANCH  13  22
ENDBRANCH   5   7
ENDBRANCH   2   3
ENDBRANCH   1   2
BRANCH   1  29
ATOM     29  C   UNL A   1      34.642  29.390  27.213  1.00  0.00     0.118 C 
BRANCH  29  30
ATOM     30  N   UNL A   1      34.839  30.235  28.387  1.00  0.00    -0.352 N 
ATOM     31  C   UNL A   1      35.941  30.436  29.189  1.00  0.00     0.251 C 
ATOM     32  H   UNL A   1      34.045  30.754  28.651  1.00  0.00     0.163 HD
ATOM     33  O   UNL A   1      35.839  31.172  30.169  1.00  0.00    -0.269 OA
BRANCH  31  34
ATOM     34  C   UNL A   1      37.225  29.741  28.929  1.00  0.00     0.039 A 
ATOM     35  C   UNL A   1      37.799  29.838  27.657  1.00  0.00     0.014 A 
ATOM     36  C   UNL A   1      37.880  29.014  29.921  1.00  0.00     0.014 A 
ATOM     37  C   UNL A   1      39.081  29.325  27.426  1.00  0.00     0.010 A 
ATOM     38  C   UNL A   1      39.197  28.611  29.727  1.00  0.00     0.010 A 
ATOM     39  C   UNL A   1      39.824  28.779  28.483  1.00  0.00    -0.014 A 
BRANCH  39  40
ATOM     40  C   UNL A   1      41.255  28.391  28.342  1.00  0.00     0.031 A 
ATOM     41  C   UNL A   1      42.328  29.446  28.408  1.00  0.00     0.074 A 
ATOM     42  C   UNL A   1      41.586  27.120  28.028  1.00  0.00     0.049 A 
ATOM     43  N   UNL A   1      43.584  29.374  28.051  1.00  0.00    -0.248 NA
ATOM     44  C   UNL A   1      41.918  30.774  28.894  1.00  0.00     0.031 C 
ATOM     45  C   UNL A   1      40.648  26.001  27.893  1.00  0.00     0.029 A 
ATOM     46  N   UNL A   1      42.806  26.558  27.744  1.00  0.00    -0.354 N 
ATOM     47  C   UNL A   1      44.099  30.655  28.217  1.00  0.00     0.074 A 
ATOM     48  C   UNL A   1      43.011  31.492  28.676  1.00  0.00     0.031 C 
ATOM     49  C   UNL A   1      41.328  24.887  27.581  1.00  0.00     0.029 A 
ATOM     50  C   UNL A   1      42.741  25.219  27.434  1.00  0.00     0.049 A 
ATOM     51  H   UNL A   1      43.650  27.065  27.760  1.00  0.00     0.167 HD
ATOM     52  C   UNL A   1      45.366  31.093  28.022  1.00  0.00     0.037 A 
ATOM     53  C   UNL A   1      43.704  24.358  27.050  1.00  0.00     0.037 A 
ATOM     54  C   UNL A   1      46.462  30.244  27.639  1.00  0.00     0.049 A 
ATOM     55  C   UNL A   1      45.112  24.857  26.881  1.00  0.00     0.074 A 
ATOM     56  C   UNL A   1      47.795  30.580  27.471  1.00  0.00     0.029 A 
ATOM     57  N   UNL A   1      46.357  28.884  27.388  1.00  0.00    -0.354 N 
ATOM     58  N   UNL A   1      45.577  26.073  27.039  1.00  0.00    -0.248 NA
ATOM     59  C   UNL A   1      46.122  23.872  26.469  1.00  0.00     0.031 C 
ATOM     60  C   UNL A   1      48.494  29.424  27.109  1.00  0.00     0.029 A 
ATOM     61  C   UNL A   1      47.601  28.365  27.074  1.00  0.00     0.049 A 
ATOM     62  H   UNL A   1      45.523  28.365  27.429  1.00  0.00     0.167 HD
ATOM     63  C   UNL A   1      46.937  25.995  26.762  1.00  0.00     0.074 A 
ATOM     64  C   UNL A   1      47.223  24.613  26.437  1.00  0.00     0.031 C 
ATOM     65  C   UNL A   1      47.865  26.982  26.770  1.00  0.00     0.037 A 
BRANCH  52  66
ATOM     66  C   UNL A   1      45.635  32.555  28.237  1.00  0.00     0.058 A 
ATOM     67  C   UNL A   1      45.968  33.061  29.502  1.00  0.00     0.135 A 
ATOM     68  C   UNL A   1      45.576  33.458  27.163  1.00  0.00     0.135 A 
ATOM     69  F   UNL A   1      46.021  32.241  30.564  1.00  0.00    -0.206 F 
ATOM     70  C   UNL A   1      46.198  34.417  29.706  1.00  0.00     0.059 A 
ATOM     71  C   UNL A   1      45.827  34.817  27.339  1.00  0.00     0.059 A 
ATOM     72  F   UNL A   1      45.263  33.028  25.931  1.00  0.00    -0.206 F 
ATOM     73  C   UNL A   1      46.120  35.289  28.619  1.00  0.00     0.060 A 
BRANCH  73  74
ATOM     74  S   UNL A   1      46.409  37.049  28.896  1.00  0.00     0.124 S 
ATOM     75  O   UNL A   1      46.782  37.061  30.307  1.00  0.00    -0.237 OA
ATOM     76  O   UNL A   1      47.484  37.345  27.955  1.00  0.00    -0.237 OA
ATOM     77  O   UNL A   1      45.120  37.656  28.582  1.00  0.00    -0.744 OA
ENDBRANCH  73  74
ENDBRANCH  52  66
BRANCH  53  78
ATOM     78  C   UNL A   1      43.375  22.929  26.807  1.00  0.00     0.058 A 
ATOM     79  C   UNL A   1      43.046  22.083  27.876  1.00  0.00     0.135 A 
ATOM     80  C   UNL A   1      43.379  22.383  25.515  1.00  0.00     0.135 A 
ATOM     81  F   UNL A   1      43.037  22.561  29.130  1.00  0.00    -0.206 F 
ATOM     82  C   UNL A   1      42.749  20.739  27.677  1.00  0.00     0.059 A 
ATOM     83  C   UNL A   1      43.065  21.046  25.288  1.00  0.00     0.059 A 
ATOM     84  F   UNL A   1      43.669  23.157  24.458  1.00  0.00    -0.206 F 
ATOM     85  C   UNL A   1      42.762  20.230  26.378  1.00  0.00     0.060 A 
BRANCH  85  86
ATOM     86  S   UNL A   1      42.332  18.494  26.120  1.00  0.00     0.124 S 
ATOM     87  O   UNL A   1      40.925  18.594  25.751  1.00  0.00    -0.237 OA
ATOM     88  O   UNL A   1      43.247  18.102  25.053  1.00  0.00    -0.237 OA
ATOM     89  O   UNL A   1      42.606  17.889  27.421  1.00  0.00    -0.744 OA
ENDBRANCH  85  86
ENDBRANCH  53  78
BRANCH  65  90
ATOM     90  C   UNL A   1      49.280  26.601  26.450  1.00  0.00     0.058 A 
ATOM     91  C   UNL A   1      50.143  26.105  27.436  1.00  0.00     0.135 A 
ATOM     92  C   UNL A   1      49.751  26.666  25.129  1.00  0.00     0.135 A 
ATOM     93  F   UNL A   1      49.738  26.033  28.715  1.00  0.00    -0.206 F 
ATOM     94  C   UNL A   1      51.433  25.688  27.127  1.00  0.00     0.059 A 
ATOM     95  C   UNL A   1      51.032  26.239  24.794  1.00  0.00     0.059 A 
ATOM     96  F   UNL A   1      48.959  27.130  24.150  1.00  0.00    -0.206 F 
ATOM     97  C   UNL A   1      51.866  25.755  25.801  1.00  0.00     0.060 A 
BRANCH  97  98
ATOM     98  S   UNL A   1      53.521  25.154  25.398  1.00  0.00     0.124 S 
ATOM     99  O   UNL A   1      53.749  25.774  24.097  1.00  0.00    -0.237 OA
ATOM    100  O   UNL A   1      54.324  25.676  26.500  1.00  0.00    -0.237 OA
ATOM    101  O   UNL A   1      53.359  23.703  25.383  1.00  0.00    -0.744 OA
ENDBRANCH  97  98
ENDBRANCH  65  90
ENDBRANCH  39  40
ENDBRANCH  31  34
ENDBRANCH  29  30
ENDBRANCH   1  29
TORSDOF 16
ENDMDL
