MODEL 1
REMARK VINA RESULT:     -11.4      0.000      0.000
REMARK SMILES O=C(C[N@@H+](Cc1nc(-c2ccco2)no1)CC(F)(F)F)NCCCNC(=O)c1ccc(-c2c3nc(c(-c4c(F)cc(S(=O)(=O)[O-])cc4F)c4ccc([nH]4)c(-c4c(F)cc(S(=O)(=O)[O-])cc4F)c4nc(c(-c5c(F)cc(S(=O)(=O)[O-])cc5F)c5ccc2[nH]5)C=C4)C=C3)cc1
REMARK SMILES IDX 22 1 21 2 1 3 2 4 3 6 4 7 5 9 6 10 7 11 15 12 8 13 14 14
REMARK SMILES IDX 9 15 10 16 13 17 11 18 12 19 16 20 17 21 18 22 19 23 20 24
REMARK SMILES IDX 23 25 24 26 25 27 26 28 27 30 28 31 29 32 93 33 30 34 92 35
REMARK SMILES IDX 31 36 32 37 33 38 86 39 34 40 91 41 85 42 87 43 35 44 90 45
REMARK SMILES IDX 84 46 83 47 36 49 70 50 49 51 69 52 50 53 53 54 68 55 88 56
REMARK SMILES IDX 51 57 52 58 67 60 89 61 54 62 37 63 38 64 47 65 39 66 40 67
REMARK SMILES IDX 46 68 48 69 41 70 42 71 43 72 44 73 45 74 71 75 72 76 81 77
REMARK SMILES IDX 73 78 74 79 80 80 82 81 75 82 76 83 77 84 78 85 79 86 55 87
REMARK SMILES IDX 56 88 65 89 57 90 58 91 64 92 66 93 59 94 60 95 61 96 62 97
REMARK SMILES IDX 63 98
REMARK H PARENT 21 5 4 8 25 29 87 48 53 59
REMARK Flexibility Score: inf
ROOT
ATOM      1  C   UNL A   1      34.398  31.976  28.104  1.00  0.00     0.118 C 
ENDROOT
BRANCH   1   2
ATOM      2  N   UNL A   1      34.332  30.791  27.271  1.00  0.00    -0.351 N 
ATOM      3  O   UNL A   1      32.122  31.043  26.701  1.00  0.00    -0.269 OA
ATOM      4  C   UNL A   1      33.187  30.440  26.591  1.00  0.00     0.275 C 
ATOM      5  H   UNL A   1      35.130  30.220  27.189  1.00  0.00     0.163 HD
BRANCH   4   6
ATOM      6  C   UNL A   1      33.332  29.223  25.673  1.00  0.00     0.364 C 
BRANCH   6   7
ATOM      7  N   UNL A   1      32.665  29.406  24.357  1.00  0.00    -0.312 N 
ATOM      8  H   UNL A   1      32.549  30.412  24.233  1.00  0.00     0.349 HD
BRANCH   7   9
ATOM      9  C   UNL A   1      33.528  28.916  23.246  1.00  0.00     0.364 C 
BRANCH   9  10
ATOM     10  C   UNL A   1      33.447  27.455  22.957  1.00  0.00     0.282 A 
ATOM     11  N   UNL A   1      33.449  26.446  23.794  1.00  0.00    -0.183 NA
ATOM     12  O   UNL A   1      33.552  27.073  21.651  1.00  0.00    -0.333 OA
ATOM     13  C   UNL A   1      33.728  25.383  22.967  1.00  0.00     0.238 A 
ATOM     14  N   UNL A   1      33.736  25.687  21.661  1.00  0.00    -0.053 NA
BRANCH  13  15
ATOM     15  C   UNL A   1      34.120  24.050  23.507  1.00  0.00     0.174 A 
ATOM     16  C   UNL A   1      35.373  23.724  23.994  1.00  0.00     0.054 A 
ATOM     17  O   UNL A   1      33.324  22.937  23.527  1.00  0.00    -0.461 OA
ATOM     18  C   UNL A   1      35.351  22.340  24.289  1.00  0.00     0.043 A 
ATOM     19  C   UNL A   1      34.085  21.905  23.975  1.00  0.00     0.196 A 
ENDBRANCH  13  15
ENDBRANCH   9  10
ENDBRANCH   7   9
BRANCH   7  20
ATOM     20  C   UNL A   1      31.268  28.875  24.296  1.00  0.00     0.380 C 
BRANCH  20  21
ATOM     21  C   UNL A   1      30.135  29.437  23.397  1.00  0.00     0.438 C 
ATOM     22  F   UNL A   1      29.590  30.571  23.877  1.00  0.00    -0.165 F 
ATOM     23  F   UNL A   1      30.619  29.711  22.161  1.00  0.00    -0.165 F 
ATOM     24  F   UNL A   1      29.150  28.527  23.227  1.00  0.00    -0.165 F 
ENDBRANCH  20  21
ENDBRANCH   7  20
ENDBRANCH   6   7
ENDBRANCH   4   6
ENDBRANCH   1   2
BRANCH   1  25
ATOM     25  C   UNL A   1      35.726  32.714  27.991  1.00  0.00     0.042 C 
BRANCH  25  26
ATOM     26  C   UNL A   1      36.488  32.857  29.306  1.00  0.00     0.118 C 
BRANCH  26  27
ATOM     27  N   UNL A   1      36.015  31.948  30.342  1.00  0.00    -0.352 N 
ATOM     28  C   UNL A   1      36.551  30.777  30.816  1.00  0.00     0.251 C 
ATOM     29  H   UNL A   1      35.172  32.219  30.772  1.00  0.00     0.163 HD
ATOM     30  O   UNL A   1      35.892  30.110  31.614  1.00  0.00    -0.269 OA
BRANCH  28  31
ATOM     31  C   UNL A   1      37.881  30.295  30.376  1.00  0.00     0.039 A 
ATOM     32  C   UNL A   1      38.116  30.154  29.004  1.00  0.00     0.014 A 
ATOM     33  C   UNL A   1      38.879  29.935  31.286  1.00  0.00     0.014 A 
ATOM     34  C   UNL A   1      39.361  29.712  28.547  1.00  0.00     0.010 A 
ATOM     35  C   UNL A   1      40.144  29.562  30.828  1.00  0.00     0.010 A 
ATOM     36  C   UNL A   1      40.399  29.443  29.454  1.00  0.00    -0.014 A 
BRANCH  36  37
ATOM     37  C   UNL A   1      41.750  29.044  28.973  1.00  0.00     0.031 A 
ATOM     38  C   UNL A   1      42.868  30.048  28.902  1.00  0.00     0.074 A 
ATOM     39  C   UNL A   1      41.957  27.778  28.557  1.00  0.00     0.049 A 
ATOM     40  N   UNL A   1      44.099  29.887  28.485  1.00  0.00    -0.248 NA
ATOM     41  C   UNL A   1      42.560  31.421  29.332  1.00  0.00     0.031 C 
ATOM     42  C   UNL A   1      40.944  26.721  28.524  1.00  0.00     0.029 A 
ATOM     43  N   UNL A   1      43.088  27.165  28.076  1.00  0.00    -0.354 N 
ATOM     44  C   UNL A   1      44.705  31.133  28.591  1.00  0.00     0.074 A 
ATOM     45  C   UNL A   1      43.694  32.053  29.065  1.00  0.00     0.031 C 
ATOM     46  C   UNL A   1      41.504  25.587  28.075  1.00  0.00     0.029 A 
ATOM     47  C   UNL A   1      42.905  25.840  27.756  1.00  0.00     0.049 A 
ATOM     48  H   UNL A   1      43.949  27.631  27.971  1.00  0.00     0.167 HD
ATOM     49  C   UNL A   1      45.993  31.475  28.341  1.00  0.00     0.037 A 
ATOM     50  C   UNL A   1      43.767  24.930  27.262  1.00  0.00     0.037 A 
ATOM     51  C   UNL A   1      47.004  30.552  27.894  1.00  0.00     0.049 A 
ATOM     52  C   UNL A   1      45.195  25.331  27.007  1.00  0.00     0.074 A 
ATOM     53  C   UNL A   1      48.350  30.792  27.669  1.00  0.00     0.029 A 
ATOM     54  N   UNL A   1      46.786  29.213  27.604  1.00  0.00    -0.354 N 
ATOM     55  N   UNL A   1      45.765  26.499  27.176  1.00  0.00    -0.248 NA
ATOM     56  C   UNL A   1      46.097  24.286  26.503  1.00  0.00     0.031 C 
ATOM     57  C   UNL A   1      48.936  29.608  27.207  1.00  0.00     0.029 A 
ATOM     58  C   UNL A   1      47.966  28.619  27.188  1.00  0.00     0.049 A 
ATOM     59  H   UNL A   1      45.919  28.754  27.684  1.00  0.00     0.167 HD
ATOM     60  C   UNL A   1      47.100  26.324  26.825  1.00  0.00     0.074 A 
ATOM     61  C   UNL A   1      47.253  24.934  26.448  1.00  0.00     0.031 C 
ATOM     62  C   UNL A   1      48.107  27.232  26.818  1.00  0.00     0.037 A 
BRANCH  49  63
ATOM     63  C   UNL A   1      46.385  32.913  28.552  1.00  0.00     0.058 A 
ATOM     64  C   UNL A   1      46.294  33.860  27.520  1.00  0.00     0.135 A 
ATOM     65  C   UNL A   1      46.821  33.359  29.811  1.00  0.00     0.135 A 
ATOM     66  F   UNL A   1      45.896  33.487  26.292  1.00  0.00    -0.206 F 
ATOM     67  C   UNL A   1      46.651  35.190  27.717  1.00  0.00     0.059 A 
ATOM     68  C   UNL A   1      47.157  34.691  30.039  1.00  0.00     0.059 A 
ATOM     69  F   UNL A   1      46.925  32.497  30.835  1.00  0.00    -0.206 F 
ATOM     70  C   UNL A   1      47.085  35.595  28.980  1.00  0.00     0.060 A 
BRANCH  70  71
ATOM     71  S   UNL A   1      47.546  37.324  29.221  1.00  0.00     0.124 S 
ATOM     72  O   UNL A   1      47.717  37.378  30.670  1.00  0.00    -0.237 OA
ATOM     73  O   UNL A   1      48.773  37.433  28.436  1.00  0.00    -0.237 OA
ATOM     74  O   UNL A   1      46.402  38.058  28.696  1.00  0.00    -0.744 OA
ENDBRANCH  70  71
ENDBRANCH  49  63
BRANCH  50  75
ATOM     75  C   UNL A   1      43.310  23.538  27.005  1.00  0.00     0.058 A 
ATOM     76  C   UNL A   1      43.077  23.087  25.696  1.00  0.00     0.135 A 
ATOM     77  C   UNL A   1      43.111  22.631  28.056  1.00  0.00     0.135 A 
ATOM     78  F   UNL A   1      43.249  23.920  24.659  1.00  0.00    -0.206 F 
ATOM     79  C   UNL A   1      42.647  21.790  25.440  1.00  0.00     0.059 A 
ATOM     80  C   UNL A   1      42.704  21.320  27.822  1.00  0.00     0.059 A 
ATOM     81  F   UNL A   1      43.337  23.010  29.323  1.00  0.00    -0.206 F 
ATOM     82  C   UNL A   1      42.464  20.913  26.510  1.00  0.00     0.060 A 
BRANCH  82  83
ATOM     83  S   UNL A   1      41.951  19.216  26.163  1.00  0.00     0.124 S 
ATOM     84  O   UNL A   1      42.806  18.878  25.032  1.00  0.00    -0.237 OA
ATOM     85  O   UNL A   1      42.257  18.540  27.421  1.00  0.00    -0.237 OA
ATOM     86  O   UNL A   1      40.529  19.351  25.863  1.00  0.00    -0.744 OA
ENDBRANCH  82  83
ENDBRANCH  50  75
BRANCH  62  87
ATOM     87  C   UNL A   1      49.473  26.745  26.419  1.00  0.00     0.058 A 
ATOM     88  C   UNL A   1      50.363  26.195  27.353  1.00  0.00     0.135 A 
ATOM     89  C   UNL A   1      49.882  26.801  25.076  1.00  0.00     0.135 A 
ATOM     90  F   UNL A   1      50.023  26.124  28.650  1.00  0.00    -0.206 F 
ATOM     91  C   UNL A   1      51.625  25.744  26.977  1.00  0.00     0.059 A 
ATOM     92  C   UNL A   1      51.128  26.330  24.673  1.00  0.00     0.059 A 
ATOM     93  F   UNL A   1      49.064  27.307  24.140  1.00  0.00    -0.206 F 
ATOM     94  C   UNL A   1      51.999  25.818  25.634  1.00  0.00     0.060 A 
BRANCH  94  95
ATOM     95  S   UNL A   1      53.631  25.212  25.153  1.00  0.00     0.124 S 
ATOM     96  O   UNL A   1      53.461  23.770  25.295  1.00  0.00    -0.237 OA
ATOM     97  O   UNL A   1      53.757  25.704  23.784  1.00  0.00    -0.237 OA
ATOM     98  O   UNL A   1      54.525  25.838  26.122  1.00  0.00    -0.744 OA
ENDBRANCH  94  95
ENDBRANCH  62  87
ENDBRANCH  36  37
ENDBRANCH  28  31
ENDBRANCH  26  27
ENDBRANCH  25  26
ENDBRANCH   1  25
TORSDOF 19
ENDMDL
MODEL 2
REMARK VINA RESULT:     -11.3      6.552     12.075
REMARK SMILES O=C(C[N@@H+](Cc1nc(-c2ccco2)no1)CC(F)(F)F)NCCCNC(=O)c1ccc(-c2c3nc(c(-c4c(F)cc(S(=O)(=O)[O-])cc4F)c4ccc([nH]4)c(-c4c(F)cc(S(=O)(=O)[O-])cc4F)c4nc(c(-c5c(F)cc(S(=O)(=O)[O-])cc5F)c5ccc2[nH]5)C=C4)C=C3)cc1
REMARK SMILES IDX 22 1 21 2 1 3 2 4 3 6 4 7 5 9 6 10 7 11 15 12 8 13 14 14
REMARK SMILES IDX 9 15 10 16 13 17 11 18 12 19 16 20 17 21 18 22 19 23 20 24
REMARK SMILES IDX 23 25 24 26 25 27 26 28 27 30 28 31 29 32 93 33 30 34 92 35
REMARK SMILES IDX 31 36 32 37 33 38 86 39 34 40 91 41 85 42 87 43 35 44 90 45
REMARK SMILES IDX 84 46 83 47 36 49 70 50 49 51 69 52 50 53 53 54 68 55 88 56
REMARK SMILES IDX 51 57 52 58 67 60 89 61 54 62 37 63 38 64 47 65 39 66 40 67
REMARK SMILES IDX 46 68 48 69 41 70 42 71 43 72 44 73 45 74 71 75 72 76 81 77
REMARK SMILES IDX 73 78 74 79 80 80 82 81 75 82 76 83 77 84 78 85 79 86 55 87
REMARK SMILES IDX 56 88 65 89 57 90 58 91 64 92 66 93 59 94 60 95 61 96 62 97
REMARK SMILES IDX 63 98
REMARK H PARENT 21 5 4 8 25 29 87 48 53 59
REMARK Flexibility Score: inf
ROOT
ATOM      1  C   UNL A   1      38.875  21.491  25.838  1.00  0.00     0.118 C 
ENDROOT
BRANCH   1   2
ATOM      2  N   UNL A   1      37.936  22.568  26.081  1.00  0.00    -0.351 N 
ATOM      3  O   UNL A   1      36.988  22.512  23.990  1.00  0.00    -0.269 OA
ATOM      4  C   UNL A   1      37.023  22.968  25.130  1.00  0.00     0.275 C 
ATOM      5  H   UNL A   1      37.951  23.027  26.952  1.00  0.00     0.163 HD
BRANCH   4   6
ATOM      6  C   UNL A   1      36.037  24.042  25.598  1.00  0.00     0.364 C 
BRANCH   6   7
ATOM      7  N   UNL A   1      34.641  23.777  25.161  1.00  0.00    -0.312 N 
ATOM      8  H   UNL A   1      34.700  23.078  24.422  1.00  0.00     0.349 HD
BRANCH   7   9
ATOM      9  C   UNL A   1      33.834  23.189  26.268  1.00  0.00     0.364 C 
BRANCH   9  10
ATOM     10  C   UNL A   1      33.252  21.842  26.002  1.00  0.00     0.282 A 
ATOM     11  N   UNL A   1      33.831  20.667  26.053  1.00  0.00    -0.183 NA
ATOM     12  O   UNL A   1      31.996  21.803  25.470  1.00  0.00    -0.333 OA
ATOM     13  C   UNL A   1      32.938  19.874  25.368  1.00  0.00     0.238 A 
ATOM     14  N   UNL A   1      31.788  20.485  25.051  1.00  0.00    -0.053 NA
BRANCH  13  15
ATOM     15  C   UNL A   1      33.298  18.503  24.910  1.00  0.00     0.174 A 
ATOM     16  C   UNL A   1      32.496  17.383  25.037  1.00  0.00     0.054 A 
ATOM     17  O   UNL A   1      34.501  18.137  24.369  1.00  0.00    -0.461 OA
ATOM     18  C   UNL A   1      33.259  16.278  24.590  1.00  0.00     0.043 A 
ATOM     19  C   UNL A   1      34.476  16.788  24.206  1.00  0.00     0.196 A 
ENDBRANCH  13  15
ENDBRANCH   9  10
ENDBRANCH   7   9
BRANCH   7  20
ATOM     20  C   UNL A   1      33.972  24.941  24.499  1.00  0.00     0.380 C 
BRANCH  20  21
ATOM     21  C   UNL A   1      33.099  24.862  23.219  1.00  0.00     0.438 C 
ATOM     22  F   UNL A   1      32.915  26.057  22.627  1.00  0.00    -0.165 F 
ATOM     23  F   UNL A   1      33.686  24.045  22.310  1.00  0.00    -0.165 F 
ATOM     24  F   UNL A   1      31.887  24.325  23.486  1.00  0.00    -0.165 F 
ENDBRANCH  20  21
ENDBRANCH   7  20
ENDBRANCH   6   7
ENDBRANCH   4   6
ENDBRANCH   1   2
BRANCH   1  25
ATOM     25  C   UNL A   1      40.106  21.557  26.734  1.00  0.00     0.042 C 
BRANCH  25  26
ATOM     26  C   UNL A   1      40.477  22.961  27.202  1.00  0.00     0.118 C 
BRANCH  26  27
ATOM     27  N   UNL A   1      41.131  23.754  26.170  1.00  0.00    -0.352 N 
ATOM     28  C   UNL A   1      41.460  25.086  26.139  1.00  0.00     0.251 C 
ATOM     29  H   UNL A   1      41.378  23.250  25.361  1.00  0.00     0.163 HD
ATOM     30  O   UNL A   1      41.896  25.560  25.090  1.00  0.00    -0.269 OA
BRANCH  28  31
ATOM     31  C   UNL A   1      41.283  25.959  27.323  1.00  0.00     0.039 A 
ATOM     32  C   UNL A   1      42.244  26.946  27.569  1.00  0.00     0.014 A 
ATOM     33  C   UNL A   1      40.221  25.794  28.216  1.00  0.00     0.014 A 
ATOM     34  C   UNL A   1      42.109  27.797  28.670  1.00  0.00     0.010 A 
ATOM     35  C   UNL A   1      40.048  26.689  29.273  1.00  0.00     0.010 A 
ATOM     36  C   UNL A   1      40.991  27.699  29.514  1.00  0.00    -0.014 A 
BRANCH  36  37
ATOM     37  C   UNL A   1      40.801  28.649  30.644  1.00  0.00     0.031 A 
ATOM     38  C   UNL A   1      41.642  28.542  31.888  1.00  0.00     0.074 A 
ATOM     39  C   UNL A   1      39.835  29.587  30.566  1.00  0.00     0.049 A 
ATOM     40  N   UNL A   1      41.598  29.263  32.980  1.00  0.00    -0.248 NA
ATOM     41  C   UNL A   1      42.648  27.469  31.922  1.00  0.00     0.031 C 
ATOM     42  C   UNL A   1      38.916  29.763  29.440  1.00  0.00     0.029 A 
ATOM     43  N   UNL A   1      39.461  30.565  31.453  1.00  0.00    -0.354 N 
ATOM     44  C   UNL A   1      42.557  28.727  33.831  1.00  0.00     0.074 A 
ATOM     45  C   UNL A   1      43.133  27.588  33.149  1.00  0.00     0.031 C 
ATOM     46  C   UNL A   1      38.104  30.802  29.691  1.00  0.00     0.029 A 
ATOM     47  C   UNL A   1      38.419  31.346  31.008  1.00  0.00     0.049 A 
ATOM     48  H   UNL A   1      39.897  30.697  32.327  1.00  0.00     0.167 HD
ATOM     49  C   UNL A   1      42.941  29.158  35.058  1.00  0.00     0.037 A 
ATOM     50  C   UNL A   1      37.787  32.382  31.593  1.00  0.00     0.037 A 
ATOM     51  C   UNL A   1      42.383  30.308  35.723  1.00  0.00     0.049 A 
ATOM     52  C   UNL A   1      38.242  32.852  32.949  1.00  0.00     0.074 A 
ATOM     53  C   UNL A   1      42.746  30.857  36.942  1.00  0.00     0.029 A 
ATOM     54  N   UNL A   1      41.347  31.086  35.230  1.00  0.00    -0.354 N 
ATOM     55  N   UNL A   1      39.195  32.372  33.709  1.00  0.00    -0.248 NA
ATOM     56  C   UNL A   1      37.540  34.010  33.520  1.00  0.00     0.031 C 
ATOM     57  C   UNL A   1      41.904  31.944  37.202  1.00  0.00     0.029 A 
ATOM     58  C   UNL A   1      41.046  32.100  36.125  1.00  0.00     0.049 A 
ATOM     59  H   UNL A   1      40.892  30.939  34.370  1.00  0.00     0.167 HD
ATOM     60  C   UNL A   1      39.226  33.185  34.838  1.00  0.00     0.074 A 
ATOM     61  C   UNL A   1      38.205  34.195  34.652  1.00  0.00     0.031 C 
ATOM     62  C   UNL A   1      40.029  33.103  35.928  1.00  0.00     0.037 A 
BRANCH  49  63
ATOM     63  C   UNL A   1      44.024  28.385  35.761  1.00  0.00     0.058 A 
ATOM     64  C   UNL A   1      43.723  27.339  36.648  1.00  0.00     0.135 A 
ATOM     65  C   UNL A   1      45.378  28.665  35.517  1.00  0.00     0.135 A 
ATOM     66  F   UNL A   1      42.446  27.035  36.929  1.00  0.00    -0.206 F 
ATOM     67  C   UNL A   1      44.725  26.620  37.293  1.00  0.00     0.059 A 
ATOM     68  C   UNL A   1      46.397  27.941  36.130  1.00  0.00     0.059 A 
ATOM     69  F   UNL A   1      45.723  29.653  34.675  1.00  0.00    -0.206 F 
ATOM     70  C   UNL A   1      46.060  26.931  37.030  1.00  0.00     0.060 A 
BRANCH  70  71
ATOM     71  S   UNL A   1      47.349  25.991  37.875  1.00  0.00     0.124 S 
ATOM     72  O   UNL A   1      47.322  26.595  39.204  1.00  0.00    -0.237 OA
ATOM     73  O   UNL A   1      46.844  24.623  37.792  1.00  0.00    -0.237 OA
ATOM     74  O   UNL A   1      48.543  26.265  37.086  1.00  0.00    -0.744 OA
ENDBRANCH  70  71
ENDBRANCH  49  63
BRANCH  50  75
ATOM     75  C   UNL A   1      36.675  33.069  30.884  1.00  0.00     0.058 A 
ATOM     76  C   UNL A   1      35.347  32.923  31.314  1.00  0.00     0.135 A 
ATOM     77  C   UNL A   1      36.917  33.893  29.776  1.00  0.00     0.135 A 
ATOM     78  F   UNL A   1      35.066  32.140  32.367  1.00  0.00    -0.206 F 
ATOM     79  C   UNL A   1      34.296  33.555  30.660  1.00  0.00     0.059 A 
ATOM     80  C   UNL A   1      35.883  34.558  29.120  1.00  0.00     0.059 A 
ATOM     81  F   UNL A   1      38.171  34.080  29.336  1.00  0.00    -0.206 F 
ATOM     82  C   UNL A   1      34.575  34.373  29.563  1.00  0.00     0.060 A 
BRANCH  82  83
ATOM     83  S   UNL A   1      33.208  35.229  28.750  1.00  0.00     0.124 S 
ATOM     84  O   UNL A   1      32.646  34.166  27.925  1.00  0.00    -0.237 OA
ATOM     85  O   UNL A   1      32.394  35.655  29.885  1.00  0.00    -0.237 OA
ATOM     86  O   UNL A   1      33.873  36.308  28.026  1.00  0.00    -0.744 OA
ENDBRANCH  82  83
ENDBRANCH  50  75
BRANCH  62  87
ATOM     87  C   UNL A   1      39.858  34.152  36.992  1.00  0.00     0.058 A 
ATOM     88  C   UNL A   1      39.066  33.929  38.128  1.00  0.00     0.135 A 
ATOM     89  C   UNL A   1      40.522  35.385  36.886  1.00  0.00     0.135 A 
ATOM     90  F   UNL A   1      38.405  32.770  38.274  1.00  0.00    -0.206 F 
ATOM     91  C   UNL A   1      38.913  34.903  39.110  1.00  0.00     0.059 A 
ATOM     92  C   UNL A   1      40.406  36.363  37.869  1.00  0.00     0.059 A 
ATOM     93  F   UNL A   1      41.301  35.645  35.824  1.00  0.00    -0.206 F 
ATOM     94  C   UNL A   1      39.586  36.119  38.970  1.00  0.00     0.060 A 
BRANCH  94  95
ATOM     95  S   UNL A   1      39.397  37.369  40.259  1.00  0.00     0.124 S 
ATOM     96  O   UNL A   1      40.779  37.792  40.462  1.00  0.00    -0.237 OA
ATOM     97  O   UNL A   1      38.522  38.348  39.621  1.00  0.00    -0.237 OA
ATOM     98  O   UNL A   1      38.797  36.629  41.365  1.00  0.00    -0.744 OA
ENDBRANCH  94  95
ENDBRANCH  62  87
ENDBRANCH  36  37
ENDBRANCH  28  31
ENDBRANCH  26  27
ENDBRANCH  25  26
ENDBRANCH   1  25
TORSDOF 19
ENDMDL
MODEL 3
REMARK VINA RESULT:     -11.2      6.546     12.117
REMARK SMILES O=C(C[N@@H+](Cc1nc(-c2ccco2)no1)CC(F)(F)F)NCCCNC(=O)c1ccc(-c2c3nc(c(-c4c(F)cc(S(=O)(=O)[O-])cc4F)c4ccc([nH]4)c(-c4c(F)cc(S(=O)(=O)[O-])cc4F)c4nc(c(-c5c(F)cc(S(=O)(=O)[O-])cc5F)c5ccc2[nH]5)C=C4)C=C3)cc1
REMARK SMILES IDX 22 1 21 2 1 3 2 4 3 6 4 7 5 9 6 10 7 11 15 12 8 13 14 14
REMARK SMILES IDX 9 15 10 16 13 17 11 18 12 19 16 20 17 21 18 22 19 23 20 24
REMARK SMILES IDX 23 25 24 26 25 27 26 28 27 30 28 31 29 32 93 33 30 34 92 35
REMARK SMILES IDX 31 36 32 37 33 38 86 39 34 40 91 41 85 42 87 43 35 44 90 45
REMARK SMILES IDX 84 46 83 47 36 49 70 50 49 51 69 52 50 53 53 54 68 55 88 56
REMARK SMILES IDX 51 57 52 58 67 60 89 61 54 62 37 63 38 64 47 65 39 66 40 67
REMARK SMILES IDX 46 68 48 69 41 70 42 71 43 72 44 73 45 74 71 75 72 76 81 77
REMARK SMILES IDX 73 78 74 79 80 80 82 81 75 82 76 83 77 84 78 85 79 86 55 87
REMARK SMILES IDX 56 88 65 89 57 90 58 91 64 92 66 93 59 94 60 95 61 96 62 97
REMARK SMILES IDX 63 98
REMARK H PARENT 21 5 4 8 25 29 87 48 53 59
REMARK Flexibility Score: inf
ROOT
ATOM      1  C   UNL A   1      37.495  22.647  25.359  1.00  0.00     0.118 C 
ENDROOT
BRANCH   1   2
ATOM      2  N   UNL A   1      36.130  22.786  24.889  1.00  0.00    -0.351 N 
ATOM      3  O   UNL A   1      36.686  23.112  22.685  1.00  0.00    -0.269 OA
ATOM      4  C   UNL A   1      35.832  22.968  23.557  1.00  0.00     0.275 C 
ATOM      5  H   UNL A   1      35.395  22.748  25.542  1.00  0.00     0.163 HD
BRANCH   4   6
ATOM      6  C   UNL A   1      34.337  22.982  23.229  1.00  0.00     0.364 C 
BRANCH   6   7
ATOM      7  N   UNL A   1      33.613  24.116  23.862  1.00  0.00    -0.312 N 
ATOM      8  H   UNL A   1      34.251  24.512  24.552  1.00  0.00     0.349 HD
BRANCH   7   9
ATOM      9  C   UNL A   1      33.312  25.183  22.868  1.00  0.00     0.364 C 
BRANCH   9  10
ATOM     10  C   UNL A   1      33.562  26.582  23.322  1.00  0.00     0.282 A 
ATOM     11  N   UNL A   1      33.524  27.076  24.535  1.00  0.00    -0.183 NA
ATOM     12  O   UNL A   1      33.685  27.537  22.354  1.00  0.00    -0.333 OA
ATOM     13  C   UNL A   1      33.465  28.430  24.296  1.00  0.00     0.238 A 
ATOM     14  N   UNL A   1      33.623  28.770  23.009  1.00  0.00    -0.053 NA
BRANCH  13  15
ATOM     15  C   UNL A   1      33.115  29.402  25.370  1.00  0.00     0.174 A 
ATOM     16  C   UNL A   1      33.865  29.637  26.509  1.00  0.00     0.054 A 
ATOM     17  O   UNL A   1      31.967  30.145  25.425  1.00  0.00    -0.461 OA
ATOM     18  C   UNL A   1      33.122  30.534  27.312  1.00  0.00     0.043 A 
ATOM     19  C   UNL A   1      31.969  30.803  26.614  1.00  0.00     0.196 A 
ENDBRANCH  13  15
ENDBRANCH   9  10
ENDBRANCH   7   9
BRANCH   7  20
ATOM     20  C   UNL A   1      32.421  23.710  24.670  1.00  0.00     0.380 C 
BRANCH  20  21
ATOM     21  C   UNL A   1      32.374  23.628  26.218  1.00  0.00     0.438 C 
ATOM     22  F   UNL A   1      31.917  22.447  26.675  1.00  0.00    -0.165 F 
ATOM     23  F   UNL A   1      33.617  23.806  26.728  1.00  0.00    -0.165 F 
ATOM     24  F   UNL A   1      31.606  24.613  26.737  1.00  0.00    -0.165 F 
ENDBRANCH  20  21
ENDBRANCH   7  20
ENDBRANCH   6   7
ENDBRANCH   4   6
ENDBRANCH   1   2
BRANCH   1  25
ATOM     25  C   UNL A   1      37.944  23.804  26.242  1.00  0.00     0.042 C 
BRANCH  25  26
ATOM     26  C   UNL A   1      39.338  23.641  26.843  1.00  0.00     0.118 C 
BRANCH  26  27
ATOM     27  N   UNL A   1      40.389  24.211  26.012  1.00  0.00    -0.352 N 
ATOM     28  C   UNL A   1      41.102  25.376  26.147  1.00  0.00     0.251 C 
ATOM     29  H   UNL A   1      40.627  23.673  25.223  1.00  0.00     0.163 HD
ATOM     30  O   UNL A   1      41.857  25.713  25.234  1.00  0.00    -0.269 OA
BRANCH  28  31
ATOM     31  C   UNL A   1      40.968  26.237  27.345  1.00  0.00     0.039 A 
ATOM     32  C   UNL A   1      41.848  27.315  27.490  1.00  0.00     0.014 A 
ATOM     33  C   UNL A   1      40.028  25.977  28.345  1.00  0.00     0.014 A 
ATOM     34  C   UNL A   1      41.748  28.158  28.601  1.00  0.00     0.010 A 
ATOM     35  C   UNL A   1      39.881  26.859  29.417  1.00  0.00     0.010 A 
ATOM     36  C   UNL A   1      40.741  27.958  29.559  1.00  0.00    -0.014 A 
BRANCH  36  37
ATOM     37  C   UNL A   1      40.580  28.894  30.706  1.00  0.00     0.031 A 
ATOM     38  C   UNL A   1      41.438  28.758  31.935  1.00  0.00     0.074 A 
ATOM     39  C   UNL A   1      39.625  29.844  30.656  1.00  0.00     0.049 A 
ATOM     40  N   UNL A   1      41.420  29.463  33.037  1.00  0.00    -0.248 NA
ATOM     41  C   UNL A   1      42.431  27.672  31.938  1.00  0.00     0.031 C 
ATOM     42  C   UNL A   1      38.691  30.048  29.546  1.00  0.00     0.029 A 
ATOM     43  N   UNL A   1      39.276  30.814  31.563  1.00  0.00    -0.354 N 
ATOM     44  C   UNL A   1      42.385  28.903  33.866  1.00  0.00     0.074 A 
ATOM     45  C   UNL A   1      42.937  27.768  33.159  1.00  0.00     0.031 C 
ATOM     46  C   UNL A   1      37.896  31.093  29.826  1.00  0.00     0.029 A 
ATOM     47  C   UNL A   1      38.238  31.614  31.145  1.00  0.00     0.049 A 
ATOM     48  H   UNL A   1      39.728  30.927  32.431  1.00  0.00     0.167 HD
ATOM     49  C   UNL A   1      42.793  29.312  35.093  1.00  0.00     0.037 A 
ATOM     50  C   UNL A   1      37.628  32.649  31.755  1.00  0.00     0.037 A 
ATOM     51  C   UNL A   1      42.261  30.458  35.783  1.00  0.00     0.049 A 
ATOM     52  C   UNL A   1      38.109  33.093  33.110  1.00  0.00     0.074 A 
ATOM     53  C   UNL A   1      42.649  30.986  37.004  1.00  0.00     0.029 A 
ATOM     54  N   UNL A   1      41.227  31.257  35.317  1.00  0.00    -0.354 N 
ATOM     55  N   UNL A   1      39.068  32.590  33.848  1.00  0.00    -0.248 NA
ATOM     56  C   UNL A   1      37.431  34.251  33.708  1.00  0.00     0.031 C 
ATOM     57  C   UNL A   1      41.825  32.079  37.292  1.00  0.00     0.029 A 
ATOM     58  C   UNL A   1      40.952  32.261  36.231  1.00  0.00     0.049 A 
ATOM     59  H   UNL A   1      40.756  31.128  34.462  1.00  0.00     0.167 HD
ATOM     60  C   UNL A   1      39.127  33.387  34.988  1.00  0.00     0.074 A 
ATOM     61  C   UNL A   1      38.115  34.412  34.833  1.00  0.00     0.031 C 
ATOM     62  C   UNL A   1      39.945  33.279  36.064  1.00  0.00     0.037 A 
BRANCH  49  63
ATOM     63  C   UNL A   1      43.877  28.515  35.767  1.00  0.00     0.058 A 
ATOM     64  C   UNL A   1      45.236  28.805  35.567  1.00  0.00     0.135 A 
ATOM     65  C   UNL A   1      43.556  27.473  36.653  1.00  0.00     0.135 A 
ATOM     66  F   UNL A   1      45.603  29.782  34.721  1.00  0.00    -0.206 F 
ATOM     67  C   UNL A   1      46.238  28.072  36.195  1.00  0.00     0.059 A 
ATOM     68  C   UNL A   1      44.541  26.744  37.313  1.00  0.00     0.059 A 
ATOM     69  F   UNL A   1      42.272  27.154  36.883  1.00  0.00    -0.206 F 
ATOM     70  C   UNL A   1      45.880  27.040  37.064  1.00  0.00     0.060 A 
BRANCH  70  71
ATOM     71  S   UNL A   1      47.191  26.096  37.870  1.00  0.00     0.124 S 
ATOM     72  O   UNL A   1      47.283  24.928  37.000  1.00  0.00    -0.237 OA
ATOM     73  O   UNL A   1      48.322  27.018  37.812  1.00  0.00    -0.237 OA
ATOM     74  O   UNL A   1      46.658  25.845  39.204  1.00  0.00    -0.744 OA
ENDBRANCH  70  71
ENDBRANCH  49  63
BRANCH  50  75
ATOM     75  C   UNL A   1      36.514  33.360  31.073  1.00  0.00     0.058 A 
ATOM     76  C   UNL A   1      36.754  34.167  29.950  1.00  0.00     0.135 A 
ATOM     77  C   UNL A   1      35.190  33.235  31.519  1.00  0.00     0.135 A 
ATOM     78  F   UNL A   1      38.004  34.321  29.490  1.00  0.00    -0.206 F 
ATOM     79  C   UNL A   1      35.723  34.840  29.303  1.00  0.00     0.059 A 
ATOM     80  C   UNL A   1      34.138  33.879  30.872  1.00  0.00     0.059 A 
ATOM     81  F   UNL A   1      34.906  32.460  32.577  1.00  0.00    -0.206 F 
ATOM     82  C   UNL A   1      34.417  34.689  29.772  1.00  0.00     0.060 A 
BRANCH  82  83
ATOM     83  S   UNL A   1      33.079  35.528  28.897  1.00  0.00     0.124 S 
ATOM     84  O   UNL A   1      33.817  36.485  28.082  1.00  0.00    -0.237 OA
ATOM     85  O   UNL A   1      32.446  34.428  28.175  1.00  0.00    -0.237 OA
ATOM     86  O   UNL A   1      32.280  36.101  29.977  1.00  0.00    -0.744 OA
ENDBRANCH  82  83
ENDBRANCH  50  75
BRANCH  62  87
ATOM     87  C   UNL A   1      39.803  34.315  37.145  1.00  0.00     0.058 A 
ATOM     88  C   UNL A   1      38.914  34.146  38.217  1.00  0.00     0.135 A 
ATOM     89  C   UNL A   1      40.592  35.477  37.123  1.00  0.00     0.135 A 
ATOM     90  F   UNL A   1      38.133  33.056  38.282  1.00  0.00    -0.206 F 
ATOM     91  C   UNL A   1      38.789  35.107  39.216  1.00  0.00     0.059 A 
ATOM     92  C   UNL A   1      40.504  36.438  38.125  1.00  0.00     0.059 A 
ATOM     93  F   UNL A   1      41.467  35.681  36.126  1.00  0.00    -0.206 F 
ATOM     94  C   UNL A   1      39.587  36.251  39.159  1.00  0.00     0.060 A 
BRANCH  94  95
ATOM     95  S   UNL A   1      39.431  37.484  40.470  1.00  0.00     0.124 S 
ATOM     96  O   UNL A   1      38.243  38.215  40.045  1.00  0.00    -0.237 OA
ATOM     97  O   UNL A   1      39.274  36.656  41.662  1.00  0.00    -0.237 OA
ATOM     98  O   UNL A   1      40.687  38.224  40.392  1.00  0.00    -0.744 OA
ENDBRANCH  94  95
ENDBRANCH  62  87
ENDBRANCH  36  37
ENDBRANCH  28  31
ENDBRANCH  26  27
ENDBRANCH  25  26
ENDBRANCH   1  25
TORSDOF 19
ENDMDL
