MODEL 1
REMARK VINA RESULT:     -13.0      0.000      0.000
REMARK SMILES CC(C)Cc1ccc(S(=O)(=O)Nc2cnc(N3CCCC3)c(C(=O)NCCCNC(=O)c3ccc(-c4c5nc(c(-c6c(F)cc(S(=O)(=O)[O-])cc6F)c6ccc([nH]6)c(-c6c(F)cc(S(=O)(=O)[O-])cc6F)c6nc(c(-c7c(F)cc(S(=O)(=O)[O-])cc7F)c7ccc4[nH]7)C=C6)C=C5)cc3)c2)cc1
REMARK SMILES IDX 26 1 25 2 23 3 24 4 22 6 13 7 14 8 98 9 15 10 16 11 12 12
REMARK SMILES IDX 9 14 10 15 11 16 8 17 5 18 6 19 100 20 7 21 99 22 4 23 2 24
REMARK SMILES IDX 1 25 3 26 17 27 18 28 21 29 19 30 20 31 27 32 28 33 29 34
REMARK SMILES IDX 30 35 31 37 32 38 33 39 97 40 34 41 96 42 35 43 36 44 37 45
REMARK SMILES IDX 90 46 38 47 95 48 89 49 91 50 39 51 94 52 88 53 87 54 40 56
REMARK SMILES IDX 74 57 53 58 73 59 54 60 57 61 72 62 92 63 55 64 56 65 71 67
REMARK SMILES IDX 93 68 58 69 41 70 42 71 51 72 43 73 44 74 50 75 52 76 45 77
REMARK SMILES IDX 46 78 47 79 48 80 49 81 75 82 76 83 85 84 77 85 78 86 84 87
REMARK SMILES IDX 86 88 79 89 80 90 81 91 82 92 83 93 59 94 60 95 69 96 61 97
REMARK SMILES IDX 62 98 68 99 70 100 63 101 64 102 65 103 66 104 67 105
REMARK H PARENT 25 5 12 13 29 36 91 55 57 66
REMARK Flexibility Score: inf
ROOT
ATOM      1  C   UNL A   1      36.556  22.841  25.551  1.00  0.00     0.118 C 
ENDROOT
BRANCH   1   2
ATOM      2  N   UNL A   1      35.731  23.006  24.368  1.00  0.00    -0.352 N 
ATOM      3  C   UNL A   1      34.394  23.019  24.068  1.00  0.00     0.255 C 
ATOM      4  O   UNL A   1      34.181  23.131  22.861  1.00  0.00    -0.269 OA
ATOM      5  H   UNL A   1      36.281  23.145  23.563  1.00  0.00     0.163 HD
BRANCH   3   6
ATOM      6  C   UNL A   1      33.291  22.996  25.089  1.00  0.00     0.084 A 
ATOM      7  C   UNL A   1      31.619  24.275  26.263  1.00  0.00     0.068 A 
ATOM      8  C   UNL A   1      30.907  23.103  26.433  1.00  0.00     0.140 A 
ATOM      9  C   UNL A   1      32.897  24.176  25.736  1.00  0.00     0.046 A 
ATOM     10  N   UNL A   1      31.318  21.911  25.967  1.00  0.00    -0.236 NA
ATOM     11  C   UNL A   1      32.482  21.847  25.264  1.00  0.00     0.141 A 
BRANCH   7  12
ATOM     12  N   UNL A   1      30.946  25.512  26.473  1.00  0.00    -0.278 N 
ATOM     13  H   UNL A   1      29.972  25.490  26.615  1.00  0.00     0.180 HD
BRANCH  12  14
ATOM     14  S   UNL A   1      31.718  27.009  26.493  1.00  0.00     0.261 S 
ATOM     15  O   UNL A   1      33.141  26.758  26.344  1.00  0.00    -0.201 OA
ATOM     16  O   UNL A   1      31.193  27.689  27.652  1.00  0.00    -0.201 OA
BRANCH  14  17
ATOM     17  C   UNL A   1      31.233  27.988  25.072  1.00  0.00     0.087 A 
ATOM     18  C   UNL A   1      30.003  29.383  22.946  1.00  0.00    -0.048 A 
ATOM     19  C   UNL A   1      30.047  27.984  22.946  1.00  0.00     0.005 A 
ATOM     20  C   UNL A   1      30.652  30.070  23.983  1.00  0.00     0.005 A 
ATOM     21  C   UNL A   1      30.640  27.291  24.008  1.00  0.00     0.022 A 
ATOM     22  C   UNL A   1      31.288  29.379  25.026  1.00  0.00     0.022 A 
BRANCH  18  23
ATOM     23  C   UNL A   1      29.309  30.147  21.834  1.00  0.00     0.038 C 
BRANCH  23  24
ATOM     24  C   UNL A   1      28.214  31.138  22.290  1.00  0.00    -0.013 C 
ATOM     25  C   UNL A   1      27.460  30.640  23.522  1.00  0.00     0.008 C 
ATOM     26  C   UNL A   1      28.831  32.502  22.615  1.00  0.00     0.008 C 
ENDBRANCH  23  24
ENDBRANCH  18  23
ENDBRANCH  14  17
ENDBRANCH  12  14
ENDBRANCH   7  12
BRANCH  11  27
ATOM     27  N   UNL A   1      32.726  20.630  24.698  1.00  0.00    -0.356 N 
ATOM     28  C   UNL A   1      32.320  20.266  23.352  1.00  0.00     0.118 C 
ATOM     29  C   UNL A   1      33.820  19.786  25.156  1.00  0.00     0.118 C 
ATOM     30  C   UNL A   1      32.526  18.756  23.387  1.00  0.00     0.023 C 
ATOM     31  C   UNL A   1      33.835  18.619  24.159  1.00  0.00     0.023 C 
ENDBRANCH  11  27
ENDBRANCH   3   6
ENDBRANCH   1   2
BRANCH   1  32
ATOM     32  C   UNL A   1      37.526  24.000  25.700  1.00  0.00     0.042 C 
BRANCH  32  33
ATOM     33  C   UNL A   1      38.561  23.752  26.795  1.00  0.00     0.118 C 
BRANCH  33  34
ATOM     34  N   UNL A   1      39.928  23.779  26.284  1.00  0.00    -0.352 N 
ATOM     35  C   UNL A   1      40.905  24.725  26.470  1.00  0.00     0.251 C 
ATOM     36  H   UNL A   1      40.187  23.008  25.727  1.00  0.00     0.163 HD
ATOM     37  O   UNL A   1      41.934  24.690  25.802  1.00  0.00    -0.269 OA
BRANCH  35  38
ATOM     38  C   UNL A   1      40.694  25.789  27.470  1.00  0.00     0.039 A 
ATOM     39  C   UNL A   1      39.726  25.611  28.459  1.00  0.00     0.014 A 
ATOM     40  C   UNL A   1      41.474  26.948  27.437  1.00  0.00     0.014 A 
ATOM     41  C   UNL A   1      39.586  26.572  29.461  1.00  0.00     0.010 A 
ATOM     42  C   UNL A   1      41.383  27.867  28.475  1.00  0.00     0.010 A 
ATOM     43  C   UNL A   1      40.439  27.689  29.496  1.00  0.00    -0.014 A 
BRANCH  43  44
ATOM     44  C   UNL A   1      40.356  28.692  30.584  1.00  0.00     0.031 A 
ATOM     45  C   UNL A   1      41.255  28.567  31.783  1.00  0.00     0.074 A 
ATOM     46  C   UNL A   1      39.425  29.664  30.526  1.00  0.00     0.049 A 
ATOM     47  N   UNL A   1      41.261  29.266  32.888  1.00  0.00    -0.248 NA
ATOM     48  C   UNL A   1      42.260  27.491  31.748  1.00  0.00     0.031 C 
ATOM     49  C   UNL A   1      38.464  29.858  29.437  1.00  0.00     0.029 A 
ATOM     50  N   UNL A   1      39.126  30.668  31.412  1.00  0.00    -0.354 N 
ATOM     51  C   UNL A   1      42.250  28.703  33.684  1.00  0.00     0.074 A 
ATOM     52  C   UNL A   1      42.794  27.578  32.957  1.00  0.00     0.031 C 
ATOM     53  C   UNL A   1      37.698  30.927  29.710  1.00  0.00     0.029 A 
ATOM     54  C   UNL A   1      38.089  31.474  31.004  1.00  0.00     0.049 A 
ATOM     55  H   UNL A   1      39.608  30.800  32.260  1.00  0.00     0.167 HD
ATOM     56  C   UNL A   1      42.682  29.104  34.904  1.00  0.00     0.037 A 
ATOM     57  C   UNL A   1      37.517  32.532  31.611  1.00  0.00     0.037 A 
ATOM     58  C   UNL A   1      42.166  30.249  35.605  1.00  0.00     0.049 A 
ATOM     59  C   UNL A   1      38.039  32.976  32.950  1.00  0.00     0.074 A 
ATOM     60  C   UNL A   1      42.562  30.763  36.827  1.00  0.00     0.029 A 
ATOM     61  N   UNL A   1      41.150  31.068  35.136  1.00  0.00    -0.354 N 
ATOM     62  N   UNL A   1      38.996  32.450  33.676  1.00  0.00    -0.248 NA
ATOM     63  C   UNL A   1      37.405  34.157  33.551  1.00  0.00     0.031 C 
ATOM     64  C   UNL A   1      41.774  31.886  37.105  1.00  0.00     0.029 A 
ATOM     65  C   UNL A   1      40.906  32.085  36.042  1.00  0.00     0.049 A 
ATOM     66  H   UNL A   1      40.672  30.944  34.284  1.00  0.00     0.167 HD
ATOM     67  C   UNL A   1      39.097  33.252  34.807  1.00  0.00     0.074 A 
ATOM     68  C   UNL A   1      38.109  34.302  34.665  1.00  0.00     0.031 C 
ATOM     69  C   UNL A   1      39.930  33.129  35.869  1.00  0.00     0.037 A 
BRANCH  56  70
ATOM     70  C   UNL A   1      43.782  28.306  35.545  1.00  0.00     0.058 A 
ATOM     71  C   UNL A   1      45.133  28.591  35.292  1.00  0.00     0.135 A 
ATOM     72  C   UNL A   1      43.486  27.265  36.439  1.00  0.00     0.135 A 
ATOM     73  F   UNL A   1      45.468  29.564  34.430  1.00  0.00    -0.206 F 
ATOM     74  C   UNL A   1      46.154  27.856  35.884  1.00  0.00     0.059 A 
ATOM     75  C   UNL A   1      44.493  26.530  37.061  1.00  0.00     0.059 A 
ATOM     76  F   UNL A   1      42.210  26.949  36.712  1.00  0.00    -0.206 F 
ATOM     77  C   UNL A   1      45.824  26.825  36.765  1.00  0.00     0.060 A 
BRANCH  77  78
ATOM     78  S   UNL A   1      47.159  25.882  37.533  1.00  0.00     0.124 S 
ATOM     79  O   UNL A   1      47.414  26.670  38.735  1.00  0.00    -0.237 OA
ATOM     80  O   UNL A   1      46.539  24.579  37.752  1.00  0.00    -0.237 OA
ATOM     81  O   UNL A   1      48.215  25.909  36.526  1.00  0.00    -0.744 OA
ENDBRANCH  77  78
ENDBRANCH  56  70
BRANCH  57  82
ATOM     82  C   UNL A   1      36.407  33.263  30.949  1.00  0.00     0.058 A 
ATOM     83  C   UNL A   1      36.654  34.084  29.838  1.00  0.00     0.135 A 
ATOM     84  C   UNL A   1      35.086  33.163  31.410  1.00  0.00     0.135 A 
ATOM     85  F   UNL A   1      37.903  34.213  29.364  1.00  0.00    -0.206 F 
ATOM     86  C   UNL A   1      35.634  34.802  29.223  1.00  0.00     0.059 A 
ATOM     87  C   UNL A   1      34.046  33.856  30.798  1.00  0.00     0.059 A 
ATOM     88  F   UNL A   1      34.797  32.376  32.458  1.00  0.00    -0.206 F 
ATOM     89  C   UNL A   1      34.333  34.685  29.713  1.00  0.00     0.060 A 
BRANCH  89  90
ATOM     90  S   UNL A   1      33.007  35.598  28.894  1.00  0.00     0.124 S 
ATOM     91  O   UNL A   1      32.226  36.064  30.033  1.00  0.00    -0.237 OA
ATOM     92  O   UNL A   1      33.743  36.624  28.161  1.00  0.00    -0.237 OA
ATOM     93  O   UNL A   1      32.370  34.582  28.061  1.00  0.00    -0.744 OA
ENDBRANCH  89  90
ENDBRANCH  57  82
BRANCH  69  94
ATOM     94  C   UNL A   1      39.835  34.177  36.938  1.00  0.00     0.058 A 
ATOM     95  C   UNL A   1      40.497  35.407  36.819  1.00  0.00     0.135 A 
ATOM     96  C   UNL A   1      39.034  33.964  38.071  1.00  0.00     0.135 A 
ATOM     97  F   UNL A   1      41.279  35.654  35.756  1.00  0.00    -0.206 F 
ATOM     98  C   UNL A   1      40.382  36.389  37.797  1.00  0.00     0.059 A 
ATOM     99  C   UNL A   1      38.890  34.939  39.053  1.00  0.00     0.059 A 
ATOM    100  F   UNL A   1      38.375  32.805  38.226  1.00  0.00    -0.206 F 
ATOM    101  C   UNL A   1      39.577  36.145  38.912  1.00  0.00     0.060 A 
BRANCH 101 102
ATOM    102  S   UNL A   1      39.404  37.438  40.160  1.00  0.00     0.124 S 
ATOM    103  O   UNL A   1      38.513  38.377  39.487  1.00  0.00    -0.237 OA
ATOM    104  O   UNL A   1      38.828  36.712  41.288  1.00  0.00    -0.237 OA
ATOM    105  O   UNL A   1      40.775  37.901  40.357  1.00  0.00    -0.744 OA
ENDBRANCH 101 102
ENDBRANCH  69  94
ENDBRANCH  43  44
ENDBRANCH  35  38
ENDBRANCH  33  34
ENDBRANCH  32  33
ENDBRANCH   1  32
TORSDOF 19
ENDMDL
MODEL 2
REMARK VINA RESULT:     -12.8      6.104     10.396
REMARK SMILES CC(C)Cc1ccc(S(=O)(=O)Nc2cnc(N3CCCC3)c(C(=O)NCCCNC(=O)c3ccc(-c4c5nc(c(-c6c(F)cc(S(=O)(=O)[O-])cc6F)c6ccc([nH]6)c(-c6c(F)cc(S(=O)(=O)[O-])cc6F)c6nc(c(-c7c(F)cc(S(=O)(=O)[O-])cc7F)c7ccc4[nH]7)C=C6)C=C5)cc3)c2)cc1
REMARK SMILES IDX 26 1 25 2 23 3 24 4 22 6 13 7 14 8 98 9 15 10 16 11 12 12
REMARK SMILES IDX 9 14 10 15 11 16 8 17 5 18 6 19 100 20 7 21 99 22 4 23 2 24
REMARK SMILES IDX 1 25 3 26 17 27 18 28 21 29 19 30 20 31 27 32 28 33 29 34
REMARK SMILES IDX 30 35 31 37 32 38 33 39 97 40 34 41 96 42 35 43 36 44 37 45
REMARK SMILES IDX 90 46 38 47 95 48 89 49 91 50 39 51 94 52 88 53 87 54 40 56
REMARK SMILES IDX 74 57 53 58 73 59 54 60 57 61 72 62 92 63 55 64 56 65 71 67
REMARK SMILES IDX 93 68 58 69 41 70 42 71 51 72 43 73 44 74 50 75 52 76 45 77
REMARK SMILES IDX 46 78 47 79 48 80 49 81 75 82 76 83 85 84 77 85 78 86 84 87
REMARK SMILES IDX 86 88 79 89 80 90 81 91 82 92 83 93 59 94 60 95 69 96 61 97
REMARK SMILES IDX 62 98 68 99 70 100 63 101 64 102 65 103 66 104 67 105
REMARK H PARENT 25 5 12 13 29 36 91 55 57 66
REMARK Flexibility Score: inf
ROOT
ATOM      1  C   UNL A   1      37.775  21.735  25.415  1.00  0.00     0.118 C 
ENDROOT
BRANCH   1   2
ATOM      2  N   UNL A   1      37.256  22.199  24.142  1.00  0.00    -0.352 N 
ATOM      3  C   UNL A   1      36.115  22.803  23.681  1.00  0.00     0.255 C 
ATOM      4  O   UNL A   1      36.114  22.941  22.458  1.00  0.00    -0.269 OA
ATOM      5  H   UNL A   1      37.896  22.035  23.411  1.00  0.00     0.163 HD
BRANCH   3   6
ATOM      6  C   UNL A   1      35.015  23.331  24.559  1.00  0.00     0.084 A 
ATOM      7  C   UNL A   1      33.764  25.269  25.257  1.00  0.00     0.068 A 
ATOM      8  C   UNL A   1      32.723  24.423  25.586  1.00  0.00     0.140 A 
ATOM      9  C   UNL A   1      34.972  24.689  24.904  1.00  0.00     0.046 A 
ATOM     10  N   UNL A   1      32.771  23.089  25.422  1.00  0.00    -0.236 NA
ATOM     11  C   UNL A   1      33.888  22.535  24.877  1.00  0.00     0.141 A 
BRANCH   7  12
ATOM     12  N   UNL A   1      33.491  26.661  25.136  1.00  0.00    -0.278 N 
ATOM     13  H   UNL A   1      33.330  27.175  25.960  1.00  0.00     0.180 HD
BRANCH  12  14
ATOM     14  S   UNL A   1      33.427  27.480  23.664  1.00  0.00     0.261 S 
ATOM     15  O   UNL A   1      33.600  26.489  22.616  1.00  0.00    -0.201 OA
ATOM     16  O   UNL A   1      34.342  28.586  23.809  1.00  0.00    -0.201 OA
BRANCH  14  17
ATOM     17  C   UNL A   1      31.805  28.197  23.411  1.00  0.00     0.087 A 
ATOM     18  C   UNL A   1      29.282  29.132  22.550  1.00  0.00    -0.048 A 
ATOM     19  C   UNL A   1      30.459  29.668  22.014  1.00  0.00     0.005 A 
ATOM     20  C   UNL A   1      29.389  28.181  23.576  1.00  0.00     0.005 A 
ATOM     21  C   UNL A   1      31.709  29.192  22.427  1.00  0.00     0.022 A 
ATOM     22  C   UNL A   1      30.642  27.735  24.024  1.00  0.00     0.022 A 
BRANCH  18  23
ATOM     23  C   UNL A   1      27.919  29.592  22.067  1.00  0.00     0.038 C 
BRANCH  23  24
ATOM     24  C   UNL A   1      27.551  31.054  22.408  1.00  0.00    -0.013 C 
ATOM     25  C   UNL A   1      28.139  31.501  23.747  1.00  0.00     0.008 C 
ATOM     26  C   UNL A   1      28.055  32.001  21.315  1.00  0.00     0.008 C 
ENDBRANCH  23  24
ENDBRANCH  18  23
ENDBRANCH  14  17
ENDBRANCH  12  14
ENDBRANCH   7  12
BRANCH  11  27
ATOM     27  N   UNL A   1      33.774  21.203  24.603  1.00  0.00    -0.356 N 
ATOM     28  C   UNL A   1      34.412  20.158  25.384  1.00  0.00     0.118 C 
ATOM     29  C   UNL A   1      32.641  20.675  23.859  1.00  0.00     0.118 C 
ATOM     30  C   UNL A   1      34.242  18.959  24.458  1.00  0.00     0.023 C 
ATOM     31  C   UNL A   1      32.825  19.153  23.926  1.00  0.00     0.023 C 
ENDBRANCH  11  27
ENDBRANCH   3   6
ENDBRANCH   1   2
BRANCH   1  32
ATOM     32  C   UNL A   1      38.594  20.468  25.236  1.00  0.00     0.042 C 
BRANCH  32  33
ATOM     33  C   UNL A   1      39.430  20.138  26.470  1.00  0.00     0.118 C 
BRANCH  33  34
ATOM     34  N   UNL A   1      40.576  19.291  26.155  1.00  0.00    -0.352 N 
ATOM     35  C   UNL A   1      41.890  19.643  25.972  1.00  0.00     0.251 C 
ATOM     36  H   UNL A   1      40.379  18.330  26.063  1.00  0.00     0.163 HD
ATOM     37  O   UNL A   1      42.688  18.831  25.513  1.00  0.00    -0.269 OA
BRANCH  35  38
ATOM     38  C   UNL A   1      42.322  21.011  26.316  1.00  0.00     0.039 A 
ATOM     39  C   UNL A   1      42.644  21.310  27.641  1.00  0.00     0.014 A 
ATOM     40  C   UNL A   1      42.430  21.984  25.320  1.00  0.00     0.014 A 
ATOM     41  C   UNL A   1      43.143  22.575  27.956  1.00  0.00     0.010 A 
ATOM     42  C   UNL A   1      42.994  23.218  25.622  1.00  0.00     0.010 A 
ATOM     43  C   UNL A   1      43.355  23.525  26.942  1.00  0.00    -0.014 A 
BRANCH  43  44
ATOM     44  C   UNL A   1      43.943  24.853  27.238  1.00  0.00     0.031 A 
ATOM     45  C   UNL A   1      43.058  25.969  27.721  1.00  0.00     0.074 A 
ATOM     46  C   UNL A   1      45.251  25.071  27.001  1.00  0.00     0.049 A 
ATOM     47  N   UNL A   1      43.351  27.227  27.924  1.00  0.00    -0.248 NA
ATOM     48  C   UNL A   1      41.648  25.632  27.979  1.00  0.00     0.031 C 
ATOM     49  C   UNL A   1      46.199  24.079  26.486  1.00  0.00     0.029 A 
ATOM     50  N   UNL A   1      46.009  26.205  27.151  1.00  0.00    -0.354 N 
ATOM     51  C   UNL A   1      42.163  27.833  28.311  1.00  0.00     0.074 A 
ATOM     52  C   UNL A   1      41.134  26.817  28.272  1.00  0.00     0.031 C 
ATOM     53  C   UNL A   1      47.414  24.643  26.384  1.00  0.00     0.029 A 
ATOM     54  C   UNL A   1      47.326  26.041  26.793  1.00  0.00     0.049 A 
ATOM     55  H   UNL A   1      45.644  27.056  27.484  1.00  0.00     0.167 HD
ATOM     56  C   UNL A   1      41.953  29.117  28.687  1.00  0.00     0.037 A 
ATOM     57  C   UNL A   1      48.345  26.921  26.791  1.00  0.00     0.037 A 
ATOM     58  C   UNL A   1      42.988  30.113  28.763  1.00  0.00     0.049 A 
ATOM     59  C   UNL A   1      48.091  28.332  27.245  1.00  0.00     0.074 A 
ATOM     60  C   UNL A   1      42.888  31.432  29.170  1.00  0.00     0.029 A 
ATOM     61  N   UNL A   1      44.318  29.894  28.439  1.00  0.00    -0.354 N 
ATOM     62  N   UNL A   1      46.966  28.882  27.637  1.00  0.00    -0.248 NA
ATOM     63  C   UNL A   1      49.244  29.243  27.260  1.00  0.00     0.031 C 
ATOM     64  C   UNL A   1      44.156  32.015  29.078  1.00  0.00     0.029 A 
ATOM     65  C   UNL A   1      45.050  31.051  28.639  1.00  0.00     0.049 A 
ATOM     66  H   UNL A   1      44.688  29.041  28.115  1.00  0.00     0.167 HD
ATOM     67  C   UNL A   1      47.282  30.194  27.970  1.00  0.00     0.074 A 
ATOM     68  C   UNL A   1      48.703  30.354  27.741  1.00  0.00     0.031 C 
ATOM     69  C   UNL A   1      46.468  31.180  28.421  1.00  0.00     0.037 A 
BRANCH  56  70
ATOM     70  C   UNL A   1      40.552  29.508  29.064  1.00  0.00     0.058 A 
ATOM     71  C   UNL A   1      40.198  29.758  30.399  1.00  0.00     0.135 A 
ATOM     72  C   UNL A   1      39.561  29.659  28.082  1.00  0.00     0.135 A 
ATOM     73  F   UNL A   1      41.105  29.608  31.378  1.00  0.00    -0.206 F 
ATOM     74  C   UNL A   1      38.903  30.121  30.752  1.00  0.00     0.059 A 
ATOM     75  C   UNL A   1      38.263  30.044  28.411  1.00  0.00     0.059 A 
ATOM     76  F   UNL A   1      39.845  29.429  26.791  1.00  0.00    -0.206 F 
ATOM     77  C   UNL A   1      37.941  30.258  29.751  1.00  0.00     0.060 A 
BRANCH  77  78
ATOM     78  S   UNL A   1      36.265  30.738  30.221  1.00  0.00     0.124 S 
ATOM     79  O   UNL A   1      36.430  32.168  30.462  1.00  0.00    -0.237 OA
ATOM     80  O   UNL A   1      35.492  30.381  29.037  1.00  0.00    -0.237 OA
ATOM     81  O   UNL A   1      36.001  29.926  31.405  1.00  0.00    -0.744 OA
ENDBRANCH  77  78
ENDBRANCH  56  70
BRANCH  57  82
ATOM     82  C   UNL A   1      49.704  26.492  26.373  1.00  0.00     0.058 A 
ATOM     83  C   UNL A   1      50.133  26.667  25.050  1.00  0.00     0.135 A 
ATOM     84  C   UNL A   1      50.595  25.897  27.279  1.00  0.00     0.135 A 
ATOM     85  F   UNL A   1      49.313  27.229  24.148  1.00  0.00    -0.206 F 
ATOM     86  C   UNL A   1      51.390  26.244  24.629  1.00  0.00     0.059 A 
ATOM     87  C   UNL A   1      51.865  25.484  26.887  1.00  0.00     0.059 A 
ATOM     88  F   UNL A   1      50.237  25.725  28.561  1.00  0.00    -0.206 F 
ATOM     89  C   UNL A   1      52.248  25.649  25.556  1.00  0.00     0.060 A 
BRANCH  89  90
ATOM     90  S   UNL A   1      53.889  25.126  25.012  1.00  0.00     0.124 S 
ATOM     91  O   UNL A   1      54.726  25.607  26.104  1.00  0.00    -0.237 OA
ATOM     92  O   UNL A   1      53.737  23.678  24.914  1.00  0.00    -0.237 OA
ATOM     93  O   UNL A   1      54.052  25.819  23.737  1.00  0.00    -0.744 OA
ENDBRANCH  89  90
ENDBRANCH  57  82
BRANCH  69  94
ATOM     94  C   UNL A   1      47.103  32.502  28.735  1.00  0.00     0.058 A 
ATOM     95  C   UNL A   1      47.212  33.510  27.766  1.00  0.00     0.135 A 
ATOM     96  C   UNL A   1      47.563  32.778  30.031  1.00  0.00     0.135 A 
ATOM     97  F   UNL A   1      46.791  33.291  26.511  1.00  0.00    -0.206 F 
ATOM     98  C   UNL A   1      47.773  34.746  28.068  1.00  0.00     0.059 A 
ATOM     99  C   UNL A   1      48.111  34.014  30.361  1.00  0.00     0.059 A 
ATOM    100  F   UNL A   1      47.474  31.847  30.994  1.00  0.00    -0.206 F 
ATOM    101  C   UNL A   1      48.221  34.988  29.368  1.00  0.00     0.060 A 
BRANCH 101 102
ATOM    102  S   UNL A   1      48.915  36.608  29.762  1.00  0.00     0.124 S 
ATOM    103  O   UNL A   1      49.098  37.179  28.432  1.00  0.00    -0.237 OA
ATOM    104  O   UNL A   1      47.863  37.213  30.574  1.00  0.00    -0.237 OA
ATOM    105  O   UNL A   1      50.143  36.282  30.482  1.00  0.00    -0.744 OA
ENDBRANCH 101 102
ENDBRANCH  69  94
ENDBRANCH  43  44
ENDBRANCH  35  38
ENDBRANCH  33  34
ENDBRANCH  32  33
ENDBRANCH   1  32
TORSDOF 19
ENDMDL
MODEL 3
REMARK VINA RESULT:     -12.2      6.531     14.719
REMARK SMILES CC(C)Cc1ccc(S(=O)(=O)Nc2cnc(N3CCCC3)c(C(=O)NCCCNC(=O)c3ccc(-c4c5nc(c(-c6c(F)cc(S(=O)(=O)[O-])cc6F)c6ccc([nH]6)c(-c6c(F)cc(S(=O)(=O)[O-])cc6F)c6nc(c(-c7c(F)cc(S(=O)(=O)[O-])cc7F)c7ccc4[nH]7)C=C6)C=C5)cc3)c2)cc1
REMARK SMILES IDX 26 1 25 2 23 3 24 4 22 6 13 7 14 8 98 9 15 10 16 11 12 12
REMARK SMILES IDX 9 14 10 15 11 16 8 17 5 18 6 19 100 20 7 21 99 22 4 23 2 24
REMARK SMILES IDX 1 25 3 26 17 27 18 28 21 29 19 30 20 31 27 32 28 33 29 34
REMARK SMILES IDX 30 35 31 37 32 38 33 39 97 40 34 41 96 42 35 43 36 44 37 45
REMARK SMILES IDX 90 46 38 47 95 48 89 49 91 50 39 51 94 52 88 53 87 54 40 56
REMARK SMILES IDX 74 57 53 58 73 59 54 60 57 61 72 62 92 63 55 64 56 65 71 67
REMARK SMILES IDX 93 68 58 69 41 70 42 71 51 72 43 73 44 74 50 75 52 76 45 77
REMARK SMILES IDX 46 78 47 79 48 80 49 81 75 82 76 83 85 84 77 85 78 86 84 87
REMARK SMILES IDX 86 88 79 89 80 90 81 91 82 92 83 93 59 94 60 95 69 96 61 97
REMARK SMILES IDX 62 98 68 99 70 100 63 101 64 102 65 103 66 104 67 105
REMARK H PARENT 25 5 12 13 29 36 91 55 57 66
REMARK Flexibility Score: inf
ROOT
ATOM      1  C   UNL A   1      46.000  22.305  37.009  1.00  0.00     0.118 C 
ENDROOT
BRANCH   1   2
ATOM      2  N   UNL A   1      45.992  21.047  36.285  1.00  0.00    -0.352 N 
ATOM      3  C   UNL A   1      46.192  19.721  36.571  1.00  0.00     0.255 C 
ATOM      4  O   UNL A   1      46.144  19.009  35.569  1.00  0.00    -0.269 OA
ATOM      5  H   UNL A   1      45.791  21.182  35.331  1.00  0.00     0.163 HD
BRANCH   3   6
ATOM      6  C   UNL A   1      46.359  19.164  37.958  1.00  0.00     0.084 A 
ATOM      7  C   UNL A   1      45.722  17.436  39.513  1.00  0.00     0.068 A 
ATOM      8  C   UNL A   1      46.925  17.640  40.162  1.00  0.00     0.140 A 
ATOM      9  C   UNL A   1      45.378  18.328  38.510  1.00  0.00     0.046 A 
ATOM     10  N   UNL A   1      47.838  18.544  39.765  1.00  0.00    -0.236 NA
ATOM     11  C   UNL A   1      47.589  19.282  38.649  1.00  0.00     0.141 A 
BRANCH   7  12
ATOM     12  N   UNL A   1      44.999  16.241  39.789  1.00  0.00    -0.278 N 
ATOM     13  H   UNL A   1      45.487  15.488  40.195  1.00  0.00     0.180 HD
BRANCH  12  14
ATOM     14  S   UNL A   1      43.358  16.040  39.462  1.00  0.00     0.261 S 
ATOM     15  O   UNL A   1      43.258  15.343  38.192  1.00  0.00    -0.201 OA
ATOM     16  O   UNL A   1      42.774  17.345  39.650  1.00  0.00    -0.201 OA
BRANCH  14  17
ATOM     17  C   UNL A   1      42.600  14.967  40.680  1.00  0.00     0.087 A 
ATOM     18  C   UNL A   1      41.731  12.932  42.437  1.00  0.00    -0.048 A 
ATOM     19  C   UNL A   1      41.498  12.830  41.060  1.00  0.00     0.005 A 
ATOM     20  C   UNL A   1      42.333  14.101  42.926  1.00  0.00     0.005 A 
ATOM     21  C   UNL A   1      41.944  13.829  40.187  1.00  0.00     0.022 A 
ATOM     22  C   UNL A   1      42.740  15.126  42.057  1.00  0.00     0.022 A 
BRANCH  18  23
ATOM     23  C   UNL A   1      41.309  11.828  43.388  1.00  0.00     0.038 C 
BRANCH  23  24
ATOM     24  C   UNL A   1      42.452  10.927  43.911  1.00  0.00    -0.013 C 
ATOM     25  C   UNL A   1      42.713   9.734  42.991  1.00  0.00     0.008 C 
ATOM     26  C   UNL A   1      43.748  11.732  44.045  1.00  0.00     0.008 C 
ENDBRANCH  23  24
ENDBRANCH  18  23
ENDBRANCH  14  17
ENDBRANCH  12  14
ENDBRANCH   7  12
BRANCH  11  27
ATOM     27  N   UNL A   1      48.641  20.048  38.240  1.00  0.00    -0.356 N 
ATOM     28  C   UNL A   1      49.277  21.058  39.067  1.00  0.00     0.118 C 
ATOM     29  C   UNL A   1      49.537  19.605  37.182  1.00  0.00     0.118 C 
ATOM     30  C   UNL A   1      50.108  21.801  38.028  1.00  0.00     0.023 C 
ATOM     31  C   UNL A   1      50.646  20.666  37.162  1.00  0.00     0.023 C 
ENDBRANCH  11  27
ENDBRANCH   3   6
ENDBRANCH   1   2
BRANCH   1  32
ATOM     32  C   UNL A   1      45.632  23.458  36.091  1.00  0.00     0.042 C 
BRANCH  32  33
ATOM     33  C   UNL A   1      46.808  24.400  35.842  1.00  0.00     0.118 C 
BRANCH  33  34
ATOM     34  N   UNL A   1      47.325  24.983  37.076  1.00  0.00    -0.352 N 
ATOM     35  C   UNL A   1      47.077  26.218  37.621  1.00  0.00     0.251 C 
ATOM     36  H   UNL A   1      47.936  24.408  37.592  1.00  0.00     0.163 HD
ATOM     37  O   UNL A   1      47.753  26.624  38.561  1.00  0.00    -0.269 OA
BRANCH  35  38
ATOM     38  C   UNL A   1      46.003  27.053  37.051  1.00  0.00     0.039 A 
ATOM     39  C   UNL A   1      46.329  28.041  36.120  1.00  0.00     0.014 A 
ATOM     40  C   UNL A   1      44.673  26.835  37.421  1.00  0.00     0.014 A 
ATOM     41  C   UNL A   1      45.309  28.770  35.508  1.00  0.00     0.010 A 
ATOM     42  C   UNL A   1      43.656  27.511  36.759  1.00  0.00     0.010 A 
ATOM     43  C   UNL A   1      43.963  28.484  35.797  1.00  0.00    -0.014 A 
BRANCH  43  44
ATOM     44  C   UNL A   1      42.857  29.198  35.115  1.00  0.00     0.031 A 
ATOM     45  C   UNL A   1      42.410  28.749  33.751  1.00  0.00     0.074 A 
ATOM     46  C   UNL A   1      42.313  30.288  35.688  1.00  0.00     0.049 A 
ATOM     47  N   UNL A   1      41.547  29.303  32.940  1.00  0.00    -0.248 NA
ATOM     48  C   UNL A   1      43.042  27.531  33.214  1.00  0.00     0.031 C 
ATOM     49  C   UNL A   1      42.698  30.848  36.987  1.00  0.00     0.029 A 
ATOM     50  N   UNL A   1      41.324  31.130  35.246  1.00  0.00    -0.354 N 
ATOM     51  C   UNL A   1      41.548  28.518  31.795  1.00  0.00     0.074 A 
ATOM     52  C   UNL A   1      42.529  27.474  31.995  1.00  0.00     0.031 C 
ATOM     53  C   UNL A   1      41.939  31.927  37.243  1.00  0.00     0.029 A 
ATOM     54  C   UNL A   1      41.040  32.154  36.118  1.00  0.00     0.049 A 
ATOM     55  H   UNL A   1      40.861  31.012  34.385  1.00  0.00     0.167 HD
ATOM     56  C   UNL A   1      40.783  28.643  30.685  1.00  0.00     0.037 A 
ATOM     57  C   UNL A   1      40.155  33.164  36.017  1.00  0.00     0.037 A 
ATOM     58  C   UNL A   1      39.780  29.659  30.508  1.00  0.00     0.049 A 
ATOM     59  C   UNL A   1      39.294  33.261  34.787  1.00  0.00     0.074 A 
ATOM     60  C   UNL A   1      38.923  29.849  29.438  1.00  0.00     0.029 A 
ATOM     61  N   UNL A   1      39.488  30.648  31.435  1.00  0.00    -0.354 N 
ATOM     62  N   UNL A   1      39.287  32.491  33.724  1.00  0.00    -0.248 NA
ATOM     63  C   UNL A   1      38.319  34.359  34.742  1.00  0.00     0.031 C 
ATOM     64  C   UNL A   1      38.122  30.963  29.712  1.00  0.00     0.029 A 
ATOM     65  C   UNL A   1      38.463  31.450  30.964  1.00  0.00     0.049 A 
ATOM     66  H   UNL A   1      39.943  30.762  32.301  1.00  0.00     0.167 HD
ATOM     67  C   UNL A   1      38.291  32.997  32.898  1.00  0.00     0.074 A 
ATOM     68  C   UNL A   1      37.712  34.133  33.586  1.00  0.00     0.031 C 
ATOM     69  C   UNL A   1      37.892  32.564  31.677  1.00  0.00     0.037 A 
BRANCH  56  70
ATOM     70  C   UNL A   1      40.991  27.642  29.584  1.00  0.00     0.058 A 
ATOM     71  C   UNL A   1      42.129  27.686  28.762  1.00  0.00     0.135 A 
ATOM     72  C   UNL A   1      40.061  26.614  29.363  1.00  0.00     0.135 A 
ATOM     73  F   UNL A   1      43.038  28.661  28.920  1.00  0.00    -0.206 F 
ATOM     74  C   UNL A   1      42.326  26.761  27.743  1.00  0.00     0.059 A 
ATOM     75  C   UNL A   1      40.250  25.663  28.362  1.00  0.00     0.059 A 
ATOM     76  F   UNL A   1      38.955  26.528  30.118  1.00  0.00    -0.206 F 
ATOM     77  C   UNL A   1      41.379  25.755  27.549  1.00  0.00     0.060 A 
BRANCH  77  78
ATOM     78  S   UNL A   1      41.651  24.555  26.227  1.00  0.00     0.124 S 
ATOM     79  O   UNL A   1      40.570  23.606  26.472  1.00  0.00    -0.237 OA
ATOM     80  O   UNL A   1      41.513  25.373  25.026  1.00  0.00    -0.237 OA
ATOM     81  O   UNL A   1      42.997  24.059  26.491  1.00  0.00    -0.744 OA
ENDBRANCH  77  78
ENDBRANCH  56  70
BRANCH  57  82
ATOM     82  C   UNL A   1      40.015  34.150  37.119  1.00  0.00     0.058 A 
ATOM     83  C   UNL A   1      39.096  33.937  38.157  1.00  0.00     0.135 A 
ATOM     84  C   UNL A   1      40.787  35.321  37.157  1.00  0.00     0.135 A 
ATOM     85  F   UNL A   1      38.334  32.832  38.161  1.00  0.00    -0.206 F 
ATOM     86  C   UNL A   1      38.928  34.861  39.182  1.00  0.00     0.059 A 
ATOM     87  C   UNL A   1      40.651  36.251  38.183  1.00  0.00     0.059 A 
ATOM     88  F   UNL A   1      41.692  35.561  36.196  1.00  0.00    -0.206 F 
ATOM     89  C   UNL A   1      39.707  36.019  39.184  1.00  0.00     0.060 A 
BRANCH  89  90
ATOM     90  S   UNL A   1      39.504  37.204  40.532  1.00  0.00     0.124 S 
ATOM     91  O   UNL A   1      40.670  38.059  40.348  1.00  0.00    -0.237 OA
ATOM     92  O   UNL A   1      38.213  37.810  40.221  1.00  0.00    -0.237 OA
ATOM     93  O   UNL A   1      39.519  36.358  41.722  1.00  0.00    -0.744 OA
ENDBRANCH  89  90
ENDBRANCH  57  82
BRANCH  69  94
ATOM     94  C   UNL A   1      36.754  33.294  31.028  1.00  0.00     0.058 A 
ATOM     95  C   UNL A   1      36.960  34.155  29.941  1.00  0.00     0.135 A 
ATOM     96  C   UNL A   1      35.437  33.091  31.471  1.00  0.00     0.135 A 
ATOM     97  F   UNL A   1      38.202  34.384  29.486  1.00  0.00    -0.206 F 
ATOM     98  C   UNL A   1      35.898  34.806  29.322  1.00  0.00     0.059 A 
ATOM     99  C   UNL A   1      34.359  33.717  30.855  1.00  0.00     0.059 A 
ATOM    100  F   UNL A   1      35.190  32.270  32.504  1.00  0.00    -0.206 F 
ATOM    101  C   UNL A   1      34.601  34.582  29.788  1.00  0.00     0.060 A 
BRANCH 101 102
ATOM    102  S   UNL A   1      33.225  35.403  28.956  1.00  0.00     0.124 S 
ATOM    103  O   UNL A   1      32.437  35.875  30.091  1.00  0.00    -0.237 OA
ATOM    104  O   UNL A   1      33.898  36.437  28.177  1.00  0.00    -0.237 OA
ATOM    105  O   UNL A   1      32.618  34.332  28.171  1.00  0.00    -0.744 OA
ENDBRANCH 101 102
ENDBRANCH  69  94
ENDBRANCH  43  44
ENDBRANCH  35  38
ENDBRANCH  33  34
ENDBRANCH  32  33
ENDBRANCH   1  32
TORSDOF 19
ENDMDL
