MODEL 1
REMARK VINA RESULT:     -11.4      0.000      0.000
REMARK SMILES Cc1cc(OC(F)(F)F)cc2c1O[C@@H](C(F)(F)F)C(C(=O)NCCCNC(=O)c1ccc(-c3c4nc(c(-c5c(F)cc(S(=O)(=O)[O-])cc5F)c5ccc([nH]5)c(-c5c(F)cc(S(=O)(=O)[O-])cc5F)c5nc(c(-c6c(F)cc(S(=O)(=O)[O-])cc6F)c6ccc3[nH]6)C=C5)C=C4)cc1)=C2
REMARK SMILES IDX 24 1 23 2 22 3 20 4 21 5 19 7 1 8 2 9 3 10 12 11 4 12 11 13
REMARK SMILES IDX 13 14 10 15 95 16 14 17 5 18 6 19 7 20 8 21 9 22 15 23 16 24
REMARK SMILES IDX 17 25 18 26 25 27 26 28 27 29 28 31 29 32 30 33 94 34 31 35
REMARK SMILES IDX 93 36 32 37 33 38 34 39 87 40 35 41 92 42 86 43 88 44 36 45
REMARK SMILES IDX 91 46 85 47 84 48 37 50 71 51 50 52 70 53 51 54 54 55 69 56
REMARK SMILES IDX 89 57 52 58 53 59 68 61 90 62 55 63 38 64 39 65 48 66 40 67
REMARK SMILES IDX 41 68 47 69 49 70 42 71 43 72 44 73 45 74 46 75 72 76 73 77
REMARK SMILES IDX 82 78 74 79 75 80 81 81 83 82 76 83 77 84 78 85 79 86 80 87
REMARK SMILES IDX 56 88 57 89 66 90 58 91 59 92 65 93 67 94 60 95 61 96 62 97
REMARK SMILES IDX 63 98 64 99
REMARK H PARENT 22 6 26 30 88 49 54 60
REMARK Flexibility Score: inf
ROOT
ATOM      1  C   UNL A   1      33.755  27.973  25.253  1.00  0.00     0.042 C 
ENDROOT
BRANCH   1   2
ATOM      2  C   UNL A   1      32.443  27.233  25.015  1.00  0.00     0.118 C 
BRANCH   2   3
ATOM      3  N   UNL A   1      32.273  26.880  23.614  1.00  0.00    -0.352 N 
ATOM      4  C   UNL A   1      32.405  25.774  22.848  1.00  0.00     0.251 C 
ATOM      5  O   UNL A   1      32.072  25.915  21.667  1.00  0.00    -0.270 OA
ATOM      6  H   UNL A   1      31.983  27.656  23.080  1.00  0.00     0.163 HD
BRANCH   4   7
ATOM      7  C   UNL A   1      32.902  24.448  23.319  1.00  0.00     0.067 C 
ATOM      8  C   UNL A   1      33.669  19.592  24.874  1.00  0.00     0.048 C 
ATOM      9  C   UNL A   1      34.526  20.807  24.649  1.00  0.00    -0.005 A 
ATOM     10  C   UNL A   1      35.901  20.734  24.927  1.00  0.00     0.054 A 
ATOM     11  C   UNL A   1      33.997  22.000  24.143  1.00  0.00     0.131 A 
ATOM     12  C   UNL A   1      36.733  21.836  24.719  1.00  0.00     0.130 A 
ATOM     13  C   UNL A   1      34.815  23.113  23.942  1.00  0.00     0.021 A 
ATOM     14  O   UNL A   1      32.672  22.015  23.807  1.00  0.00    -0.475 OA
ATOM     15  C   UNL A   1      36.180  23.026  24.235  1.00  0.00     0.058 A 
ATOM     16  C   UNL A   1      34.241  24.341  23.407  1.00  0.00     0.025 C 
ATOM     17  C   UNL A   1      32.024  23.316  23.776  1.00  0.00     0.314 C 
BRANCH  12  18
ATOM     18  O   UNL A   1      38.079  21.888  24.942  1.00  0.00    -0.406 OA
BRANCH  18  19
ATOM     19  C   UNL A   1      38.532  22.613  26.072  1.00  0.00     0.573 C 
ATOM     20  F   UNL A   1      39.391  23.591  25.715  1.00  0.00    -0.132 F 
ATOM     21  F   UNL A   1      37.498  23.147  26.757  1.00  0.00    -0.132 F 
ATOM     22  F   UNL A   1      39.183  21.764  26.899  1.00  0.00    -0.132 F 
ENDBRANCH  18  19
ENDBRANCH  12  18
BRANCH  17  23
ATOM     23  C   UNL A   1      31.303  23.577  25.108  1.00  0.00     0.429 C 
ATOM     24  F   UNL A   1      30.737  22.460  25.619  1.00  0.00    -0.167 F 
ATOM     25  F   UNL A   1      32.188  24.027  26.033  1.00  0.00    -0.167 F 
ATOM     26  F   UNL A   1      30.324  24.503  25.000  1.00  0.00    -0.167 F 
ENDBRANCH  17  23
ENDBRANCH   4   7
ENDBRANCH   2   3
ENDBRANCH   1   2
BRANCH   1  27
ATOM     27  C   UNL A   1      34.053  28.161  26.738  1.00  0.00     0.118 C 
BRANCH  27  28
ATOM     28  N   UNL A   1      33.791  29.530  27.162  1.00  0.00    -0.352 N 
ATOM     29  C   UNL A   1      34.551  30.350  27.962  1.00  0.00     0.251 C 
ATOM     30  H   UNL A   1      32.952  29.923  26.830  1.00  0.00     0.163 HD
ATOM     31  O   UNL A   1      34.050  31.356  28.455  1.00  0.00    -0.269 OA
BRANCH  29  32
ATOM     32  C   UNL A   1      35.964  30.011  28.229  1.00  0.00     0.039 A 
ATOM     33  C   UNL A   1      36.333  29.553  29.496  1.00  0.00     0.014 A 
ATOM     34  C   UNL A   1      36.928  30.173  27.230  1.00  0.00     0.014 A 
ATOM     35  C   UNL A   1      37.662  29.203  29.744  1.00  0.00     0.010 A 
ATOM     36  C   UNL A   1      38.237  29.758  27.455  1.00  0.00     0.010 A 
ATOM     37  C   UNL A   1      38.618  29.282  28.718  1.00  0.00    -0.014 A 
BRANCH  37  38
ATOM     38  C   UNL A   1      40.034  28.912  28.959  1.00  0.00     0.031 A 
ATOM     39  C   UNL A   1      40.974  29.920  29.561  1.00  0.00     0.074 A 
ATOM     40  C   UNL A   1      40.478  27.693  28.599  1.00  0.00     0.049 A 
ATOM     41  N   UNL A   1      42.248  29.801  29.830  1.00  0.00    -0.248 NA
ATOM     42  C   UNL A   1      40.413  31.243  29.886  1.00  0.00     0.031 C 
ATOM     43  C   UNL A   1      39.667  26.650  27.968  1.00  0.00     0.029 A 
ATOM     44  N   UNL A   1      41.723  27.125  28.708  1.00  0.00    -0.354 N 
ATOM     45  C   UNL A   1      42.639  31.026  30.357  1.00  0.00     0.074 A 
ATOM     46  C   UNL A   1      41.486  31.897  30.309  1.00  0.00     0.031 C 
ATOM     47  C   UNL A   1      40.427  25.560  27.773  1.00  0.00     0.029 A 
ATOM     48  C   UNL A   1      41.785  25.834  28.238  1.00  0.00     0.049 A 
ATOM     49  H   UNL A   1      42.499  27.597  29.089  1.00  0.00     0.167 HD
ATOM     50  C   UNL A   1      43.840  31.381  30.868  1.00  0.00     0.037 A 
ATOM     51  C   UNL A   1      42.817  24.969  28.194  1.00  0.00     0.037 A 
ATOM     52  C   UNL A   1      44.978  30.502  30.929  1.00  0.00     0.049 A 
ATOM     53  C   UNL A   1      44.152  25.395  28.743  1.00  0.00     0.074 A 
ATOM     54  C   UNL A   1      46.228  30.752  31.464  1.00  0.00     0.029 A 
ATOM     55  N   UNL A   1      45.000  29.204  30.440  1.00  0.00    -0.354 N 
ATOM     56  N   UNL A   1      44.488  26.538  29.294  1.00  0.00    -0.248 NA
ATOM     57  C   UNL A   1      45.247  24.417  28.673  1.00  0.00     0.031 C 
ATOM     58  C   UNL A   1      47.020  29.618  31.263  1.00  0.00     0.029 A 
ATOM     59  C   UNL A   1      46.249  28.646  30.645  1.00  0.00     0.049 A 
ATOM     60  H   UNL A   1      44.241  28.748  30.012  1.00  0.00     0.167 HD
ATOM     61  C   UNL A   1      45.822  26.406  29.660  1.00  0.00     0.074 A 
ATOM     62  C   UNL A   1      46.233  25.072  29.273  1.00  0.00     0.031 C 
ATOM     63  C   UNL A   1      46.634  27.309  30.264  1.00  0.00     0.037 A 
BRANCH  50  64
ATOM     64  C   UNL A   1      43.978  32.771  31.424  1.00  0.00     0.058 A 
ATOM     65  C   UNL A   1      43.731  33.040  32.781  1.00  0.00     0.135 A 
ATOM     66  C   UNL A   1      44.400  33.834  30.611  1.00  0.00     0.135 A 
ATOM     67  F   UNL A   1      43.307  32.063  33.597  1.00  0.00    -0.206 F 
ATOM     68  C   UNL A   1      43.876  34.319  33.305  1.00  0.00     0.059 A 
ATOM     69  C   UNL A   1      44.577  35.116  31.120  1.00  0.00     0.059 A 
ATOM     70  F   UNL A   1      44.647  33.631  29.307  1.00  0.00    -0.206 F 
ATOM     71  C   UNL A   1      44.302  35.351  32.467  1.00  0.00     0.060 A 
BRANCH  71  72
ATOM     72  S   UNL A   1      44.497  37.002  33.171  1.00  0.00     0.124 S 
ATOM     73  O   UNL A   1      45.295  36.719  34.361  1.00  0.00    -0.237 OA
ATOM     74  O   UNL A   1      45.189  37.716  32.102  1.00  0.00    -0.237 OA
ATOM     75  O   UNL A   1      43.126  37.430  33.423  1.00  0.00    -0.744 OA
ENDBRANCH  71  72
ENDBRANCH  50  64
BRANCH  51  76
ATOM     76  C   UNL A   1      42.613  23.599  27.652  1.00  0.00     0.058 A 
ATOM     77  C   UNL A   1      42.671  23.360  26.271  1.00  0.00     0.135 A 
ATOM     78  C   UNL A   1      42.387  22.502  28.497  1.00  0.00     0.135 A 
ATOM     79  F   UNL A   1      42.877  24.378  25.422  1.00  0.00    -0.206 F 
ATOM     80  C   UNL A   1      42.506  22.083  25.745  1.00  0.00     0.059 A 
ATOM     81  C   UNL A   1      42.241  21.212  27.996  1.00  0.00     0.059 A 
ATOM     82  F   UNL A   1      42.337  22.676  29.826  1.00  0.00    -0.206 F 
ATOM     83  C   UNL A   1      42.297  21.013  26.617  1.00  0.00     0.060 A 
BRANCH  83  84
ATOM     84  S   UNL A   1      42.143  19.352  25.922  1.00  0.00     0.124 S 
ATOM     85  O   UNL A   1      40.709  19.267  25.678  1.00  0.00    -0.237 OA
ATOM     86  O   UNL A   1      42.990  19.439  24.737  1.00  0.00    -0.237 OA
ATOM     87  O   UNL A   1      42.655  18.494  26.987  1.00  0.00    -0.744 OA
ENDBRANCH  83  84
ENDBRANCH  51  76
BRANCH  63  88
ATOM     88  C   UNL A   1      48.043  26.891  30.574  1.00  0.00     0.058 A 
ATOM     89  C   UNL A   1      49.112  27.252  29.743  1.00  0.00     0.135 A 
ATOM     90  C   UNL A   1      48.337  26.228  31.778  1.00  0.00     0.135 A 
ATOM     91  F   UNL A   1      48.882  27.881  28.580  1.00  0.00    -0.206 F 
ATOM     92  C   UNL A   1      50.429  26.973  30.095  1.00  0.00     0.059 A 
ATOM     93  C   UNL A   1      49.646  25.960  32.160  1.00  0.00     0.059 A 
ATOM     94  F   UNL A   1      47.348  25.869  32.612  1.00  0.00    -0.206 F 
ATOM     95  C   UNL A   1      50.687  26.338  31.312  1.00  0.00     0.060 A 
BRANCH  95  96
ATOM     96  S   UNL A   1      52.405  26.060  31.792  1.00  0.00     0.124 S 
ATOM     97  O   UNL A   1      52.669  27.222  32.632  1.00  0.00    -0.237 OA
ATOM     98  O   UNL A   1      52.329  24.778  32.487  1.00  0.00    -0.237 OA
ATOM     99  O   UNL A   1      53.115  26.033  30.517  1.00  0.00    -0.744 OA
ENDBRANCH  95  96
ENDBRANCH  63  88
ENDBRANCH  37  38
ENDBRANCH  29  32
ENDBRANCH  27  28
ENDBRANCH   1  27
TORSDOF 16
ENDMDL
MODEL 2
REMARK VINA RESULT:     -11.4      2.684      3.337
REMARK SMILES Cc1cc(OC(F)(F)F)cc2c1O[C@@H](C(F)(F)F)C(C(=O)NCCCNC(=O)c1ccc(-c3c4nc(c(-c5c(F)cc(S(=O)(=O)[O-])cc5F)c5ccc([nH]5)c(-c5c(F)cc(S(=O)(=O)[O-])cc5F)c5nc(c(-c6c(F)cc(S(=O)(=O)[O-])cc6F)c6ccc3[nH]6)C=C5)C=C4)cc1)=C2
REMARK SMILES IDX 24 1 23 2 22 3 20 4 21 5 19 7 1 8 2 9 3 10 12 11 4 12 11 13
REMARK SMILES IDX 13 14 10 15 95 16 14 17 5 18 6 19 7 20 8 21 9 22 15 23 16 24
REMARK SMILES IDX 17 25 18 26 25 27 26 28 27 29 28 31 29 32 30 33 94 34 31 35
REMARK SMILES IDX 93 36 32 37 33 38 34 39 87 40 35 41 92 42 86 43 88 44 36 45
REMARK SMILES IDX 91 46 85 47 84 48 37 50 71 51 50 52 70 53 51 54 54 55 69 56
REMARK SMILES IDX 89 57 52 58 53 59 68 61 90 62 55 63 38 64 39 65 48 66 40 67
REMARK SMILES IDX 41 68 47 69 49 70 42 71 43 72 44 73 45 74 46 75 72 76 73 77
REMARK SMILES IDX 82 78 74 79 75 80 81 81 83 82 76 83 77 84 78 85 79 86 80 87
REMARK SMILES IDX 56 88 57 89 66 90 58 91 59 92 65 93 67 94 60 95 61 96 62 97
REMARK SMILES IDX 63 98 64 99
REMARK H PARENT 22 6 26 30 88 49 54 60
REMARK Flexibility Score: inf
ROOT
ATOM      1  C   UNL A   1      33.989  28.225  24.396  1.00  0.00     0.042 C 
ENDROOT
BRANCH   1   2
ATOM      2  C   UNL A   1      32.728  27.480  23.970  1.00  0.00     0.118 C 
BRANCH   2   3
ATOM      3  N   UNL A   1      32.847  26.955  22.618  1.00  0.00    -0.352 N 
ATOM      4  C   UNL A   1      33.162  25.775  22.039  1.00  0.00     0.251 C 
ATOM      5  O   UNL A   1      33.063  25.756  20.807  1.00  0.00    -0.270 OA
ATOM      6  H   UNL A   1      32.644  27.645  21.945  1.00  0.00     0.163 HD
BRANCH   4   7
ATOM      7  C   UNL A   1      33.597  24.544  22.760  1.00  0.00     0.067 C 
ATOM      8  C   UNL A   1      34.202  19.948  25.018  1.00  0.00     0.048 C 
ATOM      9  C   UNL A   1      35.039  21.183  24.831  1.00  0.00    -0.005 A 
ATOM     10  C   UNL A   1      36.324  21.230  25.398  1.00  0.00     0.054 A 
ATOM     11  C   UNL A   1      34.585  22.276  24.085  1.00  0.00     0.131 A 
ATOM     12  C   UNL A   1      37.136  22.354  25.237  1.00  0.00     0.130 A 
ATOM     13  C   UNL A   1      35.383  23.411  23.927  1.00  0.00     0.021 A 
ATOM     14  O   UNL A   1      33.364  22.169  23.480  1.00  0.00    -0.475 OA
ATOM     15  C   UNL A   1      36.654  23.445  24.507  1.00  0.00     0.058 A 
ATOM     16  C   UNL A   1      34.889  24.533  23.139  1.00  0.00     0.025 C 
ATOM     17  C   UNL A   1      32.687  23.415  23.156  1.00  0.00     0.314 C 
BRANCH  12  18
ATOM     18  O   UNL A   1      38.400  22.516  25.730  1.00  0.00    -0.406 OA
BRANCH  18  19
ATOM     19  C   UNL A   1      38.652  23.655  26.533  1.00  0.00     0.573 C 
ATOM     20  F   UNL A   1      39.220  24.646  25.815  1.00  0.00    -0.132 F 
ATOM     21  F   UNL A   1      37.518  24.107  27.111  1.00  0.00    -0.132 F 
ATOM     22  F   UNL A   1      39.509  23.307  27.520  1.00  0.00    -0.132 F 
ENDBRANCH  18  19
ENDBRANCH  12  18
BRANCH  17  23
ATOM     23  C   UNL A   1      31.686  23.774  24.267  1.00  0.00     0.429 C 
ATOM     24  F   UNL A   1      30.642  24.502  23.808  1.00  0.00    -0.167 F 
ATOM     25  F   UNL A   1      31.167  22.641  24.806  1.00  0.00    -0.167 F 
ATOM     26  F   UNL A   1      32.250  24.479  25.272  1.00  0.00    -0.167 F 
ENDBRANCH  17  23
ENDBRANCH   4   7
ENDBRANCH   2   3
ENDBRANCH   1   2
BRANCH   1  27
ATOM     27  C   UNL A   1      34.062  28.421  25.908  1.00  0.00     0.118 C 
BRANCH  27  28
ATOM     28  N   UNL A   1      33.724  29.789  26.282  1.00  0.00    -0.352 N 
ATOM     29  C   UNL A   1      34.250  30.568  27.284  1.00  0.00     0.251 C 
ATOM     30  H   UNL A   1      33.022  30.215  25.740  1.00  0.00     0.163 HD
ATOM     31  O   UNL A   1      33.657  31.579  27.647  1.00  0.00    -0.269 OA
BRANCH  29  32
ATOM     32  C   UNL A   1      35.524  30.179  27.925  1.00  0.00     0.039 A 
ATOM     33  C   UNL A   1      36.727  30.402  27.250  1.00  0.00     0.014 A 
ATOM     34  C   UNL A   1      35.523  29.570  29.183  1.00  0.00     0.014 A 
ATOM     35  C   UNL A   1      37.935  30.063  27.864  1.00  0.00     0.010 A 
ATOM     36  C   UNL A   1      36.728  29.299  29.823  1.00  0.00     0.010 A 
ATOM     37  C   UNL A   1      37.944  29.530  29.164  1.00  0.00    -0.014 A 
BRANCH  37  38
ATOM     38  C   UNL A   1      39.216  29.168  29.835  1.00  0.00     0.031 A 
ATOM     39  C   UNL A   1      39.652  29.921  31.061  1.00  0.00     0.074 A 
ATOM     40  C   UNL A   1      39.993  28.196  29.318  1.00  0.00     0.049 A 
ATOM     41  N   UNL A   1      40.736  29.774  31.778  1.00  0.00    -0.248 NA
ATOM     42  C   UNL A   1      38.763  30.997  31.533  1.00  0.00     0.031 C 
ATOM     43  C   UNL A   1      39.692  27.426  28.110  1.00  0.00     0.029 A 
ATOM     44  N   UNL A   1      41.196  27.691  29.743  1.00  0.00    -0.354 N 
ATOM     45  C   UNL A   1      40.656  30.729  32.784  1.00  0.00     0.074 A 
ATOM     46  C   UNL A   1      39.454  31.497  32.547  1.00  0.00     0.031 C 
ATOM     47  C   UNL A   1      40.669  26.528  27.906  1.00  0.00     0.029 A 
ATOM     48  C   UNL A   1      41.679  26.674  28.951  1.00  0.00     0.049 A 
ATOM     49  H   UNL A   1      41.669  28.023  30.539  1.00  0.00     0.167 HD
ATOM     50  C   UNL A   1      41.491  30.926  33.830  1.00  0.00     0.037 A 
ATOM     51  C   UNL A   1      42.804  25.941  29.061  1.00  0.00     0.037 A 
ATOM     52  C   UNL A   1      42.676  30.146  34.068  1.00  0.00     0.049 A 
ATOM     53  C   UNL A   1      43.732  26.196  30.218  1.00  0.00     0.074 A 
ATOM     54  C   UNL A   1      43.568  30.239  35.121  1.00  0.00     0.029 A 
ATOM     55  N   UNL A   1      43.131  29.129  33.242  1.00  0.00    -0.354 N 
ATOM     56  N   UNL A   1      43.611  27.065  31.194  1.00  0.00    -0.248 NA
ATOM     57  C   UNL A   1      44.946  25.371  30.295  1.00  0.00     0.031 C 
ATOM     58  C   UNL A   1      44.585  29.303  34.911  1.00  0.00     0.029 A 
ATOM     59  C   UNL A   1      44.302  28.597  33.753  1.00  0.00     0.049 A 
ATOM     60  H   UNL A   1      42.688  28.829  32.417  1.00  0.00     0.167 HD
ATOM     61  C   UNL A   1      44.716  26.871  32.015  1.00  0.00     0.074 A 
ATOM     62  C   UNL A   1      45.494  25.801  31.425  1.00  0.00     0.031 C 
ATOM     63  C   UNL A   1      45.055  27.520  33.156  1.00  0.00     0.037 A 
BRANCH  50  64
ATOM     64  C   UNL A   1      41.139  32.011  34.809  1.00  0.00     0.058 A 
ATOM     65  C   UNL A   1      41.660  33.309  34.677  1.00  0.00     0.135 A 
ATOM     66  C   UNL A   1      40.242  31.769  35.861  1.00  0.00     0.135 A 
ATOM     67  F   UNL A   1      42.536  33.589  33.698  1.00  0.00    -0.206 F 
ATOM     68  C   UNL A   1      41.323  34.322  35.567  1.00  0.00     0.059 A 
ATOM     69  C   UNL A   1      39.870  32.774  36.748  1.00  0.00     0.059 A 
ATOM     70  F   UNL A   1      39.718  30.545  36.034  1.00  0.00    -0.206 F 
ATOM     71  C   UNL A   1      40.424  34.045  36.598  1.00  0.00     0.060 A 
BRANCH  71  72
ATOM     72  S   UNL A   1      39.988  35.378  37.735  1.00  0.00     0.124 S 
ATOM     73  O   UNL A   1      39.776  36.490  36.813  1.00  0.00    -0.237 OA
ATOM     74  O   UNL A   1      38.788  34.855  38.382  1.00  0.00    -0.237 OA
ATOM     75  O   UNL A   1      41.162  35.492  38.594  1.00  0.00    -0.744 OA
ENDBRANCH  71  72
ENDBRANCH  50  64
BRANCH  51  76
ATOM     76  C   UNL A   1      43.087  24.866  28.073  1.00  0.00     0.058 A 
ATOM     77  C   UNL A   1      43.731  25.158  26.862  1.00  0.00     0.135 A 
ATOM     78  C   UNL A   1      42.749  23.528  28.329  1.00  0.00     0.135 A 
ATOM     79  F   UNL A   1      44.067  26.424  26.570  1.00  0.00    -0.206 F 
ATOM     80  C   UNL A   1      44.026  24.164  25.935  1.00  0.00     0.059 A 
ATOM     81  C   UNL A   1      43.054  22.513  27.426  1.00  0.00     0.059 A 
ATOM     82  F   UNL A   1      42.145  23.194  29.479  1.00  0.00    -0.206 F 
ATOM     83  C   UNL A   1      43.688  22.842  26.229  1.00  0.00     0.060 A 
BRANCH  83  84
ATOM     84  S   UNL A   1      44.130  21.555  25.041  1.00  0.00     0.124 S 
ATOM     85  O   UNL A   1      44.010  22.268  23.775  1.00  0.00    -0.237 OA
ATOM     86  O   UNL A   1      45.486  21.211  25.455  1.00  0.00    -0.237 OA
ATOM     87  O   UNL A   1      43.129  20.519  25.279  1.00  0.00    -0.744 OA
ENDBRANCH  83  84
ENDBRANCH  51  76
BRANCH  63  88
ATOM     88  C   UNL A   1      46.304  27.087  33.868  1.00  0.00     0.058 A 
ATOM     89  C   UNL A   1      47.536  27.715  33.631  1.00  0.00     0.135 A 
ATOM     90  C   UNL A   1      46.243  26.117  34.882  1.00  0.00     0.135 A 
ATOM     91  F   UNL A   1      47.647  28.644  32.669  1.00  0.00    -0.206 F 
ATOM     92  C   UNL A   1      48.665  27.399  34.380  1.00  0.00     0.059 A 
ATOM     93  C   UNL A   1      47.353  25.802  35.657  1.00  0.00     0.059 A 
ATOM     94  F   UNL A   1      45.084  25.493  35.152  1.00  0.00    -0.206 F 
ATOM     95  C   UNL A   1      48.561  26.450  35.399  1.00  0.00     0.060 A 
BRANCH  95  96
ATOM     96  S   UNL A   1      50.015  26.113  36.415  1.00  0.00     0.124 S 
ATOM     97  O   UNL A   1      50.350  24.754  36.009  1.00  0.00    -0.237 OA
ATOM     98  O   UNL A   1      50.943  27.153  35.980  1.00  0.00    -0.237 OA
ATOM     99  O   UNL A   1      49.517  26.256  37.780  1.00  0.00    -0.744 OA
ENDBRANCH  95  96
ENDBRANCH  63  88
ENDBRANCH  37  38
ENDBRANCH  29  32
ENDBRANCH  27  28
ENDBRANCH   1  27
TORSDOF 16
ENDMDL
MODEL 3
REMARK VINA RESULT:     -11.4      3.313      9.090
REMARK SMILES Cc1cc(OC(F)(F)F)cc2c1O[C@@H](C(F)(F)F)C(C(=O)NCCCNC(=O)c1ccc(-c3c4nc(c(-c5c(F)cc(S(=O)(=O)[O-])cc5F)c5ccc([nH]5)c(-c5c(F)cc(S(=O)(=O)[O-])cc5F)c5nc(c(-c6c(F)cc(S(=O)(=O)[O-])cc6F)c6ccc3[nH]6)C=C5)C=C4)cc1)=C2
REMARK SMILES IDX 24 1 23 2 22 3 20 4 21 5 19 7 1 8 2 9 3 10 12 11 4 12 11 13
REMARK SMILES IDX 13 14 10 15 95 16 14 17 5 18 6 19 7 20 8 21 9 22 15 23 16 24
REMARK SMILES IDX 17 25 18 26 25 27 26 28 27 29 28 31 29 32 30 33 94 34 31 35
REMARK SMILES IDX 93 36 32 37 33 38 34 39 87 40 35 41 92 42 86 43 88 44 36 45
REMARK SMILES IDX 91 46 85 47 84 48 37 50 71 51 50 52 70 53 51 54 54 55 69 56
REMARK SMILES IDX 89 57 52 58 53 59 68 61 90 62 55 63 38 64 39 65 48 66 40 67
REMARK SMILES IDX 41 68 47 69 49 70 42 71 43 72 44 73 45 74 46 75 72 76 73 77
REMARK SMILES IDX 82 78 74 79 75 80 81 81 83 82 76 83 77 84 78 85 79 86 80 87
REMARK SMILES IDX 56 88 57 89 66 90 58 91 59 92 65 93 67 94 60 95 61 96 62 97
REMARK SMILES IDX 63 98 64 99
REMARK H PARENT 22 6 26 30 88 49 54 60
REMARK Flexibility Score: inf
ROOT
ATOM      1  C   UNL A   1      34.817  23.338  26.471  1.00  0.00     0.042 C 
ENDROOT
BRANCH   1   2
ATOM      2  C   UNL A   1      33.865  22.821  25.398  1.00  0.00     0.118 C 
BRANCH   2   3
ATOM      3  N   UNL A   1      32.512  22.667  25.910  1.00  0.00    -0.352 N 
ATOM      4  C   UNL A   1      31.405  23.434  26.029  1.00  0.00     0.251 C 
ATOM      5  O   UNL A   1      30.413  22.850  26.478  1.00  0.00    -0.270 OA
ATOM      6  H   UNL A   1      32.363  21.761  26.267  1.00  0.00     0.163 HD
BRANCH   4   7
ATOM      7  C   UNL A   1      31.307  24.877  25.664  1.00  0.00     0.067 C 
ATOM      8  C   UNL A   1      30.387  29.541  23.667  1.00  0.00     0.048 C 
ATOM      9  C   UNL A   1      31.170  28.993  24.827  1.00  0.00    -0.005 A 
ATOM     10  C   UNL A   1      31.908  29.878  25.631  1.00  0.00     0.054 A 
ATOM     11  C   UNL A   1      31.162  27.630  25.146  1.00  0.00     0.131 A 
ATOM     12  C   UNL A   1      32.639  29.410  26.725  1.00  0.00     0.130 A 
ATOM     13  C   UNL A   1      31.898  27.149  26.230  1.00  0.00     0.021 A 
ATOM     14  O   UNL A   1      30.372  26.807  24.395  1.00  0.00    -0.475 OA
ATOM     15  C   UNL A   1      32.636  28.042  27.013  1.00  0.00     0.058 A 
ATOM     16  C   UNL A   1      31.867  25.726  26.545  1.00  0.00     0.025 C 
ATOM     17  C   UNL A   1      30.732  25.398  24.376  1.00  0.00     0.314 C 
BRANCH  12  18
ATOM     18  O   UNL A   1      33.385  30.167  27.583  1.00  0.00    -0.406 OA
BRANCH  18  19
ATOM     19  C   UNL A   1      34.796  30.068  27.492  1.00  0.00     0.573 C 
ATOM     20  F   UNL A   1      35.169  29.381  26.392  1.00  0.00    -0.132 F 
ATOM     21  F   UNL A   1      35.372  31.289  27.482  1.00  0.00    -0.132 F 
ATOM     22  F   UNL A   1      35.253  29.403  28.577  1.00  0.00    -0.132 F 
ENDBRANCH  18  19
ENDBRANCH  12  18
BRANCH  17  23
ATOM     23  C   UNL A   1      31.586  25.089  23.136  1.00  0.00     0.429 C 
ATOM     24  F   UNL A   1      31.257  25.860  22.074  1.00  0.00    -0.167 F 
ATOM     25  F   UNL A   1      32.895  25.329  23.404  1.00  0.00    -0.167 F 
ATOM     26  F   UNL A   1      31.484  23.802  22.738  1.00  0.00    -0.167 F 
ENDBRANCH  17  23
ENDBRANCH   4   7
ENDBRANCH   2   3
ENDBRANCH   1   2
BRANCH   1  27
ATOM     27  C   UNL A   1      36.179  23.724  25.900  1.00  0.00     0.118 C 
BRANCH  27  28
ATOM     28  N   UNL A   1      37.135  22.632  26.026  1.00  0.00    -0.352 N 
ATOM     29  C   UNL A   1      38.492  22.688  26.243  1.00  0.00     0.251 C 
ATOM     30  H   UNL A   1      36.758  21.726  25.946  1.00  0.00     0.163 HD
ATOM     31  O   UNL A   1      39.185  21.699  26.032  1.00  0.00    -0.269 OA
BRANCH  29  32
ATOM     32  C   UNL A   1      39.107  23.944  26.721  1.00  0.00     0.039 A 
ATOM     33  C   UNL A   1      39.012  24.283  28.073  1.00  0.00     0.014 A 
ATOM     34  C   UNL A   1      39.756  24.798  25.824  1.00  0.00     0.014 A 
ATOM     35  C   UNL A   1      39.617  25.454  28.534  1.00  0.00     0.010 A 
ATOM     36  C   UNL A   1      40.419  25.926  26.296  1.00  0.00     0.010 A 
ATOM     37  C   UNL A   1      40.344  26.271  27.653  1.00  0.00    -0.014 A 
BRANCH  37  38
ATOM     38  C   UNL A   1      40.998  27.516  28.124  1.00  0.00     0.031 A 
ATOM     39  C   UNL A   1      42.493  27.650  28.038  1.00  0.00     0.074 A 
ATOM     40  C   UNL A   1      40.254  28.501  28.663  1.00  0.00     0.049 A 
ATOM     41  N   UNL A   1      43.255  28.644  28.415  1.00  0.00    -0.248 NA
ATOM     42  C   UNL A   1      43.232  26.508  27.474  1.00  0.00     0.031 C 
ATOM     43  C   UNL A   1      38.800  28.464  28.836  1.00  0.00     0.029 A 
ATOM     44  N   UNL A   1      40.617  29.724  29.168  1.00  0.00    -0.354 N 
ATOM     45  C   UNL A   1      44.557  28.251  28.130  1.00  0.00     0.074 A 
ATOM     46  C   UNL A   1      44.490  26.903  27.612  1.00  0.00     0.031 C 
ATOM     47  C   UNL A   1      38.393  29.622  29.381  1.00  0.00     0.029 A 
ATOM     48  C   UNL A   1      39.555  30.472  29.622  1.00  0.00     0.049 A 
ATOM     49  H   UNL A   1      41.549  30.037  29.203  1.00  0.00     0.167 HD
ATOM     50  C   UNL A   1      45.701  28.963  28.255  1.00  0.00     0.037 A 
ATOM     51  C   UNL A   1      39.524  31.706  30.163  1.00  0.00     0.037 A 
ATOM     52  C   UNL A   1      45.756  30.310  28.754  1.00  0.00     0.049 A 
ATOM     53  C   UNL A   1      40.813  32.469  30.318  1.00  0.00     0.074 A 
ATOM     54  C   UNL A   1      46.860  31.133  28.883  1.00  0.00     0.029 A 
ATOM     55  N   UNL A   1      44.660  31.032  29.205  1.00  0.00    -0.354 N 
ATOM     56  N   UNL A   1      42.029  32.105  29.987  1.00  0.00    -0.248 NA
ATOM     57  C   UNL A   1      40.728  33.810  30.913  1.00  0.00     0.031 C 
ATOM     58  C   UNL A   1      46.437  32.340  29.448  1.00  0.00     0.029 A 
ATOM     59  C   UNL A   1      45.064  32.285  29.629  1.00  0.00     0.049 A 
ATOM     60  H   UNL A   1      43.733  30.702  29.220  1.00  0.00     0.167 HD
ATOM     61  C   UNL A   1      42.849  33.181  30.306  1.00  0.00     0.074 A 
ATOM     62  C   UNL A   1      41.991  34.212  30.854  1.00  0.00     0.031 C 
ATOM     63  C   UNL A   1      44.191  33.304  30.158  1.00  0.00     0.037 A 
BRANCH  50  64
ATOM     64  C   UNL A   1      46.981  28.306  27.822  1.00  0.00     0.058 A 
ATOM     65  C   UNL A   1      47.727  27.509  28.706  1.00  0.00     0.135 A 
ATOM     66  C   UNL A   1      47.448  28.436  26.504  1.00  0.00     0.135 A 
ATOM     67  F   UNL A   1      47.334  27.367  29.982  1.00  0.00    -0.206 F 
ATOM     68  C   UNL A   1      48.901  26.882  28.306  1.00  0.00     0.059 A 
ATOM     69  C   UNL A   1      48.607  27.797  26.075  1.00  0.00     0.059 A 
ATOM     70  F   UNL A   1      46.775  29.189  25.620  1.00  0.00    -0.206 F 
ATOM     71  C   UNL A   1      49.332  27.030  26.986  1.00  0.00     0.060 A 
BRANCH  71  72
ATOM     72  S   UNL A   1      50.853  26.198  26.483  1.00  0.00     0.124 S 
ATOM     73  O   UNL A   1      50.733  24.923  27.186  1.00  0.00    -0.237 OA
ATOM     74  O   UNL A   1      50.707  26.135  25.032  1.00  0.00    -0.237 OA
ATOM     75  O   UNL A   1      51.905  27.084  26.968  1.00  0.00    -0.744 OA
ENDBRANCH  71  72
ENDBRANCH  50  64
BRANCH  51  76
ATOM     76  C   UNL A   1      38.223  32.312  30.552  1.00  0.00     0.058 A 
ATOM     77  C   UNL A   1      37.699  32.119  31.838  1.00  0.00     0.135 A 
ATOM     78  C   UNL A   1      37.493  33.116  29.662  1.00  0.00     0.135 A 
ATOM     79  F   UNL A   1      38.357  31.351  32.721  1.00  0.00    -0.206 F 
ATOM     80  C   UNL A   1      36.496  32.695  32.230  1.00  0.00     0.059 A 
ATOM     81  C   UNL A   1      36.298  33.722  30.038  1.00  0.00     0.059 A 
ATOM     82  F   UNL A   1      37.959  33.343  28.425  1.00  0.00    -0.206 F 
ATOM     83  C   UNL A   1      35.805  33.501  31.323  1.00  0.00     0.060 A 
BRANCH  83  84
ATOM     84  S   UNL A   1      34.273  34.290  31.866  1.00  0.00     0.124 S 
ATOM     85  O   UNL A   1      33.561  34.453  30.604  1.00  0.00    -0.237 OA
ATOM     86  O   UNL A   1      33.727  33.296  32.784  1.00  0.00    -0.237 OA
ATOM     87  O   UNL A   1      34.734  35.524  32.494  1.00  0.00    -0.744 OA
ENDBRANCH  83  84
ENDBRANCH  51  76
BRANCH  63  88
ATOM     88  C   UNL A   1      44.827  34.602  30.566  1.00  0.00     0.058 A 
ATOM     89  C   UNL A   1      45.375  34.778  31.844  1.00  0.00     0.135 A 
ATOM     90  C   UNL A   1      44.996  35.634  29.628  1.00  0.00     0.135 A 
ATOM     91  F   UNL A   1      45.235  33.824  32.777  1.00  0.00    -0.206 F 
ATOM     92  C   UNL A   1      46.075  35.934  32.179  1.00  0.00     0.059 A 
ATOM     93  C   UNL A   1      45.711  36.787  29.933  1.00  0.00     0.059 A 
ATOM     94  F   UNL A   1      44.497  35.509  28.387  1.00  0.00    -0.206 F 
ATOM     95  C   UNL A   1      46.248  36.927  31.213  1.00  0.00     0.060 A 
BRANCH  95  96
ATOM     96  S   UNL A   1      47.229  38.381  31.638  1.00  0.00     0.124 S 
ATOM     97  O   UNL A   1      47.315  39.066  30.353  1.00  0.00    -0.237 OA
ATOM     98  O   UNL A   1      46.399  39.031  32.648  1.00  0.00    -0.237 OA
ATOM     99  O   UNL A   1      48.481  37.815  32.133  1.00  0.00    -0.744 OA
ENDBRANCH  95  96
ENDBRANCH  63  88
ENDBRANCH  37  38
ENDBRANCH  29  32
ENDBRANCH  27  28
ENDBRANCH   1  27
TORSDOF 16
ENDMDL
