MODEL 1
REMARK VINA RESULT:     -12.3      0.000      0.000
REMARK SMILES COc1ccccc1-c1ccc(O)c(C(=O)NCCCNC(=O)c2ccc(-c3c4nc(c(-c5c(F)cc(S(=O)(=O)[O-])cc5F)c5ccc([nH]5)c(-c5c(F)cc(S(=O)(=O)[O-])cc5F)c5nc(c(-c6c(F)cc(S(=O)(=O)[O-])cc6F)c6ccc3[nH]6)C=C5)C=C4)cc2)c1
REMARK SMILES IDX 19 1 18 2 17 3 15 4 16 5 14 7 9 8 10 9 90 10 11 11 12 12
REMARK SMILES IDX 8 13 3 14 4 15 5 16 7 17 6 18 2 19 1 20 13 21 20 23 21 24
REMARK SMILES IDX 22 25 23 27 24 28 25 29 89 30 26 31 88 32 27 33 28 34 29 35
REMARK SMILES IDX 82 36 30 37 87 38 81 39 83 40 31 41 86 42 80 43 79 44 32 46
REMARK SMILES IDX 66 47 45 48 65 49 46 50 49 51 64 52 84 53 47 54 48 55 63 57
REMARK SMILES IDX 85 58 50 59 33 60 34 61 43 62 35 63 36 64 42 65 44 66 37 67
REMARK SMILES IDX 38 68 39 69 40 70 41 71 67 72 68 73 77 74 69 75 70 76 76 77
REMARK SMILES IDX 78 78 71 79 72 80 73 81 74 82 75 83 51 84 52 85 61 86 53 87
REMARK SMILES IDX 54 88 60 89 62 90 55 91 56 92 57 93 58 94 59 95
REMARK H PARENT 17 6 13 22 21 26 83 45 49 56
REMARK Flexibility Score: inf
ROOT
ATOM      1  C   UNL A   1      40.202  21.688  26.783  1.00  0.00     0.042 C 
ENDROOT
BRANCH   1   2
ATOM      2  C   UNL A   1      41.141  20.769  27.566  1.00  0.00     0.118 C 
BRANCH   2   3
ATOM      3  N   UNL A   1      41.399  19.527  26.853  1.00  0.00    -0.352 N 
ATOM      4  C   UNL A   1      42.443  19.100  26.074  1.00  0.00     0.255 C 
ATOM      5  O   UNL A   1      42.431  17.923  25.699  1.00  0.00    -0.269 OA
ATOM      6  H   UNL A   1      40.680  18.861  26.949  1.00  0.00     0.163 HD
BRANCH   4   7
ATOM      7  C   UNL A   1      43.620  19.934  25.705  1.00  0.00     0.082 A 
ATOM      8  C   UNL A   1      44.817  22.072  25.626  1.00  0.00    -0.014 A 
ATOM      9  C   UNL A   1      45.946  21.419  25.119  1.00  0.00     0.013 A 
ATOM     10  C   UNL A   1      43.648  21.322  25.845  1.00  0.00     0.026 A 
ATOM     11  C   UNL A   1      45.916  20.044  24.885  1.00  0.00     0.047 A 
ATOM     12  C   UNL A   1      44.768  19.310  25.189  1.00  0.00     0.128 A 
BRANCH   8  13
ATOM     13  C   UNL A   1      44.842  23.493  26.005  1.00  0.00     0.024 A 
ATOM     14  C   UNL A   1      44.841  23.908  27.356  1.00  0.00     0.126 A 
ATOM     15  C   UNL A   1      44.751  25.261  27.695  1.00  0.00     0.047 A 
ATOM     16  C   UNL A   1      44.699  26.228  26.694  1.00  0.00     0.004 A 
ATOM     17  C   UNL A   1      44.799  24.488  25.014  1.00  0.00     0.012 A 
ATOM     18  C   UNL A   1      44.727  25.842  25.356  1.00  0.00     0.001 A 
BRANCH  14  19
ATOM     19  O   UNL A   1      44.824  23.030  28.413  1.00  0.00    -0.496 OA
ATOM     20  C   UNL A   1      43.599  23.087  29.145  1.00  0.00     0.278 C 
ENDBRANCH  14  19
ENDBRANCH   8  13
BRANCH  12  21
ATOM     21  O   UNL A   1      44.849  17.960  24.955  1.00  0.00    -0.507 OA
ATOM     22  H   UNL A   1      45.515  17.621  24.389  1.00  0.00     0.293 HD
ENDBRANCH  12  21
ENDBRANCH   4   7
ENDBRANCH   2   3
ENDBRANCH   1   2
BRANCH   1  23
ATOM     23  C   UNL A   1      40.288  23.156  27.198  1.00  0.00     0.118 C 
BRANCH  23  24
ATOM     24  N   UNL A   1      40.914  23.976  26.172  1.00  0.00    -0.352 N 
ATOM     25  C   UNL A   1      41.104  25.332  26.103  1.00  0.00     0.251 C 
ATOM     26  H   UNL A   1      41.261  23.474  25.399  1.00  0.00     0.163 HD
ATOM     27  O   UNL A   1      41.462  25.820  25.033  1.00  0.00    -0.269 OA
BRANCH  25  28
ATOM     28  C   UNL A   1      40.885  26.211  27.276  1.00  0.00     0.039 A 
ATOM     29  C   UNL A   1      41.663  27.367  27.389  1.00  0.00     0.014 A 
ATOM     30  C   UNL A   1      39.991  25.877  28.299  1.00  0.00     0.014 A 
ATOM     31  C   UNL A   1      41.527  28.198  28.504  1.00  0.00     0.010 A 
ATOM     32  C   UNL A   1      39.805  26.742  29.379  1.00  0.00     0.010 A 
ATOM     33  C   UNL A   1      40.582  27.904  29.500  1.00  0.00    -0.014 A 
BRANCH  33  34
ATOM     34  C   UNL A   1      40.404  28.816  30.659  1.00  0.00     0.031 A 
ATOM     35  C   UNL A   1      41.248  28.667  31.897  1.00  0.00     0.074 A 
ATOM     36  C   UNL A   1      39.448  29.764  30.608  1.00  0.00     0.049 A 
ATOM     37  N   UNL A   1      41.252  29.394  32.985  1.00  0.00    -0.248 NA
ATOM     38  C   UNL A   1      42.191  27.539  31.928  1.00  0.00     0.031 C 
ATOM     39  C   UNL A   1      38.514  29.958  29.497  1.00  0.00     0.029 A 
ATOM     40  N   UNL A   1      39.101  30.739  31.509  1.00  0.00    -0.354 N 
ATOM     41  C   UNL A   1      42.180  28.804  33.835  1.00  0.00     0.074 A 
ATOM     42  C   UNL A   1      42.684  27.632  33.154  1.00  0.00     0.031 C 
ATOM     43  C   UNL A   1      37.719  31.004  29.770  1.00  0.00     0.029 A 
ATOM     44  C   UNL A   1      38.072  31.542  31.080  1.00  0.00     0.049 A 
ATOM     45  H   UNL A   1      39.547  30.852  32.379  1.00  0.00     0.167 HD
ATOM     46  C   UNL A   1      42.588  29.212  35.063  1.00  0.00     0.037 A 
ATOM     47  C   UNL A   1      37.484  32.601  31.668  1.00  0.00     0.037 A 
ATOM     48  C   UNL A   1      42.098  30.395  35.722  1.00  0.00     0.049 A 
ATOM     49  C   UNL A   1      37.999  33.081  32.995  1.00  0.00     0.074 A 
ATOM     50  C   UNL A   1      42.502  30.940  36.930  1.00  0.00     0.029 A 
ATOM     51  N   UNL A   1      41.091  31.216  35.233  1.00  0.00    -0.354 N 
ATOM     52  N   UNL A   1      38.943  32.565  33.746  1.00  0.00    -0.248 NA
ATOM     53  C   UNL A   1      37.387  34.298  33.545  1.00  0.00     0.031 C 
ATOM     54  C   UNL A   1      41.714  32.069  37.187  1.00  0.00     0.029 A 
ATOM     55  C   UNL A   1      40.849  32.253  36.119  1.00  0.00     0.049 A 
ATOM     56  H   UNL A   1      40.619  31.081  34.380  1.00  0.00     0.167 HD
ATOM     57  C   UNL A   1      39.052  33.404  34.849  1.00  0.00     0.074 A 
ATOM     58  C   UNL A   1      38.088  34.469  34.658  1.00  0.00     0.031 C 
ATOM     59  C   UNL A   1      39.880  33.302  35.920  1.00  0.00     0.037 A 
BRANCH  46  60
ATOM     60  C   UNL A   1      43.613  28.364  35.768  1.00  0.00     0.058 A 
ATOM     61  C   UNL A   1      44.991  28.564  35.585  1.00  0.00     0.135 A 
ATOM     62  C   UNL A   1      43.213  27.340  36.641  1.00  0.00     0.135 A 
ATOM     63  F   UNL A   1      45.430  29.523  34.754  1.00  0.00    -0.206 F 
ATOM     64  C   UNL A   1      45.935  27.748  36.202  1.00  0.00     0.059 A 
ATOM     65  C   UNL A   1      44.140  26.529  37.291  1.00  0.00     0.059 A 
ATOM     66  F   UNL A   1      41.910  27.107  36.860  1.00  0.00    -0.206 F 
ATOM     67  C   UNL A   1      45.498  26.727  37.047  1.00  0.00     0.060 A 
BRANCH  67  68
ATOM     68  S   UNL A   1      46.731  25.655  37.818  1.00  0.00     0.124 S 
ATOM     69  O   UNL A   1      47.941  26.046  37.101  1.00  0.00    -0.237 OA
ATOM     70  O   UNL A   1      46.667  26.057  39.218  1.00  0.00    -0.237 OA
ATOM     71  O   UNL A   1      46.238  24.311  37.531  1.00  0.00    -0.744 OA
ENDBRANCH  67  68
ENDBRANCH  46  60
BRANCH  47  72
ATOM     72  C   UNL A   1      36.380  33.303  30.964  1.00  0.00     0.058 A 
ATOM     73  C   UNL A   1      35.060  33.220  31.430  1.00  0.00     0.135 A 
ATOM     74  C   UNL A   1      36.637  34.129  29.860  1.00  0.00     0.135 A 
ATOM     75  F   UNL A   1      34.767  32.440  32.481  1.00  0.00    -0.206 F 
ATOM     76  C   UNL A   1      34.031  33.938  30.828  1.00  0.00     0.059 A 
ATOM     77  C   UNL A   1      35.628  34.872  29.255  1.00  0.00     0.059 A 
ATOM     78  F   UNL A   1      37.887  34.255  29.389  1.00  0.00    -0.206 F 
ATOM     79  C   UNL A   1      34.327  34.770  29.747  1.00  0.00     0.060 A 
BRANCH  79  80
ATOM     80  S   UNL A   1      33.003  35.775  29.038  1.00  0.00     0.124 S 
ATOM     81  O   UNL A   1      32.354  34.821  28.146  1.00  0.00    -0.237 OA
ATOM     82  O   UNL A   1      32.243  36.161  30.223  1.00  0.00    -0.237 OA
ATOM     83  O   UNL A   1      33.724  36.863  28.385  1.00  0.00    -0.744 OA
ENDBRANCH  79  80
ENDBRANCH  47  72
BRANCH  59  84
ATOM     84  C   UNL A   1      39.791  34.385  36.959  1.00  0.00     0.058 A 
ATOM     85  C   UNL A   1      40.477  35.601  36.818  1.00  0.00     0.135 A 
ATOM     86  C   UNL A   1      38.988  34.213  38.099  1.00  0.00     0.135 A 
ATOM     87  F   UNL A   1      41.261  35.814  35.750  1.00  0.00    -0.206 F 
ATOM     88  C   UNL A   1      40.397  36.597  37.787  1.00  0.00     0.059 A 
ATOM     89  C   UNL A   1      38.873  35.205  39.067  1.00  0.00     0.059 A 
ATOM     90  F   UNL A   1      38.302  33.074  38.276  1.00  0.00    -0.206 F 
ATOM     91  C   UNL A   1      39.595  36.388  38.910  1.00  0.00     0.060 A 
BRANCH  91  92
ATOM     92  S   UNL A   1      39.491  37.688  40.158  1.00  0.00     0.124 S 
ATOM     93  O   UNL A   1      38.456  38.550  39.595  1.00  0.00    -0.237 OA
ATOM     94  O   UNL A   1      39.115  36.947  41.357  1.00  0.00    -0.237 OA
ATOM     95  O   UNL A   1      40.837  38.251  40.174  1.00  0.00    -0.744 OA
ENDBRANCH  91  92
ENDBRANCH  59  84
ENDBRANCH  33  34
ENDBRANCH  25  28
ENDBRANCH  23  24
ENDBRANCH   1  23
TORSDOF 16
ENDMDL
MODEL 2
REMARK VINA RESULT:     -12.2      3.104      5.092
REMARK SMILES COc1ccccc1-c1ccc(O)c(C(=O)NCCCNC(=O)c2ccc(-c3c4nc(c(-c5c(F)cc(S(=O)(=O)[O-])cc5F)c5ccc([nH]5)c(-c5c(F)cc(S(=O)(=O)[O-])cc5F)c5nc(c(-c6c(F)cc(S(=O)(=O)[O-])cc6F)c6ccc3[nH]6)C=C5)C=C4)cc2)c1
REMARK SMILES IDX 19 1 18 2 17 3 15 4 16 5 14 7 9 8 10 9 90 10 11 11 12 12
REMARK SMILES IDX 8 13 3 14 4 15 5 16 7 17 6 18 2 19 1 20 13 21 20 23 21 24
REMARK SMILES IDX 22 25 23 27 24 28 25 29 89 30 26 31 88 32 27 33 28 34 29 35
REMARK SMILES IDX 82 36 30 37 87 38 81 39 83 40 31 41 86 42 80 43 79 44 32 46
REMARK SMILES IDX 66 47 45 48 65 49 46 50 49 51 64 52 84 53 47 54 48 55 63 57
REMARK SMILES IDX 85 58 50 59 33 60 34 61 43 62 35 63 36 64 42 65 44 66 37 67
REMARK SMILES IDX 38 68 39 69 40 70 41 71 67 72 68 73 77 74 69 75 70 76 76 77
REMARK SMILES IDX 78 78 71 79 72 80 73 81 74 82 75 83 51 84 52 85 61 86 53 87
REMARK SMILES IDX 54 88 60 89 62 90 55 91 56 92 57 93 58 94 59 95
REMARK H PARENT 17 6 13 22 21 26 83 45 49 56
REMARK Flexibility Score: inf
ROOT
ATOM      1  C   UNL A   1      39.886  22.243  26.819  1.00  0.00     0.042 C 
ENDROOT
BRANCH   1   2
ATOM      2  C   UNL A   1      38.656  23.073  26.450  1.00  0.00     0.118 C 
BRANCH   2   3
ATOM      3  N   UNL A   1      38.169  22.752  25.116  1.00  0.00    -0.352 N 
ATOM      4  C   UNL A   1      36.941  22.874  24.518  1.00  0.00     0.255 C 
ATOM      5  O   UNL A   1      36.866  22.625  23.311  1.00  0.00    -0.269 OA
ATOM      6  H   UNL A   1      38.858  22.369  24.526  1.00  0.00     0.163 HD
BRANCH   4   7
ATOM      7  C   UNL A   1      35.708  23.350  25.206  1.00  0.00     0.082 A 
ATOM      8  C   UNL A   1      33.983  25.039  25.630  1.00  0.00    -0.014 A 
ATOM      9  C   UNL A   1      33.284  24.124  26.425  1.00  0.00     0.013 A 
ATOM     10  C   UNL A   1      35.222  24.653  25.089  1.00  0.00     0.026 A 
ATOM     11  C   UNL A   1      33.794  22.841  26.631  1.00  0.00     0.047 A 
ATOM     12  C   UNL A   1      34.986  22.457  26.016  1.00  0.00     0.128 A 
BRANCH   8  13
ATOM     13  C   UNL A   1      33.426  26.356  25.284  1.00  0.00     0.024 A 
ATOM     14  C   UNL A   1      32.586  26.542  24.163  1.00  0.00     0.126 A 
ATOM     15  C   UNL A   1      32.158  27.818  23.786  1.00  0.00     0.047 A 
ATOM     16  C   UNL A   1      32.528  28.928  24.542  1.00  0.00     0.004 A 
ATOM     17  C   UNL A   1      33.776  27.489  26.036  1.00  0.00     0.012 A 
ATOM     18  C   UNL A   1      33.332  28.763  25.667  1.00  0.00     0.001 A 
BRANCH  14  19
ATOM     19  O   UNL A   1      32.219  25.521  23.318  1.00  0.00    -0.496 OA
ATOM     20  C   UNL A   1      33.000  25.501  22.123  1.00  0.00     0.278 C 
ENDBRANCH  14  19
ENDBRANCH   8  13
BRANCH  12  21
ATOM     21  O   UNL A   1      35.387  21.166  26.252  1.00  0.00    -0.507 OA
ATOM     22  H   UNL A   1      36.178  21.000  26.727  1.00  0.00     0.293 HD
ENDBRANCH  12  21
ENDBRANCH   4   7
ENDBRANCH   2   3
ENDBRANCH   1   2
BRANCH   1  23
ATOM     23  C   UNL A   1      41.088  23.082  27.252  1.00  0.00     0.118 C 
BRANCH  23  24
ATOM     24  N   UNL A   1      41.558  23.951  26.185  1.00  0.00    -0.352 N 
ATOM     25  C   UNL A   1      41.575  25.319  26.087  1.00  0.00     0.251 C 
ATOM     26  H   UNL A   1      41.926  23.480  25.403  1.00  0.00     0.163 HD
ATOM     27  O   UNL A   1      41.819  25.825  24.994  1.00  0.00    -0.269 OA
BRANCH  25  28
ATOM     28  C   UNL A   1      41.307  26.187  27.257  1.00  0.00     0.039 A 
ATOM     29  C   UNL A   1      42.193  27.237  27.516  1.00  0.00     0.014 A 
ATOM     30  C   UNL A   1      40.253  25.937  28.142  1.00  0.00     0.014 A 
ATOM     31  C   UNL A   1      42.008  28.050  28.637  1.00  0.00     0.010 A 
ATOM     32  C   UNL A   1      40.028  26.792  29.224  1.00  0.00     0.010 A 
ATOM     33  C   UNL A   1      40.911  27.848  29.491  1.00  0.00    -0.014 A 
BRANCH  33  34
ATOM     34  C   UNL A   1      40.689  28.745  30.654  1.00  0.00     0.031 A 
ATOM     35  C   UNL A   1      41.517  28.610  31.904  1.00  0.00     0.074 A 
ATOM     36  C   UNL A   1      39.708  29.666  30.595  1.00  0.00     0.049 A 
ATOM     37  N   UNL A   1      41.483  29.328  32.998  1.00  0.00    -0.248 NA
ATOM     38  C   UNL A   1      42.491  27.509  31.942  1.00  0.00     0.031 C 
ATOM     39  C   UNL A   1      38.787  29.843  29.470  1.00  0.00     0.029 A 
ATOM     40  N   UNL A   1      39.319  30.623  31.497  1.00  0.00    -0.354 N 
ATOM     41  C   UNL A   1      42.413  28.758  33.858  1.00  0.00     0.074 A 
ATOM     42  C   UNL A   1      42.962  27.605  33.177  1.00  0.00     0.031 C 
ATOM     43  C   UNL A   1      37.958  30.863  29.738  1.00  0.00     0.029 A 
ATOM     44  C   UNL A   1      38.274  31.401  31.057  1.00  0.00     0.049 A 
ATOM     45  H   UNL A   1      39.748  30.742  32.375  1.00  0.00     0.167 HD
ATOM     46  C   UNL A   1      42.789  29.167  35.095  1.00  0.00     0.037 A 
ATOM     47  C   UNL A   1      37.648  32.438  31.644  1.00  0.00     0.037 A 
ATOM     48  C   UNL A   1      42.256  30.330  35.756  1.00  0.00     0.049 A 
ATOM     49  C   UNL A   1      38.128  32.922  32.983  1.00  0.00     0.074 A 
ATOM     50  C   UNL A   1      42.624  30.876  36.974  1.00  0.00     0.029 A 
ATOM     51  N   UNL A   1      41.235  31.126  35.256  1.00  0.00    -0.354 N 
ATOM     52  N   UNL A   1      39.073  32.427  33.745  1.00  0.00    -0.248 NA
ATOM     53  C   UNL A   1      37.472  34.116  33.532  1.00  0.00     0.031 C 
ATOM     54  C   UNL A   1      41.801  31.981  37.227  1.00  0.00     0.029 A 
ATOM     55  C   UNL A   1      40.948  32.149  36.147  1.00  0.00     0.049 A 
ATOM     56  H   UNL A   1      40.780  30.985  34.395  1.00  0.00     0.167 HD
ATOM     57  C   UNL A   1      39.141  33.260  34.856  1.00  0.00     0.074 A 
ATOM     58  C   UNL A   1      38.150  34.298  34.657  1.00  0.00     0.031 C 
ATOM     59  C   UNL A   1      39.953  33.172  35.939  1.00  0.00     0.037 A 
BRANCH  46  60
ATOM     60  C   UNL A   1      43.827  28.342  35.811  1.00  0.00     0.058 A 
ATOM     61  C   UNL A   1      43.470  27.300  36.683  1.00  0.00     0.135 A 
ATOM     62  C   UNL A   1      45.194  28.595  35.621  1.00  0.00     0.135 A 
ATOM     63  F   UNL A   1      42.177  27.021  36.910  1.00  0.00    -0.206 F 
ATOM     64  C   UNL A   1      44.430  26.570  37.378  1.00  0.00     0.059 A 
ATOM     65  C   UNL A   1      46.173  27.859  36.285  1.00  0.00     0.059 A 
ATOM     66  F   UNL A   1      45.594  29.574  34.795  1.00  0.00    -0.206 F 
ATOM     67  C   UNL A   1      45.780  26.864  37.179  1.00  0.00     0.060 A 
BRANCH  67  68
ATOM     68  S   UNL A   1      47.015  25.932  38.110  1.00  0.00     0.124 S 
ATOM     69  O   UNL A   1      46.330  24.657  38.303  1.00  0.00    -0.237 OA
ATOM     70  O   UNL A   1      48.149  25.908  37.194  1.00  0.00    -0.237 OA
ATOM     71  O   UNL A   1      47.204  26.731  39.318  1.00  0.00    -0.744 OA
ENDBRANCH  67  68
ENDBRANCH  46  60
BRANCH  47  72
ATOM     72  C   UNL A   1      36.536  33.114  30.927  1.00  0.00     0.058 A 
ATOM     73  C   UNL A   1      35.215  33.017  31.389  1.00  0.00     0.135 A 
ATOM     74  C   UNL A   1      36.784  33.931  29.814  1.00  0.00     0.135 A 
ATOM     75  F   UNL A   1      34.930  32.245  32.449  1.00  0.00    -0.206 F 
ATOM     76  C   UNL A   1      34.178  33.711  30.775  1.00  0.00     0.059 A 
ATOM     77  C   UNL A   1      35.766  34.651  29.196  1.00  0.00     0.059 A 
ATOM     78  F   UNL A   1      38.034  34.070  29.347  1.00  0.00    -0.206 F 
ATOM     79  C   UNL A   1      34.465  34.534  29.684  1.00  0.00     0.060 A 
BRANCH  79  80
ATOM     80  S   UNL A   1      33.129  35.510  28.959  1.00  0.00     0.124 S 
ATOM     81  O   UNL A   1      32.493  34.533  28.083  1.00  0.00    -0.237 OA
ATOM     82  O   UNL A   1      32.363  35.906  30.136  1.00  0.00    -0.237 OA
ATOM     83  O   UNL A   1      33.835  36.596  28.287  1.00  0.00    -0.744 OA
ENDBRANCH  79  80
ENDBRANCH  47  72
BRANCH  59  84
ATOM     84  C   UNL A   1      39.817  34.244  36.985  1.00  0.00     0.058 A 
ATOM     85  C   UNL A   1      40.429  35.498  36.840  1.00  0.00     0.135 A 
ATOM     86  C   UNL A   1      39.043  34.020  38.136  1.00  0.00     0.135 A 
ATOM     87  F   UNL A   1      41.184  35.761  35.762  1.00  0.00    -0.206 F 
ATOM     88  C   UNL A   1      40.306  36.484  37.815  1.00  0.00     0.059 A 
ATOM     89  C   UNL A   1      38.885  35.000  39.110  1.00  0.00     0.059 A 
ATOM     90  F   UNL A   1      38.427  32.842  38.317  1.00  0.00    -0.206 F 
ATOM     91  C   UNL A   1      39.534  36.223  38.949  1.00  0.00     0.060 A 
BRANCH  91  92
ATOM     92  S   UNL A   1      39.373  37.510  40.204  1.00  0.00     0.124 S 
ATOM     93  O   UNL A   1      38.454  38.439  39.555  1.00  0.00    -0.237 OA
ATOM     94  O   UNL A   1      38.831  36.775  41.343  1.00  0.00    -0.237 OA
ATOM     95  O   UNL A   1      40.740  37.993  40.372  1.00  0.00    -0.744 OA
ENDBRANCH  91  92
ENDBRANCH  59  84
ENDBRANCH  33  34
ENDBRANCH  25  28
ENDBRANCH  23  24
ENDBRANCH   1  23
TORSDOF 16
ENDMDL
MODEL 3
REMARK VINA RESULT:     -12.0      6.623     13.432
REMARK SMILES COc1ccccc1-c1ccc(O)c(C(=O)NCCCNC(=O)c2ccc(-c3c4nc(c(-c5c(F)cc(S(=O)(=O)[O-])cc5F)c5ccc([nH]5)c(-c5c(F)cc(S(=O)(=O)[O-])cc5F)c5nc(c(-c6c(F)cc(S(=O)(=O)[O-])cc6F)c6ccc3[nH]6)C=C5)C=C4)cc2)c1
REMARK SMILES IDX 19 1 18 2 17 3 15 4 16 5 14 7 9 8 10 9 90 10 11 11 12 12
REMARK SMILES IDX 8 13 3 14 4 15 5 16 7 17 6 18 2 19 1 20 13 21 20 23 21 24
REMARK SMILES IDX 22 25 23 27 24 28 25 29 89 30 26 31 88 32 27 33 28 34 29 35
REMARK SMILES IDX 82 36 30 37 87 38 81 39 83 40 31 41 86 42 80 43 79 44 32 46
REMARK SMILES IDX 66 47 45 48 65 49 46 50 49 51 64 52 84 53 47 54 48 55 63 57
REMARK SMILES IDX 85 58 50 59 33 60 34 61 43 62 35 63 36 64 42 65 44 66 37 67
REMARK SMILES IDX 38 68 39 69 40 70 41 71 67 72 68 73 77 74 69 75 70 76 76 77
REMARK SMILES IDX 78 78 71 79 72 80 73 81 74 82 75 83 51 84 52 85 61 86 53 87
REMARK SMILES IDX 54 88 60 89 62 90 55 91 56 92 57 93 58 94 59 95
REMARK H PARENT 17 6 13 22 21 26 83 45 49 56
REMARK Flexibility Score: inf
ROOT
ATOM      1  C   UNL A   1      34.797  30.041  27.796  1.00  0.00     0.042 C 
ENDROOT
BRANCH   1   2
ATOM      2  C   UNL A   1      33.466  30.522  27.217  1.00  0.00     0.118 C 
BRANCH   2   3
ATOM      3  N   UNL A   1      32.371  29.632  27.573  1.00  0.00    -0.352 N 
ATOM      4  C   UNL A   1      31.982  28.401  27.110  1.00  0.00     0.255 C 
ATOM      5  O   UNL A   1      31.064  27.831  27.706  1.00  0.00    -0.269 OA
ATOM      6  H   UNL A   1      31.793  29.984  28.288  1.00  0.00     0.163 HD
BRANCH   4   7
ATOM      7  C   UNL A   1      32.633  27.677  25.982  1.00  0.00     0.082 A 
ATOM      8  C   UNL A   1      33.825  25.747  25.051  1.00  0.00    -0.014 A 
ATOM      9  C   UNL A   1      33.706  26.295  23.769  1.00  0.00     0.013 A 
ATOM     10  C   UNL A   1      33.343  26.487  26.146  1.00  0.00     0.026 A 
ATOM     11  C   UNL A   1      33.079  27.529  23.588  1.00  0.00     0.047 A 
ATOM     12  C   UNL A   1      32.537  28.203  24.683  1.00  0.00     0.128 A 
BRANCH   8  13
ATOM     13  C   UNL A   1      34.365  24.398  25.276  1.00  0.00     0.024 A 
ATOM     14  C   UNL A   1      33.527  23.266  25.396  1.00  0.00     0.126 A 
ATOM     15  C   UNL A   1      34.051  22.013  25.721  1.00  0.00     0.047 A 
ATOM     16  C   UNL A   1      35.424  21.855  25.895  1.00  0.00     0.004 A 
ATOM     17  C   UNL A   1      35.747  24.211  25.446  1.00  0.00     0.012 A 
ATOM     18  C   UNL A   1      36.271  22.951  25.753  1.00  0.00     0.001 A 
BRANCH  14  19
ATOM     19  O   UNL A   1      32.157  23.331  25.307  1.00  0.00    -0.496 OA
ATOM     20  C   UNL A   1      31.518  23.005  26.542  1.00  0.00     0.278 C 
ENDBRANCH  14  19
ENDBRANCH   8  13
BRANCH  12  21
ATOM     21  O   UNL A   1      31.911  29.391  24.397  1.00  0.00    -0.507 OA
ATOM     22  H   UNL A   1      31.805  29.662  23.507  1.00  0.00     0.293 HD
ENDBRANCH  12  21
ENDBRANCH   4   7
ENDBRANCH   2   3
ENDBRANCH   1   2
BRANCH   1  23
ATOM     23  C   UNL A   1      35.558  31.117  28.570  1.00  0.00     0.118 C 
BRANCH  23  24
ATOM     24  N   UNL A   1      35.609  30.830  29.995  1.00  0.00    -0.352 N 
ATOM     25  C   UNL A   1      36.541  30.153  30.738  1.00  0.00     0.251 C 
ATOM     26  H   UNL A   1      34.848  31.180  30.512  1.00  0.00     0.163 HD
ATOM     27  O   UNL A   1      36.259  29.846  31.895  1.00  0.00    -0.269 OA
BRANCH  25  28
ATOM     28  C   UNL A   1      37.864  29.785  30.182  1.00  0.00     0.039 A 
ATOM     29  C   UNL A   1      38.868  29.391  31.072  1.00  0.00     0.014 A 
ATOM     30  C   UNL A   1      38.156  29.900  28.819  1.00  0.00     0.014 A 
ATOM     31  C   UNL A   1      40.145  29.084  30.598  1.00  0.00     0.010 A 
ATOM     32  C   UNL A   1      39.412  29.528  28.337  1.00  0.00     0.010 A 
ATOM     33  C   UNL A   1      40.424  29.130  29.222  1.00  0.00    -0.014 A 
BRANCH  33  34
ATOM     34  C   UNL A   1      41.770  28.756  28.716  1.00  0.00     0.031 A 
ATOM     35  C   UNL A   1      42.873  29.776  28.622  1.00  0.00     0.074 A 
ATOM     36  C   UNL A   1      41.988  27.492  28.304  1.00  0.00     0.049 A 
ATOM     37  N   UNL A   1      44.114  29.618  28.237  1.00  0.00    -0.248 NA
ATOM     38  C   UNL A   1      42.530  31.161  28.979  1.00  0.00     0.031 C 
ATOM     39  C   UNL A   1      40.978  26.432  28.272  1.00  0.00     0.029 A 
ATOM     40  N   UNL A   1      43.124  26.884  27.833  1.00  0.00    -0.354 N 
ATOM     41  C   UNL A   1      44.694  30.879  28.289  1.00  0.00     0.074 A 
ATOM     42  C   UNL A   1      43.656  31.801  28.697  1.00  0.00     0.031 C 
ATOM     43  C   UNL A   1      41.546  25.299  27.831  1.00  0.00     0.029 A 
ATOM     44  C   UNL A   1      42.952  25.555  27.532  1.00  0.00     0.049 A 
ATOM     45  H   UNL A   1      43.981  27.357  27.720  1.00  0.00     0.167 HD
ATOM     46  C   UNL A   1      45.979  31.235  28.038  1.00  0.00     0.037 A 
ATOM     47  C   UNL A   1      43.828  24.639  27.077  1.00  0.00     0.037 A 
ATOM     48  C   UNL A   1      47.012  30.306  27.657  1.00  0.00     0.049 A 
ATOM     49  C   UNL A   1      45.263  25.035  26.875  1.00  0.00     0.074 A 
ATOM     50  C   UNL A   1      48.360  30.550  27.456  1.00  0.00     0.029 A 
ATOM     51  N   UNL A   1      46.811  28.954  27.413  1.00  0.00    -0.354 N 
ATOM     52  N   UNL A   1      45.817  26.215  27.018  1.00  0.00    -0.248 NA
ATOM     53  C   UNL A   1      46.195  23.974  26.471  1.00  0.00     0.031 C 
ATOM     54  C   UNL A   1      48.967  29.352  27.055  1.00  0.00     0.029 A 
ATOM     55  C   UNL A   1      48.006  28.353  27.049  1.00  0.00     0.049 A 
ATOM     56  H   UNL A   1      45.947  28.490  27.488  1.00  0.00     0.167 HD
ATOM     57  C   UNL A   1      47.168  26.037  26.740  1.00  0.00     0.074 A 
ATOM     58  C   UNL A   1      47.347  24.631  26.436  1.00  0.00     0.031 C 
ATOM     59  C   UNL A   1      48.168  26.954  26.742  1.00  0.00     0.037 A 
BRANCH  46  60
ATOM     60  C   UNL A   1      46.330  32.693  28.166  1.00  0.00     0.058 A 
ATOM     61  C   UNL A   1      46.854  33.226  29.356  1.00  0.00     0.135 A 
ATOM     62  C   UNL A   1      46.144  33.569  27.085  1.00  0.00     0.135 A 
ATOM     63  F   UNL A   1      47.043  32.436  30.424  1.00  0.00    -0.206 F 
ATOM     64  C   UNL A   1      47.134  34.583  29.485  1.00  0.00     0.059 A 
ATOM     65  C   UNL A   1      46.444  34.926  27.184  1.00  0.00     0.059 A 
ATOM     66  F   UNL A   1      45.653  33.115  25.922  1.00  0.00    -0.206 F 
ATOM     67  C   UNL A   1      46.917  35.427  28.395  1.00  0.00     0.060 A 
BRANCH  67  68
ATOM     68  S   UNL A   1      47.254  37.191  28.585  1.00  0.00     0.124 S 
ATOM     69  O   UNL A   1      46.067  37.780  27.974  1.00  0.00    -0.237 OA
ATOM     70  O   UNL A   1      47.360  37.338  30.032  1.00  0.00    -0.237 OA
ATOM     71  O   UNL A   1      48.500  37.380  27.847  1.00  0.00    -0.744 OA
ENDBRANCH  67  68
ENDBRANCH  46  60
BRANCH  47  72
ATOM     72  C   UNL A   1      43.366  23.246  26.843  1.00  0.00     0.058 A 
ATOM     73  C   UNL A   1      43.266  22.729  25.543  1.00  0.00     0.135 A 
ATOM     74  C   UNL A   1      43.092  22.385  27.916  1.00  0.00     0.135 A 
ATOM     75  F   UNL A   1      43.516  23.517  24.487  1.00  0.00    -0.206 F 
ATOM     76  C   UNL A   1      42.915  21.402  25.314  1.00  0.00     0.059 A 
ATOM     77  C   UNL A   1      42.759  21.049  27.712  1.00  0.00     0.059 A 
ATOM     78  F   UNL A   1      43.193  22.829  29.178  1.00  0.00    -0.206 F 
ATOM     79  C   UNL A   1      42.673  20.567  26.407  1.00  0.00     0.060 A 
BRANCH  79  80
ATOM     80  S   UNL A   1      42.317  18.822  26.102  1.00  0.00     0.124 S 
ATOM     81  O   UNL A   1      40.911  18.870  25.720  1.00  0.00    -0.237 OA
ATOM     82  O   UNL A   1      43.259  18.498  25.035  1.00  0.00    -0.237 OA
ATOM     83  O   UNL A   1      42.603  18.194  27.388  1.00  0.00    -0.744 OA
ENDBRANCH  79  80
ENDBRANCH  47  72
BRANCH  59  84
ATOM     84  C   UNL A   1      49.551  26.459  26.423  1.00  0.00     0.058 A 
ATOM     85  C   UNL A   1      50.075  26.519  25.122  1.00  0.00     0.135 A 
ATOM     86  C   UNL A   1      50.372  25.940  27.438  1.00  0.00     0.135 A 
ATOM     87  F   UNL A   1      49.329  27.001  24.116  1.00  0.00    -0.206 F 
ATOM     88  C   UNL A   1      51.354  26.052  24.832  1.00  0.00     0.059 A 
ATOM     89  C   UNL A   1      51.663  25.492  27.175  1.00  0.00     0.059 A 
ATOM     90  F   UNL A   1      49.924  25.871  28.701  1.00  0.00    -0.206 F 
ATOM     91  C   UNL A   1      52.138  25.536  25.865  1.00  0.00     0.060 A 
BRANCH  91  92
ATOM     92  S   UNL A   1      53.799  24.941  25.481  1.00  0.00     0.124 S 
ATOM     93  O   UNL A   1      54.506  25.225  26.725  1.00  0.00    -0.237 OA
ATOM     94  O   UNL A   1      53.569  23.530  25.190  1.00  0.00    -0.237 OA
ATOM     95  O   UNL A   1      54.193  25.754  24.335  1.00  0.00    -0.744 OA
ENDBRANCH  91  92
ENDBRANCH  59  84
ENDBRANCH  33  34
ENDBRANCH  25  28
ENDBRANCH  23  24
ENDBRANCH   1  23
TORSDOF 16
ENDMDL
