MODEL 1
REMARK VINA RESULT:     -10.8      0.000      0.000
REMARK SMILES Cc1nc(C)c(C(=O)N[C@@H](CCS(C)(=O)=O)C(=O)NCCCNC(=O)c2ccc(-c3c4nc(c(-c5c(F)cc(S(=O)(=O)[O-])cc5F)c5ccc([nH]5)c(-c5c(F)cc(S(=O)(=O)[O-])cc5F)c5nc(c(-c6c(F)cc(S(=O)(=O)[O-])cc6F)c6ccc3[nH]6)C=C5)C=C4)cc2)s1
REMARK SMILES IDX 21 1 20 2 19 3 17 4 18 5 10 7 9 8 7 9 8 10 6 12 1 13 2 14
REMARK SMILES IDX 3 15 92 16 4 17 5 18 11 19 12 20 13 21 14 22 15 23 16 24
REMARK SMILES IDX 22 25 23 26 24 27 25 29 26 30 27 31 91 32 28 33 90 34 29 35
REMARK SMILES IDX 30 36 31 37 84 38 32 39 89 40 83 41 85 42 33 43 88 44 82 45
REMARK SMILES IDX 81 46 34 48 68 49 47 50 67 51 48 52 51 53 66 54 86 55 49 56
REMARK SMILES IDX 50 57 65 59 87 60 52 61 35 62 36 63 45 64 37 65 38 66 44 67
REMARK SMILES IDX 46 68 39 69 40 70 41 71 42 72 43 73 69 74 70 75 79 76 71 77
REMARK SMILES IDX 72 78 78 79 80 80 73 81 74 82 75 83 76 84 77 85 53 86 54 87
REMARK SMILES IDX 63 88 55 89 56 90 62 91 64 92 57 93 58 94 59 95 60 96 61 97
REMARK H PARENT 19 6 9 11 23 28 85 47 51 58
REMARK Flexibility Score: inf
ROOT
ATOM      1  C   UNL A   1      31.816  28.485  27.241  1.00  0.00     0.042 C 
ENDROOT
BRANCH   1   2
ATOM      2  C   UNL A   1      31.680  27.063  26.727  1.00  0.00     0.117 C 
BRANCH   2   3
ATOM      3  N   UNL A   1      32.949  26.382  26.531  1.00  0.00    -0.354 N 
ATOM      4  C   UNL A   1      33.313  25.430  25.635  1.00  0.00     0.242 C 
ATOM      5  O   UNL A   1      34.513  25.340  25.351  1.00  0.00    -0.273 OA
ATOM      6  H   UNL A   1      33.662  26.656  27.152  1.00  0.00     0.163 HD
BRANCH   4   7
ATOM      7  C   UNL A   1      32.301  24.571  24.868  1.00  0.00     0.172 C 
BRANCH   7   8
ATOM      8  N   UNL A   1      32.423  24.620  23.411  1.00  0.00    -0.339 N 
ATOM      9  C   UNL A   1      32.448  25.662  22.503  1.00  0.00     0.263 C 
ATOM     10  O   UNL A   1      32.941  25.339  21.417  1.00  0.00    -0.268 OA
ATOM     11  H   UNL A   1      32.503  23.732  22.994  1.00  0.00     0.164 HD
BRANCH   9  12
ATOM     12  C   UNL A   1      31.914  27.005  22.726  1.00  0.00     0.115 A 
ATOM     13  C   UNL A   1      29.485  30.051  23.037  1.00  0.00     0.079 C 
ATOM     14  C   UNL A   1      30.583  29.052  22.938  1.00  0.00     0.091 A 
ATOM     15  N   UNL A   1      31.856  29.358  22.921  1.00  0.00    -0.246 NA
ATOM     16  S   UNL A   1      30.240  27.393  22.770  1.00  0.00    -0.113 S 
ATOM     17  C   UNL A   1      32.627  28.208  22.775  1.00  0.00     0.061 A 
ATOM     18  C   UNL A   1      34.095  28.435  22.635  1.00  0.00     0.068 C 
ENDBRANCH   9  12
ENDBRANCH   7   8
BRANCH   7  19
ATOM     19  C   UNL A   1      32.096  23.140  25.401  1.00  0.00     0.051 C 
BRANCH  19  20
ATOM     20  C   UNL A   1      33.250  22.362  26.025  1.00  0.00     0.139 C 
BRANCH  20  21
ATOM     21  S   UNL A   1      34.505  21.682  24.933  1.00  0.00     0.147 S 
ATOM     22  C   UNL A   1      34.219  19.929  24.862  1.00  0.00     0.158 C 
ATOM     23  O   UNL A   1      34.219  22.201  23.607  1.00  0.00    -0.229 OA
ATOM     24  O   UNL A   1      35.814  21.899  25.515  1.00  0.00    -0.229 OA
ENDBRANCH  20  21
ENDBRANCH  19  20
ENDBRANCH   7  19
ENDBRANCH   4   7
ENDBRANCH   2   3
ENDBRANCH   1   2
BRANCH   1  25
ATOM     25  C   UNL A   1      33.241  29.016  27.318  1.00  0.00     0.118 C 
BRANCH  25  26
ATOM     26  N   UNL A   1      33.372  30.357  27.873  1.00  0.00    -0.352 N 
ATOM     27  C   UNL A   1      34.467  30.971  28.448  1.00  0.00     0.251 C 
ATOM     28  H   UNL A   1      32.557  30.908  27.830  1.00  0.00     0.163 HD
ATOM     29  O   UNL A   1      34.379  32.099  28.924  1.00  0.00    -0.269 OA
BRANCH  27  30
ATOM     30  C   UNL A   1      35.749  30.235  28.542  1.00  0.00     0.039 A 
ATOM     31  C   UNL A   1      36.610  30.215  27.442  1.00  0.00     0.014 A 
ATOM     32  C   UNL A   1      36.137  29.639  29.740  1.00  0.00     0.014 A 
ATOM     33  C   UNL A   1      37.910  29.723  27.594  1.00  0.00     0.010 A 
ATOM     34  C   UNL A   1      37.467  29.281  29.926  1.00  0.00     0.010 A 
ATOM     35  C   UNL A   1      38.376  29.326  28.859  1.00  0.00    -0.014 A 
BRANCH  35  36
ATOM     36  C   UNL A   1      39.801  28.965  29.102  1.00  0.00     0.031 A 
ATOM     37  C   UNL A   1      40.752  29.996  29.658  1.00  0.00     0.074 A 
ATOM     38  C   UNL A   1      40.264  27.752  28.733  1.00  0.00     0.049 A 
ATOM     39  N   UNL A   1      42.049  29.929  29.807  1.00  0.00    -0.248 NA
ATOM     40  C   UNL A   1      40.173  31.290  30.057  1.00  0.00     0.031 C 
ATOM     41  C   UNL A   1      39.468  26.684  28.119  1.00  0.00     0.029 A 
ATOM     42  N   UNL A   1      41.525  27.211  28.809  1.00  0.00    -0.354 N 
ATOM     43  C   UNL A   1      42.439  31.173  30.290  1.00  0.00     0.074 A 
ATOM     44  C   UNL A   1      41.254  31.999  30.343  1.00  0.00     0.031 C 
ATOM     45  C   UNL A   1      40.248  25.611  27.910  1.00  0.00     0.029 A 
ATOM     46  C   UNL A   1      41.610  25.924  28.327  1.00  0.00     0.049 A 
ATOM     47  H   UNL A   1      42.297  27.699  29.176  1.00  0.00     0.167 HD
ATOM     48  C   UNL A   1      43.667  31.584  30.688  1.00  0.00     0.037 A 
ATOM     49  C   UNL A   1      42.666  25.092  28.224  1.00  0.00     0.037 A 
ATOM     50  C   UNL A   1      44.834  30.743  30.687  1.00  0.00     0.049 A 
ATOM     51  C   UNL A   1      44.015  25.565  28.696  1.00  0.00     0.074 A 
ATOM     52  C   UNL A   1      46.110  31.044  31.129  1.00  0.00     0.029 A 
ATOM     53  N   UNL A   1      44.865  29.433  30.235  1.00  0.00    -0.354 N 
ATOM     54  N   UNL A   1      44.352  26.729  29.200  1.00  0.00    -0.248 NA
ATOM     55  C   UNL A   1      45.130  24.612  28.590  1.00  0.00     0.031 C 
ATOM     56  C   UNL A   1      46.921  29.925  30.915  1.00  0.00     0.029 A 
ATOM     57  C   UNL A   1      46.139  28.912  30.382  1.00  0.00     0.049 A 
ATOM     58  H   UNL A   1      44.094  28.944  29.867  1.00  0.00     0.167 HD
ATOM     59  C   UNL A   1      45.706  26.635  29.501  1.00  0.00     0.074 A 
ATOM     60  C   UNL A   1      46.125  25.298  29.133  1.00  0.00     0.031 C 
ATOM     61  C   UNL A   1      46.531  27.572  30.031  1.00  0.00     0.037 A 
BRANCH  48  62
ATOM     62  C   UNL A   1      43.804  32.994  31.192  1.00  0.00     0.058 A 
ATOM     63  C   UNL A   1      44.077  34.061  30.319  1.00  0.00     0.135 A 
ATOM     64  C   UNL A   1      43.616  33.293  32.550  1.00  0.00     0.135 A 
ATOM     65  F   UNL A   1      44.284  33.830  29.013  1.00  0.00    -0.206 F 
ATOM     66  C   UNL A   1      44.182  35.369  30.779  1.00  0.00     0.059 A 
ATOM     67  C   UNL A   1      43.687  34.598  33.028  1.00  0.00     0.059 A 
ATOM     68  F   UNL A   1      43.355  32.311  33.428  1.00  0.00    -0.206 F 
ATOM     69  C   UNL A   1      43.981  35.628  32.136  1.00  0.00     0.060 A 
BRANCH  69  70
ATOM     70  S   UNL A   1      44.094  37.336  32.709  1.00  0.00     0.124 S 
ATOM     71  O   UNL A   1      43.013  37.387  33.688  1.00  0.00    -0.237 OA
ATOM     72  O   UNL A   1      45.446  37.392  33.256  1.00  0.00    -0.237 OA
ATOM     73  O   UNL A   1      43.879  38.118  31.496  1.00  0.00    -0.744 OA
ENDBRANCH  69  70
ENDBRANCH  48  62
BRANCH  49  74
ATOM     74  C   UNL A   1      42.496  23.719  27.674  1.00  0.00     0.058 A 
ATOM     75  C   UNL A   1      42.444  22.605  28.526  1.00  0.00     0.135 A 
ATOM     76  C   UNL A   1      42.403  23.488  26.293  1.00  0.00     0.135 A 
ATOM     77  F   UNL A   1      42.534  22.771  29.854  1.00  0.00    -0.206 F 
ATOM     78  C   UNL A   1      42.340  21.309  28.029  1.00  0.00     0.059 A 
ATOM     79  C   UNL A   1      42.269  22.203  25.773  1.00  0.00     0.059 A 
ATOM     80  F   UNL A   1      42.426  24.519  25.435  1.00  0.00    -0.206 F 
ATOM     81  C   UNL A   1      42.256  21.118  26.649  1.00  0.00     0.060 A 
BRANCH  81  82
ATOM     82  S   UNL A   1      42.103  19.434  26.014  1.00  0.00     0.124 S 
ATOM     83  O   UNL A   1      40.671  19.351  25.747  1.00  0.00    -0.237 OA
ATOM     84  O   UNL A   1      42.970  19.467  24.840  1.00  0.00    -0.237 OA
ATOM     85  O   UNL A   1      42.589  18.614  27.120  1.00  0.00    -0.744 OA
ENDBRANCH  81  82
ENDBRANCH  49  74
BRANCH  61  86
ATOM     86  C   UNL A   1      47.956  27.172  30.294  1.00  0.00     0.058 A 
ATOM     87  C   UNL A   1      48.990  27.501  29.405  1.00  0.00     0.135 A 
ATOM     88  C   UNL A   1      48.295  26.504  31.482  1.00  0.00     0.135 A 
ATOM     89  F   UNL A   1      48.716  28.135  28.254  1.00  0.00    -0.206 F 
ATOM     90  C   UNL A   1      50.311  27.162  29.675  1.00  0.00     0.059 A 
ATOM     91  C   UNL A   1      49.613  26.180  31.784  1.00  0.00     0.059 A 
ATOM     92  F   UNL A   1      47.343  26.177  32.370  1.00  0.00    -0.206 F 
ATOM     93  C   UNL A   1      50.614  26.504  30.869  1.00  0.00     0.060 A 
BRANCH  93  94
ATOM     94  S   UNL A   1      52.338  26.105  31.225  1.00  0.00     0.124 S 
ATOM     95  O   UNL A   1      52.912  26.061  29.885  1.00  0.00    -0.237 OA
ATOM     96  O   UNL A   1      52.754  27.231  32.057  1.00  0.00    -0.237 OA
ATOM     97  O   UNL A   1      52.254  24.822  31.916  1.00  0.00    -0.744 OA
ENDBRANCH  93  94
ENDBRANCH  61  86
ENDBRANCH  35  36
ENDBRANCH  27  30
ENDBRANCH  25  26
ENDBRANCH   1  25
TORSDOF 18
ENDMDL
MODEL 2
REMARK VINA RESULT:     -10.7      4.802     10.664
REMARK SMILES Cc1nc(C)c(C(=O)N[C@@H](CCS(C)(=O)=O)C(=O)NCCCNC(=O)c2ccc(-c3c4nc(c(-c5c(F)cc(S(=O)(=O)[O-])cc5F)c5ccc([nH]5)c(-c5c(F)cc(S(=O)(=O)[O-])cc5F)c5nc(c(-c6c(F)cc(S(=O)(=O)[O-])cc6F)c6ccc3[nH]6)C=C5)C=C4)cc2)s1
REMARK SMILES IDX 21 1 20 2 19 3 17 4 18 5 10 7 9 8 7 9 8 10 6 12 1 13 2 14
REMARK SMILES IDX 3 15 92 16 4 17 5 18 11 19 12 20 13 21 14 22 15 23 16 24
REMARK SMILES IDX 22 25 23 26 24 27 25 29 26 30 27 31 91 32 28 33 90 34 29 35
REMARK SMILES IDX 30 36 31 37 84 38 32 39 89 40 83 41 85 42 33 43 88 44 82 45
REMARK SMILES IDX 81 46 34 48 68 49 47 50 67 51 48 52 51 53 66 54 86 55 49 56
REMARK SMILES IDX 50 57 65 59 87 60 52 61 35 62 36 63 45 64 37 65 38 66 44 67
REMARK SMILES IDX 46 68 39 69 40 70 41 71 42 72 43 73 69 74 70 75 79 76 71 77
REMARK SMILES IDX 72 78 78 79 80 80 73 81 74 82 75 83 76 84 77 85 53 86 54 87
REMARK SMILES IDX 63 88 55 89 56 90 62 91 64 92 57 93 58 94 59 95 60 96 61 97
REMARK H PARENT 19 6 9 11 23 28 85 47 51 58
REMARK Flexibility Score: inf
ROOT
ATOM      1  C   UNL A   1      37.724  22.661  25.580  1.00  0.00     0.042 C 
ENDROOT
BRANCH   1   2
ATOM      2  C   UNL A   1      36.215  22.813  25.619  1.00  0.00     0.117 C 
BRANCH   2   3
ATOM      3  N   UNL A   1      35.759  24.193  25.585  1.00  0.00    -0.354 N 
ATOM      4  C   UNL A   1      34.594  24.730  25.143  1.00  0.00     0.242 C 
ATOM      5  O   UNL A   1      34.244  25.814  25.623  1.00  0.00    -0.273 OA
ATOM      6  H   UNL A   1      36.403  24.847  25.943  1.00  0.00     0.163 HD
BRANCH   4   7
ATOM      7  C   UNL A   1      33.640  23.995  24.194  1.00  0.00     0.172 C 
BRANCH   7   8
ATOM      8  N   UNL A   1      32.371  23.578  24.789  1.00  0.00    -0.339 N 
ATOM      9  C   UNL A   1      31.883  22.353  25.205  1.00  0.00     0.263 C 
ATOM     10  O   UNL A   1      30.937  22.458  25.994  1.00  0.00    -0.268 OA
ATOM     11  H   UNL A   1      31.736  24.320  24.920  1.00  0.00     0.164 HD
BRANCH   9  12
ATOM     12  C   UNL A   1      32.355  21.045  24.753  1.00  0.00     0.115 A 
ATOM     13  C   UNL A   1      34.182  17.595  24.575  1.00  0.00     0.079 C 
ATOM     14  C   UNL A   1      33.433  18.871  24.415  1.00  0.00     0.091 A 
ATOM     15  N   UNL A   1      32.917  19.283  23.284  1.00  0.00    -0.246 NA
ATOM     16  S   UNL A   1      33.249  19.944  25.723  1.00  0.00    -0.113 S 
ATOM     17  C   UNL A   1      32.321  20.531  23.452  1.00  0.00     0.061 A 
ATOM     18  C   UNL A   1      31.788  21.158  22.208  1.00  0.00     0.068 C 
ENDBRANCH   9  12
ENDBRANCH   7   8
BRANCH   7  19
ATOM     19  C   UNL A   1      33.466  24.624  22.798  1.00  0.00     0.051 C 
BRANCH  19  20
ATOM     20  C   UNL A   1      32.955  26.052  22.639  1.00  0.00     0.139 C 
BRANCH  20  21
ATOM     21  S   UNL A   1      31.215  26.373  22.962  1.00  0.00     0.147 S 
ATOM     22  C   UNL A   1      31.135  27.195  24.535  1.00  0.00     0.158 C 
ATOM     23  O   UNL A   1      30.787  27.340  21.967  1.00  0.00    -0.229 OA
ATOM     24  O   UNL A   1      30.511  25.112  23.079  1.00  0.00    -0.229 OA
ENDBRANCH  20  21
ENDBRANCH  19  20
ENDBRANCH   7  19
ENDBRANCH   4   7
ENDBRANCH   2   3
ENDBRANCH   1   2
BRANCH   1  25
ATOM     25  C   UNL A   1      38.510  23.798  26.220  1.00  0.00     0.118 C 
BRANCH  25  26
ATOM     26  N   UNL A   1      39.959  23.669  26.140  1.00  0.00    -0.352 N 
ATOM     27  C   UNL A   1      40.947  24.454  26.702  1.00  0.00     0.251 C 
ATOM     28  H   UNL A   1      40.283  22.908  25.606  1.00  0.00     0.163 HD
ATOM     29  O   UNL A   1      42.133  24.231  26.476  1.00  0.00    -0.269 OA
BRANCH  27  30
ATOM     30  C   UNL A   1      40.567  25.612  27.542  1.00  0.00     0.039 A 
ATOM     31  C   UNL A   1      39.608  25.447  28.544  1.00  0.00     0.014 A 
ATOM     32  C   UNL A   1      41.218  26.836  27.398  1.00  0.00     0.014 A 
ATOM     33  C   UNL A   1      39.411  26.464  29.484  1.00  0.00     0.010 A 
ATOM     34  C   UNL A   1      41.123  27.785  28.409  1.00  0.00     0.010 A 
ATOM     35  C   UNL A   1      40.224  27.610  29.471  1.00  0.00    -0.014 A 
BRANCH  35  36
ATOM     36  C   UNL A   1      40.170  28.632  30.554  1.00  0.00     0.031 A 
ATOM     37  C   UNL A   1      41.063  28.493  31.762  1.00  0.00     0.074 A 
ATOM     38  C   UNL A   1      39.258  29.625  30.502  1.00  0.00     0.049 A 
ATOM     39  N   UNL A   1      41.068  29.187  32.870  1.00  0.00    -0.248 NA
ATOM     40  C   UNL A   1      42.048  27.399  31.741  1.00  0.00     0.031 C 
ATOM     41  C   UNL A   1      38.286  29.836  29.424  1.00  0.00     0.029 A 
ATOM     42  N   UNL A   1      38.986  30.642  31.386  1.00  0.00    -0.354 N 
ATOM     43  C   UNL A   1      42.034  28.600  33.681  1.00  0.00     0.074 A 
ATOM     44  C   UNL A   1      42.544  27.451  32.967  1.00  0.00     0.031 C 
ATOM     45  C   UNL A   1      37.554  30.931  29.692  1.00  0.00     0.029 A 
ATOM     46  C   UNL A   1      37.966  31.474  30.981  1.00  0.00     0.049 A 
ATOM     47  H   UNL A   1      39.476  30.765  32.230  1.00  0.00     0.167 HD
ATOM     48  C   UNL A   1      42.483  29.000  34.894  1.00  0.00     0.037 A 
ATOM     49  C   UNL A   1      37.419  32.549  31.583  1.00  0.00     0.037 A 
ATOM     50  C   UNL A   1      42.014  30.175  35.576  1.00  0.00     0.049 A 
ATOM     51  C   UNL A   1      37.953  32.987  32.921  1.00  0.00     0.074 A 
ATOM     52  C   UNL A   1      42.448  30.702  36.780  1.00  0.00     0.029 A 
ATOM     53  N   UNL A   1      41.015  31.016  35.109  1.00  0.00    -0.354 N 
ATOM     54  N   UNL A   1      38.904  32.447  33.646  1.00  0.00    -0.248 NA
ATOM     55  C   UNL A   1      37.343  34.181  33.524  1.00  0.00     0.031 C 
ATOM     56  C   UNL A   1      41.690  31.844  37.056  1.00  0.00     0.029 A 
ATOM     57  C   UNL A   1      40.814  32.054  36.003  1.00  0.00     0.049 A 
ATOM     58  H   UNL A   1      40.522  30.894  34.266  1.00  0.00     0.167 HD
ATOM     59  C   UNL A   1      39.029  33.255  34.771  1.00  0.00     0.074 A 
ATOM     60  C   UNL A   1      38.063  34.325  34.627  1.00  0.00     0.031 C 
ATOM     61  C   UNL A   1      39.864  33.122  35.830  1.00  0.00     0.037 A 
BRANCH  48  62
ATOM     62  C   UNL A   1      43.562  28.179  35.545  1.00  0.00     0.058 A 
ATOM     63  C   UNL A   1      43.254  27.162  36.466  1.00  0.00     0.135 A 
ATOM     64  C   UNL A   1      44.912  28.376  35.216  1.00  0.00     0.135 A 
ATOM     65  F   UNL A   1      41.981  26.943  36.831  1.00  0.00    -0.206 F 
ATOM     66  C   UNL A   1      44.247  26.387  37.053  1.00  0.00     0.059 A 
ATOM     67  C   UNL A   1      45.921  27.592  35.770  1.00  0.00     0.059 A 
ATOM     68  F   UNL A   1      45.262  29.335  34.345  1.00  0.00    -0.206 F 
ATOM     69  C   UNL A   1      45.579  26.607  36.695  1.00  0.00     0.060 A 
BRANCH  69  70
ATOM     70  S   UNL A   1      46.852  25.572  37.447  1.00  0.00     0.124 S 
ATOM     71  O   UNL A   1      47.487  24.990  36.270  1.00  0.00    -0.237 OA
ATOM     72  O   UNL A   1      47.653  26.547  38.182  1.00  0.00    -0.237 OA
ATOM     73  O   UNL A   1      46.090  24.642  38.274  1.00  0.00    -0.744 OA
ENDBRANCH  69  70
ENDBRANCH  48  62
BRANCH  49  74
ATOM     74  C   UNL A   1      36.319  33.307  30.924  1.00  0.00     0.058 A 
ATOM     75  C   UNL A   1      36.575  34.129  29.816  1.00  0.00     0.135 A 
ATOM     76  C   UNL A   1      34.998  33.242  31.396  1.00  0.00     0.135 A 
ATOM     77  F   UNL A   1      37.821  34.229  29.330  1.00  0.00    -0.206 F 
ATOM     78  C   UNL A   1      35.571  34.886  29.220  1.00  0.00     0.059 A 
ATOM     79  C   UNL A   1      33.971  33.968  30.798  1.00  0.00     0.059 A 
ATOM     80  F   UNL A   1      34.694  32.455  32.439  1.00  0.00    -0.206 F 
ATOM     81  C   UNL A   1      34.271  34.801  29.721  1.00  0.00     0.060 A 
BRANCH  81  82
ATOM     82  S   UNL A   1      32.971  35.773  28.929  1.00  0.00     0.124 S 
ATOM     83  O   UNL A   1      33.747  36.812  28.261  1.00  0.00    -0.237 OA
ATOM     84  O   UNL A   1      32.337  34.788  28.057  1.00  0.00    -0.237 OA
ATOM     85  O   UNL A   1      32.155  36.219  30.055  1.00  0.00    -0.744 OA
ENDBRANCH  81  82
ENDBRANCH  49  74
BRANCH  61  86
ATOM     86  C   UNL A   1      39.811  34.183  36.893  1.00  0.00     0.058 A 
ATOM     87  C   UNL A   1      40.453  35.420  36.735  1.00  0.00     0.135 A 
ATOM     88  C   UNL A   1      39.055  33.977  38.059  1.00  0.00     0.135 A 
ATOM     89  F   UNL A   1      41.191  35.663  35.641  1.00  0.00    -0.206 F 
ATOM     90  C   UNL A   1      40.365  36.411  37.706  1.00  0.00     0.059 A 
ATOM     91  C   UNL A   1      38.931  34.965  39.031  1.00  0.00     0.059 A 
ATOM     92  F   UNL A   1      38.412  32.815  38.253  1.00  0.00    -0.206 F 
ATOM     93  C   UNL A   1      39.600  36.175  38.851  1.00  0.00     0.060 A 
BRANCH  93  94
ATOM     94  S   UNL A   1      39.462  37.484  40.086  1.00  0.00     0.124 S 
ATOM     95  O   UNL A   1      38.550  38.414  39.427  1.00  0.00    -0.237 OA
ATOM     96  O   UNL A   1      38.917  36.771  41.238  1.00  0.00    -0.237 OA
ATOM     97  O   UNL A   1      40.835  37.954  40.239  1.00  0.00    -0.744 OA
ENDBRANCH  93  94
ENDBRANCH  61  86
ENDBRANCH  35  36
ENDBRANCH  27  30
ENDBRANCH  25  26
ENDBRANCH   1  25
TORSDOF 18
ENDMDL
MODEL 3
REMARK VINA RESULT:     -10.7      3.453      9.401
REMARK SMILES Cc1nc(C)c(C(=O)N[C@@H](CCS(C)(=O)=O)C(=O)NCCCNC(=O)c2ccc(-c3c4nc(c(-c5c(F)cc(S(=O)(=O)[O-])cc5F)c5ccc([nH]5)c(-c5c(F)cc(S(=O)(=O)[O-])cc5F)c5nc(c(-c6c(F)cc(S(=O)(=O)[O-])cc6F)c6ccc3[nH]6)C=C5)C=C4)cc2)s1
REMARK SMILES IDX 21 1 20 2 19 3 17 4 18 5 10 7 9 8 7 9 8 10 6 12 1 13 2 14
REMARK SMILES IDX 3 15 92 16 4 17 5 18 11 19 12 20 13 21 14 22 15 23 16 24
REMARK SMILES IDX 22 25 23 26 24 27 25 29 26 30 27 31 91 32 28 33 90 34 29 35
REMARK SMILES IDX 30 36 31 37 84 38 32 39 89 40 83 41 85 42 33 43 88 44 82 45
REMARK SMILES IDX 81 46 34 48 68 49 47 50 67 51 48 52 51 53 66 54 86 55 49 56
REMARK SMILES IDX 50 57 65 59 87 60 52 61 35 62 36 63 45 64 37 65 38 66 44 67
REMARK SMILES IDX 46 68 39 69 40 70 41 71 42 72 43 73 69 74 70 75 79 76 71 77
REMARK SMILES IDX 72 78 78 79 80 80 73 81 74 82 75 83 76 84 77 85 53 86 54 87
REMARK SMILES IDX 63 88 55 89 56 90 62 91 64 92 57 93 58 94 59 95 60 96 61 97
REMARK H PARENT 19 6 9 11 23 28 85 47 51 58
REMARK Flexibility Score: inf
ROOT
ATOM      1  C   UNL A   1      38.185  20.732  25.160  1.00  0.00     0.042 C 
ENDROOT
BRANCH   1   2
ATOM      2  C   UNL A   1      37.272  21.944  25.193  1.00  0.00     0.117 C 
BRANCH   2   3
ATOM      3  N   UNL A   1      36.377  21.977  26.338  1.00  0.00    -0.354 N 
ATOM      4  C   UNL A   1      35.045  22.224  26.414  1.00  0.00     0.242 C 
ATOM      5  O   UNL A   1      34.430  21.756  27.378  1.00  0.00    -0.273 OA
ATOM      6  H   UNL A   1      36.810  21.791  27.203  1.00  0.00     0.163 HD
BRANCH   4   7
ATOM      7  C   UNL A   1      34.258  22.925  25.300  1.00  0.00     0.172 C 
BRANCH   7   8
ATOM      8  N   UNL A   1      32.805  22.789  25.386  1.00  0.00    -0.339 N 
ATOM      9  C   UNL A   1      31.952  21.708  25.269  1.00  0.00     0.263 C 
ATOM     10  O   UNL A   1      30.843  21.916  25.775  1.00  0.00    -0.268 OA
ATOM     11  H   UNL A   1      32.341  23.640  25.562  1.00  0.00     0.164 HD
BRANCH   9  12
ATOM     12  C   UNL A   1      32.251  20.451  24.585  1.00  0.00     0.115 A 
ATOM     13  C   UNL A   1      33.530  16.841  23.801  1.00  0.00     0.079 C 
ATOM     14  C   UNL A   1      33.003  18.232  23.867  1.00  0.00     0.091 A 
ATOM     15  N   UNL A   1      32.652  18.934  22.819  1.00  0.00    -0.246 NA
ATOM     16  S   UNL A   1      32.881  19.049  25.355  1.00  0.00    -0.113 S 
ATOM     17  C   UNL A   1      32.246  20.209  23.207  1.00  0.00     0.061 A 
ATOM     18  C   UNL A   1      31.920  21.144  22.092  1.00  0.00     0.068 C 
ENDBRANCH   9  12
ENDBRANCH   7   8
BRANCH   7  19
ATOM     19  C   UNL A   1      34.704  24.362  24.967  1.00  0.00     0.051 C 
BRANCH  19  20
ATOM     20  C   UNL A   1      33.736  25.358  24.339  1.00  0.00     0.139 C 
BRANCH  20  21
ATOM     21  S   UNL A   1      33.369  25.198  22.587  1.00  0.00     0.147 S 
ATOM     22  C   UNL A   1      31.602  25.066  22.449  1.00  0.00     0.158 C 
ATOM     23  O   UNL A   1      33.737  26.462  21.974  1.00  0.00    -0.229 OA
ATOM     24  O   UNL A   1      33.950  23.968  22.087  1.00  0.00    -0.229 OA
ENDBRANCH  20  21
ENDBRANCH  19  20
ENDBRANCH   7  19
ENDBRANCH   4   7
ENDBRANCH   2   3
ENDBRANCH   1   2
BRANCH   1  25
ATOM     25  C   UNL A   1      39.435  20.834  26.024  1.00  0.00     0.118 C 
BRANCH  25  26
ATOM     26  N   UNL A   1      40.281  19.648  26.031  1.00  0.00    -0.352 N 
ATOM     27  C   UNL A   1      41.649  19.540  26.188  1.00  0.00     0.251 C 
ATOM     28  H   UNL A   1      39.805  18.795  25.906  1.00  0.00     0.163 HD
ATOM     29  O   UNL A   1      42.208  18.450  26.104  1.00  0.00    -0.269 OA
BRANCH  27  30
ATOM     30  C   UNL A   1      42.456  20.763  26.404  1.00  0.00     0.039 A 
ATOM     31  C   UNL A   1      42.920  21.482  25.300  1.00  0.00     0.014 A 
ATOM     32  C   UNL A   1      42.680  21.244  27.692  1.00  0.00     0.014 A 
ATOM     33  C   UNL A   1      43.481  22.749  25.490  1.00  0.00     0.010 A 
ATOM     34  C   UNL A   1      43.106  22.555  27.868  1.00  0.00     0.010 A 
ATOM     35  C   UNL A   1      43.505  23.331  26.769  1.00  0.00    -0.014 A 
BRANCH  35  36
ATOM     36  C   UNL A   1      43.927  24.742  26.990  1.00  0.00     0.031 A 
ATOM     37  C   UNL A   1      45.374  25.130  26.810  1.00  0.00     0.074 A 
ATOM     38  C   UNL A   1      43.038  25.651  27.444  1.00  0.00     0.049 A 
ATOM     39  N   UNL A   1      45.967  26.262  27.089  1.00  0.00    -0.248 NA
ATOM     40  C   UNL A   1      46.283  24.094  26.291  1.00  0.00     0.031 C 
ATOM     41  C   UNL A   1      41.622  25.393  27.727  1.00  0.00     0.029 A 
ATOM     42  N   UNL A   1      43.194  26.979  27.763  1.00  0.00    -0.354 N 
ATOM     43  C   UNL A   1      47.314  26.063  26.804  1.00  0.00     0.074 A 
ATOM     44  C   UNL A   1      47.463  24.684  26.398  1.00  0.00     0.031 C 
ATOM     45  C   UNL A   1      41.036  26.529  28.139  1.00  0.00     0.029 A 
ATOM     46  C   UNL A   1      42.039  27.586  28.199  1.00  0.00     0.049 A 
ATOM     47  H   UNL A   1      44.053  27.452  27.684  1.00  0.00     0.167 HD
ATOM     48  C   UNL A   1      48.331  26.956  26.842  1.00  0.00     0.037 A 
ATOM     49  C   UNL A   1      41.812  28.851  28.609  1.00  0.00     0.037 A 
ATOM     50  C   UNL A   1      48.170  28.342  27.191  1.00  0.00     0.049 A 
ATOM     51  C   UNL A   1      42.956  29.830  28.619  1.00  0.00     0.074 A 
ATOM     52  C   UNL A   1      49.126  29.343  27.199  1.00  0.00     0.029 A 
ATOM     53  N   UNL A   1      46.975  28.927  27.581  1.00  0.00    -0.354 N 
ATOM     54  N   UNL A   1      44.212  29.635  28.295  1.00  0.00    -0.248 NA
ATOM     55  C   UNL A   1      42.653  31.204  29.047  1.00  0.00     0.031 C 
ATOM     56  C   UNL A   1      48.514  30.527  27.624  1.00  0.00     0.029 A 
ATOM     57  C   UNL A   1      47.169  30.273  27.837  1.00  0.00     0.049 A 
ATOM     58  H   UNL A   1      46.115  28.455  27.661  1.00  0.00     0.167 HD
ATOM     59  C   UNL A   1      44.839  30.867  28.447  1.00  0.00     0.074 A 
ATOM     60  C   UNL A   1      43.823  31.803  28.882  1.00  0.00     0.031 C 
ATOM     61  C   UNL A   1      46.140  31.194  28.247  1.00  0.00     0.037 A 
BRANCH  48  62
ATOM     62  C   UNL A   1      49.703  26.471  26.461  1.00  0.00     0.058 A 
ATOM     63  C   UNL A   1      50.524  25.798  27.381  1.00  0.00     0.135 A 
ATOM     64  C   UNL A   1      50.186  26.636  25.154  1.00  0.00     0.135 A 
ATOM     65  F   UNL A   1      50.120  25.629  28.650  1.00  0.00    -0.206 F 
ATOM     66  C   UNL A   1      51.783  25.329  27.026  1.00  0.00     0.059 A 
ATOM     67  C   UNL A   1      51.431  26.148  24.768  1.00  0.00     0.059 A 
ATOM     68  F   UNL A   1      49.444  27.274  24.234  1.00  0.00    -0.206 F 
ATOM     69  C   UNL A   1      52.227  25.505  25.714  1.00  0.00     0.060 A 
BRANCH  69  70
ATOM     70  S   UNL A   1      53.853  24.864  25.265  1.00  0.00     0.124 S 
ATOM     71  O   UNL A   1      54.122  25.594  24.030  1.00  0.00    -0.237 OA
ATOM     72  O   UNL A   1      54.667  25.244  26.415  1.00  0.00    -0.237 OA
ATOM     73  O   UNL A   1      53.623  23.431  25.109  1.00  0.00    -0.744 OA
ENDBRANCH  69  70
ENDBRANCH  48  62
BRANCH  49  74
ATOM     74  C   UNL A   1      40.447  29.278  29.024  1.00  0.00     0.058 A 
ATOM     75  C   UNL A   1      39.462  29.564  28.067  1.00  0.00     0.135 A 
ATOM     76  C   UNL A   1      40.105  29.431  30.377  1.00  0.00     0.135 A 
ATOM     77  F   UNL A   1      39.739  29.439  26.761  1.00  0.00    -0.206 F 
ATOM     78  C   UNL A   1      38.197  30.016  28.432  1.00  0.00     0.059 A 
ATOM     79  C   UNL A   1      38.838  29.854  30.768  1.00  0.00     0.059 A 
ATOM     80  F   UNL A   1      41.004  29.152  31.334  1.00  0.00    -0.206 F 
ATOM     81  C   UNL A   1      37.895  30.162  29.788  1.00  0.00     0.060 A 
BRANCH  81  82
ATOM     82  S   UNL A   1      36.247  30.732  30.253  1.00  0.00     0.124 S 
ATOM     83  O   UNL A   1      35.464  30.354  29.082  1.00  0.00    -0.237 OA
ATOM     84  O   UNL A   1      35.987  29.966  31.469  1.00  0.00    -0.237 OA
ATOM     85  O   UNL A   1      36.433  32.166  30.453  1.00  0.00    -0.744 OA
ENDBRANCH  81  82
ENDBRANCH  49  74
BRANCH  61  86
ATOM     86  C   UNL A   1      46.532  32.630  28.448  1.00  0.00     0.058 A 
ATOM     87  C   UNL A   1      47.017  33.099  29.678  1.00  0.00     0.135 A 
ATOM     88  C   UNL A   1      46.478  33.534  27.373  1.00  0.00     0.135 A 
ATOM     89  F   UNL A   1      47.083  32.275  30.736  1.00  0.00    -0.206 F 
ATOM     90  C   UNL A   1      47.415  34.421  29.844  1.00  0.00     0.059 A 
ATOM     91  C   UNL A   1      46.897  34.854  27.510  1.00  0.00     0.059 A 
ATOM     92  F   UNL A   1      46.033  33.133  26.173  1.00  0.00    -0.206 F 
ATOM     93  C   UNL A   1      47.354  35.291  28.753  1.00  0.00     0.060 A 
BRANCH  93  94
ATOM     94  S   UNL A   1      47.911  36.993  28.971  1.00  0.00     0.124 S 
ATOM     95  O   UNL A   1      46.967  37.721  28.129  1.00  0.00    -0.237 OA
ATOM     96  O   UNL A   1      47.760  37.191  30.410  1.00  0.00    -0.237 OA
ATOM     97  O   UNL A   1      49.289  36.965  28.490  1.00  0.00    -0.744 OA
ENDBRANCH  93  94
ENDBRANCH  61  86
ENDBRANCH  35  36
ENDBRANCH  27  30
ENDBRANCH  25  26
ENDBRANCH   1  25
TORSDOF 18
ENDMDL
