MODEL 1
REMARK VINA RESULT:     -11.8      0.000      0.000
REMARK SMILES O=C(NCCCNC(=O)c1ccc(-c2c3nc(c(-c4c(F)cc(S(=O)(=O)[O-])cc4F)c4ccc([nH]4)c(-c4c(F)cc(S(=O)(=O)[O-])cc4F)c4nc(c(-c5c(F)cc(S(=O)(=O)[O-])cc5F)c5ccc2[nH]5)C=C4)C=C3)cc1)C1=Cc2cc(OC(F)(F)F)ccc2O[C@@H]1C(F)(F)F
REMARK SMILES IDX 5 1 4 2 3 3 1 4 2 5 76 7 77 8 90 9 78 10 89 11 79 12 88 13
REMARK SMILES IDX 80 14 87 15 86 16 91 17 92 18 93 19 94 20 81 21 82 22 83 23
REMARK SMILES IDX 84 24 85 25 6 26 7 27 8 28 9 30 10 31 11 32 75 33 12 34
REMARK SMILES IDX 74 35 13 36 14 37 15 38 68 39 16 40 73 41 67 42 69 43 17 44
REMARK SMILES IDX 72 45 66 46 65 47 18 49 52 50 31 51 51 52 32 53 35 54 50 55
REMARK SMILES IDX 70 56 33 57 34 58 49 60 71 61 36 62 19 63 20 64 29 65 21 66
REMARK SMILES IDX 22 67 28 68 30 69 23 70 24 71 25 72 26 73 27 74 53 75 54 76
REMARK SMILES IDX 63 77 55 78 56 79 62 80 64 81 57 82 58 83 59 84 60 85 61 86
REMARK SMILES IDX 37 87 38 88 47 89 39 90 40 91 46 92 48 93 41 94 42 95 43 96
REMARK SMILES IDX 44 97 45 98
REMARK H PARENT 3 6 7 29 69 48 35 59
REMARK Flexibility Score: inf
ROOT
ATOM      1  C   UNL A   1      36.665  22.955  23.792  1.00  0.00     0.042 C 
ENDROOT
BRANCH   1   2
ATOM      2  C   UNL A   1      35.259  22.362  23.776  1.00  0.00     0.118 C 
BRANCH   2   3
ATOM      3  N   UNL A   1      34.298  23.149  22.995  1.00  0.00    -0.352 N 
ATOM      4  O   UNL A   1      32.939  24.910  22.547  1.00  0.00    -0.270 OA
ATOM      5  C   UNL A   1      33.497  24.201  23.374  1.00  0.00     0.251 C 
ATOM      6  H   UNL A   1      34.213  22.882  22.052  1.00  0.00     0.163 HD
BRANCH   5   7
ATOM      7  C   UNL A   1      33.407  24.499  24.815  1.00  0.00     0.067 C 
ATOM      8  C   UNL A   1      34.222  25.441  25.307  1.00  0.00     0.025 C 
ATOM      9  C   UNL A   1      32.179  24.033  25.532  1.00  0.00     0.314 C 
ATOM     10  C   UNL A   1      33.495  26.453  26.085  1.00  0.00     0.021 A 
ATOM     11  O   UNL A   1      31.434  25.121  26.132  1.00  0.00    -0.475 OA
ATOM     12  C   UNL A   1      34.064  27.731  26.161  1.00  0.00     0.058 A 
ATOM     13  C   UNL A   1      32.121  26.294  26.334  1.00  0.00     0.128 A 
ATOM     14  C   UNL A   1      33.252  28.852  26.355  1.00  0.00     0.130 A 
ATOM     15  C   UNL A   1      31.326  27.406  26.604  1.00  0.00     0.051 A 
ATOM     16  C   UNL A   1      31.885  28.687  26.585  1.00  0.00     0.050 A 
BRANCH   9  17
ATOM     17  C   UNL A   1      32.524  22.967  26.584  1.00  0.00     0.429 C 
ATOM     18  F   UNL A   1      32.760  21.766  25.998  1.00  0.00    -0.167 F 
ATOM     19  F   UNL A   1      33.642  23.283  27.281  1.00  0.00    -0.167 F 
ATOM     20  F   UNL A   1      31.529  22.781  27.483  1.00  0.00    -0.167 F 
ENDBRANCH   9  17
BRANCH  14  21
ATOM     21  O   UNL A   1      33.897  30.054  26.280  1.00  0.00    -0.406 OA
BRANCH  21  22
ATOM     22  C   UNL A   1      34.309  30.618  27.518  1.00  0.00     0.573 C 
ATOM     23  F   UNL A   1      34.799  29.672  28.348  1.00  0.00    -0.132 F 
ATOM     24  F   UNL A   1      35.241  31.576  27.325  1.00  0.00    -0.132 F 
ATOM     25  F   UNL A   1      33.241  31.187  28.115  1.00  0.00    -0.132 F 
ENDBRANCH  21  22
ENDBRANCH  14  21
ENDBRANCH   5   7
ENDBRANCH   2   3
ENDBRANCH   1   2
BRANCH   1  26
ATOM     26  C   UNL A   1      37.203  23.159  25.207  1.00  0.00     0.118 C 
BRANCH  26  27
ATOM     27  N   UNL A   1      38.478  22.493  25.463  1.00  0.00    -0.352 N 
ATOM     28  C   UNL A   1      39.621  22.920  26.114  1.00  0.00     0.251 C 
ATOM     29  H   UNL A   1      38.533  21.576  25.108  1.00  0.00     0.163 HD
ATOM     30  O   UNL A   1      40.608  22.202  26.121  1.00  0.00    -0.269 OA
BRANCH  28  31
ATOM     31  C   UNL A   1      39.669  24.255  26.760  1.00  0.00     0.039 A 
ATOM     32  C   UNL A   1      39.021  24.440  27.986  1.00  0.00     0.014 A 
ATOM     33  C   UNL A   1      40.374  25.312  26.188  1.00  0.00     0.014 A 
ATOM     34  C   UNL A   1      39.210  25.627  28.701  1.00  0.00     0.010 A 
ATOM     35  C   UNL A   1      40.655  26.442  26.948  1.00  0.00     0.010 A 
ATOM     36  C   UNL A   1      40.098  26.603  28.226  1.00  0.00    -0.014 A 
BRANCH  36  37
ATOM     37  C   UNL A   1      40.509  27.781  29.042  1.00  0.00     0.031 A 
ATOM     38  C   UNL A   1      41.770  27.720  29.864  1.00  0.00     0.074 A 
ATOM     39  C   UNL A   1      39.683  28.844  29.149  1.00  0.00     0.049 A 
ATOM     40  N   UNL A   1      42.178  28.522  30.813  1.00  0.00    -0.248 NA
ATOM     41  C   UNL A   1      42.668  26.580  29.614  1.00  0.00     0.031 C 
ATOM     42  C   UNL A   1      38.409  29.011  28.444  1.00  0.00     0.029 A 
ATOM     43  N   UNL A   1      39.780  29.979  29.916  1.00  0.00    -0.354 N 
ATOM     44  C   UNL A   1      43.359  27.968  31.294  1.00  0.00     0.074 A 
ATOM     45  C   UNL A   1      43.575  26.736  30.568  1.00  0.00     0.031 C 
ATOM     46  C   UNL A   1      37.857  30.183  28.794  1.00  0.00     0.029 A 
ATOM     47  C   UNL A   1      38.702  30.827  29.792  1.00  0.00     0.049 A 
ATOM     48  H   UNL A   1      40.549  30.170  30.501  1.00  0.00     0.167 HD
ATOM     49  C   UNL A   1      44.200  28.455  32.236  1.00  0.00     0.037 A 
ATOM     50  C   UNL A   1      38.412  31.978  30.429  1.00  0.00     0.037 A 
ATOM     51  C   UNL A   1      44.010  29.709  32.915  1.00  0.00     0.049 A 
ATOM     52  C   UNL A   1      39.360  32.494  31.478  1.00  0.00     0.074 A 
ATOM     53  C   UNL A   1      44.840  30.322  33.836  1.00  0.00     0.029 A 
ATOM     54  N   UNL A   1      42.922  30.547  32.736  1.00  0.00    -0.354 N 
ATOM     55  N   UNL A   1      40.490  31.973  31.894  1.00  0.00    -0.248 NA
ATOM     56  C   UNL A   1      38.990  33.745  32.154  1.00  0.00     0.031 C 
ATOM     57  C   UNL A   1      44.240  31.521  34.236  1.00  0.00     0.029 A 
ATOM     58  C   UNL A   1      43.051  31.667  33.538  1.00  0.00     0.049 A 
ATOM     59  H   UNL A   1      42.167  30.372  32.127  1.00  0.00     0.167 HD
ATOM     60  C   UNL A   1      40.973  32.842  32.865  1.00  0.00     0.074 A 
ATOM     61  C   UNL A   1      40.023  33.930  32.966  1.00  0.00     0.031 C 
ATOM     62  C   UNL A   1      42.098  32.746  33.613  1.00  0.00     0.037 A 
BRANCH  49  63
ATOM     63  C   UNL A   1      45.423  27.645  32.568  1.00  0.00     0.058 A 
ATOM     64  C   UNL A   1      46.646  27.869  31.916  1.00  0.00     0.135 A 
ATOM     65  C   UNL A   1      45.387  26.670  33.578  1.00  0.00     0.135 A 
ATOM     66  F   UNL A   1      46.731  28.776  30.931  1.00  0.00    -0.206 F 
ATOM     67  C   UNL A   1      47.785  27.138  32.237  1.00  0.00     0.059 A 
ATOM     68  C   UNL A   1      46.521  25.945  33.934  1.00  0.00     0.059 A 
ATOM     69  F   UNL A   1      44.242  26.415  34.232  1.00  0.00    -0.206 F 
ATOM     70  C   UNL A   1      47.713  26.179  33.248  1.00  0.00     0.060 A 
BRANCH  70  71
ATOM     71  S   UNL A   1      49.207  25.255  33.663  1.00  0.00     0.124 S 
ATOM     72  O   UNL A   1      49.745  24.966  32.338  1.00  0.00    -0.237 OA
ATOM     73  O   UNL A   1      49.961  26.220  34.457  1.00  0.00    -0.237 OA
ATOM     74  O   UNL A   1      48.699  24.102  34.400  1.00  0.00    -0.744 OA
ENDBRANCH  70  71
ENDBRANCH  49  63
BRANCH  50  75
ATOM     75  C   UNL A   1      37.167  32.727  30.106  1.00  0.00     0.058 A 
ATOM     76  C   UNL A   1      35.955  32.405  30.734  1.00  0.00     0.135 A 
ATOM     77  C   UNL A   1      37.156  33.757  29.153  1.00  0.00     0.135 A 
ATOM     78  F   UNL A   1      35.914  31.423  31.647  1.00  0.00    -0.206 F 
ATOM     79  C   UNL A   1      34.769  33.057  30.410  1.00  0.00     0.059 A 
ATOM     80  C   UNL A   1      35.987  34.440  28.829  1.00  0.00     0.059 A 
ATOM     81  F   UNL A   1      38.292  34.116  28.534  1.00  0.00    -0.206 F 
ATOM     82  C   UNL A   1      34.795  34.071  29.451  1.00  0.00     0.060 A 
BRANCH  82  83
ATOM     83  S   UNL A   1      33.254  34.924  29.048  1.00  0.00     0.124 S 
ATOM     84  O   UNL A   1      32.578  34.928  30.339  1.00  0.00    -0.237 OA
ATOM     85  O   UNL A   1      33.733  36.217  28.572  1.00  0.00    -0.237 OA
ATOM     86  O   UNL A   1      32.659  34.069  28.025  1.00  0.00    -0.744 OA
ENDBRANCH  82  83
ENDBRANCH  50  75
BRANCH  62  87
ATOM     87  C   UNL A   1      42.378  33.850  34.591  1.00  0.00     0.058 A 
ATOM     88  C   UNL A   1      41.997  33.745  35.936  1.00  0.00     0.135 A 
ATOM     89  C   UNL A   1      43.100  34.986  34.194  1.00  0.00     0.135 A 
ATOM     90  F   UNL A   1      41.296  32.682  36.360  1.00  0.00    -0.206 F 
ATOM     91  C   UNL A   1      42.321  34.735  36.859  1.00  0.00     0.059 A 
ATOM     92  C   UNL A   1      43.454  35.976  35.104  1.00  0.00     0.059 A 
ATOM     93  F   UNL A   1      43.492  35.128  32.918  1.00  0.00    -0.206 F 
ATOM     94  C   UNL A   1      43.057  35.843  36.434  1.00  0.00     0.060 A 
BRANCH  94  95
ATOM     95  S   UNL A   1      43.527  37.087  37.656  1.00  0.00     0.124 S 
ATOM     96  O   UNL A   1      44.532  36.371  38.433  1.00  0.00    -0.237 OA
ATOM     97  O   UNL A   1      44.028  38.173  36.818  1.00  0.00    -0.237 OA
ATOM     98  O   UNL A   1      42.275  37.368  38.352  1.00  0.00    -0.744 OA
ENDBRANCH  94  95
ENDBRANCH  62  87
ENDBRANCH  36  37
ENDBRANCH  28  31
ENDBRANCH  26  27
ENDBRANCH   1  26
TORSDOF 16
ENDMDL
MODEL 2
REMARK VINA RESULT:     -10.9      2.486      3.305
REMARK SMILES O=C(NCCCNC(=O)c1ccc(-c2c3nc(c(-c4c(F)cc(S(=O)(=O)[O-])cc4F)c4ccc([nH]4)c(-c4c(F)cc(S(=O)(=O)[O-])cc4F)c4nc(c(-c5c(F)cc(S(=O)(=O)[O-])cc5F)c5ccc2[nH]5)C=C4)C=C3)cc1)C1=Cc2cc(OC(F)(F)F)ccc2O[C@@H]1C(F)(F)F
REMARK SMILES IDX 5 1 4 2 3 3 1 4 2 5 76 7 77 8 90 9 78 10 89 11 79 12 88 13
REMARK SMILES IDX 80 14 87 15 86 16 91 17 92 18 93 19 94 20 81 21 82 22 83 23
REMARK SMILES IDX 84 24 85 25 6 26 7 27 8 28 9 30 10 31 11 32 75 33 12 34
REMARK SMILES IDX 74 35 13 36 14 37 15 38 68 39 16 40 73 41 67 42 69 43 17 44
REMARK SMILES IDX 72 45 66 46 65 47 18 49 52 50 31 51 51 52 32 53 35 54 50 55
REMARK SMILES IDX 70 56 33 57 34 58 49 60 71 61 36 62 19 63 20 64 29 65 21 66
REMARK SMILES IDX 22 67 28 68 30 69 23 70 24 71 25 72 26 73 27 74 53 75 54 76
REMARK SMILES IDX 63 77 55 78 56 79 62 80 64 81 57 82 58 83 59 84 60 85 61 86
REMARK SMILES IDX 37 87 38 88 47 89 39 90 40 91 46 92 48 93 41 94 42 95 43 96
REMARK SMILES IDX 44 97 45 98
REMARK H PARENT 3 6 7 29 69 48 35 59
REMARK Flexibility Score: inf
ROOT
ATOM      1  C   UNL A   1      37.356  23.396  24.880  1.00  0.00     0.042 C 
ENDROOT
BRANCH   1   2
ATOM      2  C   UNL A   1      36.583  22.081  24.929  1.00  0.00     0.118 C 
BRANCH   2   3
ATOM      3  N   UNL A   1      35.493  22.002  23.952  1.00  0.00    -0.352 N 
ATOM      4  O   UNL A   1      33.570  22.647  22.935  1.00  0.00    -0.270 OA
ATOM      5  C   UNL A   1      34.263  22.618  23.942  1.00  0.00     0.251 C 
ATOM      6  H   UNL A   1      35.669  21.417  23.180  1.00  0.00     0.163 HD
BRANCH   5   7
ATOM      7  C   UNL A   1      33.848  23.320  25.170  1.00  0.00     0.067 C 
ATOM      8  C   UNL A   1      33.956  24.655  25.190  1.00  0.00     0.025 C 
ATOM      9  C   UNL A   1      32.989  22.561  26.133  1.00  0.00     0.314 C 
ATOM     10  C   UNL A   1      32.708  25.307  25.607  1.00  0.00     0.021 A 
ATOM     11  O   UNL A   1      31.707  23.196  26.359  1.00  0.00    -0.475 OA
ATOM     12  C   UNL A   1      32.481  26.610  25.143  1.00  0.00     0.058 A 
ATOM     13  C   UNL A   1      31.619  24.529  26.039  1.00  0.00     0.128 A 
ATOM     14  C   UNL A   1      31.175  27.085  24.990  1.00  0.00     0.130 A 
ATOM     15  C   UNL A   1      30.324  25.035  25.957  1.00  0.00     0.051 A 
ATOM     16  C   UNL A   1      30.098  26.300  25.405  1.00  0.00     0.050 A 
BRANCH   9  17
ATOM     17  C   UNL A   1      33.722  22.329  27.463  1.00  0.00     0.429 C 
ATOM     18  F   UNL A   1      34.250  21.080  27.515  1.00  0.00    -0.167 F 
ATOM     19  F   UNL A   1      34.753  23.191  27.634  1.00  0.00    -0.167 F 
ATOM     20  F   UNL A   1      32.907  22.460  28.537  1.00  0.00    -0.167 F 
ENDBRANCH   9  17
BRANCH  14  21
ATOM     21  O   UNL A   1      31.073  28.315  24.406  1.00  0.00    -0.406 OA
BRANCH  21  22
ATOM     22  C   UNL A   1      30.930  28.324  22.992  1.00  0.00     0.573 C 
ATOM     23  F   UNL A   1      32.075  27.946  22.382  1.00  0.00    -0.132 F 
ATOM     24  F   UNL A   1      29.923  27.512  22.603  1.00  0.00    -0.132 F 
ATOM     25  F   UNL A   1      30.636  29.579  22.591  1.00  0.00    -0.132 F 
ENDBRANCH  21  22
ENDBRANCH  14  21
ENDBRANCH   5   7
ENDBRANCH   2   3
ENDBRANCH   1   2
BRANCH   1  26
ATOM     26  C   UNL A   1      38.080  23.705  26.189  1.00  0.00     0.118 C 
BRANCH  26  27
ATOM     27  N   UNL A   1      39.527  23.514  26.131  1.00  0.00    -0.352 N 
ATOM     28  C   UNL A   1      40.572  24.269  26.633  1.00  0.00     0.251 C 
ATOM     29  H   UNL A   1      39.809  22.704  25.648  1.00  0.00     0.163 HD
ATOM     30  O   UNL A   1      41.720  23.947  26.373  1.00  0.00    -0.269 OA
BRANCH  28  31
ATOM     31  C   UNL A   1      40.306  25.486  27.441  1.00  0.00     0.039 A 
ATOM     32  C   UNL A   1      39.391  25.412  28.497  1.00  0.00     0.014 A 
ATOM     33  C   UNL A   1      40.974  26.682  27.191  1.00  0.00     0.014 A 
ATOM     34  C   UNL A   1      39.266  26.486  29.385  1.00  0.00     0.010 A 
ATOM     35  C   UNL A   1      40.935  27.702  28.135  1.00  0.00     0.010 A 
ATOM     36  C   UNL A   1      40.101  27.606  29.260  1.00  0.00    -0.014 A 
BRANCH  36  37
ATOM     37  C   UNL A   1      40.170  28.676  30.295  1.00  0.00     0.031 A 
ATOM     38  C   UNL A   1      41.119  28.535  31.456  1.00  0.00     0.074 A 
ATOM     39  C   UNL A   1      39.290  29.699  30.262  1.00  0.00     0.049 A 
ATOM     40  N   UNL A   1      41.167  29.214  32.573  1.00  0.00    -0.248 NA
ATOM     41  C   UNL A   1      42.116  27.455  31.369  1.00  0.00     0.031 C 
ATOM     42  C   UNL A   1      38.287  29.931  29.218  1.00  0.00     0.029 A 
ATOM     43  N   UNL A   1      39.079  30.728  31.148  1.00  0.00    -0.354 N 
ATOM     44  C   UNL A   1      42.174  28.627  33.330  1.00  0.00     0.074 A 
ATOM     45  C   UNL A   1      42.675  27.504  32.570  1.00  0.00     0.031 C 
ATOM     46  C   UNL A   1      37.585  31.036  29.513  1.00  0.00     0.029 A 
ATOM     47  C   UNL A   1      38.042  31.562  30.793  1.00  0.00     0.049 A 
ATOM     48  H   UNL A   1      39.618  30.856  31.962  1.00  0.00     0.167 HD
ATOM     49  C   UNL A   1      42.654  29.005  34.538  1.00  0.00     0.037 A 
ATOM     50  C   UNL A   1      37.503  32.615  31.438  1.00  0.00     0.037 A 
ATOM     51  C   UNL A   1      42.190  30.156  35.266  1.00  0.00     0.049 A 
ATOM     52  C   UNL A   1      38.050  33.009  32.783  1.00  0.00     0.074 A 
ATOM     53  C   UNL A   1      42.659  30.661  36.465  1.00  0.00     0.029 A 
ATOM     54  N   UNL A   1      41.161  30.988  34.854  1.00  0.00    -0.354 N 
ATOM     55  N   UNL A   1      39.026  32.462  33.467  1.00  0.00    -0.248 NA
ATOM     56  C   UNL A   1      37.416  34.155  33.451  1.00  0.00     0.031 C 
ATOM     57  C   UNL A   1      41.895  31.785  36.794  1.00  0.00     0.029 A 
ATOM     58  C   UNL A   1      40.971  31.997  35.782  1.00  0.00     0.049 A 
ATOM     59  H   UNL A   1      40.642  30.879  34.024  1.00  0.00     0.167 HD
ATOM     60  C   UNL A   1      39.134  33.207  34.635  1.00  0.00     0.074 A 
ATOM     61  C   UNL A   1      38.137  34.253  34.561  1.00  0.00     0.031 C 
ATOM     62  C   UNL A   1      39.979  33.037  35.681  1.00  0.00     0.037 A 
BRANCH  49  63
ATOM     63  C   UNL A   1      43.761  28.183  35.138  1.00  0.00     0.058 A 
ATOM     64  C   UNL A   1      43.488  27.105  35.994  1.00  0.00     0.135 A 
ATOM     65  C   UNL A   1      45.104  28.443  34.818  1.00  0.00     0.135 A 
ATOM     66  F   UNL A   1      42.224  26.824  36.345  1.00  0.00    -0.206 F 
ATOM     67  C   UNL A   1      44.508  26.327  36.532  1.00  0.00     0.059 A 
ATOM     68  C   UNL A   1      46.139  27.661  35.324  1.00  0.00     0.059 A 
ATOM     69  F   UNL A   1      45.421  29.463  34.006  1.00  0.00    -0.206 F 
ATOM     70  C   UNL A   1      45.831  26.612  36.190  1.00  0.00     0.060 A 
BRANCH  70  71
ATOM     71  S   UNL A   1      47.139  25.580  36.883  1.00  0.00     0.124 S 
ATOM     72  O   UNL A   1      48.216  26.549  37.049  1.00  0.00    -0.237 OA
ATOM     73  O   UNL A   1      46.530  25.090  38.116  1.00  0.00    -0.237 OA
ATOM     74  O   UNL A   1      47.357  24.569  35.852  1.00  0.00    -0.744 OA
ENDBRANCH  70  71
ENDBRANCH  49  63
BRANCH  50  75
ATOM     75  C   UNL A   1      36.375  33.374  30.832  1.00  0.00     0.058 A 
ATOM     76  C   UNL A   1      36.586  34.201  29.719  1.00  0.00     0.135 A 
ATOM     77  C   UNL A   1      35.077  33.310  31.362  1.00  0.00     0.135 A 
ATOM     78  F   UNL A   1      37.811  34.301  29.181  1.00  0.00    -0.206 F 
ATOM     79  C   UNL A   1      35.558  34.960  29.168  1.00  0.00     0.059 A 
ATOM     80  C   UNL A   1      34.027  34.041  30.813  1.00  0.00     0.059 A 
ATOM     81  F   UNL A   1      34.818  32.522  32.417  1.00  0.00    -0.206 F 
ATOM     82  C   UNL A   1      34.282  34.876  29.726  1.00  0.00     0.060 A 
BRANCH  82  83
ATOM     83  S   UNL A   1      32.948  35.851  28.994  1.00  0.00     0.124 S 
ATOM     84  O   UNL A   1      32.153  36.184  30.170  1.00  0.00    -0.237 OA
ATOM     85  O   UNL A   1      33.675  36.956  28.379  1.00  0.00    -0.237 OA
ATOM     86  O   UNL A   1      32.330  34.918  28.056  1.00  0.00    -0.744 OA
ENDBRANCH  82  83
ENDBRANCH  50  75
BRANCH  62  87
ATOM     87  C   UNL A   1      39.879  34.011  36.819  1.00  0.00     0.058 A 
ATOM     88  C   UNL A   1      40.467  35.281  36.746  1.00  0.00     0.135 A 
ATOM     89  C   UNL A   1      39.123  33.697  37.960  1.00  0.00     0.135 A 
ATOM     90  F   UNL A   1      41.208  35.623  35.680  1.00  0.00    -0.206 F 
ATOM     91  C   UNL A   1      40.312  36.211  37.769  1.00  0.00     0.059 A 
ATOM     92  C   UNL A   1      38.936  34.619  38.984  1.00  0.00     0.059 A 
ATOM     93  F   UNL A   1      38.535  32.495  38.073  1.00  0.00    -0.206 F 
ATOM     94  C   UNL A   1      39.538  35.872  38.881  1.00  0.00     0.060 A 
BRANCH  94  95
ATOM     95  S   UNL A   1      39.291  37.112  40.170  1.00  0.00     0.124 S 
ATOM     96  O   UNL A   1      40.658  37.343  40.623  1.00  0.00    -0.237 OA
ATOM     97  O   UNL A   1      38.673  38.210  39.433  1.00  0.00    -0.237 OA
ATOM     98  O   UNL A   1      38.418  36.437  41.126  1.00  0.00    -0.744 OA
ENDBRANCH  94  95
ENDBRANCH  62  87
ENDBRANCH  36  37
ENDBRANCH  28  31
ENDBRANCH  26  27
ENDBRANCH   1  26
TORSDOF 16
ENDMDL
MODEL 3
REMARK VINA RESULT:     -10.8      2.713      4.738
REMARK SMILES O=C(NCCCNC(=O)c1ccc(-c2c3nc(c(-c4c(F)cc(S(=O)(=O)[O-])cc4F)c4ccc([nH]4)c(-c4c(F)cc(S(=O)(=O)[O-])cc4F)c4nc(c(-c5c(F)cc(S(=O)(=O)[O-])cc5F)c5ccc2[nH]5)C=C4)C=C3)cc1)C1=Cc2cc(OC(F)(F)F)ccc2O[C@@H]1C(F)(F)F
REMARK SMILES IDX 5 1 4 2 3 3 1 4 2 5 76 7 77 8 90 9 78 10 89 11 79 12 88 13
REMARK SMILES IDX 80 14 87 15 86 16 91 17 92 18 93 19 94 20 81 21 82 22 83 23
REMARK SMILES IDX 84 24 85 25 6 26 7 27 8 28 9 30 10 31 11 32 75 33 12 34
REMARK SMILES IDX 74 35 13 36 14 37 15 38 68 39 16 40 73 41 67 42 69 43 17 44
REMARK SMILES IDX 72 45 66 46 65 47 18 49 52 50 31 51 51 52 32 53 35 54 50 55
REMARK SMILES IDX 70 56 33 57 34 58 49 60 71 61 36 62 19 63 20 64 29 65 21 66
REMARK SMILES IDX 22 67 28 68 30 69 23 70 24 71 25 72 26 73 27 74 53 75 54 76
REMARK SMILES IDX 63 77 55 78 56 79 62 80 64 81 57 82 58 83 59 84 60 85 61 86
REMARK SMILES IDX 37 87 38 88 47 89 39 90 40 91 46 92 48 93 41 94 42 95 43 96
REMARK SMILES IDX 44 97 45 98
REMARK H PARENT 3 6 7 29 69 48 35 59
REMARK Flexibility Score: inf
ROOT
ATOM      1  C   UNL A   1      37.355  22.694  25.418  1.00  0.00     0.042 C 
ENDROOT
BRANCH   1   2
ATOM      2  C   UNL A   1      35.893  23.081  25.219  1.00  0.00     0.118 C 
BRANCH   2   3
ATOM      3  N   UNL A   1      35.628  23.743  23.938  1.00  0.00    -0.352 N 
ATOM      4  O   UNL A   1      34.376  24.805  22.372  1.00  0.00    -0.270 OA
ATOM      5  C   UNL A   1      34.436  24.026  23.314  1.00  0.00     0.251 C 
ATOM      6  H   UNL A   1      36.432  24.031  23.446  1.00  0.00     0.163 HD
BRANCH   5   7
ATOM      7  C   UNL A   1      33.216  23.424  23.881  1.00  0.00     0.067 C 
ATOM      8  C   UNL A   1      32.675  22.386  23.230  1.00  0.00     0.025 C 
ATOM      9  C   UNL A   1      32.900  23.741  25.309  1.00  0.00     0.314 C 
ATOM     10  C   UNL A   1      32.432  21.240  24.116  1.00  0.00     0.021 A 
ATOM     11  O   UNL A   1      32.842  22.559  26.145  1.00  0.00    -0.475 OA
ATOM     12  C   UNL A   1      32.427  19.968  23.529  1.00  0.00     0.058 A 
ATOM     13  C   UNL A   1      32.659  21.361  25.498  1.00  0.00     0.128 A 
ATOM     14  C   UNL A   1      32.770  18.843  24.284  1.00  0.00     0.130 A 
ATOM     15  C   UNL A   1      32.925  20.227  26.264  1.00  0.00     0.051 A 
ATOM     16  C   UNL A   1      33.010  18.973  25.653  1.00  0.00     0.050 A 
BRANCH   9  17
ATOM     17  C   UNL A   1      31.597  24.548  25.421  1.00  0.00     0.429 C 
ATOM     18  F   UNL A   1      30.559  23.874  24.865  1.00  0.00    -0.167 F 
ATOM     19  F   UNL A   1      31.255  24.787  26.710  1.00  0.00    -0.167 F 
ATOM     20  F   UNL A   1      31.672  25.747  24.797  1.00  0.00    -0.167 F 
ENDBRANCH   9  17
BRANCH  14  21
ATOM     21  O   UNL A   1      32.860  17.678  23.576  1.00  0.00    -0.406 OA
BRANCH  21  22
ATOM     22  C   UNL A   1      34.129  17.037  23.591  1.00  0.00     0.573 C 
ATOM     23  F   UNL A   1      34.463  16.583  22.364  1.00  0.00    -0.132 F 
ATOM     24  F   UNL A   1      35.088  17.876  24.038  1.00  0.00    -0.132 F 
ATOM     25  F   UNL A   1      34.074  15.979  24.429  1.00  0.00    -0.132 F 
ENDBRANCH  21  22
ENDBRANCH  14  21
ENDBRANCH   5   7
ENDBRANCH   2   3
ENDBRANCH   1   2
BRANCH   1  26
ATOM     26  C   UNL A   1      38.149  23.755  26.178  1.00  0.00     0.118 C 
BRANCH  26  27
ATOM     27  N   UNL A   1      39.597  23.566  26.130  1.00  0.00    -0.352 N 
ATOM     28  C   UNL A   1      40.637  24.318  26.647  1.00  0.00     0.251 C 
ATOM     29  H   UNL A   1      39.883  22.760  25.644  1.00  0.00     0.163 HD
ATOM     30  O   UNL A   1      41.787  23.998  26.394  1.00  0.00    -0.269 OA
BRANCH  28  31
ATOM     31  C   UNL A   1      40.363  25.528  27.461  1.00  0.00     0.039 A 
ATOM     32  C   UNL A   1      39.472  25.436  28.536  1.00  0.00     0.014 A 
ATOM     33  C   UNL A   1      41.002  26.738  27.199  1.00  0.00     0.014 A 
ATOM     34  C   UNL A   1      39.343  26.506  29.427  1.00  0.00     0.010 A 
ATOM     35  C   UNL A   1      40.962  27.756  28.145  1.00  0.00     0.010 A 
ATOM     36  C   UNL A   1      40.154  27.643  29.286  1.00  0.00    -0.014 A 
BRANCH  36  37
ATOM     37  C   UNL A   1      40.222  28.713  30.321  1.00  0.00     0.031 A 
ATOM     38  C   UNL A   1      41.163  28.568  31.488  1.00  0.00     0.074 A 
ATOM     39  C   UNL A   1      39.348  29.741  30.282  1.00  0.00     0.049 A 
ATOM     40  N   UNL A   1      41.209  29.248  32.604  1.00  0.00    -0.248 NA
ATOM     41  C   UNL A   1      42.156  27.483  31.406  1.00  0.00     0.031 C 
ATOM     42  C   UNL A   1      38.351  29.977  29.233  1.00  0.00     0.029 A 
ATOM     43  N   UNL A   1      39.137  30.771  31.167  1.00  0.00    -0.354 N 
ATOM     44  C   UNL A   1      42.209  28.656  33.367  1.00  0.00     0.074 A 
ATOM     45  C   UNL A   1      42.708  27.530  32.610  1.00  0.00     0.031 C 
ATOM     46  C   UNL A   1      37.654  31.086  29.523  1.00  0.00     0.029 A 
ATOM     47  C   UNL A   1      38.107  31.611  30.805  1.00  0.00     0.049 A 
ATOM     48  H   UNL A   1      39.672  30.898  31.983  1.00  0.00     0.167 HD
ATOM     49  C   UNL A   1      42.684  29.033  34.578  1.00  0.00     0.037 A 
ATOM     50  C   UNL A   1      37.569  32.667  31.446  1.00  0.00     0.037 A 
ATOM     51  C   UNL A   1      42.222  30.187  35.302  1.00  0.00     0.049 A 
ATOM     52  C   UNL A   1      38.111  33.060  32.794  1.00  0.00     0.074 A 
ATOM     53  C   UNL A   1      42.687  30.690  36.503  1.00  0.00     0.029 A 
ATOM     54  N   UNL A   1      41.200  31.024  34.884  1.00  0.00    -0.354 N 
ATOM     55  N   UNL A   1      39.080  32.508  33.484  1.00  0.00    -0.248 NA
ATOM     56  C   UNL A   1      37.479  34.209  33.457  1.00  0.00     0.031 C 
ATOM     57  C   UNL A   1      41.927  31.819  36.827  1.00  0.00     0.029 A 
ATOM     58  C   UNL A   1      41.009  32.035  35.810  1.00  0.00     0.049 A 
ATOM     59  H   UNL A   1      40.685  30.917  34.051  1.00  0.00     0.167 HD
ATOM     60  C   UNL A   1      39.186  33.253  34.652  1.00  0.00     0.074 A 
ATOM     61  C   UNL A   1      38.194  34.305  34.571  1.00  0.00     0.031 C 
ATOM     62  C   UNL A   1      40.024  33.080  35.702  1.00  0.00     0.037 A 
BRANCH  49  63
ATOM     63  C   UNL A   1      43.783  28.206  35.184  1.00  0.00     0.058 A 
ATOM     64  C   UNL A   1      45.135  28.483  34.922  1.00  0.00     0.135 A 
ATOM     65  C   UNL A   1      43.489  27.159  36.073  1.00  0.00     0.135 A 
ATOM     66  F   UNL A   1      45.471  29.461  34.067  1.00  0.00    -0.206 F 
ATOM     67  C   UNL A   1      46.155  27.736  35.501  1.00  0.00     0.059 A 
ATOM     68  C   UNL A   1      44.495  26.415  36.684  1.00  0.00     0.059 A 
ATOM     69  F   UNL A   1      42.214  26.851  36.357  1.00  0.00    -0.206 F 
ATOM     70  C   UNL A   1      45.825  26.704  36.382  1.00  0.00     0.060 A 
BRANCH  70  71
ATOM     71  S   UNL A   1      47.165  25.759  37.137  1.00  0.00     0.124 S 
ATOM     72  O   UNL A   1      47.358  24.696  36.156  1.00  0.00    -0.237 OA
ATOM     73  O   UNL A   1      48.236  26.747  37.220  1.00  0.00    -0.237 OA
ATOM     74  O   UNL A   1      46.604  25.338  38.417  1.00  0.00    -0.744 OA
ENDBRANCH  70  71
ENDBRANCH  49  63
BRANCH  50  75
ATOM     75  C   UNL A   1      36.449  33.432  30.833  1.00  0.00     0.058 A 
ATOM     76  C   UNL A   1      35.144  33.315  31.334  1.00  0.00     0.135 A 
ATOM     77  C   UNL A   1      36.651  34.272  29.726  1.00  0.00     0.135 A 
ATOM     78  F   UNL A   1      34.899  32.519  32.386  1.00  0.00    -0.206 F 
ATOM     79  C   UNL A   1      34.073  33.980  30.744  1.00  0.00     0.059 A 
ATOM     80  C   UNL A   1      35.600  34.966  29.134  1.00  0.00     0.059 A 
ATOM     81  F   UNL A   1      37.883  34.432  29.218  1.00  0.00    -0.206 F 
ATOM     82  C   UNL A   1      34.312  34.800  29.641  1.00  0.00     0.060 A 
BRANCH  82  83
ATOM     83  S   UNL A   1      32.919  35.673  28.891  1.00  0.00     0.124 S 
ATOM     84  O   UNL A   1      32.343  34.632  28.048  1.00  0.00    -0.237 OA
ATOM     85  O   UNL A   1      32.132  36.060  30.057  1.00  0.00    -0.237 OA
ATOM     86  O   UNL A   1      33.560  36.778  28.184  1.00  0.00    -0.744 OA
ENDBRANCH  82  83
ENDBRANCH  50  75
BRANCH  62  87
ATOM     87  C   UNL A   1      39.922  34.055  36.839  1.00  0.00     0.058 A 
ATOM     88  C   UNL A   1      40.513  35.324  36.766  1.00  0.00     0.135 A 
ATOM     89  C   UNL A   1      39.162  33.744  37.978  1.00  0.00     0.135 A 
ATOM     90  F   UNL A   1      41.259  35.663  35.702  1.00  0.00    -0.206 F 
ATOM     91  C   UNL A   1      40.358  36.255  37.788  1.00  0.00     0.059 A 
ATOM     92  C   UNL A   1      38.974  34.668  39.001  1.00  0.00     0.059 A 
ATOM     93  F   UNL A   1      38.571  32.544  38.090  1.00  0.00    -0.206 F 
ATOM     94  C   UNL A   1      39.580  35.920  38.898  1.00  0.00     0.060 A 
BRANCH  94  95
ATOM     95  S   UNL A   1      39.331  37.161  40.185  1.00  0.00     0.124 S 
ATOM     96  O   UNL A   1      38.490  36.439  41.133  1.00  0.00    -0.237 OA
ATOM     97  O   UNL A   1      40.697  37.430  40.626  1.00  0.00    -0.237 OA
ATOM     98  O   UNL A   1      38.681  38.259  39.477  1.00  0.00    -0.744 OA
ENDBRANCH  94  95
ENDBRANCH  62  87
ENDBRANCH  36  37
ENDBRANCH  28  31
ENDBRANCH  26  27
ENDBRANCH   1  26
TORSDOF 16
ENDMDL
