MODEL 1
REMARK VINA RESULT:     -12.3      0.000      0.000
REMARK SMILES C[C@@H]1CCC[C@@](Cc2ncccn2)(C(=O)NCCCNC(=O)c2ccc(-c3c4nc(c(-c5c(F)cc(S(=O)(=O)[O-])cc5F)c5ccc([nH]5)c(-c5c(F)cc(S(=O)(=O)[O-])cc5F)c5nc(c(-c6c(F)cc(S(=O)(=O)[O-])cc6F)c6ccc3[nH]6)C=C5)C=C4)cc2)C1
REMARK SMILES IDX 18 1 17 2 16 3 14 4 15 5 6 7 1 8 2 9 3 10 89 11 4 12 5 13
REMARK SMILES IDX 7 14 8 15 9 16 13 17 10 18 12 19 11 20 19 21 20 22 21 23
REMARK SMILES IDX 22 25 23 26 24 27 88 28 25 29 87 30 26 31 27 32 28 33 81 34
REMARK SMILES IDX 29 35 86 36 80 37 82 38 30 39 85 40 79 41 78 42 31 44 65 45
REMARK SMILES IDX 44 46 64 47 45 48 48 49 63 50 83 51 46 52 47 53 62 55 84 56
REMARK SMILES IDX 49 57 32 58 33 59 42 60 34 61 35 62 41 63 43 64 36 65 37 66
REMARK SMILES IDX 38 67 39 68 40 69 66 70 67 71 76 72 68 73 69 74 75 75 77 76
REMARK SMILES IDX 70 77 71 78 72 79 73 80 74 81 50 82 51 83 60 84 52 85 53 86
REMARK SMILES IDX 59 87 61 88 54 89 55 90 56 91 57 92 58 93
REMARK H PARENT 16 6 20 24 82 43 48 54
REMARK Flexibility Score: inf
ROOT
ATOM      1  C   UNL A   1      39.111  22.174  26.301  1.00  0.00     0.042 C 
ENDROOT
BRANCH   1   2
ATOM      2  C   UNL A   1      37.741  22.629  25.848  1.00  0.00     0.117 C 
BRANCH   2   3
ATOM      3  N   UNL A   1      37.516  22.547  24.424  1.00  0.00    -0.356 N 
ATOM      4  C   UNL A   1      36.390  22.772  23.694  1.00  0.00     0.226 C 
ATOM      5  O   UNL A   1      36.585  23.004  22.494  1.00  0.00    -0.274 OA
ATOM      6  H   UNL A   1      38.304  22.288  23.895  1.00  0.00     0.163 HD
BRANCH   4   7
ATOM      7  C   UNL A   1      34.946  22.739  24.283  1.00  0.00     0.056 C 
ATOM      8  C   UNL A   1      32.284  20.817  25.214  1.00  0.00     0.007 C 
ATOM      9  C   UNL A   1      33.635  21.050  25.892  1.00  0.00    -0.013 C 
ATOM     10  C   UNL A   1      33.556  22.151  26.949  1.00  0.00     0.003 C 
ATOM     11  C   UNL A   1      34.800  21.300  24.916  1.00  0.00     0.020 C 
ATOM     12  C   UNL A   1      33.581  23.542  26.337  1.00  0.00     0.001 C 
ATOM     13  C   UNL A   1      34.802  23.750  25.448  1.00  0.00     0.017 C 
BRANCH   7  14
ATOM     14  C   UNL A   1      33.899  22.848  23.136  1.00  0.00     0.094 C 
BRANCH  14  15
ATOM     15  C   UNL A   1      33.191  24.151  22.883  1.00  0.00     0.129 A 
ATOM     16  N   UNL A   1      33.892  25.144  22.301  1.00  0.00    -0.241 NA
ATOM     17  N   UNL A   1      31.894  24.246  23.237  1.00  0.00    -0.241 NA
ATOM     18  C   UNL A   1      33.217  26.278  22.024  1.00  0.00     0.115 A 
ATOM     19  C   UNL A   1      31.271  25.407  22.946  1.00  0.00     0.115 A 
ATOM     20  C   UNL A   1      31.888  26.462  22.317  1.00  0.00     0.040 A 
ENDBRANCH  14  15
ENDBRANCH   7  14
ENDBRANCH   4   7
ENDBRANCH   2   3
ENDBRANCH   1   2
BRANCH   1  21
ATOM     21  C   UNL A   1      39.895  23.273  26.999  1.00  0.00     0.118 C 
BRANCH  21  22
ATOM     22  N   UNL A   1      40.526  24.203  26.060  1.00  0.00    -0.352 N 
ATOM     23  C   UNL A   1      40.874  25.526  26.196  1.00  0.00     0.251 C 
ATOM     24  H   UNL A   1      40.738  23.815  25.180  1.00  0.00     0.163 HD
ATOM     25  O   UNL A   1      41.165  26.184  25.198  1.00  0.00    -0.269 OA
BRANCH  23  26
ATOM     26  C   UNL A   1      40.867  26.161  27.531  1.00  0.00     0.039 A 
ATOM     27  C   UNL A   1      41.953  26.944  27.930  1.00  0.00     0.014 A 
ATOM     28  C   UNL A   1      39.772  26.003  28.378  1.00  0.00     0.014 A 
ATOM     29  C   UNL A   1      41.879  27.666  29.126  1.00  0.00     0.010 A 
ATOM     30  C   UNL A   1      39.649  26.810  29.500  1.00  0.00     0.010 A 
ATOM     31  C   UNL A   1      40.697  27.658  29.883  1.00  0.00    -0.014 A 
BRANCH  31  32
ATOM     32  C   UNL A   1      40.503  28.544  31.061  1.00  0.00     0.031 A 
ATOM     33  C   UNL A   1      39.449  29.619  31.024  1.00  0.00     0.074 A 
ATOM     34  C   UNL A   1      41.364  28.469  32.096  1.00  0.00     0.049 A 
ATOM     35  N   UNL A   1      39.237  30.595  31.868  1.00  0.00    -0.248 NA
ATOM     36  C   UNL A   1      38.542  29.627  29.862  1.00  0.00     0.031 C 
ATOM     37  C   UNL A   1      42.479  27.523  32.208  1.00  0.00     0.029 A 
ATOM     38  N   UNL A   1      41.459  29.220  33.242  1.00  0.00    -0.354 N 
ATOM     39  C   UNL A   1      38.208  31.352  31.320  1.00  0.00     0.074 A 
ATOM     40  C   UNL A   1      37.863  30.749  30.052  1.00  0.00     0.031 C 
ATOM     41  C   UNL A   1      43.134  27.742  33.359  1.00  0.00     0.029 A 
ATOM     42  C   UNL A   1      42.520  28.871  34.047  1.00  0.00     0.049 A 
ATOM     43  H   UNL A   1      40.827  29.940  33.466  1.00  0.00     0.167 HD
ATOM     44  C   UNL A   1      37.594  32.440  31.838  1.00  0.00     0.037 A 
ATOM     45  C   UNL A   1      42.963  29.416  35.197  1.00  0.00     0.037 A 
ATOM     46  C   UNL A   1      37.897  32.989  33.134  1.00  0.00     0.049 A 
ATOM     47  C   UNL A   1      42.231  30.597  35.773  1.00  0.00     0.074 A 
ATOM     48  C   UNL A   1      37.243  34.003  33.809  1.00  0.00     0.029 A 
ATOM     49  N   UNL A   1      38.938  32.570  33.947  1.00  0.00    -0.354 N 
ATOM     50  N   UNL A   1      41.188  31.233  35.293  1.00  0.00    -0.248 NA
ATOM     51  C   UNL A   1      42.732  31.137  37.045  1.00  0.00     0.031 C 
ATOM     52  C   UNL A   1      37.919  34.231  35.012  1.00  0.00     0.029 A 
ATOM     53  C   UNL A   1      38.966  33.327  35.104  1.00  0.00     0.049 A 
ATOM     54  H   UNL A   1      39.565  31.841  33.733  1.00  0.00     0.167 HD
ATOM     55  C   UNL A   1      40.900  32.236  36.210  1.00  0.00     0.074 A 
ATOM     56  C   UNL A   1      41.864  32.112  37.284  1.00  0.00     0.031 C 
ATOM     57  C   UNL A   1      39.930  33.181  36.164  1.00  0.00     0.037 A 
BRANCH  44  58
ATOM     58  C   UNL A   1      36.518  33.104  31.026  1.00  0.00     0.058 A 
ATOM     59  C   UNL A   1      35.161  32.992  31.365  1.00  0.00     0.135 A 
ATOM     60  C   UNL A   1      36.856  33.924  29.937  1.00  0.00     0.135 A 
ATOM     61  F   UNL A   1      34.781  32.208  32.387  1.00  0.00    -0.206 F 
ATOM     62  C   UNL A   1      34.175  33.658  30.645  1.00  0.00     0.059 A 
ATOM     63  C   UNL A   1      35.888  34.620  29.218  1.00  0.00     0.059 A 
ATOM     64  F   UNL A   1      38.139  34.061  29.568  1.00  0.00    -0.206 F 
ATOM     65  C   UNL A   1      34.549  34.475  29.577  1.00  0.00     0.060 A 
BRANCH  65  66
ATOM     66  S   UNL A   1      33.259  35.364  28.681  1.00  0.00     0.124 S 
ATOM     67  O   UNL A   1      34.049  36.281  27.866  1.00  0.00    -0.237 OA
ATOM     68  O   UNL A   1      32.588  34.290  27.954  1.00  0.00    -0.237 OA
ATOM     69  O   UNL A   1      32.473  35.985  29.742  1.00  0.00    -0.744 OA
ENDBRANCH  65  66
ENDBRANCH  44  58
BRANCH  45  70
ATOM     70  C   UNL A   1      44.162  28.858  35.880  1.00  0.00     0.058 A 
ATOM     71  C   UNL A   1      44.046  27.789  36.782  1.00  0.00     0.135 A 
ATOM     72  C   UNL A   1      45.442  29.386  35.654  1.00  0.00     0.135 A 
ATOM     73  F   UNL A   1      42.843  27.253  37.034  1.00  0.00    -0.206 F 
ATOM     74  C   UNL A   1      45.151  27.282  37.457  1.00  0.00     0.059 A 
ATOM     75  C   UNL A   1      46.567  28.878  36.298  1.00  0.00     0.059 A 
ATOM     76  F   UNL A   1      45.611  30.393  34.785  1.00  0.00    -0.206 F 
ATOM     77  C   UNL A   1      46.408  27.836  37.212  1.00  0.00     0.060 A 
BRANCH  77  78
ATOM     78  S   UNL A   1      47.842  27.157  38.076  1.00  0.00     0.124 S 
ATOM     79  O   UNL A   1      48.866  28.145  37.763  1.00  0.00    -0.237 OA
ATOM     80  O   UNL A   1      47.380  27.129  39.461  1.00  0.00    -0.237 OA
ATOM     81  O   UNL A   1      48.015  25.846  37.456  1.00  0.00    -0.744 OA
ENDBRANCH  77  78
ENDBRANCH  45  70
BRANCH  57  82
ATOM     82  C   UNL A   1      39.848  34.145  37.313  1.00  0.00     0.058 A 
ATOM     83  C   UNL A   1      40.529  35.371  37.287  1.00  0.00     0.135 A 
ATOM     84  C   UNL A   1      39.020  33.873  38.413  1.00  0.00     0.135 A 
ATOM     85  F   UNL A   1      41.339  35.673  36.259  1.00  0.00    -0.206 F 
ATOM     86  C   UNL A   1      40.400  36.293  38.319  1.00  0.00     0.059 A 
ATOM     87  C   UNL A   1      38.856  34.791  39.445  1.00  0.00     0.059 A 
ATOM     88  F   UNL A   1      38.341  32.717  38.481  1.00  0.00    -0.206 F 
ATOM     89  C   UNL A   1      39.556  35.996  39.391  1.00  0.00     0.060 A 
BRANCH  89  90
ATOM     90  S   UNL A   1      39.354  37.226  40.697  1.00  0.00     0.124 S 
ATOM     91  O   UNL A   1      38.312  38.080  40.138  1.00  0.00    -0.237 OA
ATOM     92  O   UNL A   1      38.961  36.408  41.840  1.00  0.00    -0.237 OA
ATOM     93  O   UNL A   1      40.678  37.835  40.797  1.00  0.00    -0.744 OA
ENDBRANCH  89  90
ENDBRANCH  57  82
ENDBRANCH  31  32
ENDBRANCH  23  26
ENDBRANCH  21  22
ENDBRANCH   1  21
TORSDOF 15
ENDMDL
MODEL 2
REMARK VINA RESULT:     -12.2      5.184      9.884
REMARK SMILES C[C@@H]1CCC[C@@](Cc2ncccn2)(C(=O)NCCCNC(=O)c2ccc(-c3c4nc(c(-c5c(F)cc(S(=O)(=O)[O-])cc5F)c5ccc([nH]5)c(-c5c(F)cc(S(=O)(=O)[O-])cc5F)c5nc(c(-c6c(F)cc(S(=O)(=O)[O-])cc6F)c6ccc3[nH]6)C=C5)C=C4)cc2)C1
REMARK SMILES IDX 18 1 17 2 16 3 14 4 15 5 6 7 1 8 2 9 3 10 89 11 4 12 5 13
REMARK SMILES IDX 7 14 8 15 9 16 13 17 10 18 12 19 11 20 19 21 20 22 21 23
REMARK SMILES IDX 22 25 23 26 24 27 88 28 25 29 87 30 26 31 27 32 28 33 81 34
REMARK SMILES IDX 29 35 86 36 80 37 82 38 30 39 85 40 79 41 78 42 31 44 65 45
REMARK SMILES IDX 44 46 64 47 45 48 48 49 63 50 83 51 46 52 47 53 62 55 84 56
REMARK SMILES IDX 49 57 32 58 33 59 42 60 34 61 35 62 41 63 43 64 36 65 37 66
REMARK SMILES IDX 38 67 39 68 40 69 66 70 67 71 76 72 68 73 69 74 75 75 77 76
REMARK SMILES IDX 70 77 71 78 72 79 73 80 74 81 50 82 51 83 60 84 52 85 53 86
REMARK SMILES IDX 59 87 61 88 54 89 55 90 56 91 57 92 58 93
REMARK H PARENT 16 6 20 24 82 43 48 54
REMARK Flexibility Score: inf
ROOT
ATOM      1  C   UNL A   1      33.699  28.092  25.952  1.00  0.00     0.042 C 
ENDROOT
BRANCH   1   2
ATOM      2  C   UNL A   1      33.687  26.591  25.764  1.00  0.00     0.117 C 
BRANCH   2   3
ATOM      3  N   UNL A   1      32.513  25.925  26.275  1.00  0.00    -0.356 N 
ATOM      4  C   UNL A   1      32.228  24.599  26.387  1.00  0.00     0.226 C 
ATOM      5  O   UNL A   1      31.337  24.325  27.202  1.00  0.00    -0.274 OA
ATOM      6  H   UNL A   1      31.803  26.527  26.596  1.00  0.00     0.163 HD
BRANCH   4   7
ATOM      7  C   UNL A   1      32.939  23.481  25.565  1.00  0.00     0.056 C 
ATOM      8  C   UNL A   1      32.867  20.242  24.490  1.00  0.00     0.007 C 
ATOM      9  C   UNL A   1      32.071  21.466  24.033  1.00  0.00    -0.013 C 
ATOM     10  C   UNL A   1      32.711  22.138  22.820  1.00  0.00     0.003 C 
ATOM     11  C   UNL A   1      31.784  22.488  25.148  1.00  0.00     0.020 C 
ATOM     12  C   UNL A   1      33.899  23.008  23.203  1.00  0.00     0.001 C 
ATOM     13  C   UNL A   1      33.526  24.051  24.250  1.00  0.00     0.017 C 
BRANCH   7  14
ATOM     14  C   UNL A   1      33.921  22.689  26.478  1.00  0.00     0.094 C 
BRANCH  14  15
ATOM     15  C   UNL A   1      35.389  22.652  26.150  1.00  0.00     0.129 A 
ATOM     16  N   UNL A   1      35.918  21.472  25.772  1.00  0.00    -0.241 NA
ATOM     17  N   UNL A   1      36.086  23.802  26.237  1.00  0.00    -0.241 NA
ATOM     18  C   UNL A   1      37.220  21.479  25.419  1.00  0.00     0.115 A 
ATOM     19  C   UNL A   1      37.387  23.750  25.881  1.00  0.00     0.115 A 
ATOM     20  C   UNL A   1      38.008  22.604  25.443  1.00  0.00     0.040 A 
ENDBRANCH  14  15
ENDBRANCH   7  14
ENDBRANCH   4   7
ENDBRANCH   2   3
ENDBRANCH   1   2
BRANCH   1  21
ATOM     21  C   UNL A   1      33.218  28.516  27.330  1.00  0.00     0.118 C 
BRANCH  21  22
ATOM     22  N   UNL A   1      33.353  29.957  27.559  1.00  0.00    -0.352 N 
ATOM     23  C   UNL A   1      34.382  30.692  28.099  1.00  0.00     0.251 C 
ATOM     24  H   UNL A   1      32.574  30.490  27.279  1.00  0.00     0.163 HD
ATOM     25  O   UNL A   1      34.186  31.860  28.428  1.00  0.00    -0.269 OA
BRANCH  23  26
ATOM     26  C   UNL A   1      35.706  30.070  28.310  1.00  0.00     0.039 A 
ATOM     27  C   UNL A   1      36.637  30.055  27.268  1.00  0.00     0.014 A 
ATOM     28  C   UNL A   1      36.036  29.525  29.550  1.00  0.00     0.014 A 
ATOM     29  C   UNL A   1      37.938  29.605  27.514  1.00  0.00     0.010 A 
ATOM     30  C   UNL A   1      37.355  29.194  29.824  1.00  0.00     0.010 A 
ATOM     31  C   UNL A   1      38.325  29.239  28.813  1.00  0.00    -0.014 A 
BRANCH  31  32
ATOM     32  C   UNL A   1      39.736  28.927  29.163  1.00  0.00     0.031 A 
ATOM     33  C   UNL A   1      40.629  30.010  29.709  1.00  0.00     0.074 A 
ATOM     34  C   UNL A   1      40.242  27.715  28.858  1.00  0.00     0.049 A 
ATOM     35  N   UNL A   1      41.919  29.988  29.913  1.00  0.00    -0.248 NA
ATOM     36  C   UNL A   1      39.995  31.303  30.025  1.00  0.00     0.031 C 
ATOM     37  C   UNL A   1      39.495  26.610  28.248  1.00  0.00     0.029 A 
ATOM     38  N   UNL A   1      41.514  27.214  28.991  1.00  0.00    -0.354 N 
ATOM     39  C   UNL A   1      42.257  31.269  30.337  1.00  0.00     0.074 A 
ATOM     40  C   UNL A   1      41.044  32.055  30.323  1.00  0.00     0.031 C 
ATOM     41  C   UNL A   1      40.316  25.562  28.072  1.00  0.00     0.029 A 
ATOM     42  C   UNL A   1      41.657  25.931  28.510  1.00  0.00     0.049 A 
ATOM     43  H   UNL A   1      42.253  27.724  29.392  1.00  0.00     0.167 HD
ATOM     44  C   UNL A   1      43.466  31.738  30.721  1.00  0.00     0.037 A 
ATOM     45  C   UNL A   1      42.750  25.150  28.411  1.00  0.00     0.037 A 
ATOM     46  C   UNL A   1      44.651  30.927  30.799  1.00  0.00     0.049 A 
ATOM     47  C   UNL A   1      44.072  25.683  28.890  1.00  0.00     0.074 A 
ATOM     48  C   UNL A   1      45.893  31.269  31.303  1.00  0.00     0.029 A 
ATOM     49  N   UNL A   1      44.743  29.615  30.361  1.00  0.00    -0.354 N 
ATOM     50  N   UNL A   1      44.351  26.863  29.391  1.00  0.00    -0.248 NA
ATOM     51  C   UNL A   1      45.231  24.784  28.791  1.00  0.00     0.031 C 
ATOM     52  C   UNL A   1      46.750  30.178  31.127  1.00  0.00     0.029 A 
ATOM     53  C   UNL A   1      46.029  29.142  30.554  1.00  0.00     0.049 A 
ATOM     54  H   UNL A   1      44.002  29.096  29.972  1.00  0.00     0.167 HD
ATOM     55  C   UNL A   1      45.709  26.843  29.681  1.00  0.00     0.074 A 
ATOM     56  C   UNL A   1      46.195  25.527  29.319  1.00  0.00     0.031 C 
ATOM     57  C   UNL A   1      46.488  27.826  30.193  1.00  0.00     0.037 A 
BRANCH  44  58
ATOM     58  C   UNL A   1      43.576  33.186  31.110  1.00  0.00     0.058 A 
ATOM     59  C   UNL A   1      43.432  33.606  32.441  1.00  0.00     0.135 A 
ATOM     60  C   UNL A   1      43.903  34.155  30.148  1.00  0.00     0.135 A 
ATOM     61  F   UNL A   1      43.102  32.724  33.398  1.00  0.00    -0.206 F 
ATOM     62  C   UNL A   1      43.594  34.939  32.803  1.00  0.00     0.059 A 
ATOM     63  C   UNL A   1      44.096  35.490  30.492  1.00  0.00     0.059 A 
ATOM     64  F   UNL A   1      44.048  33.807  28.860  1.00  0.00    -0.206 F 
ATOM     65  C   UNL A   1      43.932  35.873  31.823  1.00  0.00     0.060 A 
BRANCH  65  66
ATOM     66  S   UNL A   1      44.180  37.590  32.319  1.00  0.00     0.124 S 
ATOM     67  O   UNL A   1      43.228  37.716  33.417  1.00  0.00    -0.237 OA
ATOM     68  O   UNL A   1      45.590  37.604  32.699  1.00  0.00    -0.237 OA
ATOM     69  O   UNL A   1      43.852  38.344  31.113  1.00  0.00    -0.744 OA
ENDBRANCH  65  66
ENDBRANCH  44  58
BRANCH  45  70
ATOM     70  C   UNL A   1      42.647  23.783  27.832  1.00  0.00     0.058 A 
ATOM     71  C   UNL A   1      42.684  23.582  26.444  1.00  0.00     0.135 A 
ATOM     72  C   UNL A   1      42.500  22.652  28.651  1.00  0.00     0.135 A 
ATOM     73  F   UNL A   1      42.820  24.631  25.619  1.00  0.00    -0.206 F 
ATOM     74  C   UNL A   1      42.550  22.316  25.886  1.00  0.00     0.059 A 
ATOM     75  C   UNL A   1      42.390  21.372  28.117  1.00  0.00     0.059 A 
ATOM     76  F   UNL A   1      42.481  22.787  29.986  1.00  0.00    -0.206 F 
ATOM     77  C   UNL A   1      42.399  21.216  26.731  1.00  0.00     0.060 A 
BRANCH  77  78
ATOM     78  S   UNL A   1      42.248  19.571  25.999  1.00  0.00     0.124 S 
ATOM     79  O   UNL A   1      40.824  19.516  25.696  1.00  0.00    -0.237 OA
ATOM     80  O   UNL A   1      43.145  19.663  24.851  1.00  0.00    -0.237 OA
ATOM     81  O   UNL A   1      42.703  18.687  27.069  1.00  0.00    -0.744 OA
ENDBRANCH  77  78
ENDBRANCH  45  70
BRANCH  57  82
ATOM     82  C   UNL A   1      47.942  27.516  30.410  1.00  0.00     0.058 A 
ATOM     83  C   UNL A   1      48.410  27.033  31.641  1.00  0.00     0.135 A 
ATOM     84  C   UNL A   1      48.859  27.630  29.354  1.00  0.00     0.135 A 
ATOM     85  F   UNL A   1      47.572  26.914  32.683  1.00  0.00    -0.206 F 
ATOM     86  C   UNL A   1      49.743  26.683  31.821  1.00  0.00     0.059 A 
ATOM     87  C   UNL A   1      50.192  27.262  29.504  1.00  0.00     0.059 A 
ATOM     88  F   UNL A   1      48.458  28.079  28.154  1.00  0.00    -0.206 F 
ATOM     89  C   UNL A   1      50.625  26.795  30.745  1.00  0.00     0.060 A 
BRANCH  89  90
ATOM     90  S   UNL A   1      52.341  26.284  30.977  1.00  0.00     0.124 S 
ATOM     91  O   UNL A   1      52.860  27.364  31.810  1.00  0.00    -0.237 OA
ATOM     92  O   UNL A   1      52.195  24.988  31.634  1.00  0.00    -0.237 OA
ATOM     93  O   UNL A   1      52.867  26.233  29.616  1.00  0.00    -0.744 OA
ENDBRANCH  89  90
ENDBRANCH  57  82
ENDBRANCH  31  32
ENDBRANCH  23  26
ENDBRANCH  21  22
ENDBRANCH   1  21
TORSDOF 15
ENDMDL
MODEL 3
REMARK VINA RESULT:     -12.2      6.937     11.752
REMARK SMILES C[C@@H]1CCC[C@@](Cc2ncccn2)(C(=O)NCCCNC(=O)c2ccc(-c3c4nc(c(-c5c(F)cc(S(=O)(=O)[O-])cc5F)c5ccc([nH]5)c(-c5c(F)cc(S(=O)(=O)[O-])cc5F)c5nc(c(-c6c(F)cc(S(=O)(=O)[O-])cc6F)c6ccc3[nH]6)C=C5)C=C4)cc2)C1
REMARK SMILES IDX 18 1 17 2 16 3 14 4 15 5 6 7 1 8 2 9 3 10 89 11 4 12 5 13
REMARK SMILES IDX 7 14 8 15 9 16 13 17 10 18 12 19 11 20 19 21 20 22 21 23
REMARK SMILES IDX 22 25 23 26 24 27 88 28 25 29 87 30 26 31 27 32 28 33 81 34
REMARK SMILES IDX 29 35 86 36 80 37 82 38 30 39 85 40 79 41 78 42 31 44 65 45
REMARK SMILES IDX 44 46 64 47 45 48 48 49 63 50 83 51 46 52 47 53 62 55 84 56
REMARK SMILES IDX 49 57 32 58 33 59 42 60 34 61 35 62 41 63 43 64 36 65 37 66
REMARK SMILES IDX 38 67 39 68 40 69 66 70 67 71 76 72 68 73 69 74 75 75 77 76
REMARK SMILES IDX 70 77 71 78 72 79 73 80 74 81 50 82 51 83 60 84 52 85 53 86
REMARK SMILES IDX 59 87 61 88 54 89 55 90 56 91 57 92 58 93
REMARK H PARENT 16 6 20 24 82 43 48 54
REMARK Flexibility Score: inf
ROOT
ATOM      1  C   UNL A   1      34.363  28.588  26.959  1.00  0.00     0.042 C 
ENDROOT
BRANCH   1   2
ATOM      2  C   UNL A   1      33.430  29.380  26.070  1.00  0.00     0.117 C 
BRANCH   2   3
ATOM      3  N   UNL A   1      33.715  29.289  24.657  1.00  0.00    -0.356 N 
ATOM      4  C   UNL A   1      33.018  28.694  23.652  1.00  0.00     0.226 C 
ATOM      5  O   UNL A   1      33.291  29.103  22.516  1.00  0.00    -0.274 OA
ATOM      6  H   UNL A   1      34.549  29.729  24.375  1.00  0.00     0.163 HD
BRANCH   4   7
ATOM      7  C   UNL A   1      31.955  27.575  23.870  1.00  0.00     0.056 C 
ATOM      8  C   UNL A   1      31.153  24.280  23.476  1.00  0.00     0.007 C 
ATOM      9  C   UNL A   1      32.096  24.969  24.463  1.00  0.00    -0.013 C 
ATOM     10  C   UNL A   1      31.410  25.255  25.798  1.00  0.00     0.003 C 
ATOM     11  C   UNL A   1      32.783  26.231  23.910  1.00  0.00     0.020 C 
ATOM     12  C   UNL A   1      30.518  26.486  25.735  1.00  0.00     0.001 C 
ATOM     13  C   UNL A   1      31.280  27.717  25.258  1.00  0.00     0.017 C 
BRANCH   7  14
ATOM     14  C   UNL A   1      31.003  27.494  22.640  1.00  0.00     0.094 C 
BRANCH  14  15
ATOM     15  C   UNL A   1      29.865  28.469  22.504  1.00  0.00     0.129 A 
ATOM     16  N   UNL A   1      30.076  29.582  21.775  1.00  0.00    -0.241 NA
ATOM     17  N   UNL A   1      28.697  28.167  23.103  1.00  0.00    -0.241 NA
ATOM     18  C   UNL A   1      29.022  30.407  21.611  1.00  0.00     0.115 A 
ATOM     19  C   UNL A   1      27.678  29.031  22.915  1.00  0.00     0.115 A 
ATOM     20  C   UNL A   1      27.782  30.172  22.155  1.00  0.00     0.040 A 
ENDBRANCH  14  15
ENDBRANCH   7  14
ENDBRANCH   4   7
ENDBRANCH   2   3
ENDBRANCH   1   2
BRANCH   1  21
ATOM     21  C   UNL A   1      35.520  29.420  27.487  1.00  0.00     0.118 C 
BRANCH  21  22
ATOM     22  N   UNL A   1      35.305  29.885  28.860  1.00  0.00    -0.352 N 
ATOM     23  C   UNL A   1      36.176  30.019  29.914  1.00  0.00     0.251 C 
ATOM     24  H   UNL A   1      34.377  30.146  29.062  1.00  0.00     0.163 HD
ATOM     25  O   UNL A   1      35.735  30.190  31.049  1.00  0.00    -0.269 OA
BRANCH  23  26
ATOM     26  C   UNL A   1      37.634  29.927  29.687  1.00  0.00     0.039 A 
ATOM     27  C   UNL A   1      38.493  29.747  30.774  1.00  0.00     0.014 A 
ATOM     28  C   UNL A   1      38.148  29.989  28.393  1.00  0.00     0.014 A 
ATOM     29  C   UNL A   1      39.852  29.507  30.546  1.00  0.00     0.010 A 
ATOM     30  C   UNL A   1      39.469  29.632  28.162  1.00  0.00     0.010 A 
ATOM     31  C   UNL A   1      40.335  29.378  29.234  1.00  0.00    -0.014 A 
BRANCH  31  32
ATOM     32  C   UNL A   1      41.728  28.948  28.940  1.00  0.00     0.031 A 
ATOM     33  C   UNL A   1      42.834  29.969  28.899  1.00  0.00     0.074 A 
ATOM     34  C   UNL A   1      41.964  27.671  28.576  1.00  0.00     0.049 A 
ATOM     35  N   UNL A   1      44.070  29.829  28.499  1.00  0.00    -0.248 NA
ATOM     36  C   UNL A   1      42.494  31.340  29.321  1.00  0.00     0.031 C 
ATOM     37  C   UNL A   1      40.956  26.608  28.496  1.00  0.00     0.029 A 
ATOM     38  N   UNL A   1      43.123  27.052  28.174  1.00  0.00    -0.354 N 
ATOM     39  C   UNL A   1      44.640  31.094  28.579  1.00  0.00     0.074 A 
ATOM     40  C   UNL A   1      43.606  31.999  29.028  1.00  0.00     0.031 C 
ATOM     41  C   UNL A   1      41.541  25.472  28.085  1.00  0.00     0.029 A 
ATOM     42  C   UNL A   1      42.953  25.730  27.827  1.00  0.00     0.049 A 
ATOM     43  H   UNL A   1      43.992  27.510  28.138  1.00  0.00     0.167 HD
ATOM     44  C   UNL A   1      45.916  31.463  28.320  1.00  0.00     0.037 A 
ATOM     45  C   UNL A   1      43.829  24.835  27.331  1.00  0.00     0.037 A 
ATOM     46  C   UNL A   1      46.954  30.541  27.943  1.00  0.00     0.049 A 
ATOM     47  C   UNL A   1      45.252  25.262  27.098  1.00  0.00     0.074 A 
ATOM     48  C   UNL A   1      48.305  30.788  27.789  1.00  0.00     0.029 A 
ATOM     49  N   UNL A   1      46.756  29.198  27.660  1.00  0.00    -0.354 N 
ATOM     50  N   UNL A   1      45.799  26.440  27.285  1.00  0.00    -0.248 NA
ATOM     51  C   UNL A   1      46.180  24.243  26.587  1.00  0.00     0.031 C 
ATOM     52  C   UNL A   1      48.919  29.605  27.368  1.00  0.00     0.029 A 
ATOM     53  C   UNL A   1      47.956  28.610  27.301  1.00  0.00     0.049 A 
ATOM     54  H   UNL A   1      45.890  28.732  27.708  1.00  0.00     0.167 HD
ATOM     55  C   UNL A   1      47.135  26.299  26.929  1.00  0.00     0.074 A 
ATOM     56  C   UNL A   1      47.320  24.918  26.535  1.00  0.00     0.031 C 
ATOM     57  C   UNL A   1      48.119  27.231  26.921  1.00  0.00     0.037 A 
BRANCH  44  58
ATOM     58  C   UNL A   1      46.277  32.915  28.453  1.00  0.00     0.058 A 
ATOM     59  C   UNL A   1      46.171  33.805  27.373  1.00  0.00     0.135 A 
ATOM     60  C   UNL A   1      46.666  33.437  29.698  1.00  0.00     0.135 A 
ATOM     61  F   UNL A   1      45.820  33.356  26.158  1.00  0.00    -0.206 F 
ATOM     62  C   UNL A   1      46.450  35.160  27.518  1.00  0.00     0.059 A 
ATOM     63  C   UNL A   1      46.924  34.794  29.871  1.00  0.00     0.059 A 
ATOM     64  F   UNL A   1      46.788  32.629  30.761  1.00  0.00    -0.206 F 
ATOM     65  C   UNL A   1      46.820  35.646  28.773  1.00  0.00     0.060 A 
BRANCH  65  66
ATOM     66  S   UNL A   1      47.136  37.414  28.951  1.00  0.00     0.124 S 
ATOM     67  O   UNL A   1      46.214  37.976  27.970  1.00  0.00    -0.237 OA
ATOM     68  O   UNL A   1      46.794  37.652  30.351  1.00  0.00    -0.237 OA
ATOM     69  O   UNL A   1      48.554  37.541  28.626  1.00  0.00    -0.744 OA
ENDBRANCH  65  66
ENDBRANCH  44  58
BRANCH  45  70
ATOM     70  C   UNL A   1      43.390  23.448  27.017  1.00  0.00     0.058 A 
ATOM     71  C   UNL A   1      43.209  22.500  28.035  1.00  0.00     0.135 A 
ATOM     72  C   UNL A   1      43.153  23.040  25.695  1.00  0.00     0.135 A 
ATOM     73  F   UNL A   1      43.427  22.840  29.314  1.00  0.00    -0.206 F 
ATOM     74  C   UNL A   1      42.837  21.190  27.754  1.00  0.00     0.059 A 
ATOM     75  C   UNL A   1      42.754  21.741  25.391  1.00  0.00     0.059 A 
ATOM     76  F   UNL A   1      43.290  23.914  24.686  1.00  0.00    -0.206 F 
ATOM     77  C   UNL A   1      42.615  20.818  26.427  1.00  0.00     0.060 A 
BRANCH  77  78
ATOM     78  S   UNL A   1      42.110  19.121  26.072  1.00  0.00     0.124 S 
ATOM     79  O   UNL A   1      42.907  18.820  24.890  1.00  0.00    -0.237 OA
ATOM     80  O   UNL A   1      42.494  18.424  27.297  1.00  0.00    -0.237 OA
ATOM     81  O   UNL A   1      40.671  19.240  25.854  1.00  0.00    -0.744 OA
ENDBRANCH  77  78
ENDBRANCH  45  70
BRANCH  57  82
ATOM     82  C   UNL A   1      49.488  26.788  26.490  1.00  0.00     0.058 A 
ATOM     83  C   UNL A   1      50.374  26.177  27.388  1.00  0.00     0.135 A 
ATOM     84  C   UNL A   1      49.885  26.909  25.149  1.00  0.00     0.135 A 
ATOM     85  F   UNL A   1      50.042  26.046  28.683  1.00  0.00    -0.206 F 
ATOM     86  C   UNL A   1      51.615  25.707  26.974  1.00  0.00     0.059 A 
ATOM     87  C   UNL A   1      51.112  26.423  24.707  1.00  0.00     0.059 A 
ATOM     88  F   UNL A   1      49.069  27.479  24.249  1.00  0.00    -0.206 F 
ATOM     89  C   UNL A   1      51.972  25.829  25.630  1.00  0.00     0.060 A 
BRANCH  89  90
ATOM     90  S   UNL A   1      53.563  25.164  25.095  1.00  0.00     0.124 S 
ATOM     91  O   UNL A   1      53.349  23.729  25.252  1.00  0.00    -0.237 OA
ATOM     92  O   UNL A   1      53.657  25.647  23.721  1.00  0.00    -0.237 OA
ATOM     93  O   UNL A   1      54.512  25.763  26.029  1.00  0.00    -0.744 OA
ENDBRANCH  89  90
ENDBRANCH  57  82
ENDBRANCH  31  32
ENDBRANCH  23  26
ENDBRANCH  21  22
ENDBRANCH   1  21
TORSDOF 15
ENDMDL
