MODEL 1
REMARK VINA RESULT:     -12.0      0.000      0.000
REMARK SMILES O=C(COc1nc(NCc2ccc(F)cc2)nc2c1CCC2)NCCCNC(=O)c1ccc(-c2c3nc(c(-c4c(F)cc(S(=O)(=O)[O-])cc4F)c4ccc([nH]4)c(-c4c(F)cc(S(=O)(=O)[O-])cc4F)c4nc(c(-c5c(F)cc(S(=O)(=O)[O-])cc5F)c5ccc2[nH]5)C=C4)C=C3)cc1
REMARK SMILES IDX 24 1 23 2 1 3 2 4 3 6 4 7 5 8 6 9 19 10 7 11 18 12 20 13
REMARK SMILES IDX 17 14 22 15 21 16 8 17 9 19 10 20 11 21 16 22 12 23 15 24
REMARK SMILES IDX 13 25 14 26 25 27 26 28 27 29 28 30 29 32 30 33 31 34 95 35
REMARK SMILES IDX 32 36 94 37 33 38 34 39 35 40 88 41 36 42 93 43 87 44 89 45
REMARK SMILES IDX 37 46 92 47 86 48 85 49 38 51 72 52 51 53 71 54 52 55 55 56
REMARK SMILES IDX 70 57 90 58 53 59 54 60 69 62 91 63 56 64 39 65 40 66 49 67
REMARK SMILES IDX 41 68 42 69 48 70 50 71 43 72 44 73 45 74 46 75 47 76 73 77
REMARK SMILES IDX 74 78 83 79 75 80 76 81 82 82 84 83 77 84 78 85 79 86 80 87
REMARK SMILES IDX 81 88 57 89 58 90 67 91 59 92 60 93 66 94 68 95 61 96 62 97
REMARK SMILES IDX 63 98 64 99 65 100
REMARK H PARENT 23 5 8 18 27 31 89 50 55 61
REMARK Flexibility Score: inf
ROOT
ATOM      1  C   UNL A   1      39.351  22.905  26.853  1.00  0.00     0.117 C 
ENDROOT
BRANCH   1   2
ATOM      2  N   UNL A   1      38.471  22.116  26.018  1.00  0.00    -0.353 N 
ATOM      3  O   UNL A   1      36.764  23.654  25.938  1.00  0.00    -0.271 OA
ATOM      4  C   UNL A   1      37.258  22.591  25.567  1.00  0.00     0.258 C 
ATOM      5  H   UNL A   1      38.749  21.206  25.764  1.00  0.00     0.163 HD
BRANCH   4   6
ATOM      6  C   UNL A   1      36.516  21.640  24.621  1.00  0.00     0.331 C 
BRANCH   6   7
ATOM      7  O   UNL A   1      36.150  20.357  25.118  1.00  0.00    -0.467 OA
BRANCH   7   8
ATOM      8  C   UNL A   1      34.782  20.214  25.147  1.00  0.00     0.222 A 
ATOM      9  N   UNL A   1      34.047  21.244  25.598  1.00  0.00    -0.177 NA
ATOM     10  C   UNL A   1      34.225  19.079  24.649  1.00  0.00     0.036 A 
ATOM     11  C   UNL A   1      32.710  21.107  25.578  1.00  0.00     0.226 A 
ATOM     12  C   UNL A   1      32.854  19.029  24.685  1.00  0.00     0.053 A 
ATOM     13  C   UNL A   1      34.818  17.816  24.143  1.00  0.00     0.043 C 
ATOM     14  N   UNL A   1      32.070  20.011  25.139  1.00  0.00    -0.218 NA
ATOM     15  C   UNL A   1      32.354  17.692  24.218  1.00  0.00     0.057 C 
ATOM     16  C   UNL A   1      33.593  17.162  23.481  1.00  0.00     0.011 C 
BRANCH  11  17
ATOM     17  N   UNL A   1      32.002  22.165  26.066  1.00  0.00    -0.350 N 
ATOM     18  H   UNL A   1      31.865  22.227  27.039  1.00  0.00     0.164 HD
BRANCH  17  19
ATOM     19  C   UNL A   1      31.446  23.194  25.233  1.00  0.00     0.152 C 
BRANCH  19  20
ATOM     20  C   UNL A   1      32.035  24.546  25.578  1.00  0.00    -0.029 A 
ATOM     21  C   UNL A   1      31.215  25.562  26.100  1.00  0.00     0.008 A 
ATOM     22  C   UNL A   1      33.416  24.785  25.458  1.00  0.00     0.008 A 
ATOM     23  C   UNL A   1      31.762  26.791  26.474  1.00  0.00     0.039 A 
ATOM     24  C   UNL A   1      33.960  26.015  25.828  1.00  0.00     0.039 A 
ATOM     25  C   UNL A   1      33.128  27.007  26.334  1.00  0.00     0.123 A 
ATOM     26  F   UNL A   1      33.651  28.184  26.701  1.00  0.00    -0.207 F 
ENDBRANCH  19  20
ENDBRANCH  17  19
ENDBRANCH  11  17
ENDBRANCH   7   8
ENDBRANCH   6   7
ENDBRANCH   4   6
ENDBRANCH   1   2
BRANCH   1  27
ATOM     27  C   UNL A   1      40.547  22.120  27.379  1.00  0.00     0.042 C 
BRANCH  27  28
ATOM     28  C   UNL A   1      41.845  22.919  27.464  1.00  0.00     0.118 C 
BRANCH  28  29
ATOM     29  N   UNL A   1      42.081  23.755  26.294  1.00  0.00    -0.352 N 
ATOM     30  C   UNL A   1      42.012  25.115  26.134  1.00  0.00     0.251 C 
ATOM     31  H   UNL A   1      42.333  23.259  25.482  1.00  0.00     0.163 HD
ATOM     32  O   UNL A   1      42.107  25.586  24.999  1.00  0.00    -0.269 OA
BRANCH  30  33
ATOM     33  C   UNL A   1      41.810  26.022  27.286  1.00  0.00     0.039 A 
ATOM     34  C   UNL A   1      42.670  27.115  27.437  1.00  0.00     0.014 A 
ATOM     35  C   UNL A   1      40.825  25.779  28.247  1.00  0.00     0.014 A 
ATOM     36  C   UNL A   1      42.507  27.993  28.513  1.00  0.00     0.010 A 
ATOM     37  C   UNL A   1      40.622  26.690  29.285  1.00  0.00     0.010 A 
ATOM     38  C   UNL A   1      41.462  27.803  29.431  1.00  0.00    -0.014 A 
BRANCH  38  39
ATOM     39  C   UNL A   1      41.242  28.746  30.558  1.00  0.00     0.031 A 
ATOM     40  C   UNL A   1      42.107  28.669  31.787  1.00  0.00     0.074 A 
ATOM     41  C   UNL A   1      40.234  29.640  30.500  1.00  0.00     0.049 A 
ATOM     42  N   UNL A   1      42.008  29.328  32.913  1.00  0.00    -0.248 NA
ATOM     43  C   UNL A   1      43.223  27.709  31.749  1.00  0.00     0.031 C 
ATOM     44  C   UNL A   1      39.318  29.809  29.371  1.00  0.00     0.029 A 
ATOM     45  N   UNL A   1      39.805  30.568  31.416  1.00  0.00    -0.354 N 
ATOM     46  C   UNL A   1      43.038  28.860  33.720  1.00  0.00     0.074 A 
ATOM     47  C   UNL A   1      43.723  27.827  32.972  1.00  0.00     0.031 C 
ATOM     48  C   UNL A   1      38.449  30.793  29.653  1.00  0.00     0.029 A 
ATOM     49  C   UNL A   1      38.717  31.296  30.998  1.00  0.00     0.049 A 
ATOM     50  H   UNL A   1      40.237  30.699  32.291  1.00  0.00     0.167 HD
ATOM     51  C   UNL A   1      43.395  29.268  34.962  1.00  0.00     0.037 A 
ATOM     52  C   UNL A   1      38.006  32.250  31.630  1.00  0.00     0.037 A 
ATOM     53  C   UNL A   1      42.721  30.306  35.697  1.00  0.00     0.049 A 
ATOM     54  C   UNL A   1      38.397  32.659  33.024  1.00  0.00     0.074 A 
ATOM     55  C   UNL A   1      43.022  30.806  36.953  1.00  0.00     0.029 A 
ATOM     56  N   UNL A   1      41.614  31.010  35.244  1.00  0.00    -0.354 N 
ATOM     57  N   UNL A   1      39.381  32.212  33.768  1.00  0.00    -0.248 NA
ATOM     58  C   UNL A   1      37.583  33.700  33.664  1.00  0.00     0.031 C 
ATOM     59  C   UNL A   1      42.075  31.785  37.274  1.00  0.00     0.029 A 
ATOM     60  C   UNL A   1      41.211  31.927  36.202  1.00  0.00     0.049 A 
ATOM     61  H   UNL A   1      41.179  30.877  34.371  1.00  0.00     0.167 HD
ATOM     62  C   UNL A   1      39.314  32.931  34.957  1.00  0.00     0.074 A 
ATOM     63  C   UNL A   1      38.205  33.854  34.824  1.00  0.00     0.031 C 
ATOM     64  C   UNL A   1      40.100  32.835  36.059  1.00  0.00     0.037 A 
BRANCH  51  65
ATOM     65  C   UNL A   1      44.576  28.592  35.603  1.00  0.00     0.058 A 
ATOM     66  C   UNL A   1      44.429  27.416  36.356  1.00  0.00     0.135 A 
ATOM     67  C   UNL A   1      45.875  29.098  35.429  1.00  0.00     0.135 A 
ATOM     68  F   UNL A   1      43.208  26.899  36.570  1.00  0.00    -0.206 F 
ATOM     69  C   UNL A   1      45.522  26.779  36.933  1.00  0.00     0.059 A 
ATOM     70  C   UNL A   1      46.986  28.462  35.975  1.00  0.00     0.059 A 
ATOM     71  F   UNL A   1      46.073  30.220  34.719  1.00  0.00    -0.206 F 
ATOM     72  C   UNL A   1      46.798  27.309  36.735  1.00  0.00     0.060 A 
BRANCH  72  73
ATOM     73  S   UNL A   1      48.205  26.462  37.483  1.00  0.00     0.124 S 
ATOM     74  O   UNL A   1      47.947  25.076  37.106  1.00  0.00    -0.237 OA
ATOM     75  O   UNL A   1      49.340  27.099  36.820  1.00  0.00    -0.237 OA
ATOM     76  O   UNL A   1      48.066  26.760  38.906  1.00  0.00    -0.744 OA
ENDBRANCH  72  73
ENDBRANCH  51  65
BRANCH  52  77
ATOM     77  C   UNL A   1      36.861  32.901  30.939  1.00  0.00     0.058 A 
ATOM     78  C   UNL A   1      35.540  32.566  31.270  1.00  0.00     0.135 A 
ATOM     79  C   UNL A   1      37.060  33.880  29.953  1.00  0.00     0.135 A 
ATOM     80  F   UNL A   1      35.299  31.628  32.198  1.00  0.00    -0.206 F 
ATOM     81  C   UNL A   1      34.455  33.171  30.644  1.00  0.00     0.059 A 
ATOM     82  C   UNL A   1      35.991  34.517  29.329  1.00  0.00     0.059 A 
ATOM     83  F   UNL A   1      38.305  34.243  29.608  1.00  0.00    -0.206 F 
ATOM     84  C   UNL A   1      34.692  34.151  29.678  1.00  0.00     0.060 A 
BRANCH  84  85
ATOM     85  S   UNL A   1      33.275  34.973  28.917  1.00  0.00     0.124 S 
ATOM     86  O   UNL A   1      32.423  35.223  30.074  1.00  0.00    -0.237 OA
ATOM     87  O   UNL A   1      33.894  36.149  28.314  1.00  0.00    -0.237 OA
ATOM     88  O   UNL A   1      32.778  33.979  27.971  1.00  0.00    -0.744 OA
ENDBRANCH  84  85
ENDBRANCH  52  77
BRANCH  64  89
ATOM     89  C   UNL A   1      39.797  33.763  37.203  1.00  0.00     0.058 A 
ATOM     90  C   UNL A   1      38.828  33.449  38.169  1.00  0.00     0.135 A 
ATOM     91  C   UNL A   1      40.508  34.965  37.354  1.00  0.00     0.135 A 
ATOM     92  F   UNL A   1      38.117  32.315  38.068  1.00  0.00    -0.206 F 
ATOM     93  C   UNL A   1      38.553  34.308  39.228  1.00  0.00     0.059 A 
ATOM     94  C   UNL A   1      40.269  35.826  38.421  1.00  0.00     0.059 A 
ATOM     95  F   UNL A   1      41.454  35.308  36.465  1.00  0.00    -0.206 F 
ATOM     96  C   UNL A   1      39.278  35.496  39.345  1.00  0.00     0.060 A 
BRANCH  96  97
ATOM     97  S   UNL A   1      38.920  36.594  40.732  1.00  0.00     0.124 S 
ATOM     98  O   UNL A   1      38.283  37.720  40.057  1.00  0.00    -0.237 OA
ATOM     99  O   UNL A   1      38.042  35.774  41.561  1.00  0.00    -0.237 OA
ATOM    100  O   UNL A   1      40.236  36.865  41.302  1.00  0.00    -0.744 OA
ENDBRANCH  96  97
ENDBRANCH  64  89
ENDBRANCH  38  39
ENDBRANCH  30  33
ENDBRANCH  28  29
ENDBRANCH  27  28
ENDBRANCH   1  27
TORSDOF 18
ENDMDL
MODEL 2
REMARK VINA RESULT:     -12.0      1.525      3.585
REMARK SMILES O=C(COc1nc(NCc2ccc(F)cc2)nc2c1CCC2)NCCCNC(=O)c1ccc(-c2c3nc(c(-c4c(F)cc(S(=O)(=O)[O-])cc4F)c4ccc([nH]4)c(-c4c(F)cc(S(=O)(=O)[O-])cc4F)c4nc(c(-c5c(F)cc(S(=O)(=O)[O-])cc5F)c5ccc2[nH]5)C=C4)C=C3)cc1
REMARK SMILES IDX 24 1 23 2 1 3 2 4 3 6 4 7 5 8 6 9 19 10 7 11 18 12 20 13
REMARK SMILES IDX 17 14 22 15 21 16 8 17 9 19 10 20 11 21 16 22 12 23 15 24
REMARK SMILES IDX 13 25 14 26 25 27 26 28 27 29 28 30 29 32 30 33 31 34 95 35
REMARK SMILES IDX 32 36 94 37 33 38 34 39 35 40 88 41 36 42 93 43 87 44 89 45
REMARK SMILES IDX 37 46 92 47 86 48 85 49 38 51 72 52 51 53 71 54 52 55 55 56
REMARK SMILES IDX 70 57 90 58 53 59 54 60 69 62 91 63 56 64 39 65 40 66 49 67
REMARK SMILES IDX 41 68 42 69 48 70 50 71 43 72 44 73 45 74 46 75 47 76 73 77
REMARK SMILES IDX 74 78 83 79 75 80 76 81 82 82 84 83 77 84 78 85 79 86 80 87
REMARK SMILES IDX 81 88 57 89 58 90 67 91 59 92 60 93 66 94 68 95 61 96 62 97
REMARK SMILES IDX 63 98 64 99 65 100
REMARK H PARENT 23 5 8 18 27 31 89 50 55 61
REMARK Flexibility Score: inf
ROOT
ATOM      1  C   UNL A   1      39.838  21.816  26.136  1.00  0.00     0.117 C 
ENDROOT
BRANCH   1   2
ATOM      2  N   UNL A   1      38.391  21.837  26.113  1.00  0.00    -0.353 N 
ATOM      3  O   UNL A   1      38.185  24.089  25.698  1.00  0.00    -0.271 OA
ATOM      4  C   UNL A   1      37.674  22.978  25.824  1.00  0.00     0.258 C 
ATOM      5  H   UNL A   1      37.901  21.006  26.312  1.00  0.00     0.163 HD
BRANCH   4   6
ATOM      6  C   UNL A   1      36.155  22.774  25.760  1.00  0.00     0.331 C 
BRANCH   6   7
ATOM      7  O   UNL A   1      35.320  23.889  26.057  1.00  0.00    -0.467 OA
BRANCH   7   8
ATOM      8  C   UNL A   1      34.004  23.604  25.778  1.00  0.00     0.222 A 
ATOM      9  N   UNL A   1      33.677  22.332  25.497  1.00  0.00    -0.177 NA
ATOM     10  C   UNL A   1      33.078  24.593  25.875  1.00  0.00     0.036 A 
ATOM     11  C   UNL A   1      32.380  22.060  25.272  1.00  0.00     0.226 A 
ATOM     12  C   UNL A   1      31.784  24.220  25.613  1.00  0.00     0.053 A 
ATOM     13  C   UNL A   1      33.199  26.051  26.127  1.00  0.00     0.043 C 
ATOM     14  N   UNL A   1      31.399  22.977  25.309  1.00  0.00    -0.218 NA
ATOM     15  C   UNL A   1      30.867  25.408  25.638  1.00  0.00     0.057 C 
ATOM     16  C   UNL A   1      31.731  26.424  26.399  1.00  0.00     0.011 C 
BRANCH  11  17
ATOM     17  N   UNL A   1      32.094  20.762  24.966  1.00  0.00    -0.350 N 
ATOM     18  H   UNL A   1      31.415  20.293  25.504  1.00  0.00     0.164 HD
BRANCH  17  19
ATOM     19  C   UNL A   1      32.736  20.043  23.902  1.00  0.00     0.152 C 
BRANCH  19  20
ATOM     20  C   UNL A   1      32.946  18.591  24.280  1.00  0.00    -0.029 A 
ATOM     21  C   UNL A   1      33.652  17.731  23.421  1.00  0.00     0.008 A 
ATOM     22  C   UNL A   1      32.512  18.098  25.524  1.00  0.00     0.008 A 
ATOM     23  C   UNL A   1      33.900  16.408  23.790  1.00  0.00     0.039 A 
ATOM     24  C   UNL A   1      32.755  16.774  25.889  1.00  0.00     0.039 A 
ATOM     25  C   UNL A   1      33.448  15.941  25.019  1.00  0.00     0.123 A 
ATOM     26  F   UNL A   1      33.694  14.673  25.374  1.00  0.00    -0.207 F 
ENDBRANCH  19  20
ENDBRANCH  17  19
ENDBRANCH  11  17
ENDBRANCH   7   8
ENDBRANCH   6   7
ENDBRANCH   4   6
ENDBRANCH   1   2
BRANCH   1  27
ATOM     27  C   UNL A   1      40.422  22.052  27.524  1.00  0.00     0.042 C 
BRANCH  27  28
ATOM     28  C   UNL A   1      41.630  22.984  27.556  1.00  0.00     0.118 C 
BRANCH  28  29
ATOM     29  N   UNL A   1      41.783  23.765  26.335  1.00  0.00    -0.352 N 
ATOM     30  C   UNL A   1      41.655  25.111  26.108  1.00  0.00     0.251 C 
ATOM     31  H   UNL A   1      42.019  23.236  25.539  1.00  0.00     0.163 HD
ATOM     32  O   UNL A   1      41.682  25.524  24.948  1.00  0.00    -0.269 OA
BRANCH  30  33
ATOM     33  C   UNL A   1      41.467  26.070  27.221  1.00  0.00     0.039 A 
ATOM     34  C   UNL A   1      40.379  25.892  28.082  1.00  0.00     0.014 A 
ATOM     35  C   UNL A   1      42.313  27.169  27.391  1.00  0.00     0.014 A 
ATOM     36  C   UNL A   1      40.173  26.778  29.144  1.00  0.00     0.010 A 
ATOM     37  C   UNL A   1      42.143  28.016  28.489  1.00  0.00     0.010 A 
ATOM     38  C   UNL A   1      41.071  27.832  29.373  1.00  0.00    -0.014 A 
BRANCH  38  39
ATOM     39  C   UNL A   1      40.898  28.761  30.520  1.00  0.00     0.031 A 
ATOM     40  C   UNL A   1      41.768  28.623  31.740  1.00  0.00     0.074 A 
ATOM     41  C   UNL A   1      39.929  29.697  30.487  1.00  0.00     0.049 A 
ATOM     42  N   UNL A   1      41.704  29.264  32.879  1.00  0.00    -0.248 NA
ATOM     43  C   UNL A   1      42.843  27.619  31.675  1.00  0.00     0.031 C 
ATOM     44  C   UNL A   1      39.012  29.926  29.368  1.00  0.00     0.029 A 
ATOM     45  N   UNL A   1      39.545  30.624  31.424  1.00  0.00    -0.354 N 
ATOM     46  C   UNL A   1      42.719  28.738  33.669  1.00  0.00     0.074 A 
ATOM     47  C   UNL A   1      43.355  27.692  32.896  1.00  0.00     0.031 C 
ATOM     48  C   UNL A   1      38.187  30.940  29.676  1.00  0.00     0.029 A 
ATOM     49  C   UNL A   1      38.485  31.405  31.028  1.00  0.00     0.049 A 
ATOM     50  H   UNL A   1      39.988  30.720  32.298  1.00  0.00     0.167 HD
ATOM     51  C   UNL A   1      43.102  29.105  34.916  1.00  0.00     0.037 A 
ATOM     52  C   UNL A   1      37.819  32.376  31.684  1.00  0.00     0.037 A 
ATOM     53  C   UNL A   1      42.477  30.156  35.676  1.00  0.00     0.049 A 
ATOM     54  C   UNL A   1      38.237  32.740  33.083  1.00  0.00     0.074 A 
ATOM     55  C   UNL A   1      42.807  30.619  36.939  1.00  0.00     0.029 A 
ATOM     56  N   UNL A   1      41.397  30.915  35.245  1.00  0.00    -0.354 N 
ATOM     57  N   UNL A   1      39.206  32.238  33.811  1.00  0.00    -0.248 NA
ATOM     58  C   UNL A   1      37.472  33.802  33.749  1.00  0.00     0.031 C 
ATOM     59  C   UNL A   1      41.905  31.629  37.287  1.00  0.00     0.029 A 
ATOM     60  C   UNL A   1      41.040  31.829  36.224  1.00  0.00     0.049 A 
ATOM     61  H   UNL A   1      40.951  30.817  34.373  1.00  0.00     0.167 HD
ATOM     62  C   UNL A   1      39.178  32.936  35.014  1.00  0.00     0.074 A 
ATOM     63  C   UNL A   1      38.108  33.906  34.907  1.00  0.00     0.031 C 
ATOM     64  C   UNL A   1      39.967  32.785  36.107  1.00  0.00     0.037 A 
BRANCH  51  65
ATOM     65  C   UNL A   1      44.258  28.368  35.535  1.00  0.00     0.058 A 
ATOM     66  C   UNL A   1      45.584  28.782  35.332  1.00  0.00     0.135 A 
ATOM     67  C   UNL A   1      44.038  27.263  36.374  1.00  0.00     0.135 A 
ATOM     68  F   UNL A   1      45.853  29.821  34.525  1.00  0.00    -0.206 F 
ATOM     69  C   UNL A   1      46.653  28.113  35.920  1.00  0.00     0.059 A 
ATOM     70  C   UNL A   1      45.091  26.596  36.994  1.00  0.00     0.059 A 
ATOM     71  F   UNL A   1      42.789  26.825  36.601  1.00  0.00    -0.206 F 
ATOM     72  C   UNL A   1      46.395  27.022  36.751  1.00  0.00     0.060 A 
BRANCH  72  73
ATOM     73  S   UNL A   1      47.795  26.173  37.512  1.00  0.00     0.124 S 
ATOM     74  O   UNL A   1      47.471  24.775  37.242  1.00  0.00    -0.237 OA
ATOM     75  O   UNL A   1      48.929  26.716  36.771  1.00  0.00    -0.237 OA
ATOM     76  O   UNL A   1      47.716  26.574  38.914  1.00  0.00    -0.744 OA
ENDBRANCH  72  73
ENDBRANCH  51  65
BRANCH  52  77
ATOM     77  C   UNL A   1      36.698  33.087  31.015  1.00  0.00     0.058 A 
ATOM     78  C   UNL A   1      36.947  34.032  30.009  1.00  0.00     0.135 A 
ATOM     79  C   UNL A   1      35.360  32.826  31.351  1.00  0.00     0.135 A 
ATOM     80  F   UNL A   1      38.209  34.323  29.661  1.00  0.00    -0.206 F 
ATOM     81  C   UNL A   1      35.912  34.699  29.362  1.00  0.00     0.059 A 
ATOM     82  C   UNL A   1      34.307  33.464  30.702  1.00  0.00     0.059 A 
ATOM     83  F   UNL A   1      35.069  31.923  32.299  1.00  0.00    -0.206 F 
ATOM     84  C   UNL A   1      34.593  34.403  29.712  1.00  0.00     0.060 A 
BRANCH  84  85
ATOM     85  S   UNL A   1      33.258  35.232  28.823  1.00  0.00     0.124 S 
ATOM     86  O   UNL A   1      33.994  36.207  28.027  1.00  0.00    -0.237 OA
ATOM     87  O   UNL A   1      32.656  34.127  28.081  1.00  0.00    -0.237 OA
ATOM     88  O   UNL A   1      32.432  35.783  29.893  1.00  0.00    -0.744 OA
ENDBRANCH  84  85
ENDBRANCH  52  77
BRANCH  64  89
ATOM     89  C   UNL A   1      39.711  33.702  37.271  1.00  0.00     0.058 A 
ATOM     90  C   UNL A   1      38.851  33.340  38.319  1.00  0.00     0.135 A 
ATOM     91  C   UNL A   1      40.360  34.946  37.356  1.00  0.00     0.135 A 
ATOM     92  F   UNL A   1      38.202  32.164  38.285  1.00  0.00    -0.206 F 
ATOM     93  C   UNL A   1      38.620  34.188  39.397  1.00  0.00     0.059 A 
ATOM     94  C   UNL A   1      40.165  35.799  38.438  1.00  0.00     0.059 A 
ATOM     95  F   UNL A   1      41.202  35.336  36.387  1.00  0.00    -0.206 F 
ATOM     96  C   UNL A   1      39.280  35.417  39.446  1.00  0.00     0.060 A 
BRANCH  96  97
ATOM     97  S   UNL A   1      38.981  36.503  40.857  1.00  0.00     0.124 S 
ATOM     98  O   UNL A   1      38.552  37.732  40.196  1.00  0.00    -0.237 OA
ATOM     99  O   UNL A   1      37.944  35.784  41.590  1.00  0.00    -0.237 OA
ATOM    100  O   UNL A   1      40.280  36.566  41.521  1.00  0.00    -0.744 OA
ENDBRANCH  96  97
ENDBRANCH  64  89
ENDBRANCH  38  39
ENDBRANCH  30  33
ENDBRANCH  28  29
ENDBRANCH  27  28
ENDBRANCH   1  27
TORSDOF 18
ENDMDL
MODEL 3
REMARK VINA RESULT:     -11.9      1.035      8.171
REMARK SMILES O=C(COc1nc(NCc2ccc(F)cc2)nc2c1CCC2)NCCCNC(=O)c1ccc(-c2c3nc(c(-c4c(F)cc(S(=O)(=O)[O-])cc4F)c4ccc([nH]4)c(-c4c(F)cc(S(=O)(=O)[O-])cc4F)c4nc(c(-c5c(F)cc(S(=O)(=O)[O-])cc5F)c5ccc2[nH]5)C=C4)C=C3)cc1
REMARK SMILES IDX 24 1 23 2 1 3 2 4 3 6 4 7 5 8 6 9 19 10 7 11 18 12 20 13
REMARK SMILES IDX 17 14 22 15 21 16 8 17 9 19 10 20 11 21 16 22 12 23 15 24
REMARK SMILES IDX 13 25 14 26 25 27 26 28 27 29 28 30 29 32 30 33 31 34 95 35
REMARK SMILES IDX 32 36 94 37 33 38 34 39 35 40 88 41 36 42 93 43 87 44 89 45
REMARK SMILES IDX 37 46 92 47 86 48 85 49 38 51 72 52 51 53 71 54 52 55 55 56
REMARK SMILES IDX 70 57 90 58 53 59 54 60 69 62 91 63 56 64 39 65 40 66 49 67
REMARK SMILES IDX 41 68 42 69 48 70 50 71 43 72 44 73 45 74 46 75 47 76 73 77
REMARK SMILES IDX 74 78 83 79 75 80 76 81 82 82 84 83 77 84 78 85 79 86 80 87
REMARK SMILES IDX 81 88 57 89 58 90 67 91 59 92 60 93 66 94 68 95 61 96 62 97
REMARK SMILES IDX 63 98 64 99 65 100
REMARK H PARENT 23 5 8 18 27 31 89 50 55 61
REMARK Flexibility Score: inf
ROOT
ATOM      1  C   UNL A   1      40.070  21.775  26.160  1.00  0.00     0.117 C 
ENDROOT
BRANCH   1   2
ATOM      2  N   UNL A   1      38.668  21.419  26.155  1.00  0.00    -0.353 N 
ATOM      3  O   UNL A   1      37.893  23.481  25.495  1.00  0.00    -0.271 OA
ATOM      4  C   UNL A   1      37.684  22.297  25.751  1.00  0.00     0.258 C 
ATOM      5  H   UNL A   1      38.406  20.517  26.452  1.00  0.00     0.163 HD
BRANCH   4   6
ATOM      6  C   UNL A   1      36.271  21.701  25.731  1.00  0.00     0.331 C 
BRANCH   6   7
ATOM      7  O   UNL A   1      36.047  20.545  24.932  1.00  0.00    -0.467 OA
BRANCH   7   8
ATOM      8  C   UNL A   1      34.731  20.150  24.997  1.00  0.00     0.222 A 
ATOM      9  N   UNL A   1      33.812  21.065  25.348  1.00  0.00    -0.177 NA
ATOM     10  C   UNL A   1      34.400  18.885  24.630  1.00  0.00     0.036 A 
ATOM     11  C   UNL A   1      32.525  20.678  25.363  1.00  0.00     0.226 A 
ATOM     12  C   UNL A   1      33.064  18.581  24.692  1.00  0.00     0.053 A 
ATOM     13  C   UNL A   1      35.223  17.710  24.250  1.00  0.00     0.043 C 
ATOM     14  N   UNL A   1      32.106  19.440  25.053  1.00  0.00    -0.218 NA
ATOM     15  C   UNL A   1      32.827  17.132  24.377  1.00  0.00     0.057 C 
ATOM     16  C   UNL A   1      34.147  16.770  23.681  1.00  0.00     0.011 C 
BRANCH  11  17
ATOM     17  N   UNL A   1      31.628  21.630  25.748  1.00  0.00    -0.350 N 
ATOM     18  H   UNL A   1      30.668  21.413  25.703  1.00  0.00     0.164 HD
BRANCH  17  19
ATOM     19  C   UNL A   1      32.011  22.933  26.214  1.00  0.00     0.152 C 
BRANCH  19  20
ATOM     20  C   UNL A   1      31.252  24.016  25.475  1.00  0.00    -0.029 A 
ATOM     21  C   UNL A   1      30.922  25.218  26.126  1.00  0.00     0.008 A 
ATOM     22  C   UNL A   1      30.936  23.875  24.112  1.00  0.00     0.008 A 
ATOM     23  C   UNL A   1      30.276  26.243  25.433  1.00  0.00     0.039 A 
ATOM     24  C   UNL A   1      30.284  24.898  23.423  1.00  0.00     0.039 A 
ATOM     25  C   UNL A   1      29.961  26.074  24.090  1.00  0.00     0.123 A 
ATOM     26  F   UNL A   1      29.347  27.062  23.427  1.00  0.00    -0.207 F 
ENDBRANCH  19  20
ENDBRANCH  17  19
ENDBRANCH  11  17
ENDBRANCH   7   8
ENDBRANCH   6   7
ENDBRANCH   4   6
ENDBRANCH   1   2
BRANCH   1  27
ATOM     27  C   UNL A   1      40.558  22.285  27.511  1.00  0.00     0.042 C 
BRANCH  27  28
ATOM     28  C   UNL A   1      41.690  23.306  27.435  1.00  0.00     0.118 C 
BRANCH  28  29
ATOM     29  N   UNL A   1      41.613  24.159  26.256  1.00  0.00    -0.352 N 
ATOM     30  C   UNL A   1      41.304  25.489  26.130  1.00  0.00     0.251 C 
ATOM     31  H   UNL A   1      41.818  23.704  25.408  1.00  0.00     0.163 HD
ATOM     32  O   UNL A   1      41.153  25.960  25.001  1.00  0.00    -0.269 OA
BRANCH  30  33
ATOM     33  C   UNL A   1      41.133  26.362  27.314  1.00  0.00     0.039 A 
ATOM     34  C   UNL A   1      40.058  26.117  28.176  1.00  0.00     0.014 A 
ATOM     35  C   UNL A   1      41.980  27.447  27.553  1.00  0.00     0.014 A 
ATOM     36  C   UNL A   1      39.868  26.920  29.304  1.00  0.00     0.010 A 
ATOM     37  C   UNL A   1      41.827  28.209  28.713  1.00  0.00     0.010 A 
ATOM     38  C   UNL A   1      40.768  27.957  29.598  1.00  0.00    -0.014 A 
BRANCH  38  39
ATOM     39  C   UNL A   1      40.612  28.797  30.814  1.00  0.00     0.031 A 
ATOM     40  C   UNL A   1      39.595  29.906  30.838  1.00  0.00     0.074 A 
ATOM     41  C   UNL A   1      41.415  28.596  31.877  1.00  0.00     0.049 A 
ATOM     42  N   UNL A   1      39.379  30.811  31.758  1.00  0.00    -0.248 NA
ATOM     43  C   UNL A   1      38.716  30.022  29.663  1.00  0.00     0.031 C 
ATOM     44  C   UNL A   1      42.446  27.562  31.975  1.00  0.00     0.029 A 
ATOM     45  N   UNL A   1      41.497  29.259  33.076  1.00  0.00    -0.354 N 
ATOM     46  C   UNL A   1      38.349  31.608  31.273  1.00  0.00     0.074 A 
ATOM     47  C   UNL A   1      38.014  31.108  29.956  1.00  0.00     0.031 C 
ATOM     48  C   UNL A   1      43.043  27.648  33.175  1.00  0.00     0.029 A 
ATOM     49  C   UNL A   1      42.469  28.768  33.915  1.00  0.00     0.049 A 
ATOM     50  H   UNL A   1      40.913  30.017  33.313  1.00  0.00     0.167 HD
ATOM     51  C   UNL A   1      37.724  32.647  31.877  1.00  0.00     0.037 A 
ATOM     52  C   UNL A   1      42.863  29.181  35.136  1.00  0.00     0.037 A 
ATOM     53  C   UNL A   1      38.049  33.132  33.194  1.00  0.00     0.049 A 
ATOM     54  C   UNL A   1      42.180  30.362  35.770  1.00  0.00     0.074 A 
ATOM     55  C   UNL A   1      37.457  34.165  33.902  1.00  0.00     0.029 A 
ATOM     56  N   UNL A   1      39.049  32.616  34.006  1.00  0.00    -0.354 N 
ATOM     57  N   UNL A   1      41.201  31.098  35.301  1.00  0.00    -0.248 NA
ATOM     58  C   UNL A   1      42.656  30.769  37.099  1.00  0.00     0.031 C 
ATOM     59  C   UNL A   1      38.124  34.298  35.124  1.00  0.00     0.029 A 
ATOM     60  C   UNL A   1      39.101  33.319  35.199  1.00  0.00     0.049 A 
ATOM     61  H   UNL A   1      39.636  31.862  33.769  1.00  0.00     0.167 HD
ATOM     62  C   UNL A   1      40.931  32.044  36.285  1.00  0.00     0.074 A 
ATOM     63  C   UNL A   1      41.838  31.774  37.381  1.00  0.00     0.031 C 
ATOM     64  C   UNL A   1      40.015  33.045  36.280  1.00  0.00     0.037 A 
BRANCH  51  65
ATOM     65  C   UNL A   1      36.616  33.328  31.121  1.00  0.00     0.058 A 
ATOM     66  C   UNL A   1      36.883  34.156  30.018  1.00  0.00     0.135 A 
ATOM     67  C   UNL A   1      35.272  33.119  31.472  1.00  0.00     0.135 A 
ATOM     68  F   UNL A   1      38.150  34.405  29.650  1.00  0.00    -0.206 F 
ATOM     69  C   UNL A   1      35.858  34.770  29.305  1.00  0.00     0.059 A 
ATOM     70  C   UNL A   1      34.231  33.702  30.756  1.00  0.00     0.059 A 
ATOM     71  F   UNL A   1      34.961  32.338  32.519  1.00  0.00    -0.206 F 
ATOM     72  C   UNL A   1      34.535  34.535  29.681  1.00  0.00     0.060 A 
BRANCH  72  73
ATOM     73  S   UNL A   1      33.220  35.334  28.737  1.00  0.00     0.124 S 
ATOM     74  O   UNL A   1      32.661  34.203  28.001  1.00  0.00    -0.237 OA
ATOM     75  O   UNL A   1      32.372  35.885  29.790  1.00  0.00    -0.237 OA
ATOM     76  O   UNL A   1      33.930  36.319  27.927  1.00  0.00    -0.744 OA
ENDBRANCH  72  73
ENDBRANCH  51  65
BRANCH  52  77
ATOM     77  C   UNL A   1      43.948  28.456  35.848  1.00  0.00     0.058 A 
ATOM     78  C   UNL A   1      43.650  27.414  36.738  1.00  0.00     0.135 A 
ATOM     79  C   UNL A   1      45.300  28.774  35.642  1.00  0.00     0.135 A 
ATOM     80  F   UNL A   1      42.373  27.081  36.976  1.00  0.00    -0.206 F 
ATOM     81  C   UNL A   1      44.651  26.716  37.405  1.00  0.00     0.059 A 
ATOM     82  C   UNL A   1      46.320  28.075  36.280  1.00  0.00     0.059 A 
ATOM     83  F   UNL A   1      45.637  29.756  34.792  1.00  0.00    -0.206 F 
ATOM     84  C   UNL A   1      45.985  27.050  37.164  1.00  0.00     0.060 A 
BRANCH  84  85
ATOM     85  S   UNL A   1      47.277  26.096  37.990  1.00  0.00     0.124 S 
ATOM     86  O   UNL A   1      47.407  24.946  37.102  1.00  0.00    -0.237 OA
ATOM     87  O   UNL A   1      48.396  27.034  37.987  1.00  0.00    -0.237 OA
ATOM     88  O   UNL A   1      46.704  25.819  39.303  1.00  0.00    -0.744 OA
ENDBRANCH  84  85
ENDBRANCH  52  77
BRANCH  64  89
ATOM     89  C   UNL A   1      39.939  33.913  37.505  1.00  0.00     0.058 A 
ATOM     90  C   UNL A   1      39.103  33.589  38.585  1.00  0.00     0.135 A 
ATOM     91  C   UNL A   1      40.736  35.064  37.615  1.00  0.00     0.135 A 
ATOM     92  F   UNL A   1      38.317  32.502  38.529  1.00  0.00    -0.206 F 
ATOM     93  C   UNL A   1      39.038  34.392  39.719  1.00  0.00     0.059 A 
ATOM     94  C   UNL A   1      40.707  35.867  38.751  1.00  0.00     0.059 A 
ATOM     95  F   UNL A   1      41.562  35.413  36.616  1.00  0.00    -0.206 F 
ATOM     96  C   UNL A   1      39.843  35.531  39.792  1.00  0.00     0.060 A 
BRANCH  96  97
ATOM     97  S   UNL A   1      39.757  36.556  41.276  1.00  0.00     0.124 S 
ATOM     98  O   UNL A   1      38.610  35.974  41.968  1.00  0.00    -0.237 OA
ATOM     99  O   UNL A   1      41.057  36.319  41.895  1.00  0.00    -0.237 OA
ATOM    100  O   UNL A   1      39.556  37.902  40.749  1.00  0.00    -0.744 OA
ENDBRANCH  96  97
ENDBRANCH  64  89
ENDBRANCH  38  39
ENDBRANCH  30  33
ENDBRANCH  28  29
ENDBRANCH  27  28
ENDBRANCH   1  27
TORSDOF 18
ENDMDL
