MODEL 1
REMARK VINA RESULT:     -12.9      0.000      0.000
REMARK SMILES Cc1ccc(-n2nc(C(=O)NCCCNC(=O)c3ccc(-c4c5nc(c(-c6c(F)cc(S(=O)(=O)[O-])cc6F)c6ccc([nH]6)c(-c6c(F)cc(S(=O)(=O)[O-])cc6F)c6nc(c(-c7c(F)cc(S(=O)(=O)[O-])cc7F)c7ccc4[nH]7)C=C6)C=C5)cc3)c(C)c(C#N)c2=O)cc1Cl
REMARK SMILES IDX 14 1 13 2 12 3 11 4 9 5 10 6 8 8 6 9 7 10 89 11 86 12 90 13
REMARK SMILES IDX 84 14 85 15 5 16 1 17 2 18 3 19 92 20 4 21 91 22 93 23 87 24
REMARK SMILES IDX 88 25 15 26 16 27 17 29 18 30 19 31 83 32 20 33 82 34 21 35
REMARK SMILES IDX 22 36 23 37 76 38 24 39 81 40 75 41 77 42 25 43 80 44 74 45
REMARK SMILES IDX 73 46 26 48 60 49 39 50 59 51 40 52 43 53 58 54 78 55 41 56
REMARK SMILES IDX 42 57 57 59 79 60 44 61 27 62 28 63 37 64 29 65 30 66 36 67
REMARK SMILES IDX 38 68 31 69 32 70 33 71 34 72 35 73 61 74 62 75 71 76 63 77
REMARK SMILES IDX 64 78 70 79 72 80 65 81 66 82 67 83 68 84 69 85 45 86 46 87
REMARK SMILES IDX 55 88 47 89 48 90 54 91 56 92 49 93 50 94 51 95 52 96 53 97
REMARK H PARENT 11 7 15 28 77 47 43 58
REMARK Flexibility Score: inf
ROOT
ATOM      1  C   UNL A   1      40.004  23.350  27.142  1.00  0.00     0.118 C 
ENDROOT
BRANCH   1   2
ATOM      2  C   UNL A   1      38.837  22.655  26.469  1.00  0.00     0.042 C 
BRANCH   2   3
ATOM      3  C   UNL A   1      37.758  23.624  25.988  1.00  0.00     0.118 C 
BRANCH   3   4
ATOM      4  N   UNL A   1      37.430  23.391  24.606  1.00  0.00    -0.351 N 
ATOM      5  C   UNL A   1      36.414  22.841  23.883  1.00  0.00     0.272 C 
ATOM      6  O   UNL A   1      36.610  22.911  22.661  1.00  0.00    -0.267 OA
ATOM      7  H   UNL A   1      38.142  23.725  24.015  1.00  0.00     0.163 HD
BRANCH   5   8
ATOM      8  C   UNL A   1      35.062  22.219  24.330  1.00  0.00     0.153 A 
ATOM      9  N   UNL A   1      32.842  22.826  24.596  1.00  0.00    -0.195 N 
ATOM     10  N   UNL A   1      34.113  23.112  24.226  1.00  0.00    -0.159 NA
ATOM     11  C   UNL A   1      32.428  21.596  25.069  1.00  0.00     0.289 A 
ATOM     12  C   UNL A   1      33.478  20.564  25.123  1.00  0.00     0.124 A 
ATOM     13  O   UNL A   1      31.277  21.309  25.398  1.00  0.00    -0.266 OA
ATOM     14  C   UNL A   1      34.762  20.817  24.792  1.00  0.00     0.006 A 
ATOM     15  C   UNL A   1      35.745  19.700  24.822  1.00  0.00     0.048 C 
BRANCH   9  16
ATOM     16  C   UNL A   1      31.933  23.908  24.496  1.00  0.00     0.070 A 
ATOM     17  C   UNL A   1      29.554  27.422  23.756  1.00  0.00     0.046 C 
ATOM     18  C   UNL A   1      30.336  26.182  24.080  1.00  0.00    -0.032 A 
ATOM     19  C   UNL A   1      30.277  25.103  23.192  1.00  0.00     0.007 A 
ATOM     20  C   UNL A   1      31.165  26.084  25.212  1.00  0.00     0.046 A 
ATOM     21  C   UNL A   1      31.079  23.986  23.393  1.00  0.00     0.029 A 
ATOM     22  C   UNL A   1      31.935  24.938  25.442  1.00  0.00     0.049 A 
ATOM     23  Cl  UNL A   1      31.315  27.400  26.324  1.00  0.00    -0.084 Cl
ENDBRANCH   9  16
BRANCH  12  24
ATOM     24  C   UNL A   1      33.027  19.274  25.548  1.00  0.00     0.105 C 
ATOM     25  N   UNL A   1      32.617  18.236  25.851  1.00  0.00    -0.192 NA
ENDBRANCH  12  24
ENDBRANCH   5   8
ENDBRANCH   3   4
ENDBRANCH   2   3
ENDBRANCH   1   2
BRANCH   1  26
ATOM     26  N   UNL A   1      40.851  24.008  26.157  1.00  0.00    -0.352 N 
ATOM     27  C   UNL A   1      41.215  25.326  26.058  1.00  0.00     0.251 C 
ATOM     28  H   UNL A   1      41.217  23.419  25.458  1.00  0.00     0.163 HD
ATOM     29  O   UNL A   1      41.723  25.733  25.018  1.00  0.00    -0.269 OA
BRANCH  27  30
ATOM     30  C   UNL A   1      40.975  26.245  27.190  1.00  0.00     0.039 A 
ATOM     31  C   UNL A   1      39.998  25.917  28.132  1.00  0.00     0.014 A 
ATOM     32  C   UNL A   1      41.711  27.425  27.319  1.00  0.00     0.014 A 
ATOM     33  C   UNL A   1      39.803  26.747  29.235  1.00  0.00     0.010 A 
ATOM     34  C   UNL A   1      41.588  28.195  28.466  1.00  0.00     0.010 A 
ATOM     35  C   UNL A   1      40.622  27.871  29.428  1.00  0.00    -0.014 A 
BRANCH  35  36
ATOM     36  C   UNL A   1      40.481  28.737  30.621  1.00  0.00     0.031 A 
ATOM     37  C   UNL A   1      39.458  29.840  30.622  1.00  0.00     0.074 A 
ATOM     38  C   UNL A   1      41.313  28.564  31.667  1.00  0.00     0.049 A 
ATOM     39  N   UNL A   1      39.245  30.762  31.522  1.00  0.00    -0.248 NA
ATOM     40  C   UNL A   1      38.575  29.937  29.445  1.00  0.00     0.031 C 
ATOM     41  C   UNL A   1      42.362  27.544  31.755  1.00  0.00     0.029 A 
ATOM     42  N   UNL A   1      41.415  29.245  32.852  1.00  0.00    -0.354 N 
ATOM     43  C   UNL A   1      38.209  31.544  31.024  1.00  0.00     0.074 A 
ATOM     44  C   UNL A   1      37.878  31.031  29.714  1.00  0.00     0.031 C 
ATOM     45  C   UNL A   1      42.981  27.649  32.940  1.00  0.00     0.029 A 
ATOM     46  C   UNL A   1      42.412  28.774  33.675  1.00  0.00     0.049 A 
ATOM     47  H   UNL A   1      40.831  29.999  33.092  1.00  0.00     0.167 HD
ATOM     48  C   UNL A   1      37.574  32.577  31.622  1.00  0.00     0.037 A 
ATOM     49  C   UNL A   1      42.829  29.210  34.880  1.00  0.00     0.037 A 
ATOM     50  C   UNL A   1      37.902  33.063  32.937  1.00  0.00     0.049 A 
ATOM     51  C   UNL A   1      42.126  30.387  35.503  1.00  0.00     0.074 A 
ATOM     52  C   UNL A   1      37.300  34.086  33.646  1.00  0.00     0.029 A 
ATOM     53  N   UNL A   1      38.914  32.559  33.740  1.00  0.00    -0.354 N 
ATOM     54  N   UNL A   1      41.125  31.095  35.032  1.00  0.00    -0.248 NA
ATOM     55  C   UNL A   1      42.600  30.822  36.823  1.00  0.00     0.031 C 
ATOM     56  C   UNL A   1      37.985  34.240  34.854  1.00  0.00     0.029 A 
ATOM     57  C   UNL A   1      38.965  33.263  34.930  1.00  0.00     0.049 A 
ATOM     58  H   UNL A   1      39.508  31.812  33.499  1.00  0.00     0.167 HD
ATOM     59  C   UNL A   1      40.824  32.028  36.017  1.00  0.00     0.074 A 
ATOM     60  C   UNL A   1      41.741  31.789  37.112  1.00  0.00     0.031 C 
ATOM     61  C   UNL A   1      39.872  32.995  36.018  1.00  0.00     0.037 A 
BRANCH  48  62
ATOM     62  C   UNL A   1      36.447  33.245  30.886  1.00  0.00     0.058 A 
ATOM     63  C   UNL A   1      35.113  33.106  31.303  1.00  0.00     0.135 A 
ATOM     64  C   UNL A   1      36.710  34.120  29.819  1.00  0.00     0.135 A 
ATOM     65  F   UNL A   1      34.801  32.264  32.301  1.00  0.00    -0.206 F 
ATOM     66  C   UNL A   1      34.083  33.815  30.695  1.00  0.00     0.059 A 
ATOM     67  C   UNL A   1      35.700  34.862  29.216  1.00  0.00     0.059 A 
ATOM     68  F   UNL A   1      37.966  34.282  29.372  1.00  0.00    -0.206 F 
ATOM     69  C   UNL A   1      34.389  34.703  29.663  1.00  0.00     0.060 A 
BRANCH  69  70
ATOM     70  S   UNL A   1      33.046  35.666  28.935  1.00  0.00     0.124 S 
ATOM     71  O   UNL A   1      33.784  36.712  28.232  1.00  0.00    -0.237 OA
ATOM     72  O   UNL A   1      32.386  34.678  28.088  1.00  0.00    -0.237 OA
ATOM     73  O   UNL A   1      32.279  36.112  30.093  1.00  0.00    -0.744 OA
ENDBRANCH  69  70
ENDBRANCH  48  62
BRANCH  49  74
ATOM     74  C   UNL A   1      43.949  28.525  35.581  1.00  0.00     0.058 A 
ATOM     75  C   UNL A   1      45.283  28.888  35.339  1.00  0.00     0.135 A 
ATOM     76  C   UNL A   1      43.713  27.490  36.499  1.00  0.00     0.135 A 
ATOM     77  F   UNL A   1      45.563  29.870  34.469  1.00  0.00    -0.206 F 
ATOM     78  C   UNL A   1      46.342  28.229  35.954  1.00  0.00     0.059 A 
ATOM     79  C   UNL A   1      44.754  26.840  37.155  1.00  0.00     0.059 A 
ATOM     80  F   UNL A   1      42.456  27.117  36.786  1.00  0.00    -0.206 F 
ATOM     81  C   UNL A   1      46.066  27.206  36.862  1.00  0.00     0.060 A 
BRANCH  81  82
ATOM     82  S   UNL A   1      47.450  26.367  37.663  1.00  0.00     0.124 S 
ATOM     83  O   UNL A   1      48.540  26.648  36.737  1.00  0.00    -0.237 OA
ATOM     84  O   UNL A   1      47.511  27.050  38.952  1.00  0.00    -0.237 OA
ATOM     85  O   UNL A   1      47.013  24.975  37.719  1.00  0.00    -0.744 OA
ENDBRANCH  81  82
ENDBRANCH  49  74
BRANCH  61  86
ATOM     86  C   UNL A   1      39.725  33.829  37.261  1.00  0.00     0.058 A 
ATOM     87  C   UNL A   1      40.421  35.034  37.437  1.00  0.00     0.135 A 
ATOM     88  C   UNL A   1      38.823  33.439  38.266  1.00  0.00     0.135 A 
ATOM     89  F   UNL A   1      41.295  35.452  36.509  1.00  0.00    -0.206 F 
ATOM     90  C   UNL A   1      40.254  35.806  38.582  1.00  0.00     0.059 A 
ATOM     91  C   UNL A   1      38.611  34.216  39.400  1.00  0.00     0.059 A 
ATOM     92  F   UNL A   1      38.118  32.303  38.141  1.00  0.00    -0.206 F 
ATOM     93  C   UNL A   1      39.344  35.390  39.555  1.00  0.00     0.060 A 
BRANCH  93  94
ATOM     94  S   UNL A   1      39.127  36.414  41.025  1.00  0.00     0.124 S 
ATOM     95  O   UNL A   1      38.621  37.656  40.446  1.00  0.00    -0.237 OA
ATOM     96  O   UNL A   1      38.164  35.639  41.802  1.00  0.00    -0.237 OA
ATOM     97  O   UNL A   1      40.469  36.489  41.593  1.00  0.00    -0.744 OA
ENDBRANCH  93  94
ENDBRANCH  61  86
ENDBRANCH  35  36
ENDBRANCH  27  30
ENDBRANCH   1  26
TORSDOF 15
ENDMDL
MODEL 2
REMARK VINA RESULT:     -12.9      4.894      9.851
REMARK SMILES Cc1ccc(-n2nc(C(=O)NCCCNC(=O)c3ccc(-c4c5nc(c(-c6c(F)cc(S(=O)(=O)[O-])cc6F)c6ccc([nH]6)c(-c6c(F)cc(S(=O)(=O)[O-])cc6F)c6nc(c(-c7c(F)cc(S(=O)(=O)[O-])cc7F)c7ccc4[nH]7)C=C6)C=C5)cc3)c(C)c(C#N)c2=O)cc1Cl
REMARK SMILES IDX 14 1 13 2 12 3 11 4 9 5 10 6 8 8 6 9 7 10 89 11 86 12 90 13
REMARK SMILES IDX 84 14 85 15 5 16 1 17 2 18 3 19 92 20 4 21 91 22 93 23 87 24
REMARK SMILES IDX 88 25 15 26 16 27 17 29 18 30 19 31 83 32 20 33 82 34 21 35
REMARK SMILES IDX 22 36 23 37 76 38 24 39 81 40 75 41 77 42 25 43 80 44 74 45
REMARK SMILES IDX 73 46 26 48 60 49 39 50 59 51 40 52 43 53 58 54 78 55 41 56
REMARK SMILES IDX 42 57 57 59 79 60 44 61 27 62 28 63 37 64 29 65 30 66 36 67
REMARK SMILES IDX 38 68 31 69 32 70 33 71 34 72 35 73 61 74 62 75 71 76 63 77
REMARK SMILES IDX 64 78 70 79 72 80 65 81 66 82 67 83 68 84 69 85 45 86 46 87
REMARK SMILES IDX 55 88 47 89 48 90 54 91 56 92 49 93 50 94 51 95 52 96 53 97
REMARK H PARENT 11 7 15 28 77 47 43 58
REMARK Flexibility Score: inf
ROOT
ATOM      1  C   UNL A   1      34.014  28.685  26.067  1.00  0.00     0.118 C 
ENDROOT
BRANCH   1   2
ATOM      2  C   UNL A   1      33.267  27.547  26.735  1.00  0.00     0.042 C 
BRANCH   2   3
ATOM      3  C   UNL A   1      31.753  27.747  26.741  1.00  0.00     0.118 C 
BRANCH   3   4
ATOM      4  N   UNL A   1      31.063  26.486  26.818  1.00  0.00    -0.351 N 
ATOM      5  C   UNL A   1      30.966  25.335  26.095  1.00  0.00     0.272 C 
ATOM      6  O   UNL A   1      30.221  24.501  26.629  1.00  0.00    -0.267 OA
ATOM      7  H   UNL A   1      30.501  26.442  27.625  1.00  0.00     0.163 HD
BRANCH   5   8
ATOM      8  C   UNL A   1      31.671  24.892  24.783  1.00  0.00     0.153 A 
ATOM      9  N   UNL A   1      32.792  23.061  23.914  1.00  0.00    -0.195 N 
ATOM     10  N   UNL A   1      32.105  23.665  24.910  1.00  0.00    -0.159 NA
ATOM     11  C   UNL A   1      33.064  23.644  22.691  1.00  0.00     0.289 A 
ATOM     12  C   UNL A   1      32.518  25.001  22.514  1.00  0.00     0.124 A 
ATOM     13  O   UNL A   1      33.675  23.110  21.766  1.00  0.00    -0.266 OA
ATOM     14  C   UNL A   1      31.852  25.649  23.494  1.00  0.00     0.006 A 
ATOM     15  C   UNL A   1      31.285  26.995  23.207  1.00  0.00     0.048 C 
BRANCH   9  16
ATOM     16  C   UNL A   1      33.263  21.760  24.216  1.00  0.00     0.070 A 
ATOM     17  C   UNL A   1      35.061  17.867  24.636  1.00  0.00     0.046 C 
ATOM     18  C   UNL A   1      34.379  19.202  24.548  1.00  0.00    -0.032 A 
ATOM     19  C   UNL A   1      35.082  20.339  24.959  1.00  0.00     0.007 A 
ATOM     20  C   UNL A   1      33.085  19.358  24.019  1.00  0.00     0.046 A 
ATOM     21  C   UNL A   1      34.533  21.604  24.780  1.00  0.00     0.029 A 
ATOM     22  C   UNL A   1      32.511  20.628  23.887  1.00  0.00     0.049 A 
ATOM     23  Cl  UNL A   1      32.183  17.995  23.454  1.00  0.00    -0.084 Cl
ENDBRANCH   9  16
BRANCH  12  24
ATOM     24  C   UNL A   1      32.742  25.571  21.221  1.00  0.00     0.105 C 
ATOM     25  N   UNL A   1      32.964  25.989  20.165  1.00  0.00    -0.192 NA
ENDBRANCH  12  24
ENDBRANCH   5   8
ENDBRANCH   3   4
ENDBRANCH   2   3
ENDBRANCH   1   2
BRANCH   1  26
ATOM     26  N   UNL A   1      33.789  29.937  26.775  1.00  0.00    -0.352 N 
ATOM     27  C   UNL A   1      34.531  30.526  27.765  1.00  0.00     0.251 C 
ATOM     28  H   UNL A   1      32.985  30.434  26.503  1.00  0.00     0.163 HD
ATOM     29  O   UNL A   1      34.045  31.448  28.413  1.00  0.00    -0.269 OA
BRANCH  27  30
ATOM     30  C   UNL A   1      35.895  30.037  28.056  1.00  0.00     0.039 A 
ATOM     31  C   UNL A   1      36.863  30.095  27.052  1.00  0.00     0.014 A 
ATOM     32  C   UNL A   1      36.215  29.522  29.315  1.00  0.00     0.014 A 
ATOM     33  C   UNL A   1      38.167  29.689  27.332  1.00  0.00     0.010 A 
ATOM     34  C   UNL A   1      37.532  29.216  29.622  1.00  0.00     0.010 A 
ATOM     35  C   UNL A   1      38.518  29.282  28.629  1.00  0.00    -0.014 A 
BRANCH  35  36
ATOM     36  C   UNL A   1      39.908  28.905  28.973  1.00  0.00     0.031 A 
ATOM     37  C   UNL A   1      40.814  29.916  29.621  1.00  0.00     0.074 A 
ATOM     38  C   UNL A   1      40.362  27.679  28.645  1.00  0.00     0.049 A 
ATOM     39  N   UNL A   1      42.083  29.816  29.910  1.00  0.00    -0.248 NA
ATOM     40  C   UNL A   1      40.223  31.222  29.966  1.00  0.00     0.031 C 
ATOM     41  C   UNL A   1      39.575  26.633  27.986  1.00  0.00     0.029 A 
ATOM     42  N   UNL A   1      41.595  27.106  28.813  1.00  0.00    -0.354 N 
ATOM     43  C   UNL A   1      42.441  31.037  30.468  1.00  0.00     0.074 A 
ATOM     44  C   UNL A   1      41.274  31.889  30.419  1.00  0.00     0.031 C 
ATOM     45  C   UNL A   1      40.336  25.540  27.832  1.00  0.00     0.029 A 
ATOM     46  C   UNL A   1      41.678  25.821  28.331  1.00  0.00     0.049 A 
ATOM     47  H   UNL A   1      42.352  27.570  29.239  1.00  0.00     0.167 HD
ATOM     48  C   UNL A   1      43.630  31.402  31.000  1.00  0.00     0.037 A 
ATOM     49  C   UNL A   1      42.722  24.971  28.284  1.00  0.00     0.037 A 
ATOM     50  C   UNL A   1      44.778  30.535  31.060  1.00  0.00     0.049 A 
ATOM     51  C   UNL A   1      44.043  25.420  28.850  1.00  0.00     0.074 A 
ATOM     52  C   UNL A   1      46.021  30.797  31.605  1.00  0.00     0.029 A 
ATOM     53  N   UNL A   1      44.821  29.241  30.564  1.00  0.00    -0.354 N 
ATOM     54  N   UNL A   1      44.356  26.569  29.405  1.00  0.00    -0.248 NA
ATOM     55  C   UNL A   1      45.152  24.459  28.794  1.00  0.00     0.031 C 
ATOM     56  C   UNL A   1      46.835  29.684  31.388  1.00  0.00     0.029 A 
ATOM     57  C   UNL A   1      46.077  28.699  30.775  1.00  0.00     0.049 A 
ATOM     58  H   UNL A   1      44.071  28.776  30.128  1.00  0.00     0.167 HD
ATOM     59  C   UNL A   1      45.683  26.450  29.801  1.00  0.00     0.074 A 
ATOM     60  C   UNL A   1      46.111  25.117  29.431  1.00  0.00     0.031 C 
ATOM     61  C   UNL A   1      46.476  27.360  30.419  1.00  0.00     0.037 A 
BRANCH  48  62
ATOM     62  C   UNL A   1      43.759  32.782  31.583  1.00  0.00     0.058 A 
ATOM     63  C   UNL A   1      43.549  33.024  32.950  1.00  0.00     0.135 A 
ATOM     64  C   UNL A   1      44.201  33.853  30.789  1.00  0.00     0.135 A 
ATOM     65  F   UNL A   1      43.103  32.042  33.750  1.00  0.00    -0.206 F 
ATOM     66  C   UNL A   1      43.782  34.275  33.511  1.00  0.00     0.059 A 
ATOM     67  C   UNL A   1      44.468  35.105  31.334  1.00  0.00     0.059 A 
ATOM     68  F   UNL A   1      44.406  33.680  29.473  1.00  0.00    -0.206 F 
ATOM     69  C   UNL A   1      44.256  35.305  32.697  1.00  0.00     0.060 A 
BRANCH  69  70
ATOM     70  S   UNL A   1      44.618  36.901  33.460  1.00  0.00     0.124 S 
ATOM     71  O   UNL A   1      44.188  36.670  34.837  1.00  0.00    -0.237 OA
ATOM     72  O   UNL A   1      46.058  37.018  33.257  1.00  0.00    -0.237 OA
ATOM     73  O   UNL A   1      43.799  37.837  32.698  1.00  0.00    -0.744 OA
ENDBRANCH  69  70
ENDBRANCH  48  62
BRANCH  49  74
ATOM     74  C   UNL A   1      42.559  23.612  27.700  1.00  0.00     0.058 A 
ATOM     75  C   UNL A   1      42.328  22.495  28.518  1.00  0.00     0.135 A 
ATOM     76  C   UNL A   1      42.640  23.397  26.315  1.00  0.00     0.135 A 
ATOM     77  F   UNL A   1      42.244  22.645  29.849  1.00  0.00    -0.206 F 
ATOM     78  C   UNL A   1      42.216  21.214  27.990  1.00  0.00     0.059 A 
ATOM     79  C   UNL A   1      42.495  22.129  25.759  1.00  0.00     0.059 A 
ATOM     80  F   UNL A   1      42.838  24.432  25.483  1.00  0.00    -0.206 F 
ATOM     81  C   UNL A   1      42.300  21.042  26.608  1.00  0.00     0.060 A 
BRANCH  81  82
ATOM     82  S   UNL A   1      42.141  19.373  25.935  1.00  0.00     0.124 S 
ATOM     83  O   UNL A   1      42.998  19.448  24.759  1.00  0.00    -0.237 OA
ATOM     84  O   UNL A   1      42.635  18.555  27.038  1.00  0.00    -0.237 OA
ATOM     85  O   UNL A   1      40.711  19.255  25.666  1.00  0.00    -0.744 OA
ENDBRANCH  81  82
ENDBRANCH  49  74
BRANCH  61  86
ATOM     86  C   UNL A   1      47.869  26.932  30.794  1.00  0.00     0.058 A 
ATOM     87  C   UNL A   1      48.950  27.053  29.909  1.00  0.00     0.135 A 
ATOM     88  C   UNL A   1      48.131  26.448  32.088  1.00  0.00     0.135 A 
ATOM     89  F   UNL A   1      48.756  27.508  28.662  1.00  0.00    -0.206 F 
ATOM     90  C   UNL A   1      50.237  26.676  30.281  1.00  0.00     0.059 A 
ATOM     91  C   UNL A   1      49.416  26.103  32.493  1.00  0.00     0.059 A 
ATOM     92  F   UNL A   1      47.135  26.328  32.981  1.00  0.00    -0.206 F 
ATOM     93  C   UNL A   1      50.459  26.206  31.576  1.00  0.00     0.060 A 
BRANCH  93  94
ATOM     94  S   UNL A   1      52.138  25.740  32.047  1.00  0.00     0.124 S 
ATOM     95  O   UNL A   1      52.013  24.291  32.180  1.00  0.00    -0.237 OA
ATOM     96  O   UNL A   1      52.919  26.207  30.906  1.00  0.00    -0.237 OA
ATOM     97  O   UNL A   1      52.359  26.466  33.294  1.00  0.00    -0.744 OA
ENDBRANCH  93  94
ENDBRANCH  61  86
ENDBRANCH  35  36
ENDBRANCH  27  30
ENDBRANCH   1  26
TORSDOF 15
ENDMDL
MODEL 3
REMARK VINA RESULT:     -12.8      3.597      8.930
REMARK SMILES Cc1ccc(-n2nc(C(=O)NCCCNC(=O)c3ccc(-c4c5nc(c(-c6c(F)cc(S(=O)(=O)[O-])cc6F)c6ccc([nH]6)c(-c6c(F)cc(S(=O)(=O)[O-])cc6F)c6nc(c(-c7c(F)cc(S(=O)(=O)[O-])cc7F)c7ccc4[nH]7)C=C6)C=C5)cc3)c(C)c(C#N)c2=O)cc1Cl
REMARK SMILES IDX 14 1 13 2 12 3 11 4 9 5 10 6 8 8 6 9 7 10 89 11 86 12 90 13
REMARK SMILES IDX 84 14 85 15 5 16 1 17 2 18 3 19 92 20 4 21 91 22 93 23 87 24
REMARK SMILES IDX 88 25 15 26 16 27 17 29 18 30 19 31 83 32 20 33 82 34 21 35
REMARK SMILES IDX 22 36 23 37 76 38 24 39 81 40 75 41 77 42 25 43 80 44 74 45
REMARK SMILES IDX 73 46 26 48 60 49 39 50 59 51 40 52 43 53 58 54 78 55 41 56
REMARK SMILES IDX 42 57 57 59 79 60 44 61 27 62 28 63 37 64 29 65 30 66 36 67
REMARK SMILES IDX 38 68 31 69 32 70 33 71 34 72 35 73 61 74 62 75 71 76 63 77
REMARK SMILES IDX 64 78 70 79 72 80 65 81 66 82 67 83 68 84 69 85 45 86 46 87
REMARK SMILES IDX 55 88 47 89 48 90 54 91 56 92 49 93 50 94 51 95 52 96 53 97
REMARK H PARENT 11 7 15 28 77 47 43 58
REMARK Flexibility Score: inf
ROOT
ATOM      1  C   UNL A   1      34.136  28.480  25.707  1.00  0.00     0.118 C 
ENDROOT
BRANCH   1   2
ATOM      2  C   UNL A   1      33.415  27.416  26.512  1.00  0.00     0.042 C 
BRANCH   2   3
ATOM      3  C   UNL A   1      31.939  27.735  26.740  1.00  0.00     0.118 C 
BRANCH   3   4
ATOM      4  N   UNL A   1      31.148  26.533  26.777  1.00  0.00    -0.351 N 
ATOM      5  C   UNL A   1      30.970  25.411  26.025  1.00  0.00     0.272 C 
ATOM      6  O   UNL A   1      30.151  24.628  26.527  1.00  0.00    -0.267 OA
ATOM      7  H   UNL A   1      30.572  26.516  27.574  1.00  0.00     0.163 HD
BRANCH   5   8
ATOM      8  C   UNL A   1      31.658  24.942  24.712  1.00  0.00     0.153 A 
ATOM      9  N   UNL A   1      32.743  23.084  23.855  1.00  0.00    -0.195 N 
ATOM     10  N   UNL A   1      32.073  23.710  24.850  1.00  0.00    -0.159 NA
ATOM     11  C   UNL A   1      33.015  23.649  22.624  1.00  0.00     0.289 A 
ATOM     12  C   UNL A   1      32.490  25.013  22.436  1.00  0.00     0.124 A 
ATOM     13  O   UNL A   1      33.611  23.095  21.701  1.00  0.00    -0.266 OA
ATOM     14  C   UNL A   1      31.842  25.682  23.414  1.00  0.00     0.006 A 
ATOM     15  C   UNL A   1      31.295  27.034  23.117  1.00  0.00     0.048 C 
BRANCH   9  16
ATOM     16  C   UNL A   1      33.195  21.778  24.169  1.00  0.00     0.070 A 
ATOM     17  C   UNL A   1      34.962  17.878  24.642  1.00  0.00     0.046 C 
ATOM     18  C   UNL A   1      34.288  19.215  24.532  1.00  0.00    -0.032 A 
ATOM     19  C   UNL A   1      34.968  20.347  24.993  1.00  0.00     0.007 A 
ATOM     20  C   UNL A   1      33.025  19.379  23.935  1.00  0.00     0.046 A 
ATOM     21  C   UNL A   1      34.432  21.614  24.799  1.00  0.00     0.029 A 
ATOM     22  C   UNL A   1      32.461  20.651  23.785  1.00  0.00     0.049 A 
ATOM     23  Cl  UNL A   1      32.154  18.025  23.306  1.00  0.00    -0.084 Cl
ENDBRANCH   9  16
BRANCH  12  24
ATOM     24  C   UNL A   1      32.714  25.565  21.136  1.00  0.00     0.105 C 
ATOM     25  N   UNL A   1      32.902  25.956  20.063  1.00  0.00    -0.192 NA
ENDBRANCH  12  24
ENDBRANCH   5   8
ENDBRANCH   3   4
ENDBRANCH   2   3
ENDBRANCH   1   2
BRANCH   1  26
ATOM     26  N   UNL A   1      33.820  29.810  26.209  1.00  0.00    -0.352 N 
ATOM     27  C   UNL A   1      34.369  30.502  27.257  1.00  0.00     0.251 C 
ATOM     28  H   UNL A   1      33.106  30.283  25.723  1.00  0.00     0.163 HD
ATOM     29  O   UNL A   1      33.798  31.501  27.683  1.00  0.00    -0.269 OA
BRANCH  27  30
ATOM     30  C   UNL A   1      35.627  30.032  27.873  1.00  0.00     0.039 A 
ATOM     31  C   UNL A   1      36.815  30.134  27.148  1.00  0.00     0.014 A 
ATOM     32  C   UNL A   1      35.631  29.491  29.162  1.00  0.00     0.014 A 
ATOM     33  C   UNL A   1      38.016  29.746  27.740  1.00  0.00     0.010 A 
ATOM     34  C   UNL A   1      36.836  29.203  29.786  1.00  0.00     0.010 A 
ATOM     35  C   UNL A   1      38.038  29.313  29.076  1.00  0.00    -0.014 A 
BRANCH  35  36
ATOM     36  C   UNL A   1      39.305  28.954  29.753  1.00  0.00     0.031 A 
ATOM     37  C   UNL A   1      39.764  29.751  30.943  1.00  0.00     0.074 A 
ATOM     38  C   UNL A   1      40.062  27.956  29.256  1.00  0.00     0.049 A 
ATOM     39  N   UNL A   1      40.883  29.660  31.612  1.00  0.00    -0.248 NA
ATOM     40  C   UNL A   1      38.859  30.808  31.432  1.00  0.00     0.031 C 
ATOM     41  C   UNL A   1      39.725  27.139  28.086  1.00  0.00     0.029 A 
ATOM     42  N   UNL A   1      41.273  27.461  29.664  1.00  0.00    -0.354 N 
ATOM     43  C   UNL A   1      40.816  30.641  32.594  1.00  0.00     0.074 A 
ATOM     44  C   UNL A   1      39.578  31.360  32.398  1.00  0.00     0.031 C 
ATOM     45  C   UNL A   1      40.691  26.230  27.890  1.00  0.00     0.029 A 
ATOM     46  C   UNL A   1      41.741  26.430  28.882  1.00  0.00     0.049 A 
ATOM     47  H   UNL A   1      41.763  27.811  30.443  1.00  0.00     0.167 HD
ATOM     48  C   UNL A   1      41.697  30.896  33.588  1.00  0.00     0.037 A 
ATOM     49  C   UNL A   1      42.893  25.735  28.952  1.00  0.00     0.037 A 
ATOM     50  C   UNL A   1      42.916  30.156  33.783  1.00  0.00     0.049 A 
ATOM     51  C   UNL A   1      43.871  26.068  30.047  1.00  0.00     0.074 A 
ATOM     52  C   UNL A   1      43.864  30.315  34.777  1.00  0.00     0.029 A 
ATOM     53  N   UNL A   1      43.353  29.118  32.974  1.00  0.00    -0.354 N 
ATOM     54  N   UNL A   1      43.777  26.977  30.989  1.00  0.00    -0.248 NA
ATOM     55  C   UNL A   1      45.108  25.276  30.097  1.00  0.00     0.031 C 
ATOM     56  C   UNL A   1      44.903  29.413  34.537  1.00  0.00     0.029 A 
ATOM     57  C   UNL A   1      44.566  28.640  33.437  1.00  0.00     0.049 A 
ATOM     58  H   UNL A   1      42.872  28.772  32.188  1.00  0.00     0.167 HD
ATOM     59  C   UNL A   1      44.920  26.837  31.767  1.00  0.00     0.074 A 
ATOM     60  C   UNL A   1      45.686  25.751  31.192  1.00  0.00     0.031 C 
ATOM     61  C   UNL A   1      45.302  27.542  32.862  1.00  0.00     0.037 A 
BRANCH  48  62
ATOM     62  C   UNL A   1      41.379  31.998  34.560  1.00  0.00     0.058 A 
ATOM     63  C   UNL A   1      41.790  33.321  34.330  1.00  0.00     0.135 A 
ATOM     64  C   UNL A   1      40.563  31.750  35.677  1.00  0.00     0.135 A 
ATOM     65  F   UNL A   1      42.591  33.609  33.292  1.00  0.00    -0.206 F 
ATOM     66  C   UNL A   1      41.398  34.360  35.166  1.00  0.00     0.059 A 
ATOM     67  C   UNL A   1      40.134  32.779  36.510  1.00  0.00     0.059 A 
ATOM     68  F   UNL A   1      40.152  30.502  35.950  1.00  0.00    -0.206 F 
ATOM     69  C   UNL A   1      40.556  34.081  36.245  1.00  0.00     0.060 A 
BRANCH  69  70
ATOM     70  S   UNL A   1      40.002  35.455  37.276  1.00  0.00     0.124 S 
ATOM     71  O   UNL A   1      41.201  35.732  38.063  1.00  0.00    -0.237 OA
ATOM     72  O   UNL A   1      39.651  36.462  36.281  1.00  0.00    -0.237 OA
ATOM     73  O   UNL A   1      38.882  34.893  38.022  1.00  0.00    -0.744 OA
ENDBRANCH  69  70
ENDBRANCH  48  62
BRANCH  49  74
ATOM     74  C   UNL A   1      43.176  24.650  27.973  1.00  0.00     0.058 A 
ATOM     75  C   UNL A   1      42.869  23.312  28.267  1.00  0.00     0.135 A 
ATOM     76  C   UNL A   1      43.765  24.924  26.728  1.00  0.00     0.135 A 
ATOM     77  F   UNL A   1      42.306  22.996  29.442  1.00  0.00    -0.206 F 
ATOM     78  C   UNL A   1      43.166  22.284  27.379  1.00  0.00     0.059 A 
ATOM     79  C   UNL A   1      44.039  23.916  25.809  1.00  0.00     0.059 A 
ATOM     80  F   UNL A   1      44.059  26.188  26.385  1.00  0.00    -0.206 F 
ATOM     81  C   UNL A   1      43.751  22.596  26.152  1.00  0.00     0.060 A 
BRANCH  81  82
ATOM     82  S   UNL A   1      44.120  21.252  25.004  1.00  0.00     0.124 S 
ATOM     83  O   UNL A   1      42.983  20.365  25.215  1.00  0.00    -0.237 OA
ATOM     84  O   UNL A   1      44.159  21.951  23.723  1.00  0.00    -0.237 OA
ATOM     85  O   UNL A   1      45.408  20.751  25.476  1.00  0.00    -0.744 OA
ENDBRANCH  81  82
ENDBRANCH  49  74
BRANCH  61  86
ATOM     86  C   UNL A   1      46.572  27.124  33.553  1.00  0.00     0.058 A 
ATOM     87  C   UNL A   1      46.587  26.148  34.560  1.00  0.00     0.135 A 
ATOM     88  C   UNL A   1      47.803  27.672  33.153  1.00  0.00     0.135 A 
ATOM     89  F   UNL A   1      45.440  25.593  34.981  1.00  0.00    -0.206 F 
ATOM     90  C   UNL A   1      47.773  25.755  35.171  1.00  0.00     0.059 A 
ATOM     91  C   UNL A   1      49.004  27.265  33.722  1.00  0.00     0.059 A 
ATOM     92  F   UNL A   1      47.848  28.599  32.181  1.00  0.00    -0.206 F 
ATOM     93  C   UNL A   1      48.976  26.317  34.742  1.00  0.00     0.060 A 
BRANCH  93  94
ATOM     94  S   UNL A   1      50.508  25.782  35.533  1.00  0.00     0.124 S 
ATOM     95  O   UNL A   1      50.761  24.514  34.855  1.00  0.00    -0.237 OA
ATOM     96  O   UNL A   1      51.423  26.871  35.202  1.00  0.00    -0.237 OA
ATOM     97  O   UNL A   1      50.147  25.677  36.943  1.00  0.00    -0.744 OA
ENDBRANCH  93  94
ENDBRANCH  61  86
ENDBRANCH  35  36
ENDBRANCH  27  30
ENDBRANCH   1  26
TORSDOF 15
ENDMDL
