MODEL 1
REMARK VINA RESULT:     -10.2      0.000      0.000
REMARK SMILES C[C@H]1[C@H](C(=O)NCCCNC(=O)c2ccc(-c3c4nc(c(-c5c(F)cc(S(=O)(=O)[O-])cc5F)c5ccc([nH]5)c(-c5c(F)cc(S(=O)(=O)[O-])cc5F)c5nc(c(-c6c(F)cc(S(=O)(=O)[O-])cc6F)c6ccc3[nH]6)C=C5)C=C4)cc2)CC[N@H+]1[C@@H]1CCCC1(C)C
REMARK SMILES IDX 9 1 8 2 7 3 6 4 4 5 5 6 3 8 1 9 2 10 81 11 79 12 80 13 82 15
REMARK SMILES IDX 83 16 86 17 84 18 85 19 87 20 88 21 10 22 11 23 12 25 13 26
REMARK SMILES IDX 14 27 78 28 15 29 77 30 16 31 17 32 18 33 71 34 19 35 76 36
REMARK SMILES IDX 70 37 72 38 20 39 75 40 69 41 68 42 21 44 55 45 34 46 54 47
REMARK SMILES IDX 35 48 38 49 53 50 73 51 36 52 37 53 52 55 74 56 39 57 22 58
REMARK SMILES IDX 23 59 32 60 24 61 25 62 31 63 33 64 26 65 27 66 28 67 29 68
REMARK SMILES IDX 30 69 56 70 57 71 66 72 58 73 59 74 65 75 67 76 60 77 61 78
REMARK SMILES IDX 62 79 63 80 64 81 40 82 41 83 50 84 42 85 43 86 49 87 51 88
REMARK SMILES IDX 44 89 45 90 46 91 47 92 48 93
REMARK H PARENT 6 7 81 14 10 24 72 43 38 54
REMARK Flexibility Score: inf
ROOT
ATOM      1  C   UNL A   1      40.055  21.494  26.844  1.00  0.00     0.118 C 
ENDROOT
BRANCH   1   2
ATOM      2  C   UNL A   1      40.791  20.284  26.288  1.00  0.00     0.042 C 
BRANCH   2   3
ATOM      3  C   UNL A   1      42.010  19.879  27.103  1.00  0.00     0.117 C 
BRANCH   3   4
ATOM      4  N   UNL A   1      43.212  19.779  26.289  1.00  0.00    -0.356 N 
ATOM      5  C   UNL A   1      43.907  20.731  25.611  1.00  0.00     0.229 C 
ATOM      6  O   UNL A   1      44.899  20.369  24.973  1.00  0.00    -0.275 OA
ATOM      7  H   UNL A   1      43.586  18.871  26.218  1.00  0.00     0.163 HD
BRANCH   5   8
ATOM      8  C   UNL A   1      43.512  22.197  25.640  1.00  0.00     0.142 C 
ATOM      9  C   UNL A   1      43.250  23.152  27.941  1.00  0.00     0.076 C 
ATOM     10  C   UNL A   1      44.202  23.000  26.751  1.00  0.00     0.193 C 
ATOM     11  N   UNL A   1      44.743  24.208  26.103  1.00  0.00    -0.329 N 
ATOM     12  C   UNL A   1      43.775  22.917  24.332  1.00  0.00     0.081 C 
ATOM     13  C   UNL A   1      44.275  24.292  24.729  1.00  0.00     0.263 C 
ATOM     14  H   UNL A   1      45.753  24.073  26.060  1.00  0.00     0.348 HD
BRANCH  11  15
ATOM     15  C   UNL A   1      44.857  25.443  26.881  1.00  0.00     0.189 C 
ATOM     16  C   UNL A   1      44.148  26.687  26.304  1.00  0.00     0.066 C 
ATOM     17  C   UNL A   1      46.278  25.970  27.275  1.00  0.00     0.017 C 
ATOM     18  C   UNL A   1      44.859  27.904  26.894  1.00  0.00     0.007 C 
ATOM     19  C   UNL A   1      45.915  27.357  27.845  1.00  0.00     0.013 C 
ATOM     20  C   UNL A   1      46.940  25.101  28.352  1.00  0.00     0.017 C 
ATOM     21  C   UNL A   1      47.275  26.156  26.117  1.00  0.00     0.017 C 
ENDBRANCH  11  15
ENDBRANCH   5   8
ENDBRANCH   3   4
ENDBRANCH   2   3
ENDBRANCH   1   2
BRANCH   1  22
ATOM     22  N   UNL A   1      39.149  22.092  25.873  1.00  0.00    -0.352 N 
ATOM     23  C   UNL A   1      38.642  23.363  25.809  1.00  0.00     0.251 C 
ATOM     24  H   UNL A   1      38.856  21.490  25.151  1.00  0.00     0.163 HD
ATOM     25  O   UNL A   1      37.725  23.607  25.023  1.00  0.00    -0.269 OA
BRANCH  23  26
ATOM     26  C   UNL A   1      39.171  24.430  26.684  1.00  0.00     0.039 A 
ATOM     27  C   UNL A   1      40.066  25.360  26.151  1.00  0.00     0.014 A 
ATOM     28  C   UNL A   1      38.803  24.509  28.031  1.00  0.00     0.014 A 
ATOM     29  C   UNL A   1      40.543  26.399  26.951  1.00  0.00     0.010 A 
ATOM     30  C   UNL A   1      39.204  25.598  28.799  1.00  0.00     0.010 A 
ATOM     31  C   UNL A   1      40.086  26.550  28.271  1.00  0.00    -0.014 A 
BRANCH  31  32
ATOM     32  C   UNL A   1      40.524  27.696  29.106  1.00  0.00     0.031 A 
ATOM     33  C   UNL A   1      41.842  27.650  29.833  1.00  0.00     0.074 A 
ATOM     34  C   UNL A   1      39.709  28.760  29.250  1.00  0.00     0.049 A 
ATOM     35  N   UNL A   1      42.375  28.539  30.633  1.00  0.00    -0.248 NA
ATOM     36  C   UNL A   1      42.655  26.435  29.664  1.00  0.00     0.031 C 
ATOM     37  C   UNL A   1      38.380  28.894  28.646  1.00  0.00     0.029 A 
ATOM     38  N   UNL A   1      39.872  29.928  29.951  1.00  0.00    -0.354 N 
ATOM     39  C   UNL A   1      43.578  27.991  31.062  1.00  0.00     0.074 A 
ATOM     40  C   UNL A   1      43.665  26.666  30.489  1.00  0.00     0.031 C 
ATOM     41  C   UNL A   1      37.862  30.086  28.981  1.00  0.00     0.029 A 
ATOM     42  C   UNL A   1      38.801  30.786  29.852  1.00  0.00     0.049 A 
ATOM     43  H   UNL A   1      40.679  30.133  30.475  1.00  0.00     0.167 HD
ATOM     44  C   UNL A   1      44.536  28.551  31.838  1.00  0.00     0.037 A 
ATOM     45  C   UNL A   1      38.594  31.996  30.405  1.00  0.00     0.037 A 
ATOM     46  C   UNL A   1      44.446  29.876  32.395  1.00  0.00     0.049 A 
ATOM     47  C   UNL A   1      39.673  32.600  31.262  1.00  0.00     0.074 A 
ATOM     48  C   UNL A   1      45.382  30.557  33.155  1.00  0.00     0.029 A 
ATOM     49  N   UNL A   1      43.356  30.724  32.256  1.00  0.00    -0.354 N 
ATOM     50  N   UNL A   1      40.835  32.095  31.603  1.00  0.00    -0.248 NA
ATOM     51  C   UNL A   1      39.418  33.942  31.801  1.00  0.00     0.031 C 
ATOM     52  C   UNL A   1      44.838  31.794  33.515  1.00  0.00     0.029 A 
ATOM     53  C   UNL A   1      43.586  31.911  32.933  1.00  0.00     0.049 A 
ATOM     54  H   UNL A   1      42.538  30.513  31.750  1.00  0.00     0.167 HD
ATOM     55  C   UNL A   1      41.460  33.065  32.378  1.00  0.00     0.074 A 
ATOM     56  C   UNL A   1      40.554  34.194  32.438  1.00  0.00     0.031 C 
ATOM     57  C   UNL A   1      42.672  33.025  32.987  1.00  0.00     0.037 A 
BRANCH  44  58
ATOM     58  C   UNL A   1      45.767  27.732  32.125  1.00  0.00     0.058 A 
ATOM     59  C   UNL A   1      45.773  26.731  33.111  1.00  0.00     0.135 A 
ATOM     60  C   UNL A   1      46.947  27.927  31.389  1.00  0.00     0.135 A 
ATOM     61  F   UNL A   1      44.678  26.510  33.857  1.00  0.00    -0.206 F 
ATOM     62  C   UNL A   1      46.911  25.979  33.380  1.00  0.00     0.059 A 
ATOM     63  C   UNL A   1      48.089  27.165  31.620  1.00  0.00     0.059 A 
ATOM     64  F   UNL A   1      47.000  28.869  30.434  1.00  0.00    -0.206 F 
ATOM     65  C   UNL A   1      48.066  26.204  32.628  1.00  0.00     0.060 A 
BRANCH  65  66
ATOM     66  S   UNL A   1      49.534  25.217  32.992  1.00  0.00     0.124 S 
ATOM     67  O   UNL A   1      49.977  24.850  31.651  1.00  0.00    -0.237 OA
ATOM     68  O   UNL A   1      50.382  26.170  33.700  1.00  0.00    -0.237 OA
ATOM     69  O   UNL A   1      49.014  24.121  33.803  1.00  0.00    -0.744 OA
ENDBRANCH  65  66
ENDBRANCH  44  58
BRANCH  45  70
ATOM     70  C   UNL A   1      37.321  32.720  30.147  1.00  0.00     0.058 A 
ATOM     71  C   UNL A   1      37.232  33.697  29.145  1.00  0.00     0.135 A 
ATOM     72  C   UNL A   1      36.159  32.431  30.881  1.00  0.00     0.135 A 
ATOM     73  F   UNL A   1      38.315  34.014  28.419  1.00  0.00    -0.206 F 
ATOM     74  C   UNL A   1      36.043  34.373  28.888  1.00  0.00     0.059 A 
ATOM     75  C   UNL A   1      34.952  33.072  30.624  1.00  0.00     0.059 A 
ATOM     76  F   UNL A   1      36.186  31.491  31.838  1.00  0.00    -0.206 F 
ATOM     77  C   UNL A   1      34.906  34.050  29.631  1.00  0.00     0.060 A 
BRANCH  77  78
ATOM     78  S   UNL A   1      33.355  34.892  29.253  1.00  0.00     0.124 S 
ATOM     79  O   UNL A   1      32.740  34.983  30.571  1.00  0.00    -0.237 OA
ATOM     80  O   UNL A   1      33.822  36.150  28.677  1.00  0.00    -0.237 OA
ATOM     81  O   UNL A   1      32.703  33.987  28.311  1.00  0.00    -0.744 OA
ENDBRANCH  77  78
ENDBRANCH  45  70
BRANCH  57  82
ATOM     82  C   UNL A   1      43.099  34.250  33.751  1.00  0.00     0.058 A 
ATOM     83  C   UNL A   1      43.777  35.310  33.128  1.00  0.00     0.135 A 
ATOM     84  C   UNL A   1      42.799  34.376  35.117  1.00  0.00     0.135 A 
ATOM     85  F   UNL A   1      44.093  35.239  31.826  1.00  0.00    -0.206 F 
ATOM     86  C   UNL A   1      44.176  36.436  33.842  1.00  0.00     0.059 A 
ATOM     87  C   UNL A   1      43.159  35.507  35.843  1.00  0.00     0.059 A 
ATOM     88  F   UNL A   1      42.141  33.398  35.759  1.00  0.00    -0.206 F 
ATOM     89  C   UNL A   1      43.863  36.524  35.201  1.00  0.00     0.060 A 
BRANCH  89  90
ATOM     90  S   UNL A   1      44.377  37.995  36.112  1.00  0.00     0.124 S 
ATOM     91  O   UNL A   1      43.589  37.873  37.334  1.00  0.00    -0.237 OA
ATOM     92  O   UNL A   1      45.814  37.785  36.260  1.00  0.00    -0.237 OA
ATOM     93  O   UNL A   1      43.997  39.093  35.227  1.00  0.00    -0.744 OA
ENDBRANCH  89  90
ENDBRANCH  57  82
ENDBRANCH  31  32
ENDBRANCH  23  26
ENDBRANCH   1  22
TORSDOF 14
ENDMDL
MODEL 2
REMARK VINA RESULT:     -10.0      2.935     11.165
REMARK SMILES C[C@H]1[C@H](C(=O)NCCCNC(=O)c2ccc(-c3c4nc(c(-c5c(F)cc(S(=O)(=O)[O-])cc5F)c5ccc([nH]5)c(-c5c(F)cc(S(=O)(=O)[O-])cc5F)c5nc(c(-c6c(F)cc(S(=O)(=O)[O-])cc6F)c6ccc3[nH]6)C=C5)C=C4)cc2)CC[N@H+]1[C@@H]1CCCC1(C)C
REMARK SMILES IDX 9 1 8 2 7 3 6 4 4 5 5 6 3 8 1 9 2 10 81 11 79 12 80 13 82 15
REMARK SMILES IDX 83 16 86 17 84 18 85 19 87 20 88 21 10 22 11 23 12 25 13 26
REMARK SMILES IDX 14 27 78 28 15 29 77 30 16 31 17 32 18 33 71 34 19 35 76 36
REMARK SMILES IDX 70 37 72 38 20 39 75 40 69 41 68 42 21 44 55 45 34 46 54 47
REMARK SMILES IDX 35 48 38 49 53 50 73 51 36 52 37 53 52 55 74 56 39 57 22 58
REMARK SMILES IDX 23 59 32 60 24 61 25 62 31 63 33 64 26 65 27 66 28 67 29 68
REMARK SMILES IDX 30 69 56 70 57 71 66 72 58 73 59 74 65 75 67 76 60 77 61 78
REMARK SMILES IDX 62 79 63 80 64 81 40 82 41 83 50 84 42 85 43 86 49 87 51 88
REMARK SMILES IDX 44 89 45 90 46 91 47 92 48 93
REMARK H PARENT 6 7 81 14 10 24 72 43 38 54
REMARK Flexibility Score: inf
ROOT
ATOM      1  C   UNL A   1      34.528  32.510  27.986  1.00  0.00     0.118 C 
ENDROOT
BRANCH   1   2
ATOM      2  C   UNL A   1      33.609  33.568  28.581  1.00  0.00     0.042 C 
BRANCH   2   3
ATOM      3  C   UNL A   1      34.247  34.945  28.688  1.00  0.00     0.117 C 
BRANCH   3   4
ATOM      4  N   UNL A   1      34.022  35.559  29.988  1.00  0.00    -0.356 N 
ATOM      5  C   UNL A   1      34.310  35.116  31.241  1.00  0.00     0.229 C 
ATOM      6  O   UNL A   1      33.991  35.838  32.190  1.00  0.00    -0.275 OA
ATOM      7  H   UNL A   1      33.591  36.443  29.955  1.00  0.00     0.163 HD
BRANCH   5   8
ATOM      8  C   UNL A   1      35.017  33.796  31.491  1.00  0.00     0.142 C 
ATOM      9  C   UNL A   1      37.178  33.530  30.252  1.00  0.00     0.076 C 
ATOM     10  C   UNL A   1      36.543  33.924  31.589  1.00  0.00     0.193 C 
ATOM     11  N   UNL A   1      36.934  33.199  32.812  1.00  0.00    -0.329 N 
ATOM     12  C   UNL A   1      34.542  33.086  32.744  1.00  0.00     0.081 C 
ATOM     13  C   UNL A   1      35.790  32.487  33.359  1.00  0.00     0.263 C 
ATOM     14  H   UNL A   1      37.185  33.916  33.493  1.00  0.00     0.348 HD
BRANCH  11  15
ATOM     15  C   UNL A   1      38.251  32.563  32.872  1.00  0.00     0.189 C 
ATOM     16  C   UNL A   1      38.265  31.027  33.032  1.00  0.00     0.066 C 
ATOM     17  C   UNL A   1      39.293  33.059  33.931  1.00  0.00     0.017 C 
ATOM     18  C   UNL A   1      39.615  30.668  33.652  1.00  0.00     0.007 C 
ATOM     19  C   UNL A   1      40.382  31.977  33.782  1.00  0.00     0.013 C 
ATOM     20  C   UNL A   1      39.856  34.443  33.583  1.00  0.00     0.017 C 
ATOM     21  C   UNL A   1      38.813  33.081  35.393  1.00  0.00     0.017 C 
ENDBRANCH  11  15
ENDBRANCH   5   8
ENDBRANCH   3   4
ENDBRANCH   2   3
ENDBRANCH   1   2
BRANCH   1  22
ATOM     22  N   UNL A   1      33.891  31.202  27.900  1.00  0.00    -0.352 N 
ATOM     23  C   UNL A   1      34.451  29.952  27.873  1.00  0.00     0.251 C 
ATOM     24  H   UNL A   1      32.908  31.220  27.855  1.00  0.00     0.163 HD
ATOM     25  O   UNL A   1      33.746  28.983  27.586  1.00  0.00    -0.269 OA
BRANCH  23  26
ATOM     26  C   UNL A   1      35.888  29.763  28.164  1.00  0.00     0.039 A 
ATOM     27  C   UNL A   1      36.268  29.346  29.441  1.00  0.00     0.014 A 
ATOM     28  C   UNL A   1      36.861  30.011  27.192  1.00  0.00     0.014 A 
ATOM     29  C   UNL A   1      37.617  29.121  29.723  1.00  0.00     0.010 A 
ATOM     30  C   UNL A   1      38.192  29.695  27.444  1.00  0.00     0.010 A 
ATOM     31  C   UNL A   1      38.587  29.256  28.715  1.00  0.00    -0.014 A 
BRANCH  31  32
ATOM     32  C   UNL A   1      40.014  28.943  28.980  1.00  0.00     0.031 A 
ATOM     33  C   UNL A   1      40.922  29.981  29.584  1.00  0.00     0.074 A 
ATOM     34  C   UNL A   1      40.503  27.737  28.628  1.00  0.00     0.049 A 
ATOM     35  N   UNL A   1      42.201  29.901  29.856  1.00  0.00    -0.248 NA
ATOM     36  C   UNL A   1      40.326  31.289  29.898  1.00  0.00     0.031 C 
ATOM     37  C   UNL A   1      39.736  26.672  27.977  1.00  0.00     0.029 A 
ATOM     38  N   UNL A   1      41.761  27.205  28.761  1.00  0.00    -0.354 N 
ATOM     39  C   UNL A   1      42.559  31.143  30.367  1.00  0.00     0.074 A 
ATOM     40  C   UNL A   1      41.380  31.979  30.304  1.00  0.00     0.031 C 
ATOM     41  C   UNL A   1      40.532  25.606  27.793  1.00  0.00     0.029 A 
ATOM     42  C   UNL A   1      41.872  25.923  28.276  1.00  0.00     0.049 A 
ATOM     43  H   UNL A   1      42.513  27.694  29.167  1.00  0.00     0.167 HD
ATOM     44  C   UNL A   1      43.752  31.541  30.869  1.00  0.00     0.037 A 
ATOM     45  C   UNL A   1      42.934  25.097  28.218  1.00  0.00     0.037 A 
ATOM     46  C   UNL A   1      44.917  30.698  30.938  1.00  0.00     0.049 A 
ATOM     47  C   UNL A   1      44.248  25.560  28.784  1.00  0.00     0.074 A 
ATOM     48  C   UNL A   1      46.161  30.988  31.473  1.00  0.00     0.029 A 
ATOM     49  N   UNL A   1      44.986  29.398  30.456  1.00  0.00    -0.354 N 
ATOM     50  N   UNL A   1      44.552  26.716  29.326  1.00  0.00    -0.248 NA
ATOM     51  C   UNL A   1      45.362  24.604  28.742  1.00  0.00     0.031 C 
ATOM     52  C   UNL A   1      46.994  29.883  31.270  1.00  0.00     0.029 A 
ATOM     53  C   UNL A   1      46.255  28.881  30.661  1.00  0.00     0.049 A 
ATOM     54  H   UNL A   1      44.242  28.914  30.031  1.00  0.00     0.167 HD
ATOM     55  C   UNL A   1      45.885  26.619  29.709  1.00  0.00     0.074 A 
ATOM     56  C   UNL A   1      46.322  25.284  29.355  1.00  0.00     0.031 C 
ATOM     57  C   UNL A   1      46.677  27.551  30.298  1.00  0.00     0.037 A 
BRANCH  44  58
ATOM     58  C   UNL A   1      43.852  32.951  31.389  1.00  0.00     0.058 A 
ATOM     59  C   UNL A   1      44.113  34.035  30.534  1.00  0.00     0.135 A 
ATOM     60  C   UNL A   1      43.659  33.230  32.752  1.00  0.00     0.135 A 
ATOM     61  F   UNL A   1      44.321  33.828  29.223  1.00  0.00    -0.206 F 
ATOM     62  C   UNL A   1      44.211  35.337  31.014  1.00  0.00     0.059 A 
ATOM     63  C   UNL A   1      43.723  34.529  33.250  1.00  0.00     0.059 A 
ATOM     64  F   UNL A   1      43.407  32.234  33.616  1.00  0.00    -0.206 F 
ATOM     65  C   UNL A   1      44.015  35.573  32.376  1.00  0.00     0.060 A 
BRANCH  65  66
ATOM     66  S   UNL A   1      44.147  37.269  32.981  1.00  0.00     0.124 S 
ATOM     67  O   UNL A   1      45.575  37.367  33.265  1.00  0.00    -0.237 OA
ATOM     68  O   UNL A   1      43.674  38.045  31.840  1.00  0.00    -0.237 OA
ATOM     69  O   UNL A   1      43.272  37.282  34.150  1.00  0.00    -0.744 OA
ENDBRANCH  65  66
ENDBRANCH  44  58
BRANCH  45  70
ATOM     70  C   UNL A   1      42.788  23.744  27.619  1.00  0.00     0.058 A 
ATOM     71  C   UNL A   1      43.060  23.518  26.262  1.00  0.00     0.135 A 
ATOM     72  C   UNL A   1      42.396  22.643  28.398  1.00  0.00     0.135 A 
ATOM     73  F   UNL A   1      43.433  24.538  25.473  1.00  0.00    -0.206 F 
ATOM     74  C   UNL A   1      42.936  22.254  25.693  1.00  0.00     0.059 A 
ATOM     75  C   UNL A   1      42.293  21.365  27.860  1.00  0.00     0.059 A 
ATOM     76  F   UNL A   1      42.143  22.802  29.706  1.00  0.00    -0.206 F 
ATOM     77  C   UNL A   1      42.556  21.181  26.503  1.00  0.00     0.060 A 
BRANCH  77  78
ATOM     78  S   UNL A   1      42.452  19.536  25.769  1.00  0.00     0.124 S 
ATOM     79  O   UNL A   1      41.037  19.452  25.432  1.00  0.00    -0.237 OA
ATOM     80  O   UNL A   1      43.374  19.645  24.641  1.00  0.00    -0.237 OA
ATOM     81  O   UNL A   1      42.898  18.659  26.847  1.00  0.00    -0.744 OA
ENDBRANCH  77  78
ENDBRANCH  45  70
BRANCH  57  82
ATOM     82  C   UNL A   1      48.091  27.147  30.619  1.00  0.00     0.058 A 
ATOM     83  C   UNL A   1      49.133  27.303  29.691  1.00  0.00     0.135 A 
ATOM     84  C   UNL A   1      48.411  26.625  31.882  1.00  0.00     0.135 A 
ATOM     85  F   UNL A   1      48.881  27.792  28.467  1.00  0.00    -0.206 F 
ATOM     86  C   UNL A   1      50.436  26.920  29.991  1.00  0.00     0.059 A 
ATOM     87  C   UNL A   1      49.714  26.266  32.217  1.00  0.00     0.059 A 
ATOM     88  F   UNL A   1      47.456  26.467  32.812  1.00  0.00    -0.206 F 
ATOM     89  C   UNL A   1      50.716  26.401  31.258  1.00  0.00     0.060 A 
BRANCH  89  90
ATOM     90  S   UNL A   1      52.413  25.918  31.638  1.00  0.00     0.124 S 
ATOM     91  O   UNL A   1      53.052  26.036  30.331  1.00  0.00    -0.237 OA
ATOM     92  O   UNL A   1      52.807  26.915  32.629  1.00  0.00    -0.237 OA
ATOM     93  O   UNL A   1      52.274  24.557  32.147  1.00  0.00    -0.744 OA
ENDBRANCH  89  90
ENDBRANCH  57  82
ENDBRANCH  31  32
ENDBRANCH  23  26
ENDBRANCH   1  22
TORSDOF 14
ENDMDL
MODEL 3
REMARK VINA RESULT:     -10.0      5.051     11.890
REMARK SMILES C[C@H]1[C@H](C(=O)NCCCNC(=O)c2ccc(-c3c4nc(c(-c5c(F)cc(S(=O)(=O)[O-])cc5F)c5ccc([nH]5)c(-c5c(F)cc(S(=O)(=O)[O-])cc5F)c5nc(c(-c6c(F)cc(S(=O)(=O)[O-])cc6F)c6ccc3[nH]6)C=C5)C=C4)cc2)CC[N@H+]1[C@@H]1CCCC1(C)C
REMARK SMILES IDX 9 1 8 2 7 3 6 4 4 5 5 6 3 8 1 9 2 10 81 11 79 12 80 13 82 15
REMARK SMILES IDX 83 16 86 17 84 18 85 19 87 20 88 21 10 22 11 23 12 25 13 26
REMARK SMILES IDX 14 27 78 28 15 29 77 30 16 31 17 32 18 33 71 34 19 35 76 36
REMARK SMILES IDX 70 37 72 38 20 39 75 40 69 41 68 42 21 44 55 45 34 46 54 47
REMARK SMILES IDX 35 48 38 49 53 50 73 51 36 52 37 53 52 55 74 56 39 57 22 58
REMARK SMILES IDX 23 59 32 60 24 61 25 62 31 63 33 64 26 65 27 66 28 67 29 68
REMARK SMILES IDX 30 69 56 70 57 71 66 72 58 73 59 74 65 75 67 76 60 77 61 78
REMARK SMILES IDX 62 79 63 80 64 81 40 82 41 83 50 84 42 85 43 86 49 87 51 88
REMARK SMILES IDX 44 89 45 90 46 91 47 92 48 93
REMARK H PARENT 6 7 81 14 10 24 72 43 38 54
REMARK Flexibility Score: inf
ROOT
ATOM      1  C   UNL A   1      35.585  31.039  28.171  1.00  0.00     0.118 C 
ENDROOT
BRANCH   1   2
ATOM      2  C   UNL A   1      34.965  29.861  27.434  1.00  0.00     0.042 C 
BRANCH   2   3
ATOM      3  C   UNL A   1      33.568  30.139  26.898  1.00  0.00     0.117 C 
BRANCH   3   4
ATOM      4  N   UNL A   1      32.543  29.390  27.609  1.00  0.00    -0.356 N 
ATOM      5  C   UNL A   1      31.825  28.297  27.239  1.00  0.00     0.229 C 
ATOM      6  O   UNL A   1      30.990  27.864  28.039  1.00  0.00    -0.275 OA
ATOM      7  H   UNL A   1      32.337  29.731  28.509  1.00  0.00     0.163 HD
BRANCH   5   8
ATOM      8  C   UNL A   1      32.036  27.601  25.907  1.00  0.00     0.142 C 
ATOM      9  C   UNL A   1      34.143  26.253  25.767  1.00  0.00     0.076 C 
ATOM     10  C   UNL A   1      32.636  26.195  26.034  1.00  0.00     0.193 C 
ATOM     11  N   UNL A   1      31.792  25.317  25.204  1.00  0.00    -0.329 N 
ATOM     12  C   UNL A   1      30.769  27.479  25.083  1.00  0.00     0.081 C 
ATOM     13  C   UNL A   1      30.844  26.110  24.438  1.00  0.00     0.263 C 
ATOM     14  H   UNL A   1      31.244  24.757  25.858  1.00  0.00     0.348 HD
BRANCH  11  15
ATOM     15  C   UNL A   1      32.393  24.141  24.572  1.00  0.00     0.189 C 
ATOM     16  C   UNL A   1      31.926  23.817  23.137  1.00  0.00     0.066 C 
ATOM     17  C   UNL A   1      32.328  22.759  25.308  1.00  0.00     0.017 C 
ATOM     18  C   UNL A   1      32.183  22.326  22.922  1.00  0.00     0.007 C 
ATOM     19  C   UNL A   1      32.849  21.824  24.197  1.00  0.00     0.013 C 
ATOM     20  C   UNL A   1      33.253  22.712  26.531  1.00  0.00     0.017 C 
ATOM     21  C   UNL A   1      30.927  22.287  25.737  1.00  0.00     0.017 C 
ENDBRANCH  11  15
ENDBRANCH   5   8
ENDBRANCH   3   4
ENDBRANCH   2   3
ENDBRANCH   1   2
BRANCH   1  22
ATOM     22  N   UNL A   1      35.513  30.891  29.619  1.00  0.00    -0.352 N 
ATOM     23  C   UNL A   1      36.435  30.388  30.499  1.00  0.00     0.251 C 
ATOM     24  H   UNL A   1      34.673  31.201  30.028  1.00  0.00     0.163 HD
ATOM     25  O   UNL A   1      36.096  30.158  31.661  1.00  0.00    -0.269 OA
BRANCH  23  26
ATOM     26  C   UNL A   1      37.818  30.103  30.060  1.00  0.00     0.039 A 
ATOM     27  C   UNL A   1      38.787  29.819  31.024  1.00  0.00     0.014 A 
ATOM     28  C   UNL A   1      38.167  30.132  28.706  1.00  0.00     0.014 A 
ATOM     29  C   UNL A   1      40.088  29.506  30.626  1.00  0.00     0.010 A 
ATOM     30  C   UNL A   1      39.437  29.728  28.306  1.00  0.00     0.010 A 
ATOM     31  C   UNL A   1      40.415  29.420  29.262  1.00  0.00    -0.014 A 
BRANCH  31  32
ATOM     32  C   UNL A   1      41.773  29.010  28.825  1.00  0.00     0.031 A 
ATOM     33  C   UNL A   1      42.889  30.019  28.760  1.00  0.00     0.074 A 
ATOM     34  C   UNL A   1      41.988  27.737  28.437  1.00  0.00     0.049 A 
ATOM     35  N   UNL A   1      44.129  29.854  28.372  1.00  0.00    -0.248 NA
ATOM     36  C   UNL A   1      42.565  31.399  29.154  1.00  0.00     0.031 C 
ATOM     37  C   UNL A   1      40.971  26.684  28.396  1.00  0.00     0.029 A 
ATOM     38  N   UNL A   1      43.128  27.112  27.999  1.00  0.00    -0.354 N 
ATOM     39  C   UNL A   1      44.728  31.105  28.472  1.00  0.00     0.074 A 
ATOM     40  C   UNL A   1      43.699  32.032  28.892  1.00  0.00     0.031 C 
ATOM     41  C   UNL A   1      41.538  25.539  27.983  1.00  0.00     0.029 A 
ATOM     42  C   UNL A   1      42.947  25.784  27.694  1.00  0.00     0.049 A 
ATOM     43  H   UNL A   1      43.995  27.572  27.912  1.00  0.00     0.167 HD
ATOM     44  C   UNL A   1      46.021  31.445  28.262  1.00  0.00     0.037 A 
ATOM     45  C   UNL A   1      43.815  24.866  27.227  1.00  0.00     0.037 A 
ATOM     46  C   UNL A   1      47.041  30.514  27.855  1.00  0.00     0.049 A 
ATOM     47  C   UNL A   1      45.248  25.265  27.004  1.00  0.00     0.074 A 
ATOM     48  C   UNL A   1      48.393  30.745  27.662  1.00  0.00     0.029 A 
ATOM     49  N   UNL A   1      46.825  29.171  27.576  1.00  0.00    -0.354 N 
ATOM     50  N   UNL A   1      45.812  26.438  27.169  1.00  0.00    -0.248 NA
ATOM     51  C   UNL A   1      46.165  24.215  26.541  1.00  0.00     0.031 C 
ATOM     52  C   UNL A   1      48.982  29.556  27.219  1.00  0.00     0.029 A 
ATOM     53  C   UNL A   1      48.011  28.568  27.192  1.00  0.00     0.049 A 
ATOM     54  H   UNL A   1      45.955  28.714  27.642  1.00  0.00     0.167 HD
ATOM     55  C   UNL A   1      47.155  26.264  26.851  1.00  0.00     0.074 A 
ATOM     56  C   UNL A   1      47.320  24.866  26.504  1.00  0.00     0.031 C 
ATOM     57  C   UNL A   1      48.159  27.176  26.844  1.00  0.00     0.037 A 
BRANCH  44  58
ATOM     58  C   UNL A   1      46.406  32.885  28.475  1.00  0.00     0.058 A 
ATOM     59  C   UNL A   1      46.356  33.824  27.431  1.00  0.00     0.135 A 
ATOM     60  C   UNL A   1      46.803  33.343  29.743  1.00  0.00     0.135 A 
ATOM     61  F   UNL A   1      45.997  33.442  26.195  1.00  0.00    -0.206 F 
ATOM     62  C   UNL A   1      46.716  35.153  27.626  1.00  0.00     0.059 A 
ATOM     63  C   UNL A   1      47.139  34.675  29.969  1.00  0.00     0.059 A 
ATOM     64  F   UNL A   1      46.870  32.491  30.778  1.00  0.00    -0.206 F 
ATOM     65  C   UNL A   1      47.108  35.569  28.900  1.00  0.00     0.060 A 
BRANCH  65  66
ATOM     66  S   UNL A   1      47.573  37.298  29.135  1.00  0.00     0.124 S 
ATOM     67  O   UNL A   1      48.196  37.256  30.453  1.00  0.00    -0.237 OA
ATOM     68  O   UNL A   1      48.477  37.532  28.014  1.00  0.00    -0.237 OA
ATOM     69  O   UNL A   1      46.297  38.005  29.065  1.00  0.00    -0.744 OA
ENDBRANCH  65  66
ENDBRANCH  44  58
BRANCH  45  70
ATOM     70  C   UNL A   1      43.352  23.477  26.961  1.00  0.00     0.058 A 
ATOM     71  C   UNL A   1      43.131  23.025  25.652  1.00  0.00     0.135 A 
ATOM     72  C   UNL A   1      43.146  22.567  28.009  1.00  0.00     0.135 A 
ATOM     73  F   UNL A   1      43.309  23.858  24.615  1.00  0.00    -0.206 F 
ATOM     74  C   UNL A   1      42.708  21.725  25.391  1.00  0.00     0.059 A 
ATOM     75  C   UNL A   1      42.751  21.255  27.773  1.00  0.00     0.059 A 
ATOM     76  F   UNL A   1      43.362  22.944  29.279  1.00  0.00    -0.206 F 
ATOM     77  C   UNL A   1      42.525  20.845  26.459  1.00  0.00     0.060 A 
BRANCH  77  78
ATOM     78  S   UNL A   1      42.031  19.146  26.107  1.00  0.00     0.124 S 
ATOM     79  O   UNL A   1      42.847  18.838  24.939  1.00  0.00    -0.237 OA
ATOM     80  O   UNL A   1      42.396  18.458  27.342  1.00  0.00    -0.237 OA
ATOM     81  O   UNL A   1      40.596  19.257  25.864  1.00  0.00    -0.744 OA
ENDBRANCH  77  78
ENDBRANCH  45  70
BRANCH  57  82
ATOM     82  C   UNL A   1      49.533  26.684  26.474  1.00  0.00     0.058 A 
ATOM     83  C   UNL A   1      50.374  26.063  27.412  1.00  0.00     0.135 A 
ATOM     84  C   UNL A   1      50.001  26.809  25.156  1.00  0.00     0.135 A 
ATOM     85  F   UNL A   1      49.978  25.922  28.686  1.00  0.00    -0.206 F 
ATOM     86  C   UNL A   1      51.645  25.618  27.064  1.00  0.00     0.059 A 
ATOM     87  C   UNL A   1      51.256  26.342  24.778  1.00  0.00     0.059 A 
ATOM     88  F   UNL A   1      49.233  27.383  24.216  1.00  0.00    -0.206 F 
ATOM     89  C   UNL A   1      52.078  25.764  25.744  1.00  0.00     0.060 A 
BRANCH  89  90
ATOM     90  S   UNL A   1      53.726  25.173  25.304  1.00  0.00     0.124 S 
ATOM     91  O   UNL A   1      53.548  23.726  25.380  1.00  0.00    -0.237 OA
ATOM     92  O   UNL A   1      53.907  25.720  23.964  1.00  0.00    -0.237 OA
ATOM     93  O   UNL A   1      54.582  25.755  26.334  1.00  0.00    -0.744 OA
ENDBRANCH  89  90
ENDBRANCH  57  82
ENDBRANCH  31  32
ENDBRANCH  23  26
ENDBRANCH   1  22
TORSDOF 14
ENDMDL
