MODEL 1
REMARK VINA RESULT:     -12.9      0.000      0.000
REMARK SMILES O=C(NCCCNC(=O)c1[nH]ncc1C[NH+]1CCC([N@H+]2CCC[C@@H](C(=O)N3CCCC3)C2)CC1)c1ccc(-c2c3nc(c(-c4c(F)cc(S(=O)(=O)[O-])cc4F)c4ccc([nH]4)c(-c4c(F)cc(S(=O)(=O)[O-])cc4F)c4nc(c(-c5c(F)cc(S(=O)(=O)[O-])cc5F)c5ccc2[nH]5)C=C4)C=C3)cc1
REMARK SMILES IDX 5 1 4 2 3 3 1 4 2 5 35 7 36 8 100 9 37 10 99 11 38 12 39 13
REMARK SMILES IDX 40 14 93 15 41 16 98 17 92 18 94 19 42 20 97 21 91 22 90 23
REMARK SMILES IDX 43 25 77 26 56 27 76 28 57 29 60 30 75 31 95 32 58 33 59 34
REMARK SMILES IDX 74 36 96 37 61 38 44 39 45 40 54 41 46 42 47 43 53 44 55 45
REMARK SMILES IDX 48 46 49 47 50 48 51 49 52 50 78 51 79 52 88 53 80 54 81 55
REMARK SMILES IDX 87 56 89 57 82 58 83 59 84 60 85 61 86 62 62 63 63 64 72 65
REMARK SMILES IDX 64 66 65 67 71 68 73 69 66 70 67 71 68 72 69 73 70 74 6 75
REMARK SMILES IDX 7 76 8 77 9 79 10 80 11 81 14 82 12 83 13 85 15 86 16 87
REMARK SMILES IDX 17 88 34 89 18 91 33 92 19 93 20 94 21 95 32 96 22 98 24 99
REMARK SMILES IDX 23 100 25 101 26 102 27 103 28 104 31 105 29 106 30 107
REMARK H PARENT 3 6 94 24 60 35 7 78 11 84 16 90 20 97
REMARK Flexibility Score: inf
ROOT
ATOM      1  C   UNL A   1      37.533  23.271  26.341  1.00  0.00     0.042 C 
ENDROOT
BRANCH   1   2
ATOM      2  C   UNL A   1      38.443  24.466  26.079  1.00  0.00     0.118 C 
BRANCH   2   3
ATOM      3  N   UNL A   1      39.855  24.111  26.061  1.00  0.00    -0.352 N 
ATOM      4  O   UNL A   1      42.065  24.299  26.368  1.00  0.00    -0.269 OA
ATOM      5  C   UNL A   1      40.935  24.648  26.715  1.00  0.00     0.251 C 
ATOM      6  H   UNL A   1      40.074  23.350  25.475  1.00  0.00     0.163 HD
BRANCH   5   7
ATOM      7  C   UNL A   1      40.776  25.639  27.804  1.00  0.00     0.039 A 
ATOM      8  C   UNL A   1      39.692  25.595  28.681  1.00  0.00     0.014 A 
ATOM      9  C   UNL A   1      41.784  26.590  28.009  1.00  0.00     0.014 A 
ATOM     10  C   UNL A   1      39.539  26.577  29.655  1.00  0.00     0.010 A 
ATOM     11  C   UNL A   1      41.678  27.522  29.049  1.00  0.00     0.010 A 
ATOM     12  C   UNL A   1      40.540  27.541  29.865  1.00  0.00    -0.014 A 
BRANCH  12  13
ATOM     13  C   UNL A   1      40.390  28.495  30.995  1.00  0.00     0.031 A 
ATOM     14  C   UNL A   1      41.325  28.471  32.172  1.00  0.00     0.074 A 
ATOM     15  C   UNL A   1      39.421  29.432  30.922  1.00  0.00     0.049 A 
ATOM     16  N   UNL A   1      41.371  29.284  33.197  1.00  0.00    -0.248 NA
ATOM     17  C   UNL A   1      42.328  27.397  32.216  1.00  0.00     0.031 C 
ATOM     18  C   UNL A   1      38.426  29.533  29.850  1.00  0.00     0.029 A 
ATOM     19  N   UNL A   1      39.136  30.495  31.738  1.00  0.00    -0.354 N 
ATOM     20  C   UNL A   1      42.380  28.804  34.022  1.00  0.00     0.074 A 
ATOM     21  C   UNL A   1      42.922  27.625  33.380  1.00  0.00     0.031 C 
ATOM     22  C   UNL A   1      37.689  30.639  30.036  1.00  0.00     0.029 A 
ATOM     23  C   UNL A   1      38.129  31.299  31.260  1.00  0.00     0.049 A 
ATOM     24  H   UNL A   1      39.607  30.668  32.585  1.00  0.00     0.167 HD
ATOM     25  C   UNL A   1      42.814  29.302  35.205  1.00  0.00     0.037 A 
ATOM     26  C   UNL A   1      37.616  32.446  31.744  1.00  0.00     0.037 A 
ATOM     27  C   UNL A   1      42.309  30.501  35.820  1.00  0.00     0.049 A 
ATOM     28  C   UNL A   1      38.160  33.010  33.021  1.00  0.00     0.074 A 
ATOM     29  C   UNL A   1      42.729  31.113  36.989  1.00  0.00     0.029 A 
ATOM     30  N   UNL A   1      41.277  31.275  35.313  1.00  0.00    -0.354 N 
ATOM     31  N   UNL A   1      39.131  32.550  33.772  1.00  0.00    -0.248 NA
ATOM     32  C   UNL A   1      37.530  34.237  33.525  1.00  0.00     0.031 C 
ATOM     33  C   UNL A   1      41.939  32.250  37.198  1.00  0.00     0.029 A 
ATOM     34  C   UNL A   1      41.037  32.352  36.151  1.00  0.00     0.049 A 
ATOM     35  H   UNL A   1      40.786  31.088  34.481  1.00  0.00     0.167 HD
ATOM     36  C   UNL A   1      39.213  33.417  34.852  1.00  0.00     0.074 A 
ATOM     37  C   UNL A   1      38.218  34.450  34.639  1.00  0.00     0.031 C 
ATOM     38  C   UNL A   1      40.029  33.354  35.932  1.00  0.00     0.037 A 
BRANCH  25  39
ATOM     39  C   UNL A   1      43.892  28.545  35.924  1.00  0.00     0.058 A 
ATOM     40  C   UNL A   1      43.591  27.461  36.762  1.00  0.00     0.135 A 
ATOM     41  C   UNL A   1      45.243  28.873  35.726  1.00  0.00     0.135 A 
ATOM     42  F   UNL A   1      42.313  27.120  36.994  1.00  0.00    -0.206 F 
ATOM     43  C   UNL A   1      44.596  26.729  37.388  1.00  0.00     0.059 A 
ATOM     44  C   UNL A   1      46.265  28.148  36.332  1.00  0.00     0.059 A 
ATOM     45  F   UNL A   1      45.579  29.904  34.936  1.00  0.00    -0.206 F 
ATOM     46  C   UNL A   1      45.930  27.083  37.169  1.00  0.00     0.060 A 
BRANCH  46  47
ATOM     47  S   UNL A   1      47.232  26.118  37.969  1.00  0.00     0.124 S 
ATOM     48  O   UNL A   1      47.128  24.847  37.260  1.00  0.00    -0.237 OA
ATOM     49  O   UNL A   1      48.429  26.905  37.686  1.00  0.00    -0.237 OA
ATOM     50  O   UNL A   1      46.822  26.094  39.369  1.00  0.00    -0.744 OA
ENDBRANCH  46  47
ENDBRANCH  25  39
BRANCH  26  51
ATOM     51  C   UNL A   1      36.527  33.130  31.006  1.00  0.00     0.058 A 
ATOM     52  C   UNL A   1      35.198  33.044  31.446  1.00  0.00     0.135 A 
ATOM     53  C   UNL A   1      36.805  33.923  29.883  1.00  0.00     0.135 A 
ATOM     54  F   UNL A   1      34.890  32.296  32.517  1.00  0.00    -0.206 F 
ATOM     55  C   UNL A   1      34.175  33.729  30.799  1.00  0.00     0.059 A 
ATOM     56  C   UNL A   1      35.801  34.628  29.228  1.00  0.00     0.059 A 
ATOM     57  F   UNL A   1      38.066  34.044  29.438  1.00  0.00    -0.206 F 
ATOM     58  C   UNL A   1      34.488  34.521  29.692  1.00  0.00     0.060 A 
BRANCH  58  59
ATOM     59  S   UNL A   1      33.185  35.490  28.897  1.00  0.00     0.124 S 
ATOM     60  O   UNL A   1      33.964  36.419  28.088  1.00  0.00    -0.237 OA
ATOM     61  O   UNL A   1      32.435  34.477  28.161  1.00  0.00    -0.237 OA
ATOM     62  O   UNL A   1      32.479  36.074  30.033  1.00  0.00    -0.744 OA
ENDBRANCH  58  59
ENDBRANCH  26  51
BRANCH  38  63
ATOM     63  C   UNL A   1      39.845  34.413  36.975  1.00  0.00     0.058 A 
ATOM     64  C   UNL A   1      40.492  35.653  36.859  1.00  0.00     0.135 A 
ATOM     65  C   UNL A   1      39.016  34.197  38.086  1.00  0.00     0.135 A 
ATOM     66  F   UNL A   1      41.301  35.898  35.816  1.00  0.00    -0.206 F 
ATOM     67  C   UNL A   1      40.337  36.643  37.822  1.00  0.00     0.059 A 
ATOM     68  C   UNL A   1      38.838  35.177  39.056  1.00  0.00     0.059 A 
ATOM     69  F   UNL A   1      38.376  33.027  38.235  1.00  0.00    -0.206 F 
ATOM     70  C   UNL A   1      39.514  36.391  38.922  1.00  0.00     0.060 A 
BRANCH  70  71
ATOM     71  S   UNL A   1      39.302  37.679  40.170  1.00  0.00     0.124 S 
ATOM     72  O   UNL A   1      40.614  38.318  40.156  1.00  0.00    -0.237 OA
ATOM     73  O   UNL A   1      38.205  38.476  39.628  1.00  0.00    -0.237 OA
ATOM     74  O   UNL A   1      38.981  36.923  41.376  1.00  0.00    -0.744 OA
ENDBRANCH  70  71
ENDBRANCH  38  63
ENDBRANCH  12  13
ENDBRANCH   5   7
ENDBRANCH   2   3
ENDBRANCH   1   2
BRANCH   1  75
ATOM     75  C   UNL A   1      36.045  23.593  26.312  1.00  0.00     0.118 C 
BRANCH  75  76
ATOM     76  N   UNL A   1      35.524  23.759  24.952  1.00  0.00    -0.351 N 
ATOM     77  C   UNL A   1      35.153  22.830  24.051  1.00  0.00     0.269 C 
ATOM     78  H   UNL A   1      35.432  24.692  24.651  1.00  0.00     0.163 HD
ATOM     79  O   UNL A   1      34.992  23.213  22.858  1.00  0.00    -0.268 OA
BRANCH  77  80
ATOM     80  C   UNL A   1      34.989  21.460  24.399  1.00  0.00     0.131 A 
ATOM     81  N   UNL A   1      36.053  20.611  24.525  1.00  0.00    -0.272 N 
ATOM     82  C   UNL A   1      33.857  20.650  24.581  1.00  0.00     0.057 A 
ATOM     83  N   UNL A   1      35.734  19.363  24.887  1.00  0.00    -0.183 NA
ATOM     84  H   UNL A   1      36.982  20.896  24.362  1.00  0.00     0.190 HD
ATOM     85  C   UNL A   1      34.401  19.388  24.922  1.00  0.00     0.145 A 
BRANCH  82  86
ATOM     86  C   UNL A   1      32.414  20.996  24.459  1.00  0.00     0.303 C 
BRANCH  86  87
ATOM     87  N   UNL A   1      32.105  22.402  24.728  1.00  0.00    -0.331 N 
ATOM     88  C   UNL A   1      31.048  22.953  23.884  1.00  0.00     0.268 C 
ATOM     89  C   UNL A   1      31.908  22.720  26.140  1.00  0.00     0.268 C 
ATOM     90  H   UNL A   1      32.961  22.885  24.456  1.00  0.00     0.348 HD
ATOM     91  C   UNL A   1      31.023  24.479  23.994  1.00  0.00     0.126 C 
ATOM     92  C   UNL A   1      31.946  24.236  26.331  1.00  0.00     0.126 C 
ATOM     93  C   UNL A   1      30.881  24.936  25.462  1.00  0.00     0.195 C 
BRANCH  93  94
ATOM     94  N   UNL A   1      30.841  26.409  25.676  1.00  0.00    -0.331 N 
ATOM     95  C   UNL A   1      31.867  26.916  26.604  1.00  0.00     0.262 C 
ATOM     96  C   UNL A   1      30.918  27.142  24.393  1.00  0.00     0.275 C 
ATOM     97  H   UNL A   1      29.939  26.583  26.119  1.00  0.00     0.348 HD
ATOM     98  C   UNL A   1      31.699  28.418  26.851  1.00  0.00     0.062 C 
ATOM     99  C   UNL A   1      30.664  28.634  24.566  1.00  0.00     0.134 C 
ATOM    100  C   UNL A   1      31.688  29.214  25.552  1.00  0.00     0.025 C 
BRANCH  99 101
ATOM    101  C   UNL A   1      30.665  29.521  23.315  1.00  0.00     0.231 C 
ATOM    102  O   UNL A   1      31.501  29.290  22.433  1.00  0.00    -0.274 OA
ATOM    103  N   UNL A   1      29.594  30.342  23.045  1.00  0.00    -0.342 N 
ATOM    104  C   UNL A   1      29.014  31.397  23.856  1.00  0.00     0.119 C 
ATOM    105  C   UNL A   1      29.139  30.493  21.673  1.00  0.00     0.119 C 
ATOM    106  C   UNL A   1      27.639  31.570  23.239  1.00  0.00     0.023 C 
ATOM    107  C   UNL A   1      27.912  31.403  21.745  1.00  0.00     0.023 C 
ENDBRANCH  99 101
ENDBRANCH  93  94
ENDBRANCH  86  87
ENDBRANCH  82  86
ENDBRANCH  77  80
ENDBRANCH  75  76
ENDBRANCH   1  75
TORSDOF 17
ENDMDL
MODEL 2
REMARK VINA RESULT:     -12.9      4.820     11.115
REMARK SMILES O=C(NCCCNC(=O)c1[nH]ncc1C[NH+]1CCC([N@H+]2CCC[C@@H](C(=O)N3CCCC3)C2)CC1)c1ccc(-c2c3nc(c(-c4c(F)cc(S(=O)(=O)[O-])cc4F)c4ccc([nH]4)c(-c4c(F)cc(S(=O)(=O)[O-])cc4F)c4nc(c(-c5c(F)cc(S(=O)(=O)[O-])cc5F)c5ccc2[nH]5)C=C4)C=C3)cc1
REMARK SMILES IDX 5 1 4 2 3 3 1 4 2 5 35 7 36 8 100 9 37 10 99 11 38 12 39 13
REMARK SMILES IDX 40 14 93 15 41 16 98 17 92 18 94 19 42 20 97 21 91 22 90 23
REMARK SMILES IDX 43 25 77 26 56 27 76 28 57 29 60 30 75 31 95 32 58 33 59 34
REMARK SMILES IDX 74 36 96 37 61 38 44 39 45 40 54 41 46 42 47 43 53 44 55 45
REMARK SMILES IDX 48 46 49 47 50 48 51 49 52 50 78 51 79 52 88 53 80 54 81 55
REMARK SMILES IDX 87 56 89 57 82 58 83 59 84 60 85 61 86 62 62 63 63 64 72 65
REMARK SMILES IDX 64 66 65 67 71 68 73 69 66 70 67 71 68 72 69 73 70 74 6 75
REMARK SMILES IDX 7 76 8 77 9 79 10 80 11 81 14 82 12 83 13 85 15 86 16 87
REMARK SMILES IDX 17 88 34 89 18 91 33 92 19 93 20 94 21 95 32 96 22 98 24 99
REMARK SMILES IDX 23 100 25 101 26 102 27 103 28 104 31 105 29 106 30 107
REMARK H PARENT 3 6 94 24 60 35 7 78 11 84 16 90 20 97
REMARK Flexibility Score: inf
ROOT
ATOM      1  C   UNL A   1      41.240  21.306  27.497  1.00  0.00     0.042 C 
ENDROOT
BRANCH   1   2
ATOM      2  C   UNL A   1      41.113  22.015  26.153  1.00  0.00     0.118 C 
BRANCH   2   3
ATOM      3  N   UNL A   1      39.728  22.243  25.761  1.00  0.00    -0.352 N 
ATOM      4  O   UNL A   1      37.647  23.067  25.810  1.00  0.00    -0.269 OA
ATOM      5  C   UNL A   1      38.830  23.215  26.123  1.00  0.00     0.251 C 
ATOM      6  H   UNL A   1      39.375  21.581  25.123  1.00  0.00     0.163 HD
BRANCH   5   7
ATOM      7  C   UNL A   1      39.242  24.416  26.885  1.00  0.00     0.039 A 
ATOM      8  C   UNL A   1      38.951  24.557  28.241  1.00  0.00     0.014 A 
ATOM      9  C   UNL A   1      40.014  25.395  26.244  1.00  0.00     0.014 A 
ATOM     10  C   UNL A   1      39.297  25.725  28.914  1.00  0.00     0.010 A 
ATOM     11  C   UNL A   1      40.443  26.528  26.946  1.00  0.00     0.010 A 
ATOM     12  C   UNL A   1      40.065  26.717  28.281  1.00  0.00    -0.014 A 
BRANCH  12  13
ATOM     13  C   UNL A   1      40.513  27.891  29.074  1.00  0.00     0.031 A 
ATOM     14  C   UNL A   1      39.598  29.055  29.341  1.00  0.00     0.074 A 
ATOM     15  C   UNL A   1      41.754  27.874  29.604  1.00  0.00     0.049 A 
ATOM     16  N   UNL A   1      39.816  30.116  30.076  1.00  0.00    -0.248 NA
ATOM     17  C   UNL A   1      38.277  29.036  28.696  1.00  0.00     0.031 C 
ATOM     18  C   UNL A   1      42.750  26.820  29.384  1.00  0.00     0.029 A 
ATOM     19  N   UNL A   1      42.377  28.743  30.463  1.00  0.00    -0.354 N 
ATOM     20  C   UNL A   1      38.680  30.904  29.956  1.00  0.00     0.074 A 
ATOM     21  C   UNL A   1      37.771  30.202  29.075  1.00  0.00     0.031 C 
ATOM     22  C   UNL A   1      43.827  27.067  30.145  1.00  0.00     0.029 A 
ATOM     23  C   UNL A   1      43.617  28.314  30.871  1.00  0.00     0.049 A 
ATOM     24  H   UNL A   1      41.974  29.590  30.760  1.00  0.00     0.167 HD
ATOM     25  C   UNL A   1      38.418  32.103  30.531  1.00  0.00     0.037 A 
ATOM     26  C   UNL A   1      44.491  28.858  31.739  1.00  0.00     0.037 A 
ATOM     27  C   UNL A   1      39.301  32.780  31.445  1.00  0.00     0.049 A 
ATOM     28  C   UNL A   1      44.149  30.152  32.410  1.00  0.00     0.074 A 
ATOM     29  C   UNL A   1      39.093  33.970  32.121  1.00  0.00     0.029 A 
ATOM     30  N   UNL A   1      40.555  32.322  31.818  1.00  0.00    -0.354 N 
ATOM     31  N   UNL A   1      43.057  30.869  32.300  1.00  0.00    -0.248 NA
ATOM     32  C   UNL A   1      45.161  30.720  33.310  1.00  0.00     0.031 C 
ATOM     33  C   UNL A   1      40.231  34.241  32.892  1.00  0.00     0.029 A 
ATOM     34  C   UNL A   1      41.139  33.212  32.705  1.00  0.00     0.049 A 
ATOM     35  H   UNL A   1      40.969  31.488  31.500  1.00  0.00     0.167 HD
ATOM     36  C   UNL A   1      43.259  31.987  33.096  1.00  0.00     0.074 A 
ATOM     37  C   UNL A   1      44.562  31.834  33.712  1.00  0.00     0.031 C 
ATOM     38  C   UNL A   1      42.444  33.052  33.287  1.00  0.00     0.037 A 
BRANCH  25  39
ATOM     39  C   UNL A   1      37.121  32.773  30.182  1.00  0.00     0.058 A 
ATOM     40  C   UNL A   1      35.965  32.573  30.950  1.00  0.00     0.135 A 
ATOM     41  C   UNL A   1      37.052  33.667  29.102  1.00  0.00     0.135 A 
ATOM     42  F   UNL A   1      35.978  31.715  31.983  1.00  0.00    -0.206 F 
ATOM     43  C   UNL A   1      34.777  33.235  30.654  1.00  0.00     0.059 A 
ATOM     44  C   UNL A   1      35.878  34.348  28.794  1.00  0.00     0.059 A 
ATOM     45  F   UNL A   1      38.132  33.886  28.336  1.00  0.00    -0.206 F 
ATOM     46  C   UNL A   1      34.742  34.118  29.572  1.00  0.00     0.060 A 
BRANCH  46  47
ATOM     47  S   UNL A   1      33.202  34.989  29.202  1.00  0.00     0.124 S 
ATOM     48  O   UNL A   1      33.704  36.274  28.726  1.00  0.00    -0.237 OA
ATOM     49  O   UNL A   1      32.591  34.134  28.188  1.00  0.00    -0.237 OA
ATOM     50  O   UNL A   1      32.514  35.018  30.488  1.00  0.00    -0.744 OA
ENDBRANCH  46  47
ENDBRANCH  25  39
BRANCH  26  51
ATOM     51  C   UNL A   1      45.773  28.166  32.016  1.00  0.00     0.058 A 
ATOM     52  C   UNL A   1      45.881  27.250  33.072  1.00  0.00     0.135 A 
ATOM     53  C   UNL A   1      46.894  28.368  31.196  1.00  0.00     0.135 A 
ATOM     54  F   UNL A   1      44.832  27.028  33.880  1.00  0.00    -0.206 F 
ATOM     55  C   UNL A   1      47.059  26.549  33.307  1.00  0.00     0.059 A 
ATOM     56  C   UNL A   1      48.078  27.669  31.402  1.00  0.00     0.059 A 
ATOM     57  F   UNL A   1      46.829  29.225  30.164  1.00  0.00    -0.206 F 
ATOM     58  C   UNL A   1      48.152  26.764  32.463  1.00  0.00     0.060 A 
BRANCH  58  59
ATOM     59  S   UNL A   1      49.658  25.793  32.698  1.00  0.00     0.124 S 
ATOM     60  O   UNL A   1      50.640  26.837  32.963  1.00  0.00    -0.237 OA
ATOM     61  O   UNL A   1      49.316  24.937  33.831  1.00  0.00    -0.237 OA
ATOM     62  O   UNL A   1      49.796  25.098  31.422  1.00  0.00    -0.744 OA
ENDBRANCH  58  59
ENDBRANCH  26  51
BRANCH  38  63
ATOM     63  C   UNL A   1      42.964  34.145  34.169  1.00  0.00     0.058 A 
ATOM     64  C   UNL A   1      42.700  34.140  35.548  1.00  0.00     0.135 A 
ATOM     65  C   UNL A   1      43.735  35.193  33.643  1.00  0.00     0.135 A 
ATOM     66  F   UNL A   1      41.959  33.160  36.091  1.00  0.00    -0.206 F 
ATOM     67  C   UNL A   1      43.169  35.152  36.378  1.00  0.00     0.059 A 
ATOM     68  C   UNL A   1      44.224  36.209  34.457  1.00  0.00     0.059 A 
ATOM     69  F   UNL A   1      44.013  35.236  32.331  1.00  0.00    -0.206 F 
ATOM     70  C   UNL A   1      43.923  36.186  35.821  1.00  0.00     0.060 A 
BRANCH  70  71
ATOM     71  S   UNL A   1      44.544  37.496  36.898  1.00  0.00     0.124 S 
ATOM     72  O   UNL A   1      45.970  37.192  36.935  1.00  0.00    -0.237 OA
ATOM     73  O   UNL A   1      44.173  38.710  36.177  1.00  0.00    -0.237 OA
ATOM     74  O   UNL A   1      43.819  37.271  38.145  1.00  0.00    -0.744 OA
ENDBRANCH  70  71
ENDBRANCH  38  63
ENDBRANCH  12  13
ENDBRANCH   5   7
ENDBRANCH   2   3
ENDBRANCH   1   2
BRANCH   1  75
ATOM     75  C   UNL A   1      42.439  20.373  27.606  1.00  0.00     0.118 C 
BRANCH  75  76
ATOM     76  N   UNL A   1      42.216  19.081  26.951  1.00  0.00    -0.351 N 
ATOM     77  C   UNL A   1      42.971  18.434  26.044  1.00  0.00     0.269 C 
ATOM     78  H   UNL A   1      41.390  18.616  27.215  1.00  0.00     0.163 HD
ATOM     79  O   UNL A   1      42.437  17.465  25.433  1.00  0.00    -0.268 OA
BRANCH  77  80
ATOM     80  C   UNL A   1      44.301  18.836  25.738  1.00  0.00     0.131 A 
ATOM     81  N   UNL A   1      45.385  18.075  26.079  1.00  0.00    -0.272 N 
ATOM     82  C   UNL A   1      44.842  20.005  25.180  1.00  0.00     0.057 A 
ATOM     83  N   UNL A   1      46.564  18.576  25.692  1.00  0.00    -0.183 NA
ATOM     84  H   UNL A   1      45.304  17.225  26.570  1.00  0.00     0.190 HD
ATOM     85  C   UNL A   1      46.233  19.746  25.146  1.00  0.00     0.145 A 
BRANCH  82  86
ATOM     86  C   UNL A   1      44.152  21.241  24.718  1.00  0.00     0.303 C 
BRANCH  86  87
ATOM     87  N   UNL A   1      44.715  22.483  25.252  1.00  0.00    -0.331 N 
ATOM     88  C   UNL A   1      44.871  22.491  26.704  1.00  0.00     0.268 C 
ATOM     89  C   UNL A   1      45.915  22.951  24.563  1.00  0.00     0.268 C 
ATOM     90  H   UNL A   1      43.993  23.173  25.044  1.00  0.00     0.348 HD
ATOM     91  C   UNL A   1      45.140  23.913  27.200  1.00  0.00     0.126 C 
ATOM     92  C   UNL A   1      46.199  24.400  24.961  1.00  0.00     0.126 C 
ATOM     93  C   UNL A   1      46.359  24.538  26.488  1.00  0.00     0.195 C 
BRANCH  93  94
ATOM     94  N   UNL A   1      46.707  25.925  26.907  1.00  0.00    -0.331 N 
ATOM     95  C   UNL A   1      47.991  26.415  26.377  1.00  0.00     0.262 C 
ATOM     96  C   UNL A   1      45.626  26.878  26.569  1.00  0.00     0.275 C 
ATOM     97  H   UNL A   1      46.814  25.871  27.920  1.00  0.00     0.348 HD
ATOM     98  C   UNL A   1      48.327  27.803  26.931  1.00  0.00     0.062 C 
ATOM     99  C   UNL A   1      45.862  28.255  27.175  1.00  0.00     0.134 C 
ATOM    100  C   UNL A   1      47.208  28.806  26.681  1.00  0.00     0.025 C 
BRANCH  99 101
ATOM    101  C   UNL A   1      44.802  29.339  26.950  1.00  0.00     0.231 C 
ATOM    102  O   UNL A   1      43.868  29.095  26.175  1.00  0.00    -0.274 OA
ATOM    103  N   UNL A   1      44.722  30.420  27.798  1.00  0.00    -0.342 N 
ATOM    104  C   UNL A   1      45.733  31.406  28.132  1.00  0.00     0.119 C 
ATOM    105  C   UNL A   1      43.416  30.928  28.183  1.00  0.00     0.119 C 
ATOM    106  C   UNL A   1      45.199  32.003  29.420  1.00  0.00     0.023 C 
ATOM    107  C   UNL A   1      43.693  32.065  29.168  1.00  0.00     0.023 C 
ENDBRANCH  99 101
ENDBRANCH  93  94
ENDBRANCH  86  87
ENDBRANCH  82  86
ENDBRANCH  77  80
ENDBRANCH  75  76
ENDBRANCH   1  75
TORSDOF 17
ENDMDL
MODEL 3
REMARK VINA RESULT:     -12.8      4.994      8.226
REMARK SMILES O=C(NCCCNC(=O)c1[nH]ncc1C[NH+]1CCC([N@H+]2CCC[C@@H](C(=O)N3CCCC3)C2)CC1)c1ccc(-c2c3nc(c(-c4c(F)cc(S(=O)(=O)[O-])cc4F)c4ccc([nH]4)c(-c4c(F)cc(S(=O)(=O)[O-])cc4F)c4nc(c(-c5c(F)cc(S(=O)(=O)[O-])cc5F)c5ccc2[nH]5)C=C4)C=C3)cc1
REMARK SMILES IDX 5 1 4 2 3 3 1 4 2 5 35 7 36 8 100 9 37 10 99 11 38 12 39 13
REMARK SMILES IDX 40 14 93 15 41 16 98 17 92 18 94 19 42 20 97 21 91 22 90 23
REMARK SMILES IDX 43 25 77 26 56 27 76 28 57 29 60 30 75 31 95 32 58 33 59 34
REMARK SMILES IDX 74 36 96 37 61 38 44 39 45 40 54 41 46 42 47 43 53 44 55 45
REMARK SMILES IDX 48 46 49 47 50 48 51 49 52 50 78 51 79 52 88 53 80 54 81 55
REMARK SMILES IDX 87 56 89 57 82 58 83 59 84 60 85 61 86 62 62 63 63 64 72 65
REMARK SMILES IDX 64 66 65 67 71 68 73 69 66 70 67 71 68 72 69 73 70 74 6 75
REMARK SMILES IDX 7 76 8 77 9 79 10 80 11 81 14 82 12 83 13 85 15 86 16 87
REMARK SMILES IDX 17 88 34 89 18 91 33 92 19 93 20 94 21 95 32 96 22 98 24 99
REMARK SMILES IDX 23 100 25 101 26 102 27 103 28 104 31 105 29 106 30 107
REMARK H PARENT 3 6 94 24 60 35 7 78 11 84 16 90 20 97
REMARK Flexibility Score: inf
ROOT
ATOM      1  C   UNL A   1      41.160  21.380  27.464  1.00  0.00     0.042 C 
ENDROOT
BRANCH   1   2
ATOM      2  C   UNL A   1      41.051  22.109  26.129  1.00  0.00     0.118 C 
BRANCH   2   3
ATOM      3  N   UNL A   1      39.673  22.376  25.740  1.00  0.00    -0.352 N 
ATOM      4  O   UNL A   1      37.603  23.226  25.818  1.00  0.00    -0.269 OA
ATOM      5  C   UNL A   1      38.786  23.340  26.146  1.00  0.00     0.251 C 
ATOM      6  H   UNL A   1      39.315  21.755  25.066  1.00  0.00     0.163 HD
BRANCH   5   7
ATOM      7  C   UNL A   1      39.208  24.494  26.974  1.00  0.00     0.039 A 
ATOM      8  C   UNL A   1      38.929  24.556  28.339  1.00  0.00     0.014 A 
ATOM      9  C   UNL A   1      39.979  25.505  26.386  1.00  0.00     0.014 A 
ATOM     10  C   UNL A   1      39.284  25.681  29.076  1.00  0.00     0.010 A 
ATOM     11  C   UNL A   1      40.418  26.594  27.149  1.00  0.00     0.010 A 
ATOM     12  C   UNL A   1      40.051  26.706  28.496  1.00  0.00    -0.014 A 
BRANCH  12  13
ATOM     13  C   UNL A   1      40.510  27.830  29.352  1.00  0.00     0.031 A 
ATOM     14  C   UNL A   1      41.914  27.886  29.890  1.00  0.00     0.074 A 
ATOM     15  C   UNL A   1      39.653  28.842  29.600  1.00  0.00     0.049 A 
ATOM     16  N   UNL A   1      42.487  28.835  30.586  1.00  0.00    -0.248 NA
ATOM     17  C   UNL A   1      42.784  26.731  29.625  1.00  0.00     0.031 C 
ATOM     18  C   UNL A   1      38.252  28.885  29.168  1.00  0.00     0.029 A 
ATOM     19  N   UNL A   1      39.838  30.041  30.238  1.00  0.00    -0.354 N 
ATOM     20  C   UNL A   1      43.767  28.381  30.872  1.00  0.00     0.074 A 
ATOM     21  C   UNL A   1      43.891  27.068  30.275  1.00  0.00     0.031 C 
ATOM     22  C   UNL A   1      37.728  30.077  29.489  1.00  0.00     0.029 A 
ATOM     23  C   UNL A   1      38.739  30.865  30.186  1.00  0.00     0.049 A 
ATOM     24  H   UNL A   1      40.676  30.289  30.690  1.00  0.00     0.167 HD
ATOM     25  C   UNL A   1      44.750  29.004  31.566  1.00  0.00     0.037 A 
ATOM     26  C   UNL A   1      38.560  32.120  30.641  1.00  0.00     0.037 A 
ATOM     27  C   UNL A   1      44.645  30.329  32.119  1.00  0.00     0.049 A 
ATOM     28  C   UNL A   1      39.686  32.810  31.348  1.00  0.00     0.074 A 
ATOM     29  C   UNL A   1      45.610  31.063  32.788  1.00  0.00     0.029 A 
ATOM     30  N   UNL A   1      43.510  31.122  32.060  1.00  0.00    -0.354 N 
ATOM     31  N   UNL A   1      40.897  32.369  31.587  1.00  0.00    -0.248 NA
ATOM     32  C   UNL A   1      39.417  34.159  31.863  1.00  0.00     0.031 C 
ATOM     33  C   UNL A   1      45.052  32.296  33.148  1.00  0.00     0.029 A 
ATOM     34  C   UNL A   1      43.745  32.333  32.691  1.00  0.00     0.049 A 
ATOM     35  H   UNL A   1      42.662  30.864  31.633  1.00  0.00     0.167 HD
ATOM     36  C   UNL A   1      41.529  33.376  32.302  1.00  0.00     0.074 A 
ATOM     37  C   UNL A   1      40.579  34.464  32.426  1.00  0.00     0.031 C 
ATOM     38  C   UNL A   1      42.780  33.391  32.823  1.00  0.00     0.037 A 
BRANCH  25  39
ATOM     39  C   UNL A   1      46.033  28.255  31.779  1.00  0.00     0.058 A 
ATOM     40  C   UNL A   1      47.149  28.467  30.957  1.00  0.00     0.135 A 
ATOM     41  C   UNL A   1      46.161  27.358  32.852  1.00  0.00     0.135 A 
ATOM     42  F   UNL A   1      47.069  29.303  29.910  1.00  0.00    -0.206 F 
ATOM     43  C   UNL A   1      48.353  27.807  31.188  1.00  0.00     0.059 A 
ATOM     44  C   UNL A   1      47.359  26.696  33.108  1.00  0.00     0.059 A 
ATOM     45  F   UNL A   1      45.118  27.119  33.662  1.00  0.00    -0.206 F 
ATOM     46  C   UNL A   1      48.447  26.921  32.264  1.00  0.00     0.060 A 
BRANCH  46  47
ATOM     47  S   UNL A   1      50.017  26.081  32.571  1.00  0.00     0.124 S 
ATOM     48  O   UNL A   1      50.950  27.204  32.575  1.00  0.00    -0.237 OA
ATOM     49  O   UNL A   1      49.789  25.444  33.865  1.00  0.00    -0.237 OA
ATOM     50  O   UNL A   1      50.137  25.167  31.440  1.00  0.00    -0.744 OA
ENDBRANCH  46  47
ENDBRANCH  25  39
BRANCH  26  51
ATOM     51  C   UNL A   1      37.257  32.795  30.431  1.00  0.00     0.058 A 
ATOM     52  C   UNL A   1      36.265  32.765  31.422  1.00  0.00     0.135 A 
ATOM     53  C   UNL A   1      37.004  33.527  29.261  1.00  0.00     0.135 A 
ATOM     54  F   UNL A   1      36.467  32.075  32.556  1.00  0.00    -0.206 F 
ATOM     55  C   UNL A   1      35.061  33.444  31.264  1.00  0.00     0.059 A 
ATOM     56  C   UNL A   1      35.815  34.226  29.086  1.00  0.00     0.059 A 
ATOM     57  F   UNL A   1      37.934  33.596  28.294  1.00  0.00    -0.206 F 
ATOM     58  C   UNL A   1      34.848  34.174  30.093  1.00  0.00     0.060 A 
BRANCH  58  59
ATOM     59  S   UNL A   1      33.328  35.137  29.913  1.00  0.00     0.124 S 
ATOM     60  O   UNL A   1      32.787  35.085  31.265  1.00  0.00    -0.237 OA
ATOM     61  O   UNL A   1      33.823  36.439  29.474  1.00  0.00    -0.237 OA
ATOM     62  O   UNL A   1      32.589  34.388  28.901  1.00  0.00    -0.744 OA
ENDBRANCH  58  59
ENDBRANCH  26  51
BRANCH  38  63
ATOM     63  C   UNL A   1      43.167  34.609  33.603  1.00  0.00     0.058 A 
ATOM     64  C   UNL A   1      43.666  35.748  32.953  1.00  0.00     0.135 A 
ATOM     65  C   UNL A   1      43.032  34.646  34.999  1.00  0.00     0.135 A 
ATOM     66  F   UNL A   1      43.819  35.753  31.619  1.00  0.00    -0.206 F 
ATOM     67  C   UNL A   1      44.036  36.884  33.664  1.00  0.00     0.059 A 
ATOM     68  C   UNL A   1      43.386  35.775  35.730  1.00  0.00     0.059 A 
ATOM     69  F   UNL A   1      42.557  33.580  35.662  1.00  0.00    -0.206 F 
ATOM     70  C   UNL A   1      43.901  36.883  35.054  1.00  0.00     0.060 A 
BRANCH  70  71
ATOM     71  S   UNL A   1      44.371  38.360  35.980  1.00  0.00     0.124 S 
ATOM     72  O   UNL A   1      45.819  38.206  36.061  1.00  0.00    -0.237 OA
ATOM     73  O   UNL A   1      43.897  39.443  35.123  1.00  0.00    -0.237 OA
ATOM     74  O   UNL A   1      43.648  38.207  37.239  1.00  0.00    -0.744 OA
ENDBRANCH  70  71
ENDBRANCH  38  63
ENDBRANCH  12  13
ENDBRANCH   5   7
ENDBRANCH   2   3
ENDBRANCH   1   2
BRANCH   1  75
ATOM     75  C   UNL A   1      42.398  20.504  27.604  1.00  0.00     0.118 C 
BRANCH  75  76
ATOM     76  N   UNL A   1      42.230  19.180  27.000  1.00  0.00    -0.351 N 
ATOM     77  C   UNL A   1      43.004  18.536  26.106  1.00  0.00     0.269 C 
ATOM     78  H   UNL A   1      41.430  18.685  27.291  1.00  0.00     0.163 HD
ATOM     79  O   UNL A   1      42.510  17.521  25.538  1.00  0.00    -0.268 OA
BRANCH  77  80
ATOM     80  C   UNL A   1      44.309  18.989  25.767  1.00  0.00     0.131 A 
ATOM     81  N   UNL A   1      45.424  18.234  26.007  1.00  0.00    -0.272 N 
ATOM     82  C   UNL A   1      44.799  20.205  25.265  1.00  0.00     0.057 A 
ATOM     83  N   UNL A   1      46.573  18.788  25.602  1.00  0.00    -0.183 NA
ATOM     84  H   UNL A   1      45.384  17.351  26.444  1.00  0.00     0.190 HD
ATOM     85  C   UNL A   1      46.192  19.983  25.151  1.00  0.00     0.145 A 
BRANCH  82  86
ATOM     86  C   UNL A   1      44.063  21.451  24.918  1.00  0.00     0.303 C 
BRANCH  86  87
ATOM     87  N   UNL A   1      44.683  22.679  25.420  1.00  0.00    -0.331 N 
ATOM     88  C   UNL A   1      44.174  23.901  24.802  1.00  0.00     0.268 C 
ATOM     89  C   UNL A   1      44.740  22.778  26.876  1.00  0.00     0.268 C 
ATOM     90  H   UNL A   1      45.652  22.593  25.113  1.00  0.00     0.348 HD
ATOM     91  C   UNL A   1      45.090  25.082  25.129  1.00  0.00     0.126 C 
ATOM     92  C   UNL A   1      45.701  23.899  27.274  1.00  0.00     0.126 C 
ATOM     93  C   UNL A   1      45.277  25.245  26.653  1.00  0.00     0.195 C 
BRANCH  93  94
ATOM     94  N   UNL A   1      46.151  26.375  27.076  1.00  0.00    -0.331 N 
ATOM     95  C   UNL A   1      47.593  26.117  26.921  1.00  0.00     0.262 C 
ATOM     96  C   UNL A   1      45.786  27.629  26.381  1.00  0.00     0.275 C 
ATOM     97  H   UNL A   1      45.981  26.474  28.077  1.00  0.00     0.348 HD
ATOM     98  C   UNL A   1      48.427  27.280  27.469  1.00  0.00     0.062 C 
ATOM     99  C   UNL A   1      46.518  28.837  26.950  1.00  0.00     0.134 C 
ATOM    100  C   UNL A   1      48.033  28.612  26.843  1.00  0.00     0.025 C 
BRANCH  99 101
ATOM    101  C   UNL A   1      46.208  30.218  26.360  1.00  0.00     0.231 C 
ATOM    102  O   UNL A   1      46.276  30.361  25.133  1.00  0.00    -0.274 OA
ATOM    103  N   UNL A   1      45.589  31.178  27.128  1.00  0.00    -0.342 N 
ATOM    104  C   UNL A   1      46.004  31.754  28.394  1.00  0.00     0.119 C 
ATOM    105  C   UNL A   1      44.581  32.033  26.524  1.00  0.00     0.119 C 
ATOM    106  C   UNL A   1      44.715  32.359  28.919  1.00  0.00     0.023 C 
ATOM    107  C   UNL A   1      44.062  32.919  27.657  1.00  0.00     0.023 C 
ENDBRANCH  99 101
ENDBRANCH  93  94
ENDBRANCH  86  87
ENDBRANCH  82  86
ENDBRANCH  77  80
ENDBRANCH  75  76
ENDBRANCH   1  75
TORSDOF 17
ENDMDL
