MODEL 1
REMARK VINA RESULT:     -15.1      0.000      0.000
REMARK SMILES Cc1ccc(C2=NN(C(=O)CCC(=O)NCCCNC(=O)c3ccc(-c4c5nc(c(-c6c(F)cc(S(=O)(=O)[O-])cc6F)c6ccc([nH]6)c(-c6c(F)cc(S(=O)(=O)[O-])cc6F)c6nc(c(-c7c(F)cc(S(=O)(=O)[O-])cc7F)c7ccc4[nH]7)C=C6)C=C5)cc3)[C@H](C[C@@H]3C=c4cccc(C)c4=NC3=O)C2)cc1
REMARK SMILES IDX 16 1 15 2 13 3 14 4 12 6 11 7 9 8 10 9 8 10 6 11 7 12 102 13
REMARK SMILES IDX 88 14 5 15 1 16 2 17 3 18 104 19 4 20 103 21 89 22 90 23
REMARK SMILES IDX 91 24 100 25 92 26 99 27 101 28 93 29 98 30 94 31 96 32
REMARK SMILES IDX 95 33 97 34 17 35 18 36 19 37 20 38 21 40 22 41 23 42 87 43
REMARK SMILES IDX 24 44 86 45 25 46 26 47 27 48 80 49 28 50 85 51 79 52 81 53
REMARK SMILES IDX 29 54 84 55 78 56 77 57 30 59 64 60 43 61 63 62 44 63 47 64
REMARK SMILES IDX 62 65 82 66 45 67 46 68 61 70 83 71 48 72 31 73 32 74 41 75
REMARK SMILES IDX 33 76 34 77 40 78 42 79 35 80 36 81 37 82 38 83 39 84 65 85
REMARK SMILES IDX 66 86 75 87 67 88 68 89 74 90 76 91 69 92 70 93 71 94 72 95
REMARK SMILES IDX 73 96 49 97 50 98 59 99 51 100 52 101 58 102 60 103 53 104
REMARK SMILES IDX 54 105 55 106 56 107 57 108
REMARK H PARENT 15 5 19 39 81 58 47 69
REMARK Flexibility Score: inf
ROOT
ATOM      1  C   UNL A   1      39.295  24.257  27.251  1.00  0.00     0.117 C 
ENDROOT
BRANCH   1   2
ATOM      2  N   UNL A   1      38.645  23.950  25.805  1.00  0.00    -0.356 N 
ATOM      3  C   UNL A   1      37.416  23.694  25.313  1.00  0.00     0.220 C 
ATOM      4  O   UNL A   1      37.347  23.301  24.145  1.00  0.00    -0.275 OA
ATOM      5  H   UNL A   1      39.326  23.950  25.094  1.00  0.00     0.163 HD
BRANCH   3   6
ATOM      6  C   UNL A   1      36.175  23.892  26.134  1.00  0.00     0.110 C 
BRANCH   6   7
ATOM      7  C   UNL A   1      35.619  22.691  26.875  1.00  0.00     0.112 C 
BRANCH   7   8
ATOM      8  C   UNL A   1      34.119  22.761  27.126  1.00  0.00     0.243 C 
ATOM      9  O   UNL A   1      33.644  22.339  28.179  1.00  0.00    -0.273 OA
BRANCH   8  10
ATOM     10  N   UNL A   1      33.349  23.212  26.014  1.00  0.00    -0.230 N 
ATOM     11  C   UNL A   1      31.753  25.433  25.609  1.00  0.00     0.070 C 
ATOM     12  N   UNL A   1      33.172  24.988  25.905  1.00  0.00    -0.174 NA
ATOM     13  C   UNL A   1      30.403  23.742  25.493  1.00  0.00     0.086 C 
ATOM     14  C   UNL A   1      31.881  22.288  25.431  1.00  0.00     0.118 C 
BRANCH  11  15
ATOM     15  C   UNL A   1      31.894  26.789  24.354  1.00  0.00    -0.002 A 
ATOM     16  C   UNL A   1      29.066  30.985  23.504  1.00  0.00     0.044 C 
ATOM     17  C   UNL A   1      29.877  29.745  23.740  1.00  0.00    -0.051 A 
ATOM     18  C   UNL A   1      31.171  29.730  24.956  1.00  0.00     0.004 A 
ATOM     19  C   UNL A   1      29.545  28.337  22.716  1.00  0.00     0.004 A 
ATOM     20  C   UNL A   1      32.136  28.286  25.311  1.00  0.00     0.010 A 
ATOM     21  C   UNL A   1      30.660  26.915  22.863  1.00  0.00     0.010 A 
ENDBRANCH  11  15
BRANCH  14  22
ATOM     22  C   UNL A   1      32.625  21.525  24.026  1.00  0.00     0.045 C 
BRANCH  22  23
ATOM     23  C   UNL A   1      33.220  20.060  24.231  1.00  0.00     0.106 C 
ATOM     24  C   UNL A   1      32.512  19.178  25.243  1.00  0.00    -0.003 C 
ATOM     25  C   UNL A   1      34.712  19.843  24.560  1.00  0.00     0.253 C 
ATOM     26  C   UNL A   1      32.827  17.880  25.278  1.00  0.00    -0.003 A 
ATOM     27  N   UNL A   1      35.140  18.512  24.686  1.00  0.00    -0.212 NA
ATOM     28  O   UNL A   1      35.495  20.786  24.610  1.00  0.00    -0.272 OA
ATOM     29  C   UNL A   1      31.875  16.815  25.485  1.00  0.00     0.010 A 
ATOM     30  C   UNL A   1      34.268  17.598  25.007  1.00  0.00     0.077 A 
ATOM     31  C   UNL A   1      32.266  15.539  25.390  1.00  0.00     0.001 A 
ATOM     32  C   UNL A   1      34.637  16.149  25.251  1.00  0.00    -0.025 A 
ATOM     33  C   UNL A   1      33.670  15.215  25.363  1.00  0.00     0.005 A 
ATOM     34  C   UNL A   1      36.065  15.829  25.550  1.00  0.00     0.047 C 
ENDBRANCH  22  23
ENDBRANCH  14  22
ENDBRANCH   8  10
ENDBRANCH   7   8
ENDBRANCH   6   7
ENDBRANCH   3   6
ENDBRANCH   1   2
BRANCH   1  35
ATOM     35  C   UNL A   1      41.462  24.531  27.684  1.00  0.00     0.042 C 
BRANCH  35  36
ATOM     36  C   UNL A   1      42.149  25.476  26.074  1.00  0.00     0.118 C 
BRANCH  36  37
ATOM     37  N   UNL A   1      42.560  27.270  26.329  1.00  0.00    -0.352 N 
ATOM     38  C   UNL A   1      43.938  27.810  27.353  1.00  0.00     0.251 C 
ATOM     39  H   UNL A   1      42.003  27.951  25.888  1.00  0.00     0.163 HD
ATOM     40  O   UNL A   1      43.648  29.006  27.585  1.00  0.00    -0.269 OA
BRANCH  38  41
ATOM     41  C   UNL A   1      45.440  26.363  27.929  1.00  0.00     0.039 A 
ATOM     42  C   UNL A   1      45.286  24.886  28.146  1.00  0.00     0.014 A 
ATOM     43  C   UNL A   1      46.484  26.509  28.978  1.00  0.00     0.014 A 
ATOM     44  C   UNL A   1      44.957  24.350  29.440  1.00  0.00     0.010 A 
ATOM     45  C   UNL A   1      46.243  26.056  30.315  1.00  0.00     0.010 A 
ATOM     46  C   UNL A   1      45.204  25.152  30.535  1.00  0.00    -0.014 A 
BRANCH  46  47
ATOM     47  C   UNL A   1      44.519  25.093  31.849  1.00  0.00     0.031 A 
ATOM     48  C   UNL A   1      43.823  26.321  32.247  1.00  0.00     0.074 A 
ATOM     49  C   UNL A   1      44.480  24.089  32.782  1.00  0.00     0.049 A 
ATOM     50  N   UNL A   1      43.637  26.706  33.465  1.00  0.00    -0.248 NA
ATOM     51  C   UNL A   1      43.390  27.277  31.239  1.00  0.00     0.031 C 
ATOM     52  C   UNL A   1      43.412  23.900  33.777  1.00  0.00     0.029 A 
ATOM     53  N   UNL A   1      45.383  23.074  33.122  1.00  0.00    -0.354 N 
ATOM     54  C   UNL A   1      42.782  27.773  33.391  1.00  0.00     0.074 A 
ATOM     55  C   UNL A   1      42.817  28.197  32.009  1.00  0.00     0.031 C 
ATOM     56  C   UNL A   1      43.761  22.957  34.665  1.00  0.00     0.029 A 
ATOM     57  C   UNL A   1      45.122  22.543  34.392  1.00  0.00     0.049 A 
ATOM     58  H   UNL A   1      46.114  22.769  32.537  1.00  0.00     0.167 HD
ATOM     59  C   UNL A   1      41.950  28.072  34.426  1.00  0.00     0.037 A 
ATOM     60  C   UNL A   1      46.076  22.228  35.313  1.00  0.00     0.037 A 
ATOM     61  C   UNL A   1      42.094  27.147  35.549  1.00  0.00     0.049 A 
ATOM     62  C   UNL A   1      46.023  23.180  36.485  1.00  0.00     0.074 A 
ATOM     63  C   UNL A   1      41.399  26.030  35.988  1.00  0.00     0.029 A 
ATOM     64  N   UNL A   1      43.283  27.132  36.250  1.00  0.00    -0.354 N 
ATOM     65  N   UNL A   1      44.988  23.921  36.763  1.00  0.00    -0.248 NA
ATOM     66  C   UNL A   1      47.167  23.478  37.349  1.00  0.00     0.031 C 
ATOM     67  C   UNL A   1      42.178  25.372  36.984  1.00  0.00     0.029 A 
ATOM     68  C   UNL A   1      43.344  26.094  37.163  1.00  0.00     0.049 A 
ATOM     69  H   UNL A   1      44.006  27.787  36.117  1.00  0.00     0.167 HD
ATOM     70  C   UNL A   1      45.351  24.881  37.666  1.00  0.00     0.074 A 
ATOM     71  C   UNL A   1      46.707  24.530  38.049  1.00  0.00     0.031 C 
ATOM     72  C   UNL A   1      44.552  25.947  37.964  1.00  0.00     0.037 A 
BRANCH  59  73
ATOM     73  C   UNL A   1      40.794  29.010  34.197  1.00  0.00     0.058 A 
ATOM     74  C   UNL A   1      39.743  28.680  33.325  1.00  0.00     0.135 A 
ATOM     75  C   UNL A   1      40.724  30.300  34.764  1.00  0.00     0.135 A 
ATOM     76  F   UNL A   1      39.633  27.455  32.795  1.00  0.00    -0.206 F 
ATOM     77  C   UNL A   1      38.767  29.601  32.949  1.00  0.00     0.059 A 
ATOM     78  C   UNL A   1      39.813  31.266  34.340  1.00  0.00     0.059 A 
ATOM     79  F   UNL A   1      41.547  30.661  35.764  1.00  0.00    -0.206 F 
ATOM     80  C   UNL A   1      38.831  30.902  33.432  1.00  0.00     0.060 A 
BRANCH  80  81
ATOM     81  S   UNL A   1      37.601  32.098  32.883  1.00  0.00     0.124 S 
ATOM     82  O   UNL A   1      38.414  33.273  32.584  1.00  0.00    -0.237 OA
ATOM     83  O   UNL A   1      37.021  31.415  31.732  1.00  0.00    -0.237 OA
ATOM     84  O   UNL A   1      36.722  32.234  34.043  1.00  0.00    -0.744 OA
ENDBRANCH  80  81
ENDBRANCH  59  73
BRANCH  60  85
ATOM     85  C   UNL A   1      47.296  21.567  34.783  1.00  0.00     0.058 A 
ATOM     86  C   UNL A   1      48.409  22.378  34.488  1.00  0.00     0.135 A 
ATOM     87  C   UNL A   1      47.511  20.187  34.885  1.00  0.00     0.135 A 
ATOM     88  F   UNL A   1      48.261  23.705  34.350  1.00  0.00    -0.206 F 
ATOM     89  C   UNL A   1      49.697  21.860  34.434  1.00  0.00     0.059 A 
ATOM     90  C   UNL A   1      48.795  19.644  34.839  1.00  0.00     0.059 A 
ATOM     91  F   UNL A   1      46.490  19.375  35.195  1.00  0.00    -0.206 F 
ATOM     92  C   UNL A   1      49.883  20.500  34.669  1.00  0.00     0.060 A 
BRANCH  92  93
ATOM     93  S   UNL A   1      51.573  19.937  34.988  1.00  0.00     0.124 S 
ATOM     94  O   UNL A   1      51.342  18.753  35.806  1.00  0.00    -0.237 OA
ATOM     95  O   UNL A   1      52.026  19.677  33.620  1.00  0.00    -0.237 OA
ATOM     96  O   UNL A   1      52.163  21.073  35.687  1.00  0.00    -0.744 OA
ENDBRANCH  92  93
ENDBRANCH  60  85
BRANCH  72  97
ATOM     97  C   UNL A   1      44.902  26.968  39.014  1.00  0.00     0.058 A 
ATOM     98  C   UNL A   1      45.493  28.200  38.683  1.00  0.00     0.135 A 
ATOM     99  C   UNL A   1      44.775  26.701  40.396  1.00  0.00     0.135 A 
ATOM    100  F   UNL A   1      45.742  28.522  37.403  1.00  0.00    -0.206 F 
ATOM    101  C   UNL A   1      45.860  29.133  39.651  1.00  0.00     0.059 A 
ATOM    102  C   UNL A   1      45.189  27.590  41.379  1.00  0.00     0.059 A 
ATOM    103  F   UNL A   1      44.209  25.576  40.852  1.00  0.00    -0.206 F 
ATOM    104  C   UNL A   1      45.699  28.820  40.998  1.00  0.00     0.060 A 
BRANCH 104 105
ATOM    105  S   UNL A   1      46.168  30.019  42.255  1.00  0.00     0.124 S 
ATOM    106  O   UNL A   1      47.398  30.584  41.711  1.00  0.00    -0.237 OA
ATOM    107  O   UNL A   1      45.008  30.904  42.253  1.00  0.00    -0.237 OA
ATOM    108  O   UNL A   1      46.336  29.204  43.454  1.00  0.00    -0.744 OA
ENDBRANCH 104 105
ENDBRANCH  72  97
ENDBRANCH  46  47
ENDBRANCH  38  41
ENDBRANCH  36  37
ENDBRANCH  35  36
ENDBRANCH   1  35
TORSDOF 19
ENDMDL
MODEL 2
REMARK VINA RESULT:     -14.7      6.832     14.365
REMARK SMILES Cc1ccc(C2=NN(C(=O)CCC(=O)NCCCNC(=O)c3ccc(-c4c5nc(c(-c6c(F)cc(S(=O)(=O)[O-])cc6F)c6ccc([nH]6)c(-c6c(F)cc(S(=O)(=O)[O-])cc6F)c6nc(c(-c7c(F)cc(S(=O)(=O)[O-])cc7F)c7ccc4[nH]7)C=C6)C=C5)cc3)[C@H](C[C@@H]3C=c4cccc(C)c4=NC3=O)C2)cc1
REMARK SMILES IDX 16 1 15 2 13 3 14 4 12 6 11 7 9 8 10 9 8 10 6 11 7 12 102 13
REMARK SMILES IDX 88 14 5 15 1 16 2 17 3 18 104 19 4 20 103 21 89 22 90 23
REMARK SMILES IDX 91 24 100 25 92 26 99 27 101 28 93 29 98 30 94 31 96 32
REMARK SMILES IDX 95 33 97 34 17 35 18 36 19 37 20 38 21 40 22 41 23 42 87 43
REMARK SMILES IDX 24 44 86 45 25 46 26 47 27 48 80 49 28 50 85 51 79 52 81 53
REMARK SMILES IDX 29 54 84 55 78 56 77 57 30 59 64 60 43 61 63 62 44 63 47 64
REMARK SMILES IDX 62 65 82 66 45 67 46 68 61 70 83 71 48 72 31 73 32 74 41 75
REMARK SMILES IDX 33 76 34 77 40 78 42 79 35 80 36 81 37 82 38 83 39 84 65 85
REMARK SMILES IDX 66 86 75 87 67 88 68 89 74 90 76 91 69 92 70 93 71 94 72 95
REMARK SMILES IDX 73 96 49 97 50 98 59 99 51 100 52 101 58 102 60 103 53 104
REMARK SMILES IDX 54 105 55 106 56 107 57 108
REMARK H PARENT 15 5 19 39 81 58 47 69
REMARK Flexibility Score: inf
ROOT
ATOM      1  C   UNL A   1      46.849  30.793  32.998  1.00  0.00     0.117 C 
ENDROOT
BRANCH   1   2
ATOM      2  N   UNL A   1      45.558  31.684  32.612  1.00  0.00    -0.356 N 
ATOM      3  C   UNL A   1      45.183  32.483  31.593  1.00  0.00     0.220 C 
ATOM      4  O   UNL A   1      44.170  33.169  31.758  1.00  0.00    -0.275 OA
ATOM      5  H   UNL A   1      44.860  31.629  33.305  1.00  0.00     0.163 HD
BRANCH   3   6
ATOM      6  C   UNL A   1      45.944  32.531  30.300  1.00  0.00     0.110 C 
BRANCH   6   7
ATOM      7  C   UNL A   1      45.634  31.474  29.258  1.00  0.00     0.112 C 
BRANCH   7   8
ATOM      8  C   UNL A   1      44.642  31.927  28.196  1.00  0.00     0.243 C 
ATOM      9  O   UNL A   1      43.897  31.113  27.652  1.00  0.00    -0.273 OA
BRANCH   8  10
ATOM     10  N   UNL A   1      44.759  33.297  27.817  1.00  0.00    -0.230 N 
ATOM     11  C   UNL A   1      42.898  35.301  27.412  1.00  0.00     0.070 C 
ATOM     12  N   UNL A   1      43.466  34.357  28.453  1.00  0.00    -0.174 NA
ATOM     13  C   UNL A   1      43.811  34.982  25.473  1.00  0.00     0.086 C 
ATOM     14  C   UNL A   1      45.357  33.780  26.156  1.00  0.00     0.118 C 
BRANCH  11  15
ATOM     15  C   UNL A   1      42.707  36.938  28.259  1.00  0.00    -0.002 A 
ATOM     16  C   UNL A   1      44.058  41.692  26.881  1.00  0.00     0.044 C 
ATOM     17  C   UNL A   1      43.686  40.298  27.291  1.00  0.00    -0.051 A 
ATOM     18  C   UNL A   1      42.161  39.572  26.742  1.00  0.00     0.004 A 
ATOM     19  C   UNL A   1      44.779  39.446  28.395  1.00  0.00     0.004 A 
ATOM     20  C   UNL A   1      41.684  37.916  27.157  1.00  0.00     0.010 A 
ATOM     21  C   UNL A   1      44.227  37.848  29.050  1.00  0.00     0.010 A 
ENDBRANCH  11  15
BRANCH  14  22
ATOM     22  C   UNL A   1      46.995  34.240  26.621  1.00  0.00     0.045 C 
BRANCH  22  23
ATOM     23  C   UNL A   1      47.250  35.784  26.932  1.00  0.00     0.106 C 
ATOM     24  C   UNL A   1      47.546  36.674  25.739  1.00  0.00    -0.003 C 
ATOM     25  C   UNL A   1      48.303  36.225  27.970  1.00  0.00     0.253 C 
ATOM     26  C   UNL A   1      47.536  37.998  25.923  1.00  0.00    -0.003 A 
ATOM     27  N   UNL A   1      48.424  37.605  28.194  1.00  0.00    -0.212 NA
ATOM     28  O   UNL A   1      48.928  35.401  28.630  1.00  0.00    -0.272 OA
ATOM     29  C   UNL A   1      47.010  38.948  24.973  1.00  0.00     0.010 A 
ATOM     30  C   UNL A   1      48.059  38.429  27.253  1.00  0.00     0.077 A 
ATOM     31  C   UNL A   1      46.938  40.245  25.294  1.00  0.00     0.001 A 
ATOM     32  C   UNL A   1      48.225  39.932  27.357  1.00  0.00    -0.025 A 
ATOM     33  C   UNL A   1      47.633  40.742  26.455  1.00  0.00     0.005 A 
ATOM     34  C   UNL A   1      49.202  40.463  28.354  1.00  0.00     0.047 C 
ENDBRANCH  22  23
ENDBRANCH  14  22
ENDBRANCH   8  10
ENDBRANCH   7   8
ENDBRANCH   6   7
ENDBRANCH   3   6
ENDBRANCH   1   2
BRANCH   1  35
ATOM     35  C   UNL A   1      46.873  29.047  34.381  1.00  0.00     0.042 C 
BRANCH  35  36
ATOM     36  C   UNL A   1      45.144  29.193  35.353  1.00  0.00     0.118 C 
BRANCH  36  37
ATOM     37  N   UNL A   1      45.107  28.377  37.022  1.00  0.00    -0.352 N 
ATOM     38  C   UNL A   1      43.976  27.032  37.416  1.00  0.00     0.251 C 
ATOM     39  H   UNL A   1      45.729  28.691  37.717  1.00  0.00     0.163 HD
ATOM     40  O   UNL A   1      43.979  27.038  38.669  1.00  0.00    -0.269 OA
BRANCH  38  41
ATOM     41  C   UNL A   1      42.957  26.018  35.799  1.00  0.00     0.039 A 
ATOM     42  C   UNL A   1      43.376  25.880  34.365  1.00  0.00     0.014 A 
ATOM     43  C   UNL A   1      41.507  26.060  35.475  1.00  0.00     0.014 A 
ATOM     44  C   UNL A   1      42.981  26.846  33.374  1.00  0.00     0.010 A 
ATOM     45  C   UNL A   1      40.995  27.016  34.539  1.00  0.00     0.010 A 
ATOM     46  C   UNL A   1      41.888  27.635  33.665  1.00  0.00    -0.014 A 
BRANCH  46  47
ATOM     47  C   UNL A   1      41.598  28.982  33.118  1.00  0.00     0.031 A 
ATOM     48  C   UNL A   1      41.230  29.996  34.113  1.00  0.00     0.074 A 
ATOM     49  C   UNL A   1      41.563  29.422  31.819  1.00  0.00     0.049 A 
ATOM     50  N   UNL A   1      40.455  31.005  33.891  1.00  0.00    -0.248 NA
ATOM     51  C   UNL A   1      41.641  29.843  35.500  1.00  0.00     0.031 C 
ATOM     52  C   UNL A   1      41.771  30.814  31.391  1.00  0.00     0.029 A 
ATOM     53  N   UNL A   1      41.263  28.783  30.609  1.00  0.00    -0.354 N 
ATOM     54  C   UNL A   1      40.544  31.793  35.007  1.00  0.00     0.074 A 
ATOM     55  C   UNL A   1      41.123  30.949  36.028  1.00  0.00     0.031 C 
ATOM     56  C   UNL A   1      41.479  30.952  30.089  1.00  0.00     0.029 A 
ATOM     57  C   UNL A   1      40.948  29.698  29.597  1.00  0.00     0.049 A 
ATOM     58  H   UNL A   1      41.273  27.806  30.486  1.00  0.00     0.167 HD
ATOM     59  C   UNL A   1      40.341  33.137  34.929  1.00  0.00     0.037 A 
ATOM     60  C   UNL A   1      39.938  29.541  28.694  1.00  0.00     0.037 A 
ATOM     61  C   UNL A   1      40.037  33.581  33.570  1.00  0.00     0.049 A 
ATOM     62  C   UNL A   1      38.831  30.536  28.953  1.00  0.00     0.074 A 
ATOM     63  C   UNL A   1      40.773  34.153  32.544  1.00  0.00     0.029 A 
ATOM     64  N   UNL A   1      38.857  33.169  32.983  1.00  0.00    -0.354 N 
ATOM     65  N   UNL A   1      38.989  31.621  29.657  1.00  0.00    -0.248 NA
ATOM     66  C   UNL A   1      37.435  30.325  28.564  1.00  0.00     0.031 C 
ATOM     67  C   UNL A   1      39.999  34.105  31.347  1.00  0.00     0.029 A 
ATOM     68  C   UNL A   1      38.785  33.515  31.646  1.00  0.00     0.049 A 
ATOM     69  H   UNL A   1      38.146  32.685  33.463  1.00  0.00     0.167 HD
ATOM     70  C   UNL A   1      37.763  32.137  29.969  1.00  0.00     0.074 A 
ATOM     71  C   UNL A   1      36.821  31.328  29.216  1.00  0.00     0.031 C 
ATOM     72  C   UNL A   1      37.598  33.128  30.894  1.00  0.00     0.037 A 
BRANCH  59  73
ATOM     73  C   UNL A   1      40.779  34.017  36.070  1.00  0.00     0.058 A 
ATOM     74  C   UNL A   1      39.894  34.379  37.099  1.00  0.00     0.135 A 
ATOM     75  C   UNL A   1      42.061  34.603  36.144  1.00  0.00     0.135 A 
ATOM     76  F   UNL A   1      38.681  33.821  37.205  1.00  0.00    -0.206 F 
ATOM     77  C   UNL A   1      40.214  35.339  38.056  1.00  0.00     0.059 A 
ATOM     78  C   UNL A   1      42.376  35.627  37.033  1.00  0.00     0.059 A 
ATOM     79  F   UNL A   1      43.058  34.185  35.345  1.00  0.00    -0.206 F 
ATOM     80  C   UNL A   1      41.443  35.986  37.994  1.00  0.00     0.060 A 
BRANCH  80  81
ATOM     81  S   UNL A   1      41.814  37.273  39.198  1.00  0.00     0.124 S 
ATOM     82  O   UNL A   1      42.181  36.501  40.382  1.00  0.00    -0.237 OA
ATOM     83  O   UNL A   1      42.903  37.985  38.540  1.00  0.00    -0.237 OA
ATOM     84  O   UNL A   1      40.556  38.007  39.306  1.00  0.00    -0.744 OA
ENDBRANCH  80  81
ENDBRANCH  59  73
BRANCH  60  85
ATOM     85  C   UNL A   1      39.768  28.173  28.143  1.00  0.00     0.058 A 
ATOM     86  C   UNL A   1      40.455  27.850  26.958  1.00  0.00     0.135 A 
ATOM     87  C   UNL A   1      39.254  27.113  28.901  1.00  0.00     0.135 A 
ATOM     88  F   UNL A   1      40.946  28.824  26.174  1.00  0.00    -0.206 F 
ATOM     89  C   UNL A   1      40.739  26.534  26.612  1.00  0.00     0.059 A 
ATOM     90  C   UNL A   1      39.529  25.785  28.577  1.00  0.00     0.059 A 
ATOM     91  F   UNL A   1      38.618  27.365  30.054  1.00  0.00    -0.206 F 
ATOM     92  C   UNL A   1      40.321  25.513  27.461  1.00  0.00     0.060 A 
BRANCH  92  93
ATOM     93  S   UNL A   1      41.040  23.873  27.202  1.00  0.00     0.124 S 
ATOM     94  O   UNL A   1      41.972  24.127  26.110  1.00  0.00    -0.237 OA
ATOM     95  O   UNL A   1      41.654  23.646  28.512  1.00  0.00    -0.237 OA
ATOM     96  O   UNL A   1      39.878  23.064  26.856  1.00  0.00    -0.744 OA
ENDBRANCH  92  93
ENDBRANCH  60  85
BRANCH  72  97
ATOM     97  C   UNL A   1      36.264  33.762  31.190  1.00  0.00     0.058 A 
ATOM     98  C   UNL A   1      35.547  34.472  30.211  1.00  0.00     0.135 A 
ATOM     99  C   UNL A   1      35.716  33.789  32.492  1.00  0.00     0.135 A 
ATOM    100  F   UNL A   1      36.020  34.586  28.959  1.00  0.00    -0.206 F 
ATOM    101  C   UNL A   1      34.333  35.099  30.487  1.00  0.00     0.059 A 
ATOM    102  C   UNL A   1      34.539  34.457  32.803  1.00  0.00     0.059 A 
ATOM    103  F   UNL A   1      36.283  33.136  33.515  1.00  0.00    -0.206 F 
ATOM    104  C   UNL A   1      33.835  35.082  31.786  1.00  0.00     0.060 A 
BRANCH 104 105
ATOM    105  S   UNL A   1      32.268  35.886  32.151  1.00  0.00     0.124 S 
ATOM    106  O   UNL A   1      31.785  36.256  30.825  1.00  0.00    -0.237 OA
ATOM    107  O   UNL A   1      31.540  34.808  32.813  1.00  0.00    -0.237 OA
ATOM    108  O   UNL A   1      32.652  37.004  33.007  1.00  0.00    -0.744 OA
ENDBRANCH 104 105
ENDBRANCH  72  97
ENDBRANCH  46  47
ENDBRANCH  38  41
ENDBRANCH  36  37
ENDBRANCH  35  36
ENDBRANCH   1  35
TORSDOF 19
ENDMDL
MODEL 3
REMARK VINA RESULT:     -14.4      6.302     12.668
REMARK SMILES Cc1ccc(C2=NN(C(=O)CCC(=O)NCCCNC(=O)c3ccc(-c4c5nc(c(-c6c(F)cc(S(=O)(=O)[O-])cc6F)c6ccc([nH]6)c(-c6c(F)cc(S(=O)(=O)[O-])cc6F)c6nc(c(-c7c(F)cc(S(=O)(=O)[O-])cc7F)c7ccc4[nH]7)C=C6)C=C5)cc3)[C@H](C[C@@H]3C=c4cccc(C)c4=NC3=O)C2)cc1
REMARK SMILES IDX 16 1 15 2 13 3 14 4 12 6 11 7 9 8 10 9 8 10 6 11 7 12 102 13
REMARK SMILES IDX 88 14 5 15 1 16 2 17 3 18 104 19 4 20 103 21 89 22 90 23
REMARK SMILES IDX 91 24 100 25 92 26 99 27 101 28 93 29 98 30 94 31 96 32
REMARK SMILES IDX 95 33 97 34 17 35 18 36 19 37 20 38 21 40 22 41 23 42 87 43
REMARK SMILES IDX 24 44 86 45 25 46 26 47 27 48 80 49 28 50 85 51 79 52 81 53
REMARK SMILES IDX 29 54 84 55 78 56 77 57 30 59 64 60 43 61 63 62 44 63 47 64
REMARK SMILES IDX 62 65 82 66 45 67 46 68 61 70 83 71 48 72 31 73 32 74 41 75
REMARK SMILES IDX 33 76 34 77 40 78 42 79 35 80 36 81 37 82 38 83 39 84 65 85
REMARK SMILES IDX 66 86 75 87 67 88 68 89 74 90 76 91 69 92 70 93 71 94 72 95
REMARK SMILES IDX 73 96 49 97 50 98 59 99 51 100 52 101 58 102 60 103 53 104
REMARK SMILES IDX 54 105 55 106 56 107 57 108
REMARK H PARENT 15 5 19 39 81 58 47 69
REMARK Flexibility Score: inf
ROOT
ATOM      1  C   UNL A   1      46.977  27.889  33.128  1.00  0.00     0.117 C 
ENDROOT
BRANCH   1   2
ATOM      2  N   UNL A   1      47.906  27.068  32.094  1.00  0.00    -0.356 N 
ATOM      3  C   UNL A   1      47.725  26.143  31.129  1.00  0.00     0.220 C 
ATOM      4  O   UNL A   1      48.734  25.591  30.680  1.00  0.00    -0.275 OA
ATOM      5  H   UNL A   1      48.857  27.304  32.194  1.00  0.00     0.163 HD
BRANCH   3   6
ATOM      6  C   UNL A   1      46.362  25.804  30.600  1.00  0.00     0.110 C 
BRANCH   6   7
ATOM      7  C   UNL A   1      46.019  26.251  29.191  1.00  0.00     0.112 C 
BRANCH   7   8
ATOM      8  C   UNL A   1      46.256  25.185  28.131  1.00  0.00     0.243 C 
ATOM      9  O   UNL A   1      45.820  24.045  28.285  1.00  0.00    -0.273 OA
BRANCH   8  10
ATOM     10  N   UNL A   1      47.114  25.586  27.064  1.00  0.00    -0.230 N 
ATOM     11  C   UNL A   1      48.735  27.794  26.684  1.00  0.00     0.070 C 
ATOM     12  N   UNL A   1      48.510  26.584  27.570  1.00  0.00    -0.174 NA
ATOM     13  C   UNL A   1      47.222  27.935  25.140  1.00  0.00     0.086 C 
ATOM     14  C   UNL A   1      46.448  26.030  25.419  1.00  0.00     0.118 C 
BRANCH  11  15
ATOM     15  C   UNL A   1      50.565  27.895  26.414  1.00  0.00    -0.002 A 
ATOM     16  C   UNL A   1      54.088  24.307  25.393  1.00  0.00     0.044 C 
ATOM     17  C   UNL A   1      53.059  25.350  25.716  1.00  0.00    -0.051 A 
ATOM     18  C   UNL A   1      52.084  26.085  24.426  1.00  0.00     0.004 A 
ATOM     19  C   UNL A   1      52.913  25.868  27.404  1.00  0.00     0.004 A 
ATOM     20  C   UNL A   1      50.825  27.291  24.746  1.00  0.00     0.010 A 
ATOM     21  C   UNL A   1      51.819  27.270  27.757  1.00  0.00     0.010 A 
ENDBRANCH  11  15
BRANCH  14  22
ATOM     22  C   UNL A   1      46.864  24.533  24.585  1.00  0.00     0.045 C 
BRANCH  22  23
ATOM     23  C   UNL A   1      46.030  23.232  24.979  1.00  0.00     0.106 C 
ATOM     24  C   UNL A   1      46.443  21.935  24.307  1.00  0.00    -0.003 C 
ATOM     25  C   UNL A   1      44.491  23.208  24.874  1.00  0.00     0.253 C 
ATOM     26  C   UNL A   1      45.932  20.792  24.776  1.00  0.00    -0.003 A 
ATOM     27  N   UNL A   1      43.853  22.026  25.279  1.00  0.00    -0.212 NA
ATOM     28  O   UNL A   1      43.862  24.208  24.545  1.00  0.00    -0.272 OA
ATOM     29  C   UNL A   1      46.671  19.559  24.897  1.00  0.00     0.010 A 
ATOM     30  C   UNL A   1      44.520  20.907  25.245  1.00  0.00     0.077 A 
ATOM     31  C   UNL A   1      46.109  18.497  25.484  1.00  0.00     0.001 A 
ATOM     32  C   UNL A   1      43.904  19.564  25.580  1.00  0.00    -0.025 A 
ATOM     33  C   UNL A   1      44.691  18.480  25.741  1.00  0.00     0.005 A 
ATOM     34  C   UNL A   1      42.416  19.443  25.534  1.00  0.00     0.047 C 
ENDBRANCH  22  23
ENDBRANCH  14  22
ENDBRANCH   8  10
ENDBRANCH   7   8
ENDBRANCH   6   7
ENDBRANCH   3   6
ENDBRANCH   1   2
BRANCH   1  35
ATOM     35  C   UNL A   1      45.791  29.716  32.660  1.00  0.00     0.042 C 
BRANCH  35  36
ATOM     36  C   UNL A   1      45.051  30.261  34.425  1.00  0.00     0.118 C 
BRANCH  36  37
ATOM     37  N   UNL A   1      45.830  29.435  35.895  1.00  0.00    -0.352 N 
ATOM     38  C   UNL A   1      45.143  27.951  36.647  1.00  0.00     0.251 C 
ATOM     39  H   UNL A   1      46.650  29.824  36.279  1.00  0.00     0.163 HD
ATOM     40  O   UNL A   1      45.683  27.947  37.777  1.00  0.00    -0.269 OA
BRANCH  38  41
ATOM     41  C   UNL A   1      43.653  26.823  35.557  1.00  0.00     0.039 A 
ATOM     42  C   UNL A   1      43.621  26.476  34.097  1.00  0.00     0.014 A 
ATOM     43  C   UNL A   1      42.174  26.934  35.664  1.00  0.00     0.014 A 
ATOM     44  C   UNL A   1      42.983  27.337  33.137  1.00  0.00     0.010 A 
ATOM     45  C   UNL A   1      41.442  27.802  34.792  1.00  0.00     0.010 A 
ATOM     46  C   UNL A   1      42.056  28.237  33.618  1.00  0.00    -0.014 A 
BRANCH  46  47
ATOM     47  C   UNL A   1      41.664  29.524  32.992  1.00  0.00     0.031 A 
ATOM     48  C   UNL A   1      41.319  30.597  33.932  1.00  0.00     0.074 A 
ATOM     49  C   UNL A   1      41.517  29.857  31.670  1.00  0.00     0.049 A 
ATOM     50  N   UNL A   1      40.483  31.551  33.692  1.00  0.00    -0.248 NA
ATOM     51  C   UNL A   1      41.833  30.571  35.293  1.00  0.00     0.031 C 
ATOM     52  C   UNL A   1      41.628  31.219  31.123  1.00  0.00     0.029 A 
ATOM     53  N   UNL A   1      41.163  29.113  30.538  1.00  0.00    -0.354 N 
ATOM     54  C   UNL A   1      40.613  32.428  34.735  1.00  0.00     0.074 A 
ATOM     55  C   UNL A   1      41.302  31.692  35.772  1.00  0.00     0.031 C 
ATOM     56  C   UNL A   1      41.239  31.241  29.840  1.00  0.00     0.029 A 
ATOM     57  C   UNL A   1      40.735  29.930  29.485  1.00  0.00     0.049 A 
ATOM     58  H   UNL A   1      41.211  28.130  30.488  1.00  0.00     0.167 HD
ATOM     59  C   UNL A   1      40.341  33.752  34.571  1.00  0.00     0.037 A 
ATOM     60  C   UNL A   1      39.672  29.660  28.674  1.00  0.00     0.037 A 
ATOM     61  C   UNL A   1      39.921  34.074  33.208  1.00  0.00     0.049 A 
ATOM     62  C   UNL A   1      38.540  30.625  28.937  1.00  0.00     0.074 A 
ATOM     63  C   UNL A   1      40.555  34.593  32.090  1.00  0.00     0.029 A 
ATOM     64  N   UNL A   1      38.724  33.568  32.743  1.00  0.00    -0.354 N 
ATOM     65  N   UNL A   1      38.696  31.768  29.543  1.00  0.00    -0.248 NA
ATOM     66  C   UNL A   1      37.132  30.325  28.669  1.00  0.00     0.031 C 
ATOM     67  C   UNL A   1      39.702  34.418  30.961  1.00  0.00     0.029 A 
ATOM     68  C   UNL A   1      38.541  33.803  31.392  1.00  0.00     0.049 A 
ATOM     69  H   UNL A   1      38.073  33.093  33.309  1.00  0.00     0.167 HD
ATOM     70  C   UNL A   1      37.471  32.255  29.905  1.00  0.00     0.074 A 
ATOM     71  C   UNL A   1      36.518  31.350  29.287  1.00  0.00     0.031 C 
ATOM     72  C   UNL A   1      37.325  33.308  30.762  1.00  0.00     0.037 A 
BRANCH  59  73
ATOM     73  C   UNL A   1      40.815  34.737  35.606  1.00  0.00     0.058 A 
ATOM     74  C   UNL A   1      42.080  35.342  35.517  1.00  0.00     0.135 A 
ATOM     75  C   UNL A   1      40.074  35.056  36.764  1.00  0.00     0.135 A 
ATOM     76  F   UNL A   1      42.846  35.204  34.428  1.00  0.00    -0.206 F 
ATOM     77  C   UNL A   1      42.618  36.104  36.553  1.00  0.00     0.059 A 
ATOM     78  C   UNL A   1      40.620  35.740  37.849  1.00  0.00     0.059 A 
ATOM     79  F   UNL A   1      38.779  34.712  36.872  1.00  0.00    -0.206 F 
ATOM     80  C   UNL A   1      41.897  36.267  37.730  1.00  0.00     0.060 A 
BRANCH  80  81
ATOM     81  S   UNL A   1      42.635  37.197  39.084  1.00  0.00     0.124 S 
ATOM     82  O   UNL A   1      43.613  38.034  38.395  1.00  0.00    -0.237 OA
ATOM     83  O   UNL A   1      41.473  37.892  39.629  1.00  0.00    -0.237 OA
ATOM     84  O   UNL A   1      43.204  36.157  39.938  1.00  0.00    -0.744 OA
ENDBRANCH  80  81
ENDBRANCH  59  73
BRANCH  60  85
ATOM     85  C   UNL A   1      39.529  28.246  28.242  1.00  0.00     0.058 A 
ATOM     86  C   UNL A   1      40.177  27.851  27.057  1.00  0.00     0.135 A 
ATOM     87  C   UNL A   1      39.086  27.235  29.105  1.00  0.00     0.135 A 
ATOM     88  F   UNL A   1      40.599  28.773  26.177  1.00  0.00    -0.206 F 
ATOM     89  C   UNL A   1      40.494  26.521  26.805  1.00  0.00     0.059 A 
ATOM     90  C   UNL A   1      39.396  25.895  28.876  1.00  0.00     0.059 A 
ATOM     91  F   UNL A   1      38.490  27.560  30.261  1.00  0.00    -0.206 F 
ATOM     92  C   UNL A   1      40.149  25.560  27.751  1.00  0.00     0.060 A 
BRANCH  92  93
ATOM     93  S   UNL A   1      40.916  23.929  27.593  1.00  0.00     0.124 S 
ATOM     94  O   UNL A   1      41.385  23.953  26.213  1.00  0.00    -0.237 OA
ATOM     95  O   UNL A   1      41.962  24.030  28.613  1.00  0.00    -0.237 OA
ATOM     96  O   UNL A   1      39.804  23.024  27.859  1.00  0.00    -0.744 OA
ENDBRANCH  92  93
ENDBRANCH  60  85
BRANCH  72  97
ATOM     97  C   UNL A   1      35.986  33.907  31.106  1.00  0.00     0.058 A 
ATOM     98  C   UNL A   1      35.224  34.613  30.159  1.00  0.00     0.135 A 
ATOM     99  C   UNL A   1      35.478  33.905  32.424  1.00  0.00     0.135 A 
ATOM    100  F   UNL A   1      35.655  34.753  28.895  1.00  0.00    -0.206 F 
ATOM    101  C   UNL A   1      34.004  35.208  30.480  1.00  0.00     0.059 A 
ATOM    102  C   UNL A   1      34.296  34.542  32.780  1.00  0.00     0.059 A 
ATOM    103  F   UNL A   1      36.090  33.253  33.421  1.00  0.00    -0.206 F 
ATOM    104  C   UNL A   1      33.547  35.162  31.793  1.00  0.00     0.060 A 
BRANCH 104 105
ATOM    105  S   UNL A   1      31.974  35.925  32.217  1.00  0.00     0.124 S 
ATOM    106  O   UNL A   1      31.235  34.818  32.816  1.00  0.00    -0.237 OA
ATOM    107  O   UNL A   1      32.402  36.974  33.136  1.00  0.00    -0.237 OA
ATOM    108  O   UNL A   1      31.463  36.386  30.929  1.00  0.00    -0.744 OA
ENDBRANCH 104 105
ENDBRANCH  72  97
ENDBRANCH  46  47
ENDBRANCH  38  41
ENDBRANCH  36  37
ENDBRANCH  35  36
ENDBRANCH   1  35
TORSDOF 19
ENDMDL
