MODEL 1
REMARK VINA RESULT:     -13.6      0.000      0.000
REMARK SMILES Cc1cc(C)cc(Oc2nc3ccccn3c(=O)c2/C=C2\SC(=S)N(CCC(=O)NCCCNC(=O)c3ccc(-c4c5nc(c(-c6c(F)cc(S(=O)(=O)[O-])cc6F)c6ccc([nH]6)c(-c6c(F)cc(S(=O)(=O)[O-])cc6F)c6nc(c(-c7c(F)cc(S(=O)(=O)[O-])cc7F)c7ccc4[nH]7)C=C6)C=C5)cc3)C2=O)c1
REMARK SMILES IDX 31 1 30 2 28 3 29 4 27 6 26 7 25 8 20 9 21 10 22 11 103 12
REMARK SMILES IDX 23 13 104 14 24 15 19 16 9 17 10 18 11 19 17 20 12 21 16 22
REMARK SMILES IDX 18 23 13 24 15 25 14 26 8 27 7 28 1 29 2 30 3 31 105 32 4 33
REMARK SMILES IDX 5 34 6 35 32 36 33 37 34 38 35 39 36 41 37 42 38 43 102 44
REMARK SMILES IDX 39 45 101 46 40 47 41 48 42 49 95 50 43 51 100 52 94 53
REMARK SMILES IDX 96 54 44 55 99 56 93 57 92 58 45 60 79 61 58 62 78 63 59 64
REMARK SMILES IDX 62 65 77 66 97 67 60 68 61 69 76 71 98 72 63 73 46 74 47 75
REMARK SMILES IDX 56 76 48 77 49 78 55 79 57 80 50 81 51 82 52 83 53 84 54 85
REMARK SMILES IDX 80 86 81 87 90 88 82 89 83 90 89 91 91 92 84 93 85 94 86 95
REMARK SMILES IDX 87 96 88 97 64 98 65 99 74 100 66 101 67 102 73 103 75 104
REMARK SMILES IDX 68 105 69 106 70 107 71 108 72 109
REMARK H PARENT 30 5 34 40 96 59 62 70
REMARK Flexibility Score: inf
ROOT
ATOM      1  C   UNL A   1      37.126  21.554  25.588  1.00  0.00     0.117 C 
ENDROOT
BRANCH   1   2
ATOM      2  N   UNL A   1      36.293  22.419  26.410  1.00  0.00    -0.356 N 
ATOM      3  C   UNL A   1      34.941  22.476  26.568  1.00  0.00     0.221 C 
ATOM      4  O   UNL A   1      34.478  23.384  27.262  1.00  0.00    -0.275 OA
ATOM      5  H   UNL A   1      36.793  23.077  26.945  1.00  0.00     0.163 HD
BRANCH   3   6
ATOM      6  C   UNL A   1      34.014  21.443  25.955  1.00  0.00     0.122 C 
BRANCH   6   7
ATOM      7  C   UNL A   1      32.553  21.623  26.393  1.00  0.00     0.137 C 
BRANCH   7   8
ATOM      8  N   UNL A   1      31.829  22.523  25.486  1.00  0.00    -0.292 N 
ATOM      9  C   UNL A   1      30.813  25.918  25.154  1.00  0.00     0.041 C 
ATOM     10  C   UNL A   1      30.917  24.602  24.918  1.00  0.00     0.081 C 
ATOM     11  S   UNL A   1      30.961  23.785  23.411  1.00  0.00    -0.054 SA
ATOM     12  C   UNL A   1      31.189  23.630  26.006  1.00  0.00     0.266 C 
ATOM     13  C   UNL A   1      31.736  22.369  24.118  1.00  0.00     0.148 C 
ATOM     14  O   UNL A   1      30.919  23.820  27.185  1.00  0.00    -0.268 OA
ATOM     15  S   UNL A   1      32.295  21.101  23.188  1.00  0.00    -0.052 S 
BRANCH   9  16
ATOM     16  C   UNL A   1      30.583  26.976  24.183  1.00  0.00     0.104 A 
ATOM     17  C   UNL A   1      31.478  27.899  23.761  1.00  0.00     0.234 A 
ATOM     18  N   UNL A   1      31.122  29.021  23.055  1.00  0.00    -0.194 NA
ATOM     19  C   UNL A   1      29.869  29.224  22.802  1.00  0.00     0.143 A 
ATOM     20  C   UNL A   1      29.172  27.134  23.723  1.00  0.00     0.269 A 
ATOM     21  C   UNL A   1      29.451  30.528  22.213  1.00  0.00     0.048 A 
ATOM     22  N   UNL A   1      28.868  28.312  23.073  1.00  0.00    -0.267 N 
ATOM     23  O   UNL A   1      28.346  26.262  23.999  1.00  0.00    -0.268 OA
ATOM     24  C   UNL A   1      28.156  30.762  21.969  1.00  0.00     0.005 A 
ATOM     25  C   UNL A   1      27.549  28.569  22.727  1.00  0.00     0.096 A 
ATOM     26  C   UNL A   1      27.172  29.742  22.209  1.00  0.00     0.019 A 
BRANCH  17  27
ATOM     27  O   UNL A   1      32.781  27.953  24.252  1.00  0.00    -0.438 OA
BRANCH  27  28
ATOM     28  C   UNL A   1      33.178  28.875  25.195  1.00  0.00     0.130 A 
ATOM     29  C   UNL A   1      35.539  29.331  28.127  1.00  0.00     0.044 C 
ATOM     30  C   UNL A   1      34.443  29.579  27.135  1.00  0.00    -0.047 A 
ATOM     31  C   UNL A   1      33.523  30.611  27.362  1.00  0.00     0.007 A 
ATOM     32  C   UNL A   1      34.285  28.739  26.023  1.00  0.00     0.050 A 
ATOM     33  C   UNL A   1      32.447  30.812  26.492  1.00  0.00    -0.047 A 
ATOM     34  C   UNL A   1      31.458  31.906  26.773  1.00  0.00     0.044 C 
ATOM     35  C   UNL A   1      32.285  29.940  25.407  1.00  0.00     0.050 A 
ENDBRANCH  27  28
ENDBRANCH  17  27
ENDBRANCH   9  16
ENDBRANCH   7   8
ENDBRANCH   6   7
ENDBRANCH   3   6
ENDBRANCH   1   2
BRANCH   1  36
ATOM     36  C   UNL A   1      38.534  22.119  25.426  1.00  0.00     0.042 C 
BRANCH  36  37
ATOM     37  C   UNL A   1      39.063  23.082  26.482  1.00  0.00     0.118 C 
BRANCH  37  38
ATOM     38  N   UNL A   1      40.496  23.321  26.382  1.00  0.00    -0.352 N 
ATOM     39  C   UNL A   1      41.358  24.295  26.831  1.00  0.00     0.251 C 
ATOM     40  H   UNL A   1      40.958  22.617  25.871  1.00  0.00     0.163 HD
ATOM     41  O   UNL A   1      42.530  24.185  26.457  1.00  0.00    -0.269 OA
BRANCH  39  42
ATOM     42  C   UNL A   1      41.003  25.461  27.702  1.00  0.00     0.039 A 
ATOM     43  C   UNL A   1      41.950  26.500  27.809  1.00  0.00     0.014 A 
ATOM     44  C   UNL A   1      39.875  25.532  28.519  1.00  0.00     0.014 A 
ATOM     45  C   UNL A   1      41.773  27.580  28.691  1.00  0.00     0.010 A 
ATOM     46  C   UNL A   1      39.683  26.623  29.392  1.00  0.00     0.010 A 
ATOM     47  C   UNL A   1      40.639  27.643  29.507  1.00  0.00    -0.014 A 
BRANCH  47  48
ATOM     48  C   UNL A   1      40.522  28.675  30.582  1.00  0.00     0.031 A 
ATOM     49  C   UNL A   1      41.444  28.603  31.769  1.00  0.00     0.074 A 
ATOM     50  C   UNL A   1      39.591  29.648  30.533  1.00  0.00     0.049 A 
ATOM     51  N   UNL A   1      41.459  29.338  32.850  1.00  0.00    -0.248 NA
ATOM     52  C   UNL A   1      42.465  27.542  31.747  1.00  0.00     0.031 C 
ATOM     53  C   UNL A   1      38.609  29.797  29.467  1.00  0.00     0.029 A 
ATOM     54  N   UNL A   1      39.299  30.682  31.394  1.00  0.00    -0.354 N 
ATOM     55  C   UNL A   1      42.451  28.800  33.660  1.00  0.00     0.074 A 
ATOM     56  C   UNL A   1      43.025  27.684  32.940  1.00  0.00     0.031 C 
ATOM     57  C   UNL A   1      37.846  30.876  29.714  1.00  0.00     0.029 A 
ATOM     58  C   UNL A   1      38.245  31.471  30.984  1.00  0.00     0.049 A 
ATOM     59  H   UNL A   1      39.798  30.843  32.227  1.00  0.00     0.167 HD
ATOM     60  C   UNL A   1      42.833  29.190  34.899  1.00  0.00     0.037 A 
ATOM     61  C   UNL A   1      37.649  32.531  31.572  1.00  0.00     0.037 A 
ATOM     62  C   UNL A   1      42.270  30.311  35.607  1.00  0.00     0.049 A 
ATOM     63  C   UNL A   1      38.118  32.960  32.942  1.00  0.00     0.074 A 
ATOM     64  C   UNL A   1      42.625  30.806  36.850  1.00  0.00     0.029 A 
ATOM     65  N   UNL A   1      41.230  31.103  35.145  1.00  0.00    -0.354 N 
ATOM     66  N   UNL A   1      39.092  32.467  33.671  1.00  0.00    -0.248 NA
ATOM     67  C   UNL A   1      37.392  34.066  33.584  1.00  0.00     0.031 C 
ATOM     68  C   UNL A   1      41.764  31.860  37.164  1.00  0.00     0.029 A 
ATOM     69  C   UNL A   1      40.913  32.065  36.091  1.00  0.00     0.049 A 
ATOM     70  H   UNL A   1      40.782  30.998  34.274  1.00  0.00     0.167 HD
ATOM     71  C   UNL A   1      39.099  33.208  34.849  1.00  0.00     0.074 A 
ATOM     72  C   UNL A   1      38.058  34.205  34.723  1.00  0.00     0.031 C 
ATOM     73  C   UNL A   1      39.883  33.063  35.944  1.00  0.00     0.037 A 
BRANCH  60  74
ATOM     74  C   UNL A   1      43.883  28.375  35.600  1.00  0.00     0.058 A 
ATOM     75  C   UNL A   1      43.557  27.292  36.430  1.00  0.00     0.135 A 
ATOM     76  C   UNL A   1      45.245  28.645  35.378  1.00  0.00     0.135 A 
ATOM     77  F   UNL A   1      42.273  27.004  36.692  1.00  0.00    -0.206 F 
ATOM     78  C   UNL A   1      44.543  26.511  37.023  1.00  0.00     0.059 A 
ATOM     79  C   UNL A   1      46.247  27.862  35.940  1.00  0.00     0.059 A 
ATOM     80  F   UNL A   1      45.610  29.675  34.598  1.00  0.00    -0.206 F 
ATOM     81  C   UNL A   1      45.886  26.799  36.766  1.00  0.00     0.060 A 
BRANCH  81  82
ATOM     82  S   UNL A   1      47.151  25.747  37.508  1.00  0.00     0.124 S 
ATOM     83  O   UNL A   1      48.373  26.447  37.128  1.00  0.00    -0.237 OA
ATOM     84  O   UNL A   1      46.806  25.800  38.926  1.00  0.00    -0.237 OA
ATOM     85  O   UNL A   1      46.942  24.455  36.862  1.00  0.00    -0.744 OA
ENDBRANCH  81  82
ENDBRANCH  60  74
BRANCH  61  86
ATOM     86  C   UNL A   1      36.518  33.253  30.912  1.00  0.00     0.058 A 
ATOM     87  C   UNL A   1      36.747  34.132  29.838  1.00  0.00     0.135 A 
ATOM     88  C   UNL A   1      35.196  33.131  31.369  1.00  0.00     0.135 A 
ATOM     89  F   UNL A   1      37.991  34.300  29.364  1.00  0.00    -0.206 F 
ATOM     90  C   UNL A   1      35.721  34.885  29.272  1.00  0.00     0.059 A 
ATOM     91  C   UNL A   1      34.146  33.842  30.793  1.00  0.00     0.059 A 
ATOM     92  F   UNL A   1      34.911  32.304  32.388  1.00  0.00    -0.206 F 
ATOM     93  C   UNL A   1      34.422  34.734  29.759  1.00  0.00     0.060 A 
BRANCH  93  94
ATOM     94  S   UNL A   1      33.095  35.707  29.012  1.00  0.00     0.124 S 
ATOM     95  O   UNL A   1      33.848  36.720  28.283  1.00  0.00    -0.237 OA
ATOM     96  O   UNL A   1      32.406  34.711  28.196  1.00  0.00    -0.237 OA
ATOM     97  O   UNL A   1      32.342  36.186  30.167  1.00  0.00    -0.744 OA
ENDBRANCH  93  94
ENDBRANCH  61  86
BRANCH  73  98
ATOM     98  C   UNL A   1      39.678  34.028  37.080  1.00  0.00     0.058 A 
ATOM     99  C   UNL A   1      38.866  33.713  38.182  1.00  0.00     0.135 A 
ATOM    100  C   UNL A   1      40.349  35.262  37.094  1.00  0.00     0.135 A 
ATOM    101  F   UNL A   1      38.195  32.550  38.218  1.00  0.00    -0.206 F 
ATOM    102  C   UNL A   1      38.708  34.597  39.245  1.00  0.00     0.059 A 
ATOM    103  C   UNL A   1      40.231  36.147  38.161  1.00  0.00     0.059 A 
ATOM    104  F   UNL A   1      41.146  35.608  36.071  1.00  0.00    -0.206 F 
ATOM    105  C   UNL A   1      39.399  35.810  39.227  1.00  0.00     0.060 A 
BRANCH 105 106
ATOM    106  S   UNL A   1      39.216  36.933  40.629  1.00  0.00     0.124 S 
ATOM    107  O   UNL A   1      38.347  37.963  40.070  1.00  0.00    -0.237 OA
ATOM    108  O   UNL A   1      38.610  36.072  41.641  1.00  0.00    -0.237 OA
ATOM    109  O   UNL A   1      40.586  37.354  40.910  1.00  0.00    -0.744 OA
ENDBRANCH 105 106
ENDBRANCH  73  98
ENDBRANCH  47  48
ENDBRANCH  39  42
ENDBRANCH  37  38
ENDBRANCH  36  37
ENDBRANCH   1  36
TORSDOF 18
ENDMDL
MODEL 2
REMARK VINA RESULT:     -13.6      4.971      6.375
REMARK SMILES Cc1cc(C)cc(Oc2nc3ccccn3c(=O)c2/C=C2\SC(=S)N(CCC(=O)NCCCNC(=O)c3ccc(-c4c5nc(c(-c6c(F)cc(S(=O)(=O)[O-])cc6F)c6ccc([nH]6)c(-c6c(F)cc(S(=O)(=O)[O-])cc6F)c6nc(c(-c7c(F)cc(S(=O)(=O)[O-])cc7F)c7ccc4[nH]7)C=C6)C=C5)cc3)C2=O)c1
REMARK SMILES IDX 31 1 30 2 28 3 29 4 27 6 26 7 25 8 20 9 21 10 22 11 103 12
REMARK SMILES IDX 23 13 104 14 24 15 19 16 9 17 10 18 11 19 17 20 12 21 16 22
REMARK SMILES IDX 18 23 13 24 15 25 14 26 8 27 7 28 1 29 2 30 3 31 105 32 4 33
REMARK SMILES IDX 5 34 6 35 32 36 33 37 34 38 35 39 36 41 37 42 38 43 102 44
REMARK SMILES IDX 39 45 101 46 40 47 41 48 42 49 95 50 43 51 100 52 94 53
REMARK SMILES IDX 96 54 44 55 99 56 93 57 92 58 45 60 79 61 58 62 78 63 59 64
REMARK SMILES IDX 62 65 77 66 97 67 60 68 61 69 76 71 98 72 63 73 46 74 47 75
REMARK SMILES IDX 56 76 48 77 49 78 55 79 57 80 50 81 51 82 52 83 53 84 54 85
REMARK SMILES IDX 80 86 81 87 90 88 82 89 83 90 89 91 91 92 84 93 85 94 86 95
REMARK SMILES IDX 87 96 88 97 64 98 65 99 74 100 66 101 67 102 73 103 75 104
REMARK SMILES IDX 68 105 69 106 70 107 71 108 72 109
REMARK H PARENT 30 5 34 40 96 59 62 70
REMARK Flexibility Score: inf
ROOT
ATOM      1  C   UNL A   1      35.782  21.428  25.535  1.00  0.00     0.117 C 
ENDROOT
BRANCH   1   2
ATOM      2  N   UNL A   1      34.822  20.339  25.420  1.00  0.00    -0.356 N 
ATOM      3  C   UNL A   1      33.498  20.273  25.734  1.00  0.00     0.221 C 
ATOM      4  O   UNL A   1      32.933  19.182  25.628  1.00  0.00    -0.275 OA
ATOM      5  H   UNL A   1      35.194  19.506  25.050  1.00  0.00     0.163 HD
BRANCH   3   6
ATOM      6  C   UNL A   1      32.711  21.497  26.164  1.00  0.00     0.122 C 
BRANCH   6   7
ATOM      7  C   UNL A   1      32.031  22.208  24.984  1.00  0.00     0.137 C 
BRANCH   7   8
ATOM      8  N   UNL A   1      31.737  23.611  25.301  1.00  0.00    -0.292 N 
ATOM      9  C   UNL A   1      32.146  26.904  24.014  1.00  0.00     0.041 C 
ATOM     10  C   UNL A   1      31.859  25.906  24.863  1.00  0.00     0.081 C 
ATOM     11  S   UNL A   1      30.587  25.808  26.009  1.00  0.00    -0.054 SA
ATOM     12  C   UNL A   1      32.561  24.600  24.803  1.00  0.00     0.266 C 
ATOM     13  C   UNL A   1      30.674  24.049  26.065  1.00  0.00     0.148 C 
ATOM     14  O   UNL A   1      33.682  24.440  24.338  1.00  0.00    -0.268 OA
ATOM     15  S   UNL A   1      29.560  23.128  26.897  1.00  0.00    -0.052 S 
BRANCH   9  16
ATOM     16  C   UNL A   1      31.517  28.214  23.942  1.00  0.00     0.104 A 
ATOM     17  C   UNL A   1      31.507  29.162  24.908  1.00  0.00     0.234 A 
ATOM     18  N   UNL A   1      30.676  30.254  24.878  1.00  0.00    -0.194 NA
ATOM     19  C   UNL A   1      29.842  30.372  23.896  1.00  0.00     0.143 A 
ATOM     20  C   UNL A   1      30.683  28.465  22.732  1.00  0.00     0.269 A 
ATOM     21  C   UNL A   1      28.804  31.441  23.951  1.00  0.00     0.048 A 
ATOM     22  N   UNL A   1      29.825  29.543  22.791  1.00  0.00    -0.267 N 
ATOM     23  O   UNL A   1      30.741  27.677  21.785  1.00  0.00    -0.268 OA
ATOM     24  C   UNL A   1      27.918  31.560  22.955  1.00  0.00     0.005 A 
ATOM     25  C   UNL A   1      28.939  29.758  21.745  1.00  0.00     0.096 A 
ATOM     26  C   UNL A   1      28.001  30.708  21.800  1.00  0.00     0.019 A 
BRANCH  17  27
ATOM     27  O   UNL A   1      32.111  28.969  26.150  1.00  0.00    -0.438 OA
BRANCH  27  28
ATOM     28  C   UNL A   1      33.190  29.716  26.570  1.00  0.00     0.130 A 
ATOM     29  C   UNL A   1      36.749  29.384  27.836  1.00  0.00     0.044 C 
ATOM     30  C   UNL A   1      35.422  29.977  27.467  1.00  0.00    -0.047 A 
ATOM     31  C   UNL A   1      35.101  31.274  27.890  1.00  0.00     0.007 A 
ATOM     32  C   UNL A   1      34.471  29.218  26.771  1.00  0.00     0.050 A 
ATOM     33  C   UNL A   1      33.842  31.820  27.625  1.00  0.00    -0.047 A 
ATOM     34  C   UNL A   1      33.513  33.201  28.114  1.00  0.00     0.044 C 
ATOM     35  C   UNL A   1      32.893  31.033  26.960  1.00  0.00     0.050 A 
ENDBRANCH  27  28
ENDBRANCH  17  27
ENDBRANCH   9  16
ENDBRANCH   7   8
ENDBRANCH   6   7
ENDBRANCH   3   6
ENDBRANCH   1   2
BRANCH   1  36
ATOM     36  C   UNL A   1      37.139  21.044  24.952  1.00  0.00     0.042 C 
BRANCH  36  37
ATOM     37  C   UNL A   1      38.368  21.842  25.369  1.00  0.00     0.118 C 
BRANCH  37  38
ATOM     38  N   UNL A   1      39.338  21.061  26.124  1.00  0.00    -0.352 N 
ATOM     39  C   UNL A   1      40.351  21.350  27.009  1.00  0.00     0.251 C 
ATOM     40  H   UNL A   1      39.246  20.094  25.961  1.00  0.00     0.163 HD
ATOM     41  O   UNL A   1      41.026  20.386  27.382  1.00  0.00    -0.269 OA
BRANCH  39  42
ATOM     42  C   UNL A   1      40.706  22.707  27.536  1.00  0.00     0.039 A 
ATOM     43  C   UNL A   1      40.061  23.817  26.952  1.00  0.00     0.014 A 
ATOM     44  C   UNL A   1      41.721  22.963  28.458  1.00  0.00     0.014 A 
ATOM     45  C   UNL A   1      40.407  25.137  27.285  1.00  0.00     0.010 A 
ATOM     46  C   UNL A   1      42.059  24.287  28.810  1.00  0.00     0.010 A 
ATOM     47  C   UNL A   1      41.426  25.386  28.210  1.00  0.00    -0.014 A 
BRANCH  47  48
ATOM     48  C   UNL A   1      41.938  26.772  28.436  1.00  0.00     0.031 A 
ATOM     49  C   UNL A   1      43.361  27.095  28.068  1.00  0.00     0.074 A 
ATOM     50  C   UNL A   1      41.170  27.730  28.990  1.00  0.00     0.049 A 
ATOM     51  N   UNL A   1      44.033  28.201  28.257  1.00  0.00    -0.248 NA
ATOM     52  C   UNL A   1      44.138  26.019  27.432  1.00  0.00     0.031 C 
ATOM     53  C   UNL A   1      39.797  27.533  29.434  1.00  0.00     0.029 A 
ATOM     54  N   UNL A   1      41.426  29.049  29.293  1.00  0.00    -0.354 N 
ATOM     55  C   UNL A   1      45.323  27.940  27.813  1.00  0.00     0.074 A 
ATOM     56  C   UNL A   1      45.337  26.575  27.332  1.00  0.00     0.031 C 
ATOM     57  C   UNL A   1      39.316  28.691  29.920  1.00  0.00     0.029 A 
ATOM     58  C   UNL A   1      40.361  29.707  29.873  1.00  0.00     0.049 A 
ATOM     59  H   UNL A   1      42.290  29.484  29.111  1.00  0.00     0.167 HD
ATOM     60  C   UNL A   1      46.401  28.759  27.824  1.00  0.00     0.037 A 
ATOM     61  C   UNL A   1      40.246  30.969  30.340  1.00  0.00     0.037 A 
ATOM     62  C   UNL A   1      46.381  30.123  28.290  1.00  0.00     0.049 A 
ATOM     63  C   UNL A   1      41.459  31.868  30.311  1.00  0.00     0.074 A 
ATOM     64  C   UNL A   1      47.417  31.041  28.298  1.00  0.00     0.029 A 
ATOM     65  N   UNL A   1      45.278  30.760  28.838  1.00  0.00    -0.354 N 
ATOM     66  N   UNL A   1      42.658  31.617  29.841  1.00  0.00    -0.248 NA
ATOM     67  C   UNL A   1      41.316  33.208  30.901  1.00  0.00     0.031 C 
ATOM     68  C   UNL A   1      46.956  32.214  28.902  1.00  0.00     0.029 A 
ATOM     69  C   UNL A   1      45.617  32.050  29.212  1.00  0.00     0.049 A 
ATOM     70  H   UNL A   1      44.386  30.357  28.945  1.00  0.00     0.167 HD
ATOM     71  C   UNL A   1      43.406  32.768  30.071  1.00  0.00     0.074 A 
ATOM     72  C   UNL A   1      42.517  33.728  30.689  1.00  0.00     0.031 C 
ATOM     73  C   UNL A   1      44.716  33.002  29.812  1.00  0.00     0.037 A 
BRANCH  60  74
ATOM     74  C   UNL A   1      47.716  28.197  27.361  1.00  0.00     0.058 A 
ATOM     75  C   UNL A   1      48.665  27.684  28.257  1.00  0.00     0.135 A 
ATOM     76  C   UNL A   1      47.997  28.111  25.986  1.00  0.00     0.135 A 
ATOM     77  F   UNL A   1      48.457  27.760  29.581  1.00  0.00    -0.206 F 
ATOM     78  C   UNL A   1      49.851  27.112  27.808  1.00  0.00     0.059 A 
ATOM     79  C   UNL A   1      49.164  27.520  25.514  1.00  0.00     0.059 A 
ATOM     80  F   UNL A   1      47.125  28.594  25.088  1.00  0.00    -0.206 F 
ATOM     81  C   UNL A   1      50.088  27.028  26.433  1.00  0.00     0.060 A 
BRANCH  81  82
ATOM     82  S   UNL A   1      51.611  26.243  25.867  1.00  0.00     0.124 S 
ATOM     83  O   UNL A   1      51.454  24.890  26.390  1.00  0.00    -0.237 OA
ATOM     84  O   UNL A   1      51.510  26.377  24.417  1.00  0.00    -0.237 OA
ATOM     85  O   UNL A   1      52.660  27.040  26.496  1.00  0.00    -0.744 OA
ENDBRANCH  81  82
ENDBRANCH  60  74
BRANCH  61  86
ATOM     86  C   UNL A   1      38.960  31.472  30.914  1.00  0.00     0.058 A 
ATOM     87  C   UNL A   1      38.014  32.130  30.109  1.00  0.00     0.135 A 
ATOM     88  C   UNL A   1      38.669  31.360  32.283  1.00  0.00     0.135 A 
ATOM     89  F   UNL A   1      38.241  32.278  28.794  1.00  0.00    -0.206 F 
ATOM     90  C   UNL A   1      36.854  32.689  30.642  1.00  0.00     0.059 A 
ATOM     91  C   UNL A   1      37.497  31.874  32.834  1.00  0.00     0.059 A 
ATOM     92  F   UNL A   1      39.530  30.739  33.105  1.00  0.00    -0.206 F 
ATOM     93  C   UNL A   1      36.606  32.557  32.009  1.00  0.00     0.060 A 
BRANCH  93  94
ATOM     94  S   UNL A   1      35.095  33.275  32.692  1.00  0.00     0.124 S 
ATOM     95  O   UNL A   1      35.235  34.674  32.308  1.00  0.00    -0.237 OA
ATOM     96  O   UNL A   1      34.055  32.522  31.995  1.00  0.00    -0.237 OA
ATOM     97  O   UNL A   1      35.208  32.995  34.119  1.00  0.00    -0.744 OA
ENDBRANCH  93  94
ENDBRANCH  61  86
BRANCH  73  98
ATOM     98  C   UNL A   1      45.262  34.361  30.157  1.00  0.00     0.058 A 
ATOM     99  C   UNL A   1      45.224  35.428  29.245  1.00  0.00     0.135 A 
ATOM    100  C   UNL A   1      45.778  34.614  31.439  1.00  0.00     0.135 A 
ATOM    101  F   UNL A   1      44.747  35.241  28.004  1.00  0.00    -0.206 F 
ATOM    102  C   UNL A   1      45.700  36.691  29.584  1.00  0.00     0.059 A 
ATOM    103  C   UNL A   1      46.230  35.876  31.809  1.00  0.00     0.059 A 
ATOM    104  F   UNL A   1      45.828  33.631  32.352  1.00  0.00    -0.206 F 
ATOM    105  C   UNL A   1      46.198  36.905  30.871  1.00  0.00     0.060 A 
BRANCH 105 106
ATOM    106  S   UNL A   1      46.779  38.558  31.311  1.00  0.00     0.124 S 
ATOM    107  O   UNL A   1      48.148  38.285  31.735  1.00  0.00    -0.237 OA
ATOM    108  O   UNL A   1      46.637  39.284  30.052  1.00  0.00    -0.237 OA
ATOM    109  O   UNL A   1      45.864  38.968  32.372  1.00  0.00    -0.744 OA
ENDBRANCH 105 106
ENDBRANCH  73  98
ENDBRANCH  47  48
ENDBRANCH  39  42
ENDBRANCH  37  38
ENDBRANCH  36  37
ENDBRANCH   1  36
TORSDOF 18
ENDMDL
MODEL 3
REMARK VINA RESULT:     -13.3      0.384      7.693
REMARK SMILES Cc1cc(C)cc(Oc2nc3ccccn3c(=O)c2/C=C2\SC(=S)N(CCC(=O)NCCCNC(=O)c3ccc(-c4c5nc(c(-c6c(F)cc(S(=O)(=O)[O-])cc6F)c6ccc([nH]6)c(-c6c(F)cc(S(=O)(=O)[O-])cc6F)c6nc(c(-c7c(F)cc(S(=O)(=O)[O-])cc7F)c7ccc4[nH]7)C=C6)C=C5)cc3)C2=O)c1
REMARK SMILES IDX 31 1 30 2 28 3 29 4 27 6 26 7 25 8 20 9 21 10 22 11 103 12
REMARK SMILES IDX 23 13 104 14 24 15 19 16 9 17 10 18 11 19 17 20 12 21 16 22
REMARK SMILES IDX 18 23 13 24 15 25 14 26 8 27 7 28 1 29 2 30 3 31 105 32 4 33
REMARK SMILES IDX 5 34 6 35 32 36 33 37 34 38 35 39 36 41 37 42 38 43 102 44
REMARK SMILES IDX 39 45 101 46 40 47 41 48 42 49 95 50 43 51 100 52 94 53
REMARK SMILES IDX 96 54 44 55 99 56 93 57 92 58 45 60 79 61 58 62 78 63 59 64
REMARK SMILES IDX 62 65 77 66 97 67 60 68 61 69 76 71 98 72 63 73 46 74 47 75
REMARK SMILES IDX 56 76 48 77 49 78 55 79 57 80 50 81 51 82 52 83 53 84 54 85
REMARK SMILES IDX 80 86 81 87 90 88 82 89 83 90 89 91 91 92 84 93 85 94 86 95
REMARK SMILES IDX 87 96 88 97 64 98 65 99 74 100 66 101 67 102 73 103 75 104
REMARK SMILES IDX 68 105 69 106 70 107 71 108 72 109
REMARK H PARENT 30 5 34 40 96 59 62 70
REMARK Flexibility Score: inf
ROOT
ATOM      1  C   UNL A   1      37.142  21.671  25.747  1.00  0.00     0.117 C 
ENDROOT
BRANCH   1   2
ATOM      2  N   UNL A   1      36.267  22.573  26.482  1.00  0.00    -0.356 N 
ATOM      3  C   UNL A   1      34.911  22.604  26.606  1.00  0.00     0.221 C 
ATOM      4  O   UNL A   1      34.408  23.549  27.219  1.00  0.00    -0.275 OA
ATOM      5  H   UNL A   1      36.737  23.284  26.976  1.00  0.00     0.163 HD
BRANCH   3   6
ATOM      6  C   UNL A   1      34.026  21.502  26.054  1.00  0.00     0.122 C 
BRANCH   6   7
ATOM      7  C   UNL A   1      32.554  21.661  26.465  1.00  0.00     0.137 C 
BRANCH   7   8
ATOM      8  N   UNL A   1      31.831  22.540  25.536  1.00  0.00    -0.292 N 
ATOM      9  C   UNL A   1      30.774  25.916  25.146  1.00  0.00     0.041 C 
ATOM     10  C   UNL A   1      30.900  24.598  24.928  1.00  0.00     0.081 C 
ATOM     11  S   UNL A   1      30.976  23.762  23.433  1.00  0.00    -0.054 SA
ATOM     12  C   UNL A   1      31.169  23.644  26.032  1.00  0.00     0.266 C 
ATOM     13  C   UNL A   1      31.760  22.366  24.169  1.00  0.00     0.148 C 
ATOM     14  O   UNL A   1      30.879  23.845  27.205  1.00  0.00    -0.268 OA
ATOM     15  S   UNL A   1      32.349  21.095  23.263  1.00  0.00    -0.052 S 
BRANCH   9  16
ATOM     16  C   UNL A   1      30.543  26.957  24.157  1.00  0.00     0.104 A 
ATOM     17  C   UNL A   1      31.452  27.842  23.684  1.00  0.00     0.234 A 
ATOM     18  N   UNL A   1      31.107  28.958  22.962  1.00  0.00    -0.194 NA
ATOM     19  C   UNL A   1      29.853  29.194  22.748  1.00  0.00     0.143 A 
ATOM     20  C   UNL A   1      29.123  27.150  23.742  1.00  0.00     0.269 A 
ATOM     21  C   UNL A   1      29.455  30.497  22.141  1.00  0.00     0.048 A 
ATOM     22  N   UNL A   1      28.833  28.322  23.074  1.00  0.00    -0.267 N 
ATOM     23  O   UNL A   1      28.281  26.312  24.067  1.00  0.00    -0.268 OA
ATOM     24  C   UNL A   1      28.160  30.768  21.936  1.00  0.00     0.005 A 
ATOM     25  C   UNL A   1      27.512  28.613  22.767  1.00  0.00     0.096 A 
ATOM     26  C   UNL A   1      27.154  29.785  22.234  1.00  0.00     0.019 A 
BRANCH  17  27
ATOM     27  O   UNL A   1      32.772  27.865  24.129  1.00  0.00    -0.438 OA
BRANCH  27  28
ATOM     28  C   UNL A   1      33.218  28.763  25.073  1.00  0.00     0.130 A 
ATOM     29  C   UNL A   1      35.746  29.156  27.872  1.00  0.00     0.044 C 
ATOM     30  C   UNL A   1      34.591  29.422  26.954  1.00  0.00    -0.047 A 
ATOM     31  C   UNL A   1      33.678  30.438  27.266  1.00  0.00     0.007 A 
ATOM     32  C   UNL A   1      34.373  28.613  25.830  1.00  0.00     0.050 A 
ATOM     33  C   UNL A   1      32.551  30.655  26.467  1.00  0.00    -0.047 A 
ATOM     34  C   UNL A   1      31.572  31.731  26.839  1.00  0.00     0.044 C 
ATOM     35  C   UNL A   1      32.332  29.813  25.369  1.00  0.00     0.050 A 
ENDBRANCH  27  28
ENDBRANCH  17  27
ENDBRANCH   9  16
ENDBRANCH   7   8
ENDBRANCH   6   7
ENDBRANCH   3   6
ENDBRANCH   1   2
BRANCH   1  36
ATOM     36  C   UNL A   1      38.515  22.292  25.508  1.00  0.00     0.042 C 
BRANCH  36  37
ATOM     37  C   UNL A   1      39.087  23.233  26.561  1.00  0.00     0.118 C 
BRANCH  37  38
ATOM     38  N   UNL A   1      40.417  23.729  26.234  1.00  0.00    -0.352 N 
ATOM     39  C   UNL A   1      41.181  24.806  26.621  1.00  0.00     0.251 C 
ATOM     40  H   UNL A   1      40.879  23.157  25.579  1.00  0.00     0.163 HD
ATOM     41  O   UNL A   1      42.261  24.933  26.036  1.00  0.00    -0.269 OA
BRANCH  39  42
ATOM     42  C   UNL A   1      40.817  25.826  27.657  1.00  0.00     0.039 A 
ATOM     43  C   UNL A   1      41.700  26.910  27.834  1.00  0.00     0.014 A 
ATOM     44  C   UNL A   1      39.750  25.711  28.548  1.00  0.00     0.014 A 
ATOM     45  C   UNL A   1      41.519  27.856  28.858  1.00  0.00     0.010 A 
ATOM     46  C   UNL A   1      39.554  26.668  29.565  1.00  0.00     0.010 A 
ATOM     47  C   UNL A   1      40.448  27.734  29.749  1.00  0.00    -0.014 A 
BRANCH  47  48
ATOM     48  C   UNL A   1      40.345  28.612  30.953  1.00  0.00     0.031 A 
ATOM     49  C   UNL A   1      39.283  29.678  30.992  1.00  0.00     0.074 A 
ATOM     50  C   UNL A   1      41.197  28.496  31.991  1.00  0.00     0.049 A 
ATOM     51  N   UNL A   1      39.071  30.600  31.894  1.00  0.00    -0.248 NA
ATOM     52  C   UNL A   1      38.359  29.729  29.848  1.00  0.00     0.031 C 
ATOM     53  C   UNL A   1      42.295  27.542  32.054  1.00  0.00     0.029 A 
ATOM     54  N   UNL A   1      41.293  29.185  33.179  1.00  0.00    -0.354 N 
ATOM     55  C   UNL A   1      38.026  31.374  31.405  1.00  0.00     0.074 A 
ATOM     56  C   UNL A   1      37.638  30.804  30.133  1.00  0.00     0.031 C 
ATOM     57  C   UNL A   1      42.935  27.677  33.229  1.00  0.00     0.029 A 
ATOM     58  C   UNL A   1      42.329  28.764  33.988  1.00  0.00     0.049 A 
ATOM     59  H   UNL A   1      40.679  29.913  33.429  1.00  0.00     0.167 HD
ATOM     60  C   UNL A   1      37.457  32.470  31.960  1.00  0.00     0.037 A 
ATOM     61  C   UNL A   1      42.759  29.218  35.185  1.00  0.00     0.037 A 
ATOM     62  C   UNL A   1      37.835  33.025  33.234  1.00  0.00     0.049 A 
ATOM     63  C   UNL A   1      42.084  30.425  35.791  1.00  0.00     0.074 A 
ATOM     64  C   UNL A   1      37.283  34.110  33.894  1.00  0.00     0.029 A 
ATOM     65  N   UNL A   1      38.862  32.552  34.036  1.00  0.00    -0.354 N 
ATOM     66  N   UNL A   1      41.064  31.113  35.334  1.00  0.00    -0.248 NA
ATOM     67  C   UNL A   1      42.633  30.937  37.055  1.00  0.00     0.031 C 
ATOM     68  C   UNL A   1      38.013  34.327  35.066  1.00  0.00     0.029 A 
ATOM     69  C   UNL A   1      38.978  33.339  35.169  1.00  0.00     0.049 A 
ATOM     70  H   UNL A   1      39.427  31.772  33.830  1.00  0.00     0.167 HD
ATOM     71  C   UNL A   1      40.846  32.130  36.259  1.00  0.00     0.074 A 
ATOM     72  C   UNL A   1      41.815  31.948  37.318  1.00  0.00     0.031 C 
ATOM     73  C   UNL A   1      39.938  33.136  36.225  1.00  0.00     0.037 A 
BRANCH  60  74
ATOM     74  C   UNL A   1      36.389  33.180  31.175  1.00  0.00     0.058 A 
ATOM     75  C   UNL A   1      35.039  33.150  31.554  1.00  0.00     0.135 A 
ATOM     76  C   UNL A   1      36.741  33.960  30.059  1.00  0.00     0.135 A 
ATOM     77  F   UNL A   1      34.646  32.404  32.599  1.00  0.00    -0.206 F 
ATOM     78  C   UNL A   1      34.073  33.862  30.852  1.00  0.00     0.059 A 
ATOM     79  C   UNL A   1      35.795  34.701  29.358  1.00  0.00     0.059 A 
ATOM     80  F   UNL A   1      38.018  34.017  29.650  1.00  0.00    -0.206 F 
ATOM     81  C   UNL A   1      34.462  34.641  29.758  1.00  0.00     0.060 A 
BRANCH  81  82
ATOM     82  S   UNL A   1      33.201  35.593  28.886  1.00  0.00     0.124 S 
ATOM     83  O   UNL A   1      34.018  36.538  28.133  1.00  0.00    -0.237 OA
ATOM     84  O   UNL A   1      32.529  34.566  28.094  1.00  0.00    -0.237 OA
ATOM     85  O   UNL A   1      32.405  36.172  29.963  1.00  0.00    -0.744 OA
ENDBRANCH  81  82
ENDBRANCH  60  74
BRANCH  61  86
ATOM     86  C   UNL A   1      43.909  28.573  35.893  1.00  0.00     0.058 A 
ATOM     87  C   UNL A   1      45.234  28.965  35.632  1.00  0.00     0.135 A 
ATOM     88  C   UNL A   1      43.720  27.517  36.799  1.00  0.00     0.135 A 
ATOM     89  F   UNL A   1      45.479  29.961  34.766  1.00  0.00    -0.206 F 
ATOM     90  C   UNL A   1      46.322  28.314  36.208  1.00  0.00     0.059 A 
ATOM     91  C   UNL A   1      44.789  26.878  37.420  1.00  0.00     0.059 A 
ATOM     92  F   UNL A   1      42.479  27.099  37.094  1.00  0.00    -0.206 F 
ATOM     93  C   UNL A   1      46.088  27.268  37.101  1.00  0.00     0.060 A 
BRANCH  93  94
ATOM     94  S   UNL A   1      47.504  26.435  37.855  1.00  0.00     0.124 S 
ATOM     95  O   UNL A   1      47.049  26.271  39.231  1.00  0.00    -0.237 OA
ATOM     96  O   UNL A   1      47.598  25.212  37.062  1.00  0.00    -0.237 OA
ATOM     97  O   UNL A   1      48.594  27.385  37.657  1.00  0.00    -0.744 OA
ENDBRANCH  93  94
ENDBRANCH  61  86
BRANCH  73  98
ATOM     98  C   UNL A   1      39.919  34.096  37.383  1.00  0.00     0.058 A 
ATOM     99  C   UNL A   1      40.632  35.305  37.354  1.00  0.00     0.135 A 
ATOM    100  C   UNL A   1      39.129  33.829  38.513  1.00  0.00     0.135 A 
ATOM    101  F   UNL A   1      41.409  35.609  36.301  1.00  0.00    -0.206 F 
ATOM    102  C   UNL A   1      40.582  36.204  38.416  1.00  0.00     0.059 A 
ATOM    103  C   UNL A   1      39.039  34.727  39.572  1.00  0.00     0.059 A 
ATOM    104  F   UNL A   1      38.419  32.692  38.587  1.00  0.00    -0.206 F 
ATOM    105  C   UNL A   1      39.778  35.907  39.518  1.00  0.00     0.060 A 
BRANCH 105 106
ATOM    106  S   UNL A   1      39.692  37.098  40.873  1.00  0.00     0.124 S 
ATOM    107  O   UNL A   1      39.118  38.262  40.205  1.00  0.00    -0.237 OA
ATOM    108  O   UNL A   1      38.821  36.422  41.829  1.00  0.00    -0.237 OA
ATOM    109  O   UNL A   1      41.083  37.240  41.291  1.00  0.00    -0.744 OA
ENDBRANCH 105 106
ENDBRANCH  73  98
ENDBRANCH  47  48
ENDBRANCH  39  42
ENDBRANCH  37  38
ENDBRANCH  36  37
ENDBRANCH   1  36
TORSDOF 18
ENDMDL
