MODEL 1
REMARK VINA RESULT:     -12.6      0.000      0.000
REMARK SMILES COc1ccc([C@@H]2Nc3c(C(=O)NCCCNC(=O)c4ccc(-c5c6nc(c(-c7c(F)cc(S(=O)(=O)[O-])cc7F)c7ccc([nH]7)c(-c7c(F)cc(S(=O)(=O)[O-])cc7F)c7nc(c(-c8c(F)cc(S(=O)(=O)[O-])cc8F)c8ccc5[nH]8)C=C7)C=C6)cc4)cccc3[C@@H]3[C@H]4CC[C@H](C4)[C@H]32)cc1[N+](=O)[O-]
REMARK SMILES IDX 15 1 14 2 13 3 11 4 12 5 10 7 7 8 8 9 96 10 9 11 90 13 94 14
REMARK SMILES IDX 89 15 91 16 93 17 95 18 86 19 88 20 92 21 87 22 6 23 3 24
REMARK SMILES IDX 4 25 98 26 5 27 97 28 2 29 1 30 99 31 100 32 101 33 16 34
REMARK SMILES IDX 17 35 18 36 19 38 20 39 21 40 85 41 22 42 84 43 23 44 24 45
REMARK SMILES IDX 25 46 78 47 26 48 83 49 77 50 79 51 27 52 82 53 76 54 75 55
REMARK SMILES IDX 28 57 62 58 41 59 61 60 42 61 45 62 60 63 80 64 43 65 44 66
REMARK SMILES IDX 59 68 81 69 46 70 29 71 30 72 39 73 31 74 32 75 38 76 40 77
REMARK SMILES IDX 33 78 34 79 35 80 36 81 37 82 63 83 64 84 73 85 65 86 66 87
REMARK SMILES IDX 72 88 74 89 67 90 68 91 69 92 70 93 71 94 47 95 48 96 57 97
REMARK SMILES IDX 49 98 50 99 56 100 58 101 51 102 52 103 53 104 54 105 55 106
REMARK H PARENT 13 6 8 12 17 37 79 56 45 67
REMARK Flexibility Score: inf
ROOT
ATOM      1  C   UNL A   1      35.722  22.643  26.145  1.00  0.00     0.042 C 
ENDROOT
BRANCH   1   2
ATOM      2  C   UNL A   1      34.677  23.747  26.202  1.00  0.00     0.118 C 
BRANCH   2   3
ATOM      3  N   UNL A   1      33.532  23.461  27.056  1.00  0.00    -0.352 N 
ATOM      4  C   UNL A   1      32.183  23.522  26.798  1.00  0.00     0.253 C 
ATOM      5  O   UNL A   1      31.402  23.183  27.686  1.00  0.00    -0.269 OA
ATOM      6  H   UNL A   1      33.763  23.178  27.970  1.00  0.00     0.163 HD
BRANCH   4   7
ATOM      7  C   UNL A   1      31.646  24.070  25.529  1.00  0.00     0.063 A 
ATOM      8  C   UNL A   1      31.484  27.868  25.896  1.00  0.00     0.114 C 
ATOM      9  N   UNL A   1      31.854  26.463  26.127  1.00  0.00    -0.377 N 
ATOM     10  C   UNL A   1      31.422  28.040  24.384  1.00  0.00     0.027 C 
ATOM     11  C   UNL A   1      31.419  25.432  25.269  1.00  0.00     0.051 A 
ATOM     12  H   UNL A   1      32.421  26.237  26.899  1.00  0.00     0.161 HD
ATOM     13  C   UNL A   1      30.232  27.174  23.943  1.00  0.00     0.030 C 
ATOM     14  C   UNL A   1      31.199  29.341  23.611  1.00  0.00    -0.005 C 
ATOM     15  C   UNL A   1      30.708  25.757  24.067  1.00  0.00    -0.020 A 
ATOM     16  C   UNL A   1      29.741  27.910  22.677  1.00  0.00    -0.003 C 
ATOM     17  C   UNL A   1      29.841  29.988  23.910  1.00  0.00     0.004 C 
ATOM     18  C   UNL A   1      30.956  28.721  22.218  1.00  0.00     0.008 C 
ATOM     19  C   UNL A   1      31.351  23.105  24.545  1.00  0.00     0.016 A 
ATOM     20  C   UNL A   1      30.393  24.786  23.114  1.00  0.00     0.006 A 
ATOM     21  C   UNL A   1      28.843  29.069  23.179  1.00  0.00     0.004 C 
ATOM     22  C   UNL A   1      30.752  23.463  23.338  1.00  0.00     0.001 A 
BRANCH   8  23
ATOM     23  C   UNL A   1      32.440  28.839  26.554  1.00  0.00    -0.018 A 
ATOM     24  C   UNL A   1      34.271  30.799  27.449  1.00  0.00     0.196 A 
ATOM     25  C   UNL A   1      34.674  29.471  27.273  1.00  0.00     0.054 A 
ATOM     26  C   UNL A   1      32.939  31.146  27.206  1.00  0.00     0.311 A 
ATOM     27  C   UNL A   1      33.766  28.497  26.842  1.00  0.00     0.010 A 
ATOM     28  C   UNL A   1      32.026  30.167  26.772  1.00  0.00     0.095 A 
BRANCH  24  29
ATOM     29  O   UNL A   1      35.267  31.689  27.737  1.00  0.00    -0.490 OA
ATOM     30  C   UNL A   1      36.536  31.061  27.905  1.00  0.00     0.278 C 
ENDBRANCH  24  29
BRANCH  26  31
ATOM     31  N   UNL A   1      32.454  32.522  27.343  1.00  0.00     0.066 N 
ATOM     32  O   UNL A   1      31.357  32.785  26.828  1.00  0.00    -0.258 OA
ATOM     33  O   UNL A   1      33.156  33.347  27.942  1.00  0.00    -0.258 OA
ENDBRANCH  26  31
ENDBRANCH   8  23
ENDBRANCH   4   7
ENDBRANCH   2   3
ENDBRANCH   1   2
BRANCH   1  34
ATOM     34  C   UNL A   1      37.089  23.070  25.633  1.00  0.00     0.118 C 
BRANCH  34  35
ATOM     35  N   UNL A   1      38.166  22.150  25.976  1.00  0.00    -0.352 N 
ATOM     36  C   UNL A   1      39.413  22.355  26.526  1.00  0.00     0.251 C 
ATOM     37  H   UNL A   1      37.965  21.207  25.777  1.00  0.00     0.163 HD
ATOM     38  O   UNL A   1      40.195  21.416  26.595  1.00  0.00    -0.269 OA
BRANCH  36  39
ATOM     39  C   UNL A   1      39.832  23.701  26.987  1.00  0.00     0.039 A 
ATOM     40  C   UNL A   1      40.392  23.840  28.261  1.00  0.00     0.014 A 
ATOM     41  C   UNL A   1      39.670  24.826  26.184  1.00  0.00     0.014 A 
ATOM     42  C   UNL A   1      40.886  25.083  28.678  1.00  0.00     0.010 A 
ATOM     43  C   UNL A   1      40.266  26.029  26.548  1.00  0.00     0.010 A 
ATOM     44  C   UNL A   1      40.885  26.176  27.797  1.00  0.00    -0.014 A 
BRANCH  44  45
ATOM     45  C   UNL A   1      41.507  27.486  28.136  1.00  0.00     0.031 A 
ATOM     46  C   UNL A   1      42.989  27.681  27.926  1.00  0.00     0.074 A 
ATOM     47  C   UNL A   1      40.783  28.443  28.754  1.00  0.00     0.049 A 
ATOM     48  N   UNL A   1      43.770  28.628  28.372  1.00  0.00    -0.248 NA
ATOM     49  C   UNL A   1      43.693  26.641  27.155  1.00  0.00     0.031 C 
ATOM     50  C   UNL A   1      39.352  28.365  29.062  1.00  0.00     0.029 A 
ATOM     51  N   UNL A   1      41.160  29.662  29.264  1.00  0.00    -0.354 N 
ATOM     52  C   UNL A   1      45.059  28.269  27.992  1.00  0.00     0.074 A 
ATOM     53  C   UNL A   1      44.959  27.002  27.303  1.00  0.00     0.031 C 
ATOM     54  C   UNL A   1      38.973  29.487  29.694  1.00  0.00     0.029 A 
ATOM     55  C   UNL A   1      40.138  30.344  29.886  1.00  0.00     0.049 A 
ATOM     56  H   UNL A   1      42.076  30.015  29.191  1.00  0.00     0.167 HD
ATOM     57  C   UNL A   1      46.217  28.941  28.185  1.00  0.00     0.037 A 
ATOM     58  C   UNL A   1      40.143  31.512  30.557  1.00  0.00     0.037 A 
ATOM     59  C   UNL A   1      46.296  30.247  28.785  1.00  0.00     0.049 A 
ATOM     60  C   UNL A   1      41.437  32.268  30.706  1.00  0.00     0.074 A 
ATOM     61  C   UNL A   1      47.406  31.062  28.920  1.00  0.00     0.029 A 
ATOM     62  N   UNL A   1      45.224  30.934  29.330  1.00  0.00    -0.354 N 
ATOM     63  N   UNL A   1      42.636  31.939  30.285  1.00  0.00    -0.248 NA
ATOM     64  C   UNL A   1      41.385  33.551  31.422  1.00  0.00     0.031 C 
ATOM     65  C   UNL A   1      47.011  32.231  29.575  1.00  0.00     0.029 A 
ATOM     66  C   UNL A   1      45.648  32.159  29.815  1.00  0.00     0.049 A 
ATOM     67  H   UNL A   1      44.298  30.599  29.367  1.00  0.00     0.167 HD
ATOM     68  C   UNL A   1      43.468  32.990  30.652  1.00  0.00     0.074 A 
ATOM     69  C   UNL A   1      42.640  33.967  31.326  1.00  0.00     0.031 C 
ATOM     70  C   UNL A   1      44.799  33.135  30.448  1.00  0.00     0.037 A 
BRANCH  57  71
ATOM     71  C   UNL A   1      47.498  28.299  27.731  1.00  0.00     0.058 A 
ATOM     72  C   UNL A   1      48.288  27.531  28.599  1.00  0.00     0.135 A 
ATOM     73  C   UNL A   1      47.898  28.391  26.388  1.00  0.00     0.135 A 
ATOM     74  F   UNL A   1      47.960  27.424  29.897  1.00  0.00    -0.206 F 
ATOM     75  C   UNL A   1      49.440  26.889  28.156  1.00  0.00     0.059 A 
ATOM     76  C   UNL A   1      49.032  27.735  25.917  1.00  0.00     0.059 A 
ATOM     77  F   UNL A   1      47.178  29.114  25.516  1.00  0.00    -0.206 F 
ATOM     78  C   UNL A   1      49.801  26.993  26.812  1.00  0.00     0.060 A 
BRANCH  78  79
ATOM     79  S   UNL A   1      51.276  26.120  26.245  1.00  0.00     0.124 S 
ATOM     80  O   UNL A   1      51.053  26.079  24.803  1.00  0.00    -0.237 OA
ATOM     81  O   UNL A   1      52.351  26.998  26.694  1.00  0.00    -0.237 OA
ATOM     82  O   UNL A   1      51.194  24.833  26.930  1.00  0.00    -0.744 OA
ENDBRANCH  78  79
ENDBRANCH  57  71
BRANCH  58  83
ATOM     83  C   UNL A   1      38.886  32.055  31.142  1.00  0.00     0.058 A 
ATOM     84  C   UNL A   1      38.445  31.636  32.406  1.00  0.00     0.135 A 
ATOM     85  C   UNL A   1      38.088  32.973  30.443  1.00  0.00     0.135 A 
ATOM     86  F   UNL A   1      39.171  30.756  33.111  1.00  0.00    -0.206 F 
ATOM     87  C   UNL A   1      37.240  32.078  32.943  1.00  0.00     0.059 A 
ATOM     88  C   UNL A   1      36.891  33.450  30.970  1.00  0.00     0.059 A 
ATOM     89  F   UNL A   1      38.474  33.421  29.237  1.00  0.00    -0.206 F 
ATOM     90  C   UNL A   1      36.466  32.981  32.212  1.00  0.00     0.060 A 
BRANCH  90  91
ATOM     91  S   UNL A   1      34.905  33.555  32.915  1.00  0.00     0.124 S 
ATOM     92  O   UNL A   1      33.944  32.697  32.233  1.00  0.00    -0.237 OA
ATOM     93  O   UNL A   1      35.093  33.298  34.340  1.00  0.00    -0.237 OA
ATOM     94  O   UNL A   1      34.870  34.966  32.541  1.00  0.00    -0.744 OA
ENDBRANCH  90  91
ENDBRANCH  58  83
BRANCH  70  95
ATOM     95  C   UNL A   1      45.442  34.414  30.898  1.00  0.00     0.058 A 
ATOM     96  C   UNL A   1      46.043  34.533  32.160  1.00  0.00     0.135 A 
ATOM     97  C   UNL A   1      45.538  35.503  30.015  1.00  0.00     0.135 A 
ATOM     98  F   UNL A   1      45.970  33.522  33.040  1.00  0.00    -0.206 F 
ATOM     99  C   UNL A   1      46.714  35.692  32.534  1.00  0.00     0.059 A 
ATOM    100  C   UNL A   1      46.224  36.662  30.361  1.00  0.00     0.059 A 
ATOM    101  F   UNL A   1      44.988  35.433  28.793  1.00  0.00    -0.206 F 
ATOM    102  C   UNL A   1      46.806  36.748  31.625  1.00  0.00     0.060 A 
BRANCH 102 103
ATOM    103  S   UNL A   1      47.741  38.219  32.097  1.00  0.00     0.124 S 
ATOM    104  O   UNL A   1      47.510  38.265  33.537  1.00  0.00    -0.237 OA
ATOM    105  O   UNL A   1      49.097  37.874  31.682  1.00  0.00    -0.237 OA
ATOM    106  O   UNL A   1      47.108  39.285  31.324  1.00  0.00    -0.744 OA
ENDBRANCH 102 103
ENDBRANCH  70  95
ENDBRANCH  44  45
ENDBRANCH  36  39
ENDBRANCH  34  35
ENDBRANCH   1  34
TORSDOF 16
ENDMDL
MODEL 2
REMARK VINA RESULT:     -12.6      4.236      9.985
REMARK SMILES COc1ccc([C@@H]2Nc3c(C(=O)NCCCNC(=O)c4ccc(-c5c6nc(c(-c7c(F)cc(S(=O)(=O)[O-])cc7F)c7ccc([nH]7)c(-c7c(F)cc(S(=O)(=O)[O-])cc7F)c7nc(c(-c8c(F)cc(S(=O)(=O)[O-])cc8F)c8ccc5[nH]8)C=C7)C=C6)cc4)cccc3[C@@H]3[C@H]4CC[C@H](C4)[C@H]32)cc1[N+](=O)[O-]
REMARK SMILES IDX 15 1 14 2 13 3 11 4 12 5 10 7 7 8 8 9 96 10 9 11 90 13 94 14
REMARK SMILES IDX 89 15 91 16 93 17 95 18 86 19 88 20 92 21 87 22 6 23 3 24
REMARK SMILES IDX 4 25 98 26 5 27 97 28 2 29 1 30 99 31 100 32 101 33 16 34
REMARK SMILES IDX 17 35 18 36 19 38 20 39 21 40 85 41 22 42 84 43 23 44 24 45
REMARK SMILES IDX 25 46 78 47 26 48 83 49 77 50 79 51 27 52 82 53 76 54 75 55
REMARK SMILES IDX 28 57 62 58 41 59 61 60 42 61 45 62 60 63 80 64 43 65 44 66
REMARK SMILES IDX 59 68 81 69 46 70 29 71 30 72 39 73 31 74 32 75 38 76 40 77
REMARK SMILES IDX 33 78 34 79 35 80 36 81 37 82 63 83 64 84 73 85 65 86 66 87
REMARK SMILES IDX 72 88 74 89 67 90 68 91 69 92 70 93 71 94 47 95 48 96 57 97
REMARK SMILES IDX 49 98 50 99 56 100 58 101 51 102 52 103 53 104 54 105 55 106
REMARK H PARENT 13 6 8 12 17 37 79 56 45 67
REMARK Flexibility Score: inf
ROOT
ATOM      1  C   UNL A   1      33.257  28.933  25.268  1.00  0.00     0.042 C 
ENDROOT
BRANCH   1   2
ATOM      2  C   UNL A   1      33.662  27.526  24.854  1.00  0.00     0.118 C 
BRANCH   2   3
ATOM      3  N   UNL A   1      33.898  27.352  23.428  1.00  0.00    -0.352 N 
ATOM      4  C   UNL A   1      33.433  26.402  22.550  1.00  0.00     0.253 C 
ATOM      5  O   UNL A   1      33.744  26.498  21.364  1.00  0.00    -0.269 OA
ATOM      6  H   UNL A   1      34.489  28.028  23.024  1.00  0.00     0.163 HD
BRANCH   4   7
ATOM      7  C   UNL A   1      32.655  25.223  23.003  1.00  0.00     0.063 A 
ATOM      8  C   UNL A   1      35.155  22.504  23.975  1.00  0.00     0.114 C 
ATOM      9  N   UNL A   1      34.590  23.825  23.659  1.00  0.00    -0.377 N 
ATOM     10  C   UNL A   1      34.095  21.783  24.798  1.00  0.00     0.027 C 
ATOM     11  C   UNL A   1      33.210  24.005  23.432  1.00  0.00     0.051 A 
ATOM     12  H   UNL A   1      35.190  24.603  23.605  1.00  0.00     0.161 HD
ATOM     13  C   UNL A   1      32.929  21.562  23.820  1.00  0.00     0.030 C 
ATOM     14  C   UNL A   1      34.225  20.422  25.484  1.00  0.00    -0.005 C 
ATOM     15  C   UNL A   1      32.305  22.913  23.639  1.00  0.00    -0.020 A 
ATOM     16  C   UNL A   1      32.278  20.273  24.372  1.00  0.00    -0.003 C 
ATOM     17  C   UNL A   1      34.479  19.277  24.495  1.00  0.00     0.004 C 
ATOM     18  C   UNL A   1      32.735  20.217  25.832  1.00  0.00     0.008 C 
ATOM     19  C   UNL A   1      31.256  25.390  22.976  1.00  0.00     0.016 A 
ATOM     20  C   UNL A   1      30.920  23.084  23.577  1.00  0.00     0.006 A 
ATOM     21  C   UNL A   1      33.113  19.098  23.804  1.00  0.00     0.004 C 
ATOM     22  C   UNL A   1      30.396  24.337  23.283  1.00  0.00     0.001 A 
BRANCH   8  23
ATOM     23  C   UNL A   1      36.485  22.594  24.691  1.00  0.00    -0.018 A 
ATOM     24  C   UNL A   1      38.813  22.565  26.294  1.00  0.00     0.196 A 
ATOM     25  C   UNL A   1      38.005  23.705  26.228  1.00  0.00     0.054 A 
ATOM     26  C   UNL A   1      38.475  21.442  25.534  1.00  0.00     0.311 A 
ATOM     27  C   UNL A   1      36.859  23.726  25.425  1.00  0.00     0.010 A 
ATOM     28  C   UNL A   1      37.322  21.463  24.727  1.00  0.00     0.095 A 
BRANCH  24  29
ATOM     29  O   UNL A   1      39.825  22.606  27.212  1.00  0.00    -0.490 OA
ATOM     30  C   UNL A   1      40.010  23.906  27.770  1.00  0.00     0.278 C 
ENDBRANCH  24  29
BRANCH  26  31
ATOM     31  N   UNL A   1      39.260  20.206  25.576  1.00  0.00     0.066 N 
ATOM     32  O   UNL A   1      38.743  19.195  25.077  1.00  0.00    -0.258 OA
ATOM     33  O   UNL A   1      40.375  20.223  26.112  1.00  0.00    -0.258 OA
ENDBRANCH  26  31
ENDBRANCH   8  23
ENDBRANCH   4   7
ENDBRANCH   2   3
ENDBRANCH   1   2
BRANCH   1  34
ATOM     34  C   UNL A   1      33.561  29.296  26.713  1.00  0.00     0.118 C 
BRANCH  34  35
ATOM     35  N   UNL A   1      33.578  30.730  26.974  1.00  0.00    -0.352 N 
ATOM     36  C   UNL A   1      34.460  31.531  27.666  1.00  0.00     0.251 C 
ATOM     37  H   UNL A   1      32.817  31.217  26.582  1.00  0.00     0.163 HD
ATOM     38  O   UNL A   1      34.176  32.706  27.854  1.00  0.00    -0.269 OA
BRANCH  36  39
ATOM     39  C   UNL A   1      35.718  30.977  28.224  1.00  0.00     0.039 A 
ATOM     40  C   UNL A   1      36.884  31.747  28.170  1.00  0.00     0.014 A 
ATOM     41  C   UNL A   1      35.763  29.705  28.788  1.00  0.00     0.014 A 
ATOM     42  C   UNL A   1      38.058  31.286  28.779  1.00  0.00     0.010 A 
ATOM     43  C   UNL A   1      36.890  29.299  29.494  1.00  0.00     0.010 A 
ATOM     44  C   UNL A   1      38.053  30.083  29.503  1.00  0.00    -0.014 A 
BRANCH  44  45
ATOM     45  C   UNL A   1      39.232  29.601  30.275  1.00  0.00     0.031 A 
ATOM     46  C   UNL A   1      39.579  30.259  31.589  1.00  0.00     0.074 A 
ATOM     47  C   UNL A   1      40.064  28.682  29.742  1.00  0.00     0.049 A 
ATOM     48  N   UNL A   1      40.676  30.174  32.293  1.00  0.00    -0.248 NA
ATOM     49  C   UNL A   1      38.575  31.175  32.158  1.00  0.00     0.031 C 
ATOM     50  C   UNL A   1      39.874  28.002  28.458  1.00  0.00     0.029 A 
ATOM     51  N   UNL A   1      41.258  28.181  30.202  1.00  0.00    -0.354 N 
ATOM     52  C   UNL A   1      40.522  31.067  33.347  1.00  0.00     0.074 A 
ATOM     53  C   UNL A   1      39.236  31.706  33.176  1.00  0.00     0.031 C 
ATOM     54  C   UNL A   1      40.905  27.168  28.241  1.00  0.00     0.029 A 
ATOM     55  C   UNL A   1      41.856  27.290  29.340  1.00  0.00     0.049 A 
ATOM     56  H   UNL A   1      41.650  28.436  31.070  1.00  0.00     0.167 HD
ATOM     57  C   UNL A   1      41.367  31.320  34.374  1.00  0.00     0.037 A 
ATOM     58  C   UNL A   1      43.046  26.661  29.412  1.00  0.00     0.037 A 
ATOM     59  C   UNL A   1      42.600  30.610  34.591  1.00  0.00     0.049 A 
ATOM     60  C   UNL A   1      43.941  26.918  30.596  1.00  0.00     0.074 A 
ATOM     61  C   UNL A   1      43.469  30.711  35.662  1.00  0.00     0.029 A 
ATOM     62  N   UNL A   1      43.128  29.660  33.732  1.00  0.00    -0.354 N 
ATOM     63  N   UNL A   1      43.749  27.722  31.615  1.00  0.00    -0.248 NA
ATOM     64  C   UNL A   1      45.216  26.187  30.642  1.00  0.00     0.031 C 
ATOM     65  C   UNL A   1      44.540  29.841  35.438  1.00  0.00     0.029 A 
ATOM     66  C   UNL A   1      44.318  29.174  34.244  1.00  0.00     0.049 A 
ATOM     67  H   UNL A   1      42.717  29.373  32.884  1.00  0.00     0.167 HD
ATOM     68  C   UNL A   1      44.858  27.564  32.438  1.00  0.00     0.074 A 
ATOM     69  C   UNL A   1      45.716  26.588  31.803  1.00  0.00     0.031 C 
ATOM     70  C   UNL A   1      45.140  28.172  33.615  1.00  0.00     0.037 A 
BRANCH  57  71
ATOM     71  C   UNL A   1      40.992  32.391  35.358  1.00  0.00     0.058 A 
ATOM     72  C   UNL A   1      40.133  32.136  36.437  1.00  0.00     0.135 A 
ATOM     73  C   UNL A   1      41.561  33.672  35.261  1.00  0.00     0.135 A 
ATOM     74  F   UNL A   1      39.549  30.933  36.568  1.00  0.00    -0.206 F 
ATOM     75  C   UNL A   1      39.839  33.116  37.379  1.00  0.00     0.059 A 
ATOM     76  C   UNL A   1      41.301  34.660  36.207  1.00  0.00     0.059 A 
ATOM     77  F   UNL A   1      42.388  33.970  34.247  1.00  0.00    -0.206 F 
ATOM     78  C   UNL A   1      40.430  34.374  37.258  1.00  0.00     0.060 A 
BRANCH  78  79
ATOM     79  S   UNL A   1      40.069  35.622  38.511  1.00  0.00     0.124 S 
ATOM     80  O   UNL A   1      38.890  35.052  39.157  1.00  0.00    -0.237 OA
ATOM     81  O   UNL A   1      41.290  35.623  39.311  1.00  0.00    -0.237 OA
ATOM     82  O   UNL A   1      39.834  36.832  37.729  1.00  0.00    -0.744 OA
ENDBRANCH  78  79
ENDBRANCH  57  71
BRANCH  58  83
ATOM     83  C   UNL A   1      43.472  25.722  28.340  1.00  0.00     0.058 A 
ATOM     84  C   UNL A   1      43.315  24.337  28.496  1.00  0.00     0.135 A 
ATOM     85  C   UNL A   1      44.071  26.182  27.156  1.00  0.00     0.135 A 
ATOM     86  F   UNL A   1      42.752  23.848  29.611  1.00  0.00    -0.206 F 
ATOM     87  C   UNL A   1      43.767  23.437  27.536  1.00  0.00     0.059 A 
ATOM     88  C   UNL A   1      44.509  25.302  26.170  1.00  0.00     0.059 A 
ATOM     89  F   UNL A   1      44.228  27.499  26.948  1.00  0.00    -0.206 F 
ATOM     90  C   UNL A   1      44.370  23.931  26.378  1.00  0.00     0.060 A 
BRANCH  90  91
ATOM     91  S   UNL A   1      44.953  22.759  25.133  1.00  0.00     0.124 S 
ATOM     92  O   UNL A   1      46.048  22.105  25.838  1.00  0.00    -0.237 OA
ATOM     93  O   UNL A   1      43.766  21.943  24.897  1.00  0.00    -0.237 OA
ATOM     94  O   UNL A   1      45.342  23.620  24.021  1.00  0.00    -0.744 OA
ENDBRANCH  90  91
ENDBRANCH  58  83
BRANCH  70  95
ATOM     95  C   UNL A   1      46.393  27.762  34.333  1.00  0.00     0.058 A 
ATOM     96  C   UNL A   1      46.416  26.665  35.207  1.00  0.00     0.135 A 
ATOM     97  C   UNL A   1      47.604  28.421  34.067  1.00  0.00     0.135 A 
ATOM     98  F   UNL A   1      45.281  26.010  35.497  1.00  0.00    -0.206 F 
ATOM     99  C   UNL A   1      47.599  26.238  35.798  1.00  0.00     0.059 A 
ATOM    100  C   UNL A   1      48.803  27.996  34.631  1.00  0.00     0.059 A 
ATOM    101  F   UNL A   1      47.634  29.470  33.230  1.00  0.00    -0.206 F 
ATOM    102  C   UNL A   1      48.789  26.904  35.498  1.00  0.00     0.060 A 
BRANCH 102 103
ATOM    103  S   UNL A   1      50.330  26.296  36.217  1.00  0.00     0.124 S 
ATOM    104  O   UNL A   1      49.929  24.979  36.699  1.00  0.00    -0.237 OA
ATOM    105  O   UNL A   1      51.233  26.306  35.071  1.00  0.00    -0.237 OA
ATOM    106  O   UNL A   1      50.632  27.280  37.253  1.00  0.00    -0.744 OA
ENDBRANCH 102 103
ENDBRANCH  70  95
ENDBRANCH  44  45
ENDBRANCH  36  39
ENDBRANCH  34  35
ENDBRANCH   1  34
TORSDOF 16
ENDMDL
MODEL 3
REMARK VINA RESULT:     -12.5      5.217      8.469
REMARK SMILES COc1ccc([C@@H]2Nc3c(C(=O)NCCCNC(=O)c4ccc(-c5c6nc(c(-c7c(F)cc(S(=O)(=O)[O-])cc7F)c7ccc([nH]7)c(-c7c(F)cc(S(=O)(=O)[O-])cc7F)c7nc(c(-c8c(F)cc(S(=O)(=O)[O-])cc8F)c8ccc5[nH]8)C=C7)C=C6)cc4)cccc3[C@@H]3[C@H]4CC[C@H](C4)[C@H]32)cc1[N+](=O)[O-]
REMARK SMILES IDX 15 1 14 2 13 3 11 4 12 5 10 7 7 8 8 9 96 10 9 11 90 13 94 14
REMARK SMILES IDX 89 15 91 16 93 17 95 18 86 19 88 20 92 21 87 22 6 23 3 24
REMARK SMILES IDX 4 25 98 26 5 27 97 28 2 29 1 30 99 31 100 32 101 33 16 34
REMARK SMILES IDX 17 35 18 36 19 38 20 39 21 40 85 41 22 42 84 43 23 44 24 45
REMARK SMILES IDX 25 46 78 47 26 48 83 49 77 50 79 51 27 52 82 53 76 54 75 55
REMARK SMILES IDX 28 57 62 58 41 59 61 60 42 61 45 62 60 63 80 64 43 65 44 66
REMARK SMILES IDX 59 68 81 69 46 70 29 71 30 72 39 73 31 74 32 75 38 76 40 77
REMARK SMILES IDX 33 78 34 79 35 80 36 81 37 82 63 83 64 84 73 85 65 86 66 87
REMARK SMILES IDX 72 88 74 89 67 90 68 91 69 92 70 93 71 94 47 95 48 96 57 97
REMARK SMILES IDX 49 98 50 99 56 100 58 101 51 102 52 103 53 104 54 105 55 106
REMARK H PARENT 13 6 8 12 17 37 79 56 45 67
REMARK Flexibility Score: inf
ROOT
ATOM      1  C   UNL A   1      43.020  21.892  26.962  1.00  0.00     0.042 C 
ENDROOT
BRANCH   1   2
ATOM      2  C   UNL A   1      41.732  21.417  27.618  1.00  0.00     0.118 C 
BRANCH   2   3
ATOM      3  N   UNL A   1      40.965  20.458  26.835  1.00  0.00    -0.352 N 
ATOM      4  C   UNL A   1      39.807  20.613  26.111  1.00  0.00     0.253 C 
ATOM      5  O   UNL A   1      39.371  19.644  25.489  1.00  0.00    -0.269 OA
ATOM      6  H   UNL A   1      41.337  19.547  26.823  1.00  0.00     0.163 HD
BRANCH   4   7
ATOM      7  C   UNL A   1      39.023  21.872  26.135  1.00  0.00     0.063 A 
ATOM      8  C   UNL A   1      35.529  21.074  24.816  1.00  0.00     0.114 C 
ATOM      9  N   UNL A   1      36.874  20.899  25.384  1.00  0.00    -0.377 N 
ATOM     10  C   UNL A   1      34.968  22.339  25.453  1.00  0.00     0.027 C 
ATOM     11  C   UNL A   1      37.690  22.002  25.712  1.00  0.00     0.051 A 
ATOM     12  H   UNL A   1      37.214  19.989  25.541  1.00  0.00     0.161 HD
ATOM     13  C   UNL A   1      35.849  23.473  24.906  1.00  0.00     0.030 C 
ATOM     14  C   UNL A   1      33.554  22.903  25.299  1.00  0.00    -0.005 C 
ATOM     15  C   UNL A   1      37.161  23.332  25.618  1.00  0.00    -0.020 A 
ATOM     16  C   UNL A   1      34.880  24.676  24.918  1.00  0.00    -0.003 C 
ATOM     17  C   UNL A   1      33.218  23.280  23.851  1.00  0.00     0.004 C 
ATOM     18  C   UNL A   1      33.807  24.286  25.938  1.00  0.00     0.008 C 
ATOM     19  C   UNL A   1      39.721  22.995  26.624  1.00  0.00     0.016 A 
ATOM     20  C   UNL A   1      37.877  24.440  26.077  1.00  0.00     0.006 A 
ATOM     21  C   UNL A   1      34.043  24.561  23.618  1.00  0.00     0.004 C 
ATOM     22  C   UNL A   1      39.144  24.263  26.617  1.00  0.00     0.001 A 
BRANCH   8  23
ATOM     23  C   UNL A   1      34.641  19.869  25.034  1.00  0.00    -0.018 A 
ATOM     24  C   UNL A   1      32.883  17.655  25.091  1.00  0.00     0.196 A 
ATOM     25  C   UNL A   1      32.509  18.879  25.655  1.00  0.00     0.054 A 
ATOM     26  C   UNL A   1      34.153  17.525  24.521  1.00  0.00     0.311 A 
ATOM     27  C   UNL A   1      33.383  19.973  25.640  1.00  0.00     0.010 A 
ATOM     28  C   UNL A   1      35.031  18.625  24.505  1.00  0.00     0.095 A 
BRANCH  24  29
ATOM     29  O   UNL A   1      31.906  16.701  25.038  1.00  0.00    -0.490 OA
ATOM     30  C   UNL A   1      32.102  15.658  25.991  1.00  0.00     0.278 C 
ENDBRANCH  24  29
BRANCH  26  31
ATOM     31  N   UNL A   1      34.601  16.281  23.889  1.00  0.00     0.066 N 
ATOM     32  O   UNL A   1      34.348  16.141  22.683  1.00  0.00    -0.258 OA
ATOM     33  O   UNL A   1      35.187  15.437  24.579  1.00  0.00    -0.258 OA
ENDBRANCH  26  31
ENDBRANCH   8  23
ENDBRANCH   4   7
ENDBRANCH   2   3
ENDBRANCH   1   2
BRANCH   1  34
ATOM     34  C   UNL A   1      43.357  23.358  27.181  1.00  0.00     0.118 C 
BRANCH  34  35
ATOM     35  N   UNL A   1      43.038  24.216  26.046  1.00  0.00    -0.352 N 
ATOM     36  C   UNL A   1      42.617  25.527  25.972  1.00  0.00     0.251 C 
ATOM     37  H   UNL A   1      43.142  23.778  25.171  1.00  0.00     0.163 HD
ATOM     38  O   UNL A   1      42.285  25.985  24.887  1.00  0.00    -0.269 OA
BRANCH  36  39
ATOM     39  C   UNL A   1      42.516  26.366  27.190  1.00  0.00     0.039 A 
ATOM     40  C   UNL A   1      43.289  27.528  27.283  1.00  0.00     0.014 A 
ATOM     41  C   UNL A   1      41.677  26.017  28.245  1.00  0.00     0.014 A 
ATOM     42  C   UNL A   1      43.135  28.387  28.378  1.00  0.00     0.010 A 
ATOM     43  C   UNL A   1      41.436  26.925  29.270  1.00  0.00     0.010 A 
ATOM     44  C   UNL A   1      42.159  28.124  29.351  1.00  0.00    -0.014 A 
BRANCH  44  45
ATOM     45  C   UNL A   1      41.862  29.061  30.471  1.00  0.00     0.031 A 
ATOM     46  C   UNL A   1      42.662  28.970  31.747  1.00  0.00     0.074 A 
ATOM     47  C   UNL A   1      40.800  29.890  30.399  1.00  0.00     0.049 A 
ATOM     48  N   UNL A   1      42.420  29.503  32.916  1.00  0.00    -0.248 NA
ATOM     49  C   UNL A   1      43.867  28.122  31.718  1.00  0.00     0.031 C 
ATOM     50  C   UNL A   1      39.913  30.043  29.243  1.00  0.00     0.029 A 
ATOM     51  N   UNL A   1      40.264  30.742  31.335  1.00  0.00    -0.354 N 
ATOM     52  C   UNL A   1      43.399  29.009  33.770  1.00  0.00     0.074 A 
ATOM     53  C   UNL A   1      44.223  28.110  32.994  1.00  0.00     0.031 C 
ATOM     54  C   UNL A   1      38.956  30.939  29.533  1.00  0.00     0.029 A 
ATOM     55  C   UNL A   1      39.124  31.387  30.911  1.00  0.00     0.049 A 
ATOM     56  H   UNL A   1      40.660  30.879  32.227  1.00  0.00     0.167 HD
ATOM     57  C   UNL A   1      43.603  29.290  35.078  1.00  0.00     0.037 A 
ATOM     58  C   UNL A   1      38.294  32.224  31.564  1.00  0.00     0.037 A 
ATOM     59  C   UNL A   1      42.838  30.259  35.818  1.00  0.00     0.049 A 
ATOM     60  C   UNL A   1      38.579  32.565  33.004  1.00  0.00     0.074 A 
ATOM     61  C   UNL A   1      43.041  30.701  37.114  1.00  0.00     0.029 A 
ATOM     62  N   UNL A   1      41.741  30.946  35.325  1.00  0.00    -0.354 N 
ATOM     63  N   UNL A   1      39.547  32.133  33.776  1.00  0.00    -0.248 NA
ATOM     64  C   UNL A   1      37.660  33.504  33.663  1.00  0.00     0.031 C 
ATOM     65  C   UNL A   1      42.046  31.635  37.415  1.00  0.00     0.029 A 
ATOM     66  C   UNL A   1      41.247  31.801  36.295  1.00  0.00     0.049 A 
ATOM     67  H   UNL A   1      41.369  30.841  34.419  1.00  0.00     0.167 HD
ATOM     68  C   UNL A   1      39.374  32.776  34.996  1.00  0.00     0.074 A 
ATOM     69  C   UNL A   1      38.212  33.628  34.862  1.00  0.00     0.031 C 
ATOM     70  C   UNL A   1      40.112  32.671  36.128  1.00  0.00     0.037 A 
BRANCH  57  71
ATOM     71  C   UNL A   1      44.703  28.564  35.800  1.00  0.00     0.058 A 
ATOM     72  C   UNL A   1      44.476  27.350  36.465  1.00  0.00     0.135 A 
ATOM     73  C   UNL A   1      46.019  29.054  35.760  1.00  0.00     0.135 A 
ATOM     74  F   UNL A   1      43.234  26.845  36.547  1.00  0.00    -0.206 F 
ATOM     75  C   UNL A   1      45.511  26.653  37.078  1.00  0.00     0.059 A 
ATOM     76  C   UNL A   1      47.075  28.360  36.344  1.00  0.00     0.059 A 
ATOM     77  F   UNL A   1      46.290  30.212  35.138  1.00  0.00    -0.206 F 
ATOM     78  C   UNL A   1      46.808  27.164  37.009  1.00  0.00     0.060 A 
BRANCH  78  79
ATOM     79  S   UNL A   1      48.147  26.226  37.775  1.00  0.00     0.124 S 
ATOM     80  O   UNL A   1      47.652  24.859  37.650  1.00  0.00    -0.237 OA
ATOM     81  O   UNL A   1      49.289  26.566  36.932  1.00  0.00    -0.237 OA
ATOM     82  O   UNL A   1      48.197  26.754  39.136  1.00  0.00    -0.744 OA
ENDBRANCH  78  79
ENDBRANCH  57  71
BRANCH  58  83
ATOM     83  C   UNL A   1      37.112  32.808  30.875  1.00  0.00     0.058 A 
ATOM     84  C   UNL A   1      35.838  32.243  31.033  1.00  0.00     0.135 A 
ATOM     85  C   UNL A   1      37.233  33.918  30.024  1.00  0.00     0.135 A 
ATOM     86  F   UNL A   1      35.672  31.178  31.832  1.00  0.00    -0.206 F 
ATOM     87  C   UNL A   1      34.731  32.731  30.346  1.00  0.00     0.059 A 
ATOM     88  C   UNL A   1      36.135  34.441  29.345  1.00  0.00     0.059 A 
ATOM     89  F   UNL A   1      38.426  34.509  29.852  1.00  0.00    -0.206 F 
ATOM     90  C   UNL A   1      34.893  33.827  29.497  1.00  0.00     0.060 A 
BRANCH  90  91
ATOM     91  S   UNL A   1      33.452  34.460  28.610  1.00  0.00     0.124 S 
ATOM     92  O   UNL A   1      33.096  33.317  27.779  1.00  0.00    -0.237 OA
ATOM     93  O   UNL A   1      32.530  34.771  29.699  1.00  0.00    -0.237 OA
ATOM     94  O   UNL A   1      33.981  35.620  27.898  1.00  0.00    -0.744 OA
ENDBRANCH  90  91
ENDBRANCH  58  83
BRANCH  70  95
ATOM     95  C   UNL A   1      39.735  33.538  37.294  1.00  0.00     0.058 A 
ATOM     96  C   UNL A   1      38.819  33.107  38.265  1.00  0.00     0.135 A 
ATOM     97  C   UNL A   1      40.370  34.776  37.486  1.00  0.00     0.135 A 
ATOM     98  F   UNL A   1      38.182  31.935  38.120  1.00  0.00    -0.206 F 
ATOM     99  C   UNL A   1      38.542  33.878  39.389  1.00  0.00     0.059 A 
ATOM    100  C   UNL A   1      40.124  35.552  38.614  1.00  0.00     0.059 A 
ATOM    101  F   UNL A   1      41.260  35.226  36.588  1.00  0.00    -0.206 F 
ATOM    102  C   UNL A   1      39.205  35.095  39.558  1.00  0.00     0.060 A 
BRANCH 102 103
ATOM    103  S   UNL A   1      38.890  36.054  41.056  1.00  0.00     0.124 S 
ATOM    104  O   UNL A   1      40.121  35.838  41.808  1.00  0.00    -0.237 OA
ATOM    105  O   UNL A   1      38.695  37.401  40.528  1.00  0.00    -0.237 OA
ATOM    106  O   UNL A   1      37.694  35.428  41.614  1.00  0.00    -0.744 OA
ENDBRANCH 102 103
ENDBRANCH  70  95
ENDBRANCH  44  45
ENDBRANCH  36  39
ENDBRANCH  34  35
ENDBRANCH   1  34
TORSDOF 16
ENDMDL
