MODEL 1
REMARK VINA RESULT:     -12.9      0.000      0.000
REMARK SMILES [H]/N=C1\C=CC2=NC(C(=O)NCCCNC(=O)c3ccc(-c4c5nc(c(-c6c(F)cc(S(=O)(=O)[O-])cc6F)c6ccc([nH]6)c(-c6c(F)cc(S(=O)(=O)[O-])cc6F)c6nc(c(-c7c(F)cc(S(=O)(=O)[O-])cc7F)c7ccc4[nH]7)C=C6)C=C5)cc3)=C[C@@H]2C1
REMARK SMILES IDX 15 1 16 2 17 3 14 5 13 6 12 7 11 8 9 9 10 10 8 12 2 13 3 14
REMARK SMILES IDX 1 15 4 16 86 17 5 18 85 19 6 20 84 21 7 22 18 23 19 24 83 25
REMARK SMILES IDX 20 26 82 27 21 28 22 29 23 30 76 31 24 32 81 33 75 34 77 35
REMARK SMILES IDX 25 36 80 37 74 38 73 39 26 41 60 42 39 43 59 44 40 45 43 46
REMARK SMILES IDX 58 47 78 48 41 49 42 50 57 52 79 53 44 54 27 55 28 56 37 57
REMARK SMILES IDX 29 58 30 59 36 60 38 61 31 62 32 63 33 64 34 65 35 66 61 67
REMARK SMILES IDX 62 68 71 69 63 70 64 71 70 72 72 73 65 74 66 75 67 76 68 77
REMARK SMILES IDX 69 78 45 79 46 80 55 81 47 82 48 83 54 84 56 85 49 86 50 87
REMARK SMILES IDX 51 88 52 89 53 90
REMARK H PARENT 15 4 11 11 77 40 43 51
REMARK Flexibility Score: inf
ROOT
ATOM      1  N   UNL A   1      41.314  22.284  26.502  1.00  0.00    -0.352 N 
ATOM      2  C   UNL A   1      42.241  23.204  26.020  1.00  0.00     0.251 C 
ATOM      3  O   UNL A   1      43.157  22.851  25.296  1.00  0.00    -0.269 OA
ATOM      4  H   UNL A   1      41.584  21.339  26.464  1.00  0.00     0.163 HD
ENDROOT
BRANCH   1   5
ATOM      5  C   UNL A   1      39.982  22.553  27.061  1.00  0.00     0.118 C 
BRANCH   5   6
ATOM      6  C   UNL A   1      38.840  22.141  26.143  1.00  0.00     0.042 C 
BRANCH   6   7
ATOM      7  C   UNL A   1      37.921  23.326  25.822  1.00  0.00     0.118 C 
BRANCH   7   8
ATOM      8  N   UNL A   1      37.505  23.309  24.429  1.00  0.00    -0.351 N 
ATOM      9  C   UNL A   1      36.323  23.089  23.793  1.00  0.00     0.269 C 
ATOM     10  O   UNL A   1      36.348  23.104  22.561  1.00  0.00    -0.268 OA
ATOM     11  H   UNL A   1      38.244  23.498  23.807  1.00  0.00     0.163 HD
BRANCH   9  12
ATOM     12  C   UNL A   1      35.015  22.948  24.525  1.00  0.00     0.125 C 
ATOM     13  N   UNL A   1      29.640  22.158  26.574  1.00  0.00    -0.305 NA
ATOM     14  C   UNL A   1      30.777  22.659  26.211  1.00  0.00     0.032 C 
ATOM     15  H   UNL A   1      29.004  22.706  27.089  1.00  0.00     0.187 HD
ATOM     16  C   UNL A   1      31.140  24.069  26.511  1.00  0.00     0.025 C 
ATOM     17  C   UNL A   1      31.734  21.783  25.418  1.00  0.00     0.069 C 
ATOM     18  C   UNL A   1      32.354  24.556  26.237  1.00  0.00     0.026 C 
ATOM     19  C   UNL A   1      33.165  22.179  25.681  1.00  0.00     0.069 C 
ATOM     20  C   UNL A   1      33.363  23.668  25.654  1.00  0.00     0.049 C 
ATOM     21  C   UNL A   1      34.230  21.868  24.678  1.00  0.00     0.017 C 
ATOM     22  N   UNL A   1      34.460  24.075  25.109  1.00  0.00    -0.247 NA
ENDBRANCH   9  12
ENDBRANCH   7   8
ENDBRANCH   6   7
ENDBRANCH   5   6
ENDBRANCH   1   5
BRANCH   2  23
ATOM     23  C   UNL A   1      42.084  24.617  26.418  1.00  0.00     0.039 A 
ATOM     24  C   UNL A   1      41.214  25.502  25.779  1.00  0.00     0.014 A 
ATOM     25  C   UNL A   1      42.808  25.023  27.529  1.00  0.00     0.014 A 
ATOM     26  C   UNL A   1      41.036  26.772  26.332  1.00  0.00     0.010 A 
ATOM     27  C   UNL A   1      42.416  26.133  28.214  1.00  0.00     0.010 A 
ATOM     28  C   UNL A   1      41.634  27.072  27.567  1.00  0.00    -0.014 A 
BRANCH  28  29
ATOM     29  C   UNL A   1      41.447  28.347  28.248  1.00  0.00     0.031 A 
ATOM     30  C   UNL A   1      42.505  29.358  27.978  1.00  0.00     0.074 A 
ATOM     31  C   UNL A   1      40.298  28.662  28.893  1.00  0.00     0.049 A 
ATOM     32  N   UNL A   1      43.385  29.819  28.802  1.00  0.00    -0.248 NA
ATOM     33  C   UNL A   1      42.704  29.798  26.588  1.00  0.00     0.031 C 
ATOM     34  C   UNL A   1      39.035  27.910  28.980  1.00  0.00     0.029 A 
ATOM     35  N   UNL A   1      39.989  29.806  29.554  1.00  0.00    -0.354 N 
ATOM     36  C   UNL A   1      44.116  30.770  28.094  1.00  0.00     0.074 A 
ATOM     37  C   UNL A   1      43.775  30.586  26.707  1.00  0.00     0.031 C 
ATOM     38  C   UNL A   1      38.047  28.714  29.434  1.00  0.00     0.029 A 
ATOM     39  C   UNL A   1      38.641  29.963  29.864  1.00  0.00     0.049 A 
ATOM     40  H   UNL A   1      40.668  30.476  29.798  1.00  0.00     0.167 HD
ATOM     41  C   UNL A   1      44.791  31.768  28.731  1.00  0.00     0.037 A 
ATOM     42  C   UNL A   1      38.062  31.050  30.434  1.00  0.00     0.037 A 
ATOM     43  C   UNL A   1      44.927  31.484  30.138  1.00  0.00     0.049 A 
ATOM     44  C   UNL A   1      39.156  31.803  31.103  1.00  0.00     0.074 A 
ATOM     45  C   UNL A   1      45.545  30.480  30.859  1.00  0.00     0.029 A 
ATOM     46  N   UNL A   1      44.018  32.053  31.000  1.00  0.00    -0.354 N 
ATOM     47  N   UNL A   1      39.840  31.337  32.115  1.00  0.00    -0.248 NA
ATOM     48  C   UNL A   1      39.818  32.841  30.330  1.00  0.00     0.031 C 
ATOM     49  C   UNL A   1      44.633  30.169  31.911  1.00  0.00     0.029 A 
ATOM     50  C   UNL A   1      43.557  31.055  31.827  1.00  0.00     0.049 A 
ATOM     51  H   UNL A   1      43.747  32.999  31.021  1.00  0.00     0.167 HD
ATOM     52  C   UNL A   1      41.154  31.711  31.867  1.00  0.00     0.074 A 
ATOM     53  C   UNL A   1      41.067  32.688  30.781  1.00  0.00     0.031 C 
ATOM     54  C   UNL A   1      42.209  30.994  32.358  1.00  0.00     0.037 A 
BRANCH  41  55
ATOM     55  C   UNL A   1      45.055  33.135  28.149  1.00  0.00     0.058 A 
ATOM     56  C   UNL A   1      46.377  33.533  27.866  1.00  0.00     0.135 A 
ATOM     57  C   UNL A   1      44.085  34.161  28.093  1.00  0.00     0.135 A 
ATOM     58  F   UNL A   1      47.382  32.644  27.903  1.00  0.00    -0.206 F 
ATOM     59  C   UNL A   1      46.717  34.861  27.599  1.00  0.00     0.059 A 
ATOM     60  C   UNL A   1      44.393  35.479  27.777  1.00  0.00     0.059 A 
ATOM     61  F   UNL A   1      42.808  33.953  28.435  1.00  0.00    -0.206 F 
ATOM     62  C   UNL A   1      45.718  35.829  27.568  1.00  0.00     0.060 A 
BRANCH  62  63
ATOM     63  S   UNL A   1      46.164  37.556  27.311  1.00  0.00     0.124 S 
ATOM     64  O   UNL A   1      44.853  38.185  27.213  1.00  0.00    -0.237 OA
ATOM     65  O   UNL A   1      46.928  37.852  28.519  1.00  0.00    -0.237 OA
ATOM     66  O   UNL A   1      46.942  37.522  26.077  1.00  0.00    -0.744 OA
ENDBRANCH  62  63
ENDBRANCH  41  55
BRANCH  42  67
ATOM     67  C   UNL A   1      36.748  31.662  30.095  1.00  0.00     0.058 A 
ATOM     68  C   UNL A   1      35.979  32.328  31.066  1.00  0.00     0.135 A 
ATOM     69  C   UNL A   1      36.361  31.862  28.754  1.00  0.00     0.135 A 
ATOM     70  F   UNL A   1      36.290  32.212  32.366  1.00  0.00    -0.206 F 
ATOM     71  C   UNL A   1      34.921  33.182  30.725  1.00  0.00     0.059 A 
ATOM     72  C   UNL A   1      35.308  32.704  28.390  1.00  0.00     0.059 A 
ATOM     73  F   UNL A   1      37.060  31.315  27.747  1.00  0.00    -0.206 F 
ATOM     74  C   UNL A   1      34.608  33.382  29.381  1.00  0.00     0.060 A 
BRANCH  74  75
ATOM     75  S   UNL A   1      33.364  34.619  28.930  1.00  0.00     0.124 S 
ATOM     76  O   UNL A   1      32.586  33.912  27.919  1.00  0.00    -0.237 OA
ATOM     77  O   UNL A   1      32.689  34.856  30.202  1.00  0.00    -0.237 OA
ATOM     78  O   UNL A   1      34.161  35.738  28.435  1.00  0.00    -0.744 OA
ENDBRANCH  74  75
ENDBRANCH  42  67
BRANCH  54  79
ATOM     79  C   UNL A   1      41.936  29.913  33.379  1.00  0.00     0.058 A 
ATOM     80  C   UNL A   1      41.712  28.557  33.073  1.00  0.00     0.135 A 
ATOM     81  C   UNL A   1      42.082  30.237  34.736  1.00  0.00     0.135 A 
ATOM     82  F   UNL A   1      41.654  28.137  31.803  1.00  0.00    -0.206 F 
ATOM     83  C   UNL A   1      41.611  27.578  34.068  1.00  0.00     0.059 A 
ATOM     84  C   UNL A   1      42.015  29.275  35.743  1.00  0.00     0.059 A 
ATOM     85  F   UNL A   1      42.356  31.502  35.097  1.00  0.00    -0.206 F 
ATOM     86  C   UNL A   1      41.769  27.948  35.402  1.00  0.00     0.060 A 
BRANCH  86  87
ATOM     87  S   UNL A   1      41.718  26.676  36.686  1.00  0.00     0.124 S 
ATOM     88  O   UNL A   1      40.502  27.022  37.415  1.00  0.00    -0.237 OA
ATOM     89  O   UNL A   1      41.661  25.441  35.910  1.00  0.00    -0.237 OA
ATOM     90  O   UNL A   1      42.964  26.883  37.420  1.00  0.00    -0.744 OA
ENDBRANCH  86  87
ENDBRANCH  54  79
ENDBRANCH  28  29
ENDBRANCH   2  23
TORSDOF 13
ENDMDL
MODEL 2
REMARK VINA RESULT:     -12.8      3.304      5.715
REMARK SMILES [H]/N=C1\C=CC2=NC(C(=O)NCCCNC(=O)c3ccc(-c4c5nc(c(-c6c(F)cc(S(=O)(=O)[O-])cc6F)c6ccc([nH]6)c(-c6c(F)cc(S(=O)(=O)[O-])cc6F)c6nc(c(-c7c(F)cc(S(=O)(=O)[O-])cc7F)c7ccc4[nH]7)C=C6)C=C5)cc3)=C[C@@H]2C1
REMARK SMILES IDX 15 1 16 2 17 3 14 5 13 6 12 7 11 8 9 9 10 10 8 12 2 13 3 14
REMARK SMILES IDX 1 15 4 16 86 17 5 18 85 19 6 20 84 21 7 22 18 23 19 24 83 25
REMARK SMILES IDX 20 26 82 27 21 28 22 29 23 30 76 31 24 32 81 33 75 34 77 35
REMARK SMILES IDX 25 36 80 37 74 38 73 39 26 41 60 42 39 43 59 44 40 45 43 46
REMARK SMILES IDX 58 47 78 48 41 49 42 50 57 52 79 53 44 54 27 55 28 56 37 57
REMARK SMILES IDX 29 58 30 59 36 60 38 61 31 62 32 63 33 64 34 65 35 66 61 67
REMARK SMILES IDX 62 68 71 69 63 70 64 71 70 72 72 73 65 74 66 75 67 76 68 77
REMARK SMILES IDX 69 78 45 79 46 80 55 81 47 82 48 83 54 84 56 85 49 86 50 87
REMARK SMILES IDX 51 88 52 89 53 90
REMARK H PARENT 15 4 11 11 77 40 43 51
REMARK Flexibility Score: inf
ROOT
ATOM      1  N   UNL A   1      41.467  22.288  25.756  1.00  0.00    -0.352 N 
ATOM      2  C   UNL A   1      40.627  22.764  26.758  1.00  0.00     0.251 C 
ATOM      3  O   UNL A   1      39.784  22.042  27.266  1.00  0.00    -0.269 OA
ATOM      4  H   UNL A   1      41.174  21.466  25.302  1.00  0.00     0.163 HD
ENDROOT
BRANCH   1   5
ATOM      5  C   UNL A   1      42.739  22.863  25.295  1.00  0.00     0.118 C 
BRANCH   5   6
ATOM      6  C   UNL A   1      43.822  21.824  25.038  1.00  0.00     0.042 C 
BRANCH   6   7
ATOM      7  C   UNL A   1      45.125  22.178  25.763  1.00  0.00     0.118 C 
BRANCH   7   8
ATOM      8  N   UNL A   1      44.907  22.345  27.191  1.00  0.00    -0.351 N 
ATOM      9  C   UNL A   1      45.016  23.392  28.052  1.00  0.00     0.269 C 
ATOM     10  O   UNL A   1      44.793  23.153  29.241  1.00  0.00    -0.268 OA
ATOM     11  H   UNL A   1      44.616  21.515  27.633  1.00  0.00     0.163 HD
BRANCH   9  12
ATOM     12  C   UNL A   1      45.275  24.803  27.596  1.00  0.00     0.125 C 
ATOM     13  N   UNL A   1      46.422  29.891  25.048  1.00  0.00    -0.305 NA
ATOM     14  C   UNL A   1      46.445  28.839  25.800  1.00  0.00     0.032 C 
ATOM     15  H   UNL A   1      47.030  30.643  25.236  1.00  0.00     0.187 HD
ATOM     16  C   UNL A   1      47.403  28.706  26.928  1.00  0.00     0.025 C 
ATOM     17  C   UNL A   1      45.492  27.699  25.478  1.00  0.00     0.069 C 
ATOM     18  C   UNL A   1      47.355  27.673  27.775  1.00  0.00     0.026 C 
ATOM     19  C   UNL A   1      45.121  26.941  26.729  1.00  0.00     0.069 C 
ATOM     20  C   UNL A   1      46.311  26.659  27.603  1.00  0.00     0.049 C 
ATOM     21  C   UNL A   1      44.660  25.521  26.642  1.00  0.00     0.017 C 
ATOM     22  N   UNL A   1      46.321  25.502  28.174  1.00  0.00    -0.247 NA
ENDBRANCH   9  12
ENDBRANCH   7   8
ENDBRANCH   6   7
ENDBRANCH   5   6
ENDBRANCH   1   5
BRANCH   2  23
ATOM     23  C   UNL A   1      40.784  24.169  27.182  1.00  0.00     0.039 A 
ATOM     24  C   UNL A   1      40.048  25.223  26.636  1.00  0.00     0.014 A 
ATOM     25  C   UNL A   1      41.670  24.397  28.224  1.00  0.00     0.014 A 
ATOM     26  C   UNL A   1      40.172  26.488  27.215  1.00  0.00     0.010 A 
ATOM     27  C   UNL A   1      41.566  25.543  28.953  1.00  0.00     0.010 A 
ATOM     28  C   UNL A   1      40.926  26.633  28.392  1.00  0.00    -0.014 A 
BRANCH  28  29
ATOM     29  C   UNL A   1      41.053  27.901  29.099  1.00  0.00     0.031 A 
ATOM     30  C   UNL A   1      42.119  28.799  28.580  1.00  0.00     0.074 A 
ATOM     31  C   UNL A   1      40.137  28.319  30.005  1.00  0.00     0.049 A 
ATOM     32  N   UNL A   1      43.219  29.139  29.164  1.00  0.00    -0.248 NA
ATOM     33  C   UNL A   1      42.023  29.254  27.184  1.00  0.00     0.031 C 
ATOM     34  C   UNL A   1      38.857  27.705  30.397  1.00  0.00     0.029 A 
ATOM     35  N   UNL A   1      40.127  29.471  30.723  1.00  0.00    -0.354 N 
ATOM     36  C   UNL A   1      43.858  30.025  28.301  1.00  0.00     0.074 A 
ATOM     37  C   UNL A   1      43.172  29.918  27.039  1.00  0.00     0.031 C 
ATOM     38  C   UNL A   1      38.105  28.598  31.080  1.00  0.00     0.029 A 
ATOM     39  C   UNL A   1      38.921  29.763  31.352  1.00  0.00     0.049 A 
ATOM     40  H   UNL A   1      40.915  30.057  30.795  1.00  0.00     0.167 HD
ATOM     41  C   UNL A   1      44.774  30.926  28.756  1.00  0.00     0.037 A 
ATOM     42  C   UNL A   1      38.621  30.890  32.048  1.00  0.00     0.037 A 
ATOM     43  C   UNL A   1      45.215  30.589  30.086  1.00  0.00     0.049 A 
ATOM     44  C   UNL A   1      39.922  31.501  32.431  1.00  0.00     0.074 A 
ATOM     45  C   UNL A   1      45.873  29.504  30.634  1.00  0.00     0.029 A 
ATOM     46  N   UNL A   1      44.610  31.228  31.144  1.00  0.00    -0.354 N 
ATOM     47  N   UNL A   1      40.774  30.935  33.245  1.00  0.00    -0.248 NA
ATOM     48  C   UNL A   1      40.489  32.483  31.521  1.00  0.00     0.031 C 
ATOM     49  C   UNL A   1      45.214  29.264  31.875  1.00  0.00     0.029 A 
ATOM     50  C   UNL A   1      44.256  30.263  32.058  1.00  0.00     0.049 A 
ATOM     51  H   UNL A   1      44.460  32.197  31.232  1.00  0.00     0.167 HD
ATOM     52  C   UNL A   1      42.022  31.172  32.684  1.00  0.00     0.074 A 
ATOM     53  C   UNL A   1      41.784  32.184  31.653  1.00  0.00     0.031 C 
ATOM     54  C   UNL A   1      43.079  30.332  32.901  1.00  0.00     0.037 A 
BRANCH  41  55
ATOM     55  C   UNL A   1      45.039  32.272  28.128  1.00  0.00     0.058 A 
ATOM     56  C   UNL A   1      46.336  32.593  27.678  1.00  0.00     0.135 A 
ATOM     57  C   UNL A   1      44.129  33.352  28.180  1.00  0.00     0.135 A 
ATOM     58  F   UNL A   1      47.287  31.649  27.602  1.00  0.00    -0.206 F 
ATOM     59  C   UNL A   1      46.714  33.898  27.354  1.00  0.00     0.059 A 
ATOM     60  C   UNL A   1      44.469  34.649  27.812  1.00  0.00     0.059 A 
ATOM     61  F   UNL A   1      42.895  33.220  28.680  1.00  0.00    -0.206 F 
ATOM     62  C   UNL A   1      45.775  34.922  27.436  1.00  0.00     0.060 A 
BRANCH  62  63
ATOM     63  S   UNL A   1      46.281  36.618  27.104  1.00  0.00     0.124 S 
ATOM     64  O   UNL A   1      44.993  37.294  27.004  1.00  0.00    -0.237 OA
ATOM     65  O   UNL A   1      47.078  36.931  28.286  1.00  0.00    -0.237 OA
ATOM     66  O   UNL A   1      47.035  36.507  25.859  1.00  0.00    -0.744 OA
ENDBRANCH  62  63
ENDBRANCH  41  55
BRANCH  42  67
ATOM     67  C   UNL A   1      37.342  31.649  32.041  1.00  0.00     0.058 A 
ATOM     68  C   UNL A   1      36.713  32.034  33.238  1.00  0.00     0.135 A 
ATOM     69  C   UNL A   1      36.866  32.265  30.865  1.00  0.00     0.135 A 
ATOM     70  F   UNL A   1      37.116  31.514  34.407  1.00  0.00    -0.206 F 
ATOM     71  C   UNL A   1      35.707  33.010  33.274  1.00  0.00     0.059 A 
ATOM     72  C   UNL A   1      35.863  33.236  30.876  1.00  0.00     0.059 A 
ATOM     73  F   UNL A   1      37.433  32.008  29.676  1.00  0.00    -0.206 F 
ATOM     74  C   UNL A   1      35.304  33.623  32.089  1.00  0.00     0.060 A 
BRANCH  74  75
ATOM     75  S   UNL A   1      34.138  35.007  32.152  1.00  0.00     0.124 S 
ATOM     76  O   UNL A   1      34.902  36.014  32.881  1.00  0.00    -0.237 OA
ATOM     77  O   UNL A   1      33.909  35.283  30.738  1.00  0.00    -0.237 OA
ATOM     78  O   UNL A   1      32.992  34.455  32.868  1.00  0.00    -0.744 OA
ENDBRANCH  74  75
ENDBRANCH  42  67
BRANCH  54  79
ATOM     79  C   UNL A   1      42.942  29.258  33.958  1.00  0.00     0.058 A 
ATOM     80  C   UNL A   1      43.137  29.461  35.337  1.00  0.00     0.135 A 
ATOM     81  C   UNL A   1      42.420  28.016  33.570  1.00  0.00     0.135 A 
ATOM     82  F   UNL A   1      43.542  30.646  35.810  1.00  0.00    -0.206 F 
ATOM     83  C   UNL A   1      42.854  28.466  36.281  1.00  0.00     0.059 A 
ATOM     84  C   UNL A   1      42.101  27.022  34.493  1.00  0.00     0.059 A 
ATOM     85  F   UNL A   1      42.153  27.776  32.276  1.00  0.00    -0.206 F 
ATOM     86  C   UNL A   1      42.331  27.250  35.848  1.00  0.00     0.060 A 
BRANCH  86  87
ATOM     87  S   UNL A   1      41.889  25.991  37.067  1.00  0.00     0.124 S 
ATOM     88  O   UNL A   1      42.054  24.756  36.309  1.00  0.00    -0.237 OA
ATOM     89  O   UNL A   1      42.864  26.218  38.129  1.00  0.00    -0.237 OA
ATOM     90  O   UNL A   1      40.511  26.326  37.418  1.00  0.00    -0.744 OA
ENDBRANCH  86  87
ENDBRANCH  54  79
ENDBRANCH  28  29
ENDBRANCH   2  23
TORSDOF 13
ENDMDL
MODEL 3
REMARK VINA RESULT:     -12.7      4.311     10.998
REMARK SMILES [H]/N=C1\C=CC2=NC(C(=O)NCCCNC(=O)c3ccc(-c4c5nc(c(-c6c(F)cc(S(=O)(=O)[O-])cc6F)c6ccc([nH]6)c(-c6c(F)cc(S(=O)(=O)[O-])cc6F)c6nc(c(-c7c(F)cc(S(=O)(=O)[O-])cc7F)c7ccc4[nH]7)C=C6)C=C5)cc3)=C[C@@H]2C1
REMARK SMILES IDX 15 1 16 2 17 3 14 5 13 6 12 7 11 8 9 9 10 10 8 12 2 13 3 14
REMARK SMILES IDX 1 15 4 16 86 17 5 18 85 19 6 20 84 21 7 22 18 23 19 24 83 25
REMARK SMILES IDX 20 26 82 27 21 28 22 29 23 30 76 31 24 32 81 33 75 34 77 35
REMARK SMILES IDX 25 36 80 37 74 38 73 39 26 41 60 42 39 43 59 44 40 45 43 46
REMARK SMILES IDX 58 47 78 48 41 49 42 50 57 52 79 53 44 54 27 55 28 56 37 57
REMARK SMILES IDX 29 58 30 59 36 60 38 61 31 62 32 63 33 64 34 65 35 66 61 67
REMARK SMILES IDX 62 68 71 69 63 70 64 71 70 72 72 73 65 74 66 75 67 76 68 77
REMARK SMILES IDX 69 78 45 79 46 80 55 81 47 82 48 83 54 84 56 85 49 86 50 87
REMARK SMILES IDX 51 88 52 89 53 90
REMARK H PARENT 15 4 11 11 77 40 43 51
REMARK Flexibility Score: inf
ROOT
ATOM      1  N   UNL A   1      34.468  32.770  28.113  1.00  0.00    -0.352 N 
ATOM      2  C   UNL A   1      34.822  31.426  28.035  1.00  0.00     0.251 C 
ATOM      3  O   UNL A   1      33.980  30.565  27.840  1.00  0.00    -0.269 OA
ATOM      4  H   UNL A   1      33.516  32.956  28.278  1.00  0.00     0.163 HD
ENDROOT
BRANCH   1   5
ATOM      5  C   UNL A   1      35.342  33.944  27.977  1.00  0.00     0.118 C 
BRANCH   5   6
ATOM      6  C   UNL A   1      34.614  35.270  28.149  1.00  0.00     0.042 C 
BRANCH   6   7
ATOM      7  C   UNL A   1      33.164  35.062  28.600  1.00  0.00     0.118 C 
BRANCH   7   8
ATOM      8  N   UNL A   1      32.781  36.032  29.612  1.00  0.00    -0.351 N 
ATOM      9  C   UNL A   1      32.899  36.089  30.966  1.00  0.00     0.269 C 
ATOM     10  O   UNL A   1      32.401  37.071  31.522  1.00  0.00    -0.268 OA
ATOM     11  H   UNL A   1      32.337  36.825  29.233  1.00  0.00     0.163 HD
BRANCH   9  12
ATOM     12  C   UNL A   1      33.690  35.086  31.761  1.00  0.00     0.125 C 
ATOM     13  N   UNL A   1      37.373  31.823  34.843  1.00  0.00    -0.305 NA
ATOM     14  C   UNL A   1      36.590  32.296  33.928  1.00  0.00     0.032 C 
ATOM     15  H   UNL A   1      37.737  30.912  34.755  1.00  0.00     0.187 HD
ATOM     16  C   UNL A   1      36.254  31.516  32.708  1.00  0.00     0.025 C 
ATOM     17  C   UNL A   1      36.047  33.706  34.099  1.00  0.00     0.069 C 
ATOM     18  C   UNL A   1      35.360  31.955  31.816  1.00  0.00     0.026 C 
ATOM     19  C   UNL A   1      34.701  33.846  33.431  1.00  0.00     0.069 C 
ATOM     20  C   UNL A   1      34.671  33.224  32.064  1.00  0.00     0.049 C 
ATOM     21  C   UNL A   1      34.211  35.190  32.996  1.00  0.00     0.017 C 
ATOM     22  N   UNL A   1      34.001  33.873  31.171  1.00  0.00    -0.247 NA
ENDBRANCH   9  12
ENDBRANCH   7   8
ENDBRANCH   6   7
ENDBRANCH   5   6
ENDBRANCH   1   5
BRANCH   2  23
ATOM     23  C   UNL A   1      36.247  31.076  28.201  1.00  0.00     0.039 A 
ATOM     24  C   UNL A   1      37.153  31.863  28.915  1.00  0.00     0.014 A 
ATOM     25  C   UNL A   1      36.645  29.864  27.659  1.00  0.00     0.014 A 
ATOM     26  C   UNL A   1      38.438  31.362  29.133  1.00  0.00     0.010 A 
ATOM     27  C   UNL A   1      37.781  29.267  28.116  1.00  0.00     0.010 A 
ATOM     28  C   UNL A   1      38.737  30.046  28.740  1.00  0.00    -0.014 A 
BRANCH  28  29
ATOM     29  C   UNL A   1      40.030  29.420  28.988  1.00  0.00     0.031 A 
ATOM     30  C   UNL A   1      40.379  29.262  30.426  1.00  0.00     0.074 A 
ATOM     31  C   UNL A   1      40.751  28.833  28.004  1.00  0.00     0.049 A 
ATOM     32  N   UNL A   1      41.308  29.869  31.084  1.00  0.00    -0.248 NA
ATOM     33  C   UNL A   1      39.494  28.442  31.268  1.00  0.00     0.031 C 
ATOM     34  C   UNL A   1      40.403  28.614  26.589  1.00  0.00     0.029 A 
ATOM     35  N   UNL A   1      41.954  28.211  28.096  1.00  0.00    -0.354 N 
ATOM     36  C   UNL A   1      41.269  29.352  32.376  1.00  0.00     0.074 A 
ATOM     37  C   UNL A   1      40.032  28.620  32.476  1.00  0.00     0.031 C 
ATOM     38  C   UNL A   1      41.248  27.714  26.038  1.00  0.00     0.029 A 
ATOM     39  C   UNL A   1      42.312  27.452  26.986  1.00  0.00     0.049 A 
ATOM     40  H   UNL A   1      42.531  28.291  28.889  1.00  0.00     0.167 HD
ATOM     41  C   UNL A   1      42.357  29.399  33.195  1.00  0.00     0.037 A 
ATOM     42  C   UNL A   1      43.410  26.663  26.863  1.00  0.00     0.037 A 
ATOM     43  C   UNL A   1      43.342  30.324  32.694  1.00  0.00     0.049 A 
ATOM     44  C   UNL A   1      44.378  27.135  27.889  1.00  0.00     0.074 A 
ATOM     45  C   UNL A   1      43.347  31.686  32.456  1.00  0.00     0.029 A 
ATOM     46  N   UNL A   1      44.384  29.815  31.954  1.00  0.00    -0.354 N 
ATOM     47  N   UNL A   1      44.930  28.320  27.870  1.00  0.00    -0.248 NA
ATOM     48  C   UNL A   1      44.337  26.488  29.190  1.00  0.00     0.031 C 
ATOM     49  C   UNL A   1      44.038  31.838  31.218  1.00  0.00     0.029 A 
ATOM     50  C   UNL A   1      44.491  30.580  30.816  1.00  0.00     0.049 A 
ATOM     51  H   UNL A   1      44.949  29.045  32.194  1.00  0.00     0.167 HD
ATOM     52  C   UNL A   1      44.928  28.741  29.193  1.00  0.00     0.074 A 
ATOM     53  C   UNL A   1      44.603  27.542  29.968  1.00  0.00     0.031 C 
ATOM     54  C   UNL A   1      44.905  30.067  29.525  1.00  0.00     0.037 A 
BRANCH  41  55
ATOM     55  C   UNL A   1      42.664  28.390  34.274  1.00  0.00     0.058 A 
ATOM     56  C   UNL A   1      42.657  28.786  35.628  1.00  0.00     0.135 A 
ATOM     57  C   UNL A   1      43.211  27.113  34.017  1.00  0.00     0.135 A 
ATOM     58  F   UNL A   1      42.174  29.985  35.987  1.00  0.00    -0.206 F 
ATOM     59  C   UNL A   1      43.200  27.993  36.641  1.00  0.00     0.059 A 
ATOM     60  C   UNL A   1      43.709  26.285  35.017  1.00  0.00     0.059 A 
ATOM     61  F   UNL A   1      43.376  26.646  32.774  1.00  0.00    -0.206 F 
ATOM     62  C   UNL A   1      43.734  26.748  36.323  1.00  0.00     0.060 A 
BRANCH  62  63
ATOM     63  S   UNL A   1      44.514  25.763  37.614  1.00  0.00     0.124 S 
ATOM     64  O   UNL A   1      43.865  26.282  38.811  1.00  0.00    -0.237 OA
ATOM     65  O   UNL A   1      44.144  24.406  37.222  1.00  0.00    -0.237 OA
ATOM     66  O   UNL A   1      45.931  26.084  37.473  1.00  0.00    -0.744 OA
ENDBRANCH  62  63
ENDBRANCH  41  55
BRANCH  42  67
ATOM     67  C   UNL A   1      43.500  25.324  26.221  1.00  0.00     0.058 A 
ATOM     68  C   UNL A   1      44.466  25.047  25.238  1.00  0.00     0.135 A 
ATOM     69  C   UNL A   1      42.835  24.207  26.769  1.00  0.00     0.135 A 
ATOM     70  F   UNL A   1      45.161  26.048  24.678  1.00  0.00    -0.206 F 
ATOM     71  C   UNL A   1      44.790  23.738  24.856  1.00  0.00     0.059 A 
ATOM     72  C   UNL A   1      43.139  22.894  26.402  1.00  0.00     0.059 A 
ATOM     73  F   UNL A   1      41.934  24.357  27.752  1.00  0.00    -0.206 F 
ATOM     74  C   UNL A   1      44.137  22.665  25.462  1.00  0.00     0.060 A 
BRANCH  74  75
ATOM     75  S   UNL A   1      44.678  20.974  25.105  1.00  0.00     0.124 S 
ATOM     76  O   UNL A   1      43.687  20.180  25.823  1.00  0.00    -0.237 OA
ATOM     77  O   UNL A   1      44.598  20.926  23.649  1.00  0.00    -0.237 OA
ATOM     78  O   UNL A   1      46.031  20.927  25.651  1.00  0.00    -0.744 OA
ENDBRANCH  74  75
ENDBRANCH  42  67
BRANCH  54  79
ATOM     79  C   UNL A   1      45.121  31.089  28.431  1.00  0.00     0.058 A 
ATOM     80  C   UNL A   1      44.116  31.568  27.570  1.00  0.00     0.135 A 
ATOM     81  C   UNL A   1      46.363  31.738  28.373  1.00  0.00     0.135 A 
ATOM     82  F   UNL A   1      42.872  31.075  27.620  1.00  0.00    -0.206 F 
ATOM     83  C   UNL A   1      44.343  32.620  26.676  1.00  0.00     0.059 A 
ATOM     84  C   UNL A   1      46.605  32.808  27.513  1.00  0.00     0.059 A 
ATOM     85  F   UNL A   1      47.350  31.373  29.208  1.00  0.00    -0.206 F 
ATOM     86  C   UNL A   1      45.593  33.237  26.658  1.00  0.00     0.060 A 
BRANCH  86  87
ATOM     87  S   UNL A   1      45.868  34.648  25.562  1.00  0.00     0.124 S 
ATOM     88  O   UNL A   1      47.305  34.573  25.319  1.00  0.00    -0.237 OA
ATOM     89  O   UNL A   1      45.015  34.337  24.420  1.00  0.00    -0.237 OA
ATOM     90  O   UNL A   1      45.431  35.791  26.361  1.00  0.00    -0.744 OA
ENDBRANCH  86  87
ENDBRANCH  54  79
ENDBRANCH  28  29
ENDBRANCH   2  23
TORSDOF 13
ENDMDL
