MODEL 1
REMARK VINA RESULT:     -11.8      0.000      0.000
REMARK SMILES C[NH2+][C@@]1(C(=O)NCCCNC(=O)c2ccc(-c3c4nc(c(-c5c(F)cc(S(=O)(=O)[O-])cc5F)c5ccc([nH]5)c(-c5c(F)cc(S(=O)(=O)[O-])cc5F)c5nc(c(-c6c(F)cc(S(=O)(=O)[O-])cc6F)c6ccc3[nH]6)C=C5)C=C4)cc2)CCC[C@H]([N@H+](C)C2CC[NH+](C)CC2)C1
REMARK SMILES IDX 8 1 7 2 6 3 4 4 5 5 3 7 79 8 92 9 80 10 82 11 81 12 2 13
REMARK SMILES IDX 1 14 83 17 84 18 85 20 86 21 91 22 87 23 90 24 88 25 89 26
REMARK SMILES IDX 9 28 10 29 11 30 12 32 13 33 14 34 78 35 15 36 77 37 16 38
REMARK SMILES IDX 17 39 18 40 71 41 19 42 76 43 70 44 72 45 20 46 75 47 69 48
REMARK SMILES IDX 68 49 21 51 55 52 34 53 54 54 35 55 38 56 53 57 73 58 36 59
REMARK SMILES IDX 37 60 52 62 74 63 39 64 22 65 23 66 32 67 24 68 25 69 31 70
REMARK SMILES IDX 33 71 26 72 27 73 28 74 29 75 30 76 56 77 57 78 66 79 58 80
REMARK SMILES IDX 59 81 65 82 67 83 60 84 61 85 62 86 63 87 64 88 40 89 41 90
REMARK SMILES IDX 50 91 42 92 43 93 49 94 51 95 44 96 45 97 46 98 47 99 48 100
REMARK H PARENT 6 6 2 15 2 16 83 19 88 27 10 31 72 50 38 61
REMARK Flexibility Score: inf
ROOT
ATOM      1  C   UNL A   1      35.504  23.850  26.010  1.00  0.00     0.042 C 
ENDROOT
BRANCH   1   2
ATOM      2  C   UNL A   1      34.306  24.721  25.642  1.00  0.00     0.118 C 
BRANCH   2   3
ATOM      3  N   UNL A   1      34.580  26.160  25.570  1.00  0.00    -0.351 N 
ATOM      4  C   UNL A   1      33.575  27.045  25.963  1.00  0.00     0.281 C 
ATOM      5  O   UNL A   1      32.756  26.692  26.817  1.00  0.00    -0.268 OA
ATOM      6  H   UNL A   1      35.450  26.492  25.255  1.00  0.00     0.163 HD
BRANCH   4   7
ATOM      7  C   UNL A   1      33.544  28.507  25.305  1.00  0.00     0.181 C 
ATOM      8  C   UNL A   1      32.179  29.185  25.664  1.00  0.00     0.079 C 
ATOM      9  C   UNL A   1      33.769  28.414  23.776  1.00  0.00     0.144 C 
ATOM     10  C   UNL A   1      31.032  29.070  24.667  1.00  0.00     0.013 C 
ATOM     11  C   UNL A   1      32.538  27.889  22.967  1.00  0.00     0.190 C 
ATOM     12  C   UNL A   1      31.424  28.903  23.216  1.00  0.00     0.065 C 
BRANCH   7  13
ATOM     13  N   UNL A   1      34.642  29.291  25.973  1.00  0.00    -0.336 N 
ATOM     14  C   UNL A   1      34.281  30.031  27.184  1.00  0.00     0.331 C 
ATOM     15  H   UNL A   1      35.382  28.635  26.222  1.00  0.00     0.346 HD
ATOM     16  H   UNL A   1      34.912  30.003  25.294  1.00  0.00     0.346 HD
ENDBRANCH   7  13
BRANCH  11  17
ATOM     17  N   UNL A   1      32.360  26.406  23.119  1.00  0.00    -0.332 N 
ATOM     18  C   UNL A   1      33.242  25.828  22.052  1.00  0.00     0.333 C 
ATOM     19  H   UNL A   1      32.569  26.229  24.102  1.00  0.00     0.348 HD
BRANCH  17  20
ATOM     20  C   UNL A   1      31.010  25.738  23.016  1.00  0.00     0.195 C 
ATOM     21  C   UNL A   1      29.890  25.978  24.042  1.00  0.00     0.126 C 
ATOM     22  C   UNL A   1      31.081  24.171  22.987  1.00  0.00     0.126 C 
ATOM     23  C   UNL A   1      30.208  25.394  25.417  1.00  0.00     0.268 C 
ATOM     24  C   UNL A   1      30.999  23.411  24.335  1.00  0.00     0.268 C 
ATOM     25  N   UNL A   1      30.176  23.941  25.417  1.00  0.00    -0.337 N 
ATOM     26  C   UNL A   1      30.697  23.452  26.710  1.00  0.00     0.332 C 
ATOM     27  H   UNL A   1      29.215  23.628  25.280  1.00  0.00     0.347 HD
ENDBRANCH  17  20
ENDBRANCH  11  17
ENDBRANCH   4   7
ENDBRANCH   2   3
ENDBRANCH   1   2
BRANCH   1  28
ATOM     28  C   UNL A   1      36.786  23.901  25.147  1.00  0.00     0.118 C 
BRANCH  28  29
ATOM     29  N   UNL A   1      37.873  22.942  25.363  1.00  0.00    -0.352 N 
ATOM     30  C   UNL A   1      39.073  23.036  26.059  1.00  0.00     0.251 C 
ATOM     31  H   UNL A   1      37.727  22.067  24.936  1.00  0.00     0.163 HD
ATOM     32  O   UNL A   1      39.827  22.066  26.137  1.00  0.00    -0.269 OA
BRANCH  30  33
ATOM     33  C   UNL A   1      39.479  24.276  26.739  1.00  0.00     0.039 A 
ATOM     34  C   UNL A   1      40.319  25.220  26.119  1.00  0.00     0.014 A 
ATOM     35  C   UNL A   1      39.081  24.464  28.053  1.00  0.00     0.014 A 
ATOM     36  C   UNL A   1      40.690  26.381  26.809  1.00  0.00     0.010 A 
ATOM     37  C   UNL A   1      39.325  25.669  28.676  1.00  0.00     0.010 A 
ATOM     38  C   UNL A   1      40.166  26.624  28.085  1.00  0.00    -0.014 A 
BRANCH  38  39
ATOM     39  C   UNL A   1      40.505  27.791  28.934  1.00  0.00     0.031 A 
ATOM     40  C   UNL A   1      41.706  27.665  29.842  1.00  0.00     0.074 A 
ATOM     41  C   UNL A   1      39.647  28.820  29.051  1.00  0.00     0.049 A 
ATOM     42  N   UNL A   1      41.984  28.303  30.946  1.00  0.00    -0.248 NA
ATOM     43  C   UNL A   1      42.659  26.586  29.515  1.00  0.00     0.031 C 
ATOM     44  C   UNL A   1      38.426  29.009  28.264  1.00  0.00     0.029 A 
ATOM     45  N   UNL A   1      39.648  29.881  29.920  1.00  0.00    -0.354 N 
ATOM     46  C   UNL A   1      43.091  27.650  31.483  1.00  0.00     0.074 A 
ATOM     47  C   UNL A   1      43.385  26.528  30.621  1.00  0.00     0.031 C 
ATOM     48  C   UNL A   1      37.802  30.124  28.680  1.00  0.00     0.029 A 
ATOM     49  C   UNL A   1      38.549  30.698  29.793  1.00  0.00     0.049 A 
ATOM     50  H   UNL A   1      40.368  30.042  30.572  1.00  0.00     0.167 HD
ATOM     51  C   UNL A   1      43.810  27.979  32.582  1.00  0.00     0.037 A 
ATOM     52  C   UNL A   1      38.188  31.779  30.511  1.00  0.00     0.037 A 
ATOM     53  C   UNL A   1      43.553  29.168  33.349  1.00  0.00     0.049 A 
ATOM     54  C   UNL A   1      39.074  32.201  31.652  1.00  0.00     0.074 A 
ATOM     55  C   UNL A   1      44.270  29.685  34.410  1.00  0.00     0.029 A 
ATOM     56  N   UNL A   1      42.508  30.049  33.099  1.00  0.00    -0.354 N 
ATOM     57  N   UNL A   1      40.139  31.600  32.135  1.00  0.00    -0.248 NA
ATOM     58  C   UNL A   1      38.723  33.449  32.342  1.00  0.00     0.031 C 
ATOM     59  C   UNL A   1      43.649  30.873  34.813  1.00  0.00     0.029 A 
ATOM     60  C   UNL A   1      42.567  31.113  33.978  1.00  0.00     0.049 A 
ATOM     61  H   UNL A   1      41.827  29.933  32.398  1.00  0.00     0.167 HD
ATOM     62  C   UNL A   1      40.603  32.413  33.162  1.00  0.00     0.074 A 
ATOM     63  C   UNL A   1      39.708  33.552  33.224  1.00  0.00     0.031 C 
ATOM     64  C   UNL A   1      41.666  32.238  33.985  1.00  0.00     0.037 A 
BRANCH  51  65
ATOM     65  C   UNL A   1      44.948  27.077  32.983  1.00  0.00     0.058 A 
ATOM     66  C   UNL A   1      46.250  27.263  32.488  1.00  0.00     0.135 A 
ATOM     67  C   UNL A   1      44.745  26.022  33.889  1.00  0.00     0.135 A 
ATOM     68  F   UNL A   1      46.506  28.246  31.610  1.00  0.00    -0.206 F 
ATOM     69  C   UNL A   1      47.296  26.416  32.840  1.00  0.00     0.059 A 
ATOM     70  C   UNL A   1      45.786  25.184  34.284  1.00  0.00     0.059 A 
ATOM     71  F   UNL A   1      43.524  25.792  34.397  1.00  0.00    -0.206 F 
ATOM     72  C   UNL A   1      47.055  25.379  33.741  1.00  0.00     0.060 A 
BRANCH  72  73
ATOM     73  S   UNL A   1      48.429  24.300  34.198  1.00  0.00     0.124 S 
ATOM     74  O   UNL A   1      49.300  24.430  33.035  1.00  0.00    -0.237 OA
ATOM     75  O   UNL A   1      48.915  24.919  35.426  1.00  0.00    -0.237 OA
ATOM     76  O   UNL A   1      47.795  22.996  34.365  1.00  0.00    -0.744 OA
ENDBRANCH  72  73
ENDBRANCH  51  65
BRANCH  52  77
ATOM     77  C   UNL A   1      36.978  32.558  30.135  1.00  0.00     0.058 A 
ATOM     78  C   UNL A   1      35.753  32.320  30.778  1.00  0.00     0.135 A 
ATOM     79  C   UNL A   1      37.016  33.572  29.165  1.00  0.00     0.135 A 
ATOM     80  F   UNL A   1      35.666  31.363  31.715  1.00  0.00    -0.206 F 
ATOM     81  C   UNL A   1      34.608  33.040  30.459  1.00  0.00     0.059 A 
ATOM     82  C   UNL A   1      35.888  34.323  28.846  1.00  0.00     0.059 A 
ATOM     83  F   UNL A   1      38.168  33.861  28.538  1.00  0.00    -0.206 F 
ATOM     84  C   UNL A   1      34.684  34.041  29.492  1.00  0.00     0.060 A 
BRANCH  84  85
ATOM     85  S   UNL A   1      33.198  35.000  29.121  1.00  0.00     0.124 S 
ATOM     86  O   UNL A   1      32.541  35.039  30.421  1.00  0.00    -0.237 OA
ATOM     87  O   UNL A   1      33.757  36.263  28.648  1.00  0.00    -0.237 OA
ATOM     88  O   UNL A   1      32.531  34.199  28.098  1.00  0.00    -0.744 OA
ENDBRANCH  84  85
ENDBRANCH  52  77
BRANCH  64  89
ATOM     89  C   UNL A   1      41.944  33.324  34.984  1.00  0.00     0.058 A 
ATOM     90  C   UNL A   1      42.783  34.404  34.678  1.00  0.00     0.135 A 
ATOM     91  C   UNL A   1      41.305  33.313  36.234  1.00  0.00     0.135 A 
ATOM     92  F   UNL A   1      43.418  34.454  33.496  1.00  0.00    -0.206 F 
ATOM     93  C   UNL A   1      42.998  35.431  35.590  1.00  0.00     0.059 A 
ATOM     94  C   UNL A   1      41.483  34.342  37.149  1.00  0.00     0.059 A 
ATOM     95  F   UNL A   1      40.481  32.304  36.565  1.00  0.00    -0.206 F 
ATOM     96  C   UNL A   1      42.340  35.392  36.821  1.00  0.00     0.060 A 
BRANCH  96  97
ATOM     97  S   UNL A   1      42.595  36.753  37.978  1.00  0.00     0.124 S 
ATOM     98  O   UNL A   1      43.349  36.096  39.040  1.00  0.00    -0.237 OA
ATOM     99  O   UNL A   1      43.341  37.713  37.171  1.00  0.00    -0.237 OA
ATOM    100  O   UNL A   1      41.237  37.158  38.329  1.00  0.00    -0.744 OA
ENDBRANCH  96  97
ENDBRANCH  64  89
ENDBRANCH  38  39
ENDBRANCH  30  33
ENDBRANCH  28  29
ENDBRANCH   1  28
TORSDOF 16
ENDMDL
MODEL 2
REMARK VINA RESULT:     -11.8      0.772      2.761
REMARK SMILES C[NH2+][C@@]1(C(=O)NCCCNC(=O)c2ccc(-c3c4nc(c(-c5c(F)cc(S(=O)(=O)[O-])cc5F)c5ccc([nH]5)c(-c5c(F)cc(S(=O)(=O)[O-])cc5F)c5nc(c(-c6c(F)cc(S(=O)(=O)[O-])cc6F)c6ccc3[nH]6)C=C5)C=C4)cc2)CCC[C@H]([N@H+](C)C2CC[NH+](C)CC2)C1
REMARK SMILES IDX 8 1 7 2 6 3 4 4 5 5 3 7 79 8 92 9 80 10 82 11 81 12 2 13
REMARK SMILES IDX 1 14 83 17 84 18 85 20 86 21 91 22 87 23 90 24 88 25 89 26
REMARK SMILES IDX 9 28 10 29 11 30 12 32 13 33 14 34 78 35 15 36 77 37 16 38
REMARK SMILES IDX 17 39 18 40 71 41 19 42 76 43 70 44 72 45 20 46 75 47 69 48
REMARK SMILES IDX 68 49 21 51 55 52 34 53 54 54 35 55 38 56 53 57 73 58 36 59
REMARK SMILES IDX 37 60 52 62 74 63 39 64 22 65 23 66 32 67 24 68 25 69 31 70
REMARK SMILES IDX 33 71 26 72 27 73 28 74 29 75 30 76 56 77 57 78 66 79 58 80
REMARK SMILES IDX 59 81 65 82 67 83 60 84 61 85 62 86 63 87 64 88 40 89 41 90
REMARK SMILES IDX 50 91 42 92 43 93 49 94 51 95 44 96 45 97 46 98 47 99 48 100
REMARK H PARENT 6 6 2 15 2 16 83 19 88 27 10 31 72 50 38 61
REMARK Flexibility Score: inf
ROOT
ATOM      1  C   UNL A   1      35.731  24.017  25.889  1.00  0.00     0.042 C 
ENDROOT
BRANCH   1   2
ATOM      2  C   UNL A   1      34.598  22.994  25.848  1.00  0.00     0.118 C 
BRANCH   2   3
ATOM      3  N   UNL A   1      33.346  23.474  25.253  1.00  0.00    -0.351 N 
ATOM      4  C   UNL A   1      32.311  23.856  26.108  1.00  0.00     0.281 C 
ATOM      5  O   UNL A   1      32.583  24.300  27.228  1.00  0.00    -0.268 OA
ATOM      6  H   UNL A   1      33.240  23.526  24.277  1.00  0.00     0.163 HD
BRANCH   4   7
ATOM      7  C   UNL A   1      30.802  23.732  25.583  1.00  0.00     0.181 C 
ATOM      8  C   UNL A   1      30.829  23.564  24.026  1.00  0.00     0.079 C 
ATOM      9  C   UNL A   1      29.975  24.965  26.026  1.00  0.00     0.144 C 
ATOM     10  C   UNL A   1      30.680  24.812  23.163  1.00  0.00     0.013 C 
ATOM     11  C   UNL A   1      30.276  26.274  25.226  1.00  0.00     0.190 C 
ATOM     12  C   UNL A   1      29.910  25.960  23.777  1.00  0.00     0.065 C 
BRANCH   7  13
ATOM     13  N   UNL A   1      30.253  22.463  26.178  1.00  0.00    -0.336 N 
ATOM     14  C   UNL A   1      29.366  22.605  27.334  1.00  0.00     0.331 C 
ATOM     15  H   UNL A   1      29.731  21.980  25.446  1.00  0.00     0.346 HD
ATOM     16  H   UNL A   1      31.067  21.958  26.526  1.00  0.00     0.346 HD
ENDBRANCH   7  13
BRANCH  11  17
ATOM     17  N   UNL A   1      31.582  26.892  25.636  1.00  0.00    -0.332 N 
ATOM     18  C   UNL A   1      31.261  27.580  26.930  1.00  0.00     0.333 C 
ATOM     19  H   UNL A   1      32.241  26.114  25.625  1.00  0.00     0.348 HD
BRANCH  17  20
ATOM     20  C   UNL A   1      32.323  27.874  24.761  1.00  0.00     0.195 C 
ATOM     21  C   UNL A   1      33.836  28.117  24.892  1.00  0.00     0.126 C 
ATOM     22  C   UNL A   1      31.761  29.337  24.837  1.00  0.00     0.126 C 
ATOM     23  C   UNL A   1      34.217  28.809  26.199  1.00  0.00     0.268 C 
ATOM     24  C   UNL A   1      32.370  30.300  25.887  1.00  0.00     0.268 C 
ATOM     25  N   UNL A   1      33.785  30.196  26.231  1.00  0.00    -0.337 N 
ATOM     26  C   UNL A   1      33.996  30.730  27.593  1.00  0.00     0.332 C 
ATOM     27  H   UNL A   1      34.326  30.731  25.552  1.00  0.00     0.347 HD
ENDBRANCH  17  20
ENDBRANCH  11  17
ENDBRANCH   4   7
ENDBRANCH   2   3
ENDBRANCH   1   2
BRANCH   1  28
ATOM     28  C   UNL A   1      36.960  23.841  24.969  1.00  0.00     0.118 C 
BRANCH  28  29
ATOM     29  N   UNL A   1      38.000  22.860  25.288  1.00  0.00    -0.352 N 
ATOM     30  C   UNL A   1      39.150  22.942  26.065  1.00  0.00     0.251 C 
ATOM     31  H   UNL A   1      37.859  21.977  24.876  1.00  0.00     0.163 HD
ATOM     32  O   UNL A   1      39.869  21.954  26.224  1.00  0.00    -0.269 OA
BRANCH  30  33
ATOM     33  C   UNL A   1      39.544  24.190  26.738  1.00  0.00     0.039 A 
ATOM     34  C   UNL A   1      40.327  25.164  26.092  1.00  0.00     0.014 A 
ATOM     35  C   UNL A   1      39.194  24.356  28.069  1.00  0.00     0.014 A 
ATOM     36  C   UNL A   1      40.687  26.333  26.776  1.00  0.00     0.010 A 
ATOM     37  C   UNL A   1      39.424  25.563  28.691  1.00  0.00     0.010 A 
ATOM     38  C   UNL A   1      40.208  26.549  28.074  1.00  0.00    -0.014 A 
BRANCH  38  39
ATOM     39  C   UNL A   1      40.544  27.721  28.918  1.00  0.00     0.031 A 
ATOM     40  C   UNL A   1      41.745  27.603  29.826  1.00  0.00     0.074 A 
ATOM     41  C   UNL A   1      39.682  28.748  29.031  1.00  0.00     0.049 A 
ATOM     42  N   UNL A   1      42.023  28.247  30.927  1.00  0.00    -0.248 NA
ATOM     43  C   UNL A   1      42.702  26.526  29.503  1.00  0.00     0.031 C 
ATOM     44  C   UNL A   1      38.461  28.930  28.244  1.00  0.00     0.029 A 
ATOM     45  N   UNL A   1      39.681  29.813  29.895  1.00  0.00    -0.354 N 
ATOM     46  C   UNL A   1      43.131  27.600  31.466  1.00  0.00     0.074 A 
ATOM     47  C   UNL A   1      43.429  26.476  30.609  1.00  0.00     0.031 C 
ATOM     48  C   UNL A   1      37.833  30.044  28.656  1.00  0.00     0.029 A 
ATOM     49  C   UNL A   1      38.579  30.625  29.765  1.00  0.00     0.049 A 
ATOM     50  H   UNL A   1      40.400  29.979  30.547  1.00  0.00     0.167 HD
ATOM     51  C   UNL A   1      43.850  27.935  32.564  1.00  0.00     0.037 A 
ATOM     52  C   UNL A   1      38.215  31.708  30.479  1.00  0.00     0.037 A 
ATOM     53  C   UNL A   1      43.589  29.128  33.325  1.00  0.00     0.049 A 
ATOM     54  C   UNL A   1      39.100  32.138  31.618  1.00  0.00     0.074 A 
ATOM     55  C   UNL A   1      44.305  29.651  34.384  1.00  0.00     0.029 A 
ATOM     56  N   UNL A   1      42.541  30.004  33.072  1.00  0.00    -0.354 N 
ATOM     57  N   UNL A   1      40.166  31.543  32.103  1.00  0.00    -0.248 NA
ATOM     58  C   UNL A   1      38.745  33.387  32.303  1.00  0.00     0.031 C 
ATOM     59  C   UNL A   1      43.681  30.839  34.783  1.00  0.00     0.029 A 
ATOM     60  C   UNL A   1      42.597  31.072  33.947  1.00  0.00     0.049 A 
ATOM     61  H   UNL A   1      41.860  29.883  32.373  1.00  0.00     0.167 HD
ATOM     62  C   UNL A   1      40.628  32.361  33.127  1.00  0.00     0.074 A 
ATOM     63  C   UNL A   1      39.729  33.498  33.184  1.00  0.00     0.031 C 
ATOM     64  C   UNL A   1      41.692  32.194  33.950  1.00  0.00     0.037 A 
BRANCH  51  65
ATOM     65  C   UNL A   1      44.991  27.040  32.968  1.00  0.00     0.058 A 
ATOM     66  C   UNL A   1      44.831  26.019  33.921  1.00  0.00     0.135 A 
ATOM     67  C   UNL A   1      46.262  27.187  32.386  1.00  0.00     0.135 A 
ATOM     68  F   UNL A   1      43.644  25.837  34.523  1.00  0.00    -0.206 F 
ATOM     69  C   UNL A   1      45.891  25.209  34.312  1.00  0.00     0.059 A 
ATOM     70  C   UNL A   1      47.329  26.362  32.735  1.00  0.00     0.059 A 
ATOM     71  F   UNL A   1      46.480  28.143  31.469  1.00  0.00    -0.206 F 
ATOM     72  C   UNL A   1      47.138  25.386  33.712  1.00  0.00     0.060 A 
BRANCH  72  73
ATOM     73  S   UNL A   1      48.497  24.313  34.221  1.00  0.00     0.124 S 
ATOM     74  O   UNL A   1      49.414  24.449  33.094  1.00  0.00    -0.237 OA
ATOM     75  O   UNL A   1      48.932  24.931  35.469  1.00  0.00    -0.237 OA
ATOM     76  O   UNL A   1      47.863  23.005  34.360  1.00  0.00    -0.744 OA
ENDBRANCH  72  73
ENDBRANCH  51  65
BRANCH  52  77
ATOM     77  C   UNL A   1      37.002  32.482  30.100  1.00  0.00     0.058 A 
ATOM     78  C   UNL A   1      35.780  32.247  30.750  1.00  0.00     0.135 A 
ATOM     79  C   UNL A   1      37.035  33.486  29.121  1.00  0.00     0.135 A 
ATOM     80  F   UNL A   1      35.697  31.299  31.695  1.00  0.00    -0.206 F 
ATOM     81  C   UNL A   1      34.631  32.962  30.429  1.00  0.00     0.059 A 
ATOM     82  C   UNL A   1      35.903  34.233  28.799  1.00  0.00     0.059 A 
ATOM     83  F   UNL A   1      38.184  33.772  28.488  1.00  0.00    -0.206 F 
ATOM     84  C   UNL A   1      34.703  33.955  29.452  1.00  0.00     0.060 A 
BRANCH  84  85
ATOM     85  S   UNL A   1      33.214  34.907  29.077  1.00  0.00     0.124 S 
ATOM     86  O   UNL A   1      32.554  34.944  30.376  1.00  0.00    -0.237 OA
ATOM     87  O   UNL A   1      33.769  36.172  28.605  1.00  0.00    -0.237 OA
ATOM     88  O   UNL A   1      32.551  34.103  28.054  1.00  0.00    -0.744 OA
ENDBRANCH  84  85
ENDBRANCH  52  77
BRANCH  64  89
ATOM     89  C   UNL A   1      41.967  33.284  34.943  1.00  0.00     0.058 A 
ATOM     90  C   UNL A   1      42.784  34.378  34.625  1.00  0.00     0.135 A 
ATOM     91  C   UNL A   1      41.347  33.264  36.203  1.00  0.00     0.135 A 
ATOM     92  F   UNL A   1      43.400  34.438  33.434  1.00  0.00    -0.206 F 
ATOM     93  C   UNL A   1      42.995  35.409  35.533  1.00  0.00     0.059 A 
ATOM     94  C   UNL A   1      41.522  34.297  37.115  1.00  0.00     0.059 A 
ATOM     95  F   UNL A   1      40.545  32.242  36.547  1.00  0.00    -0.206 F 
ATOM     96  C   UNL A   1      42.356  35.360  36.774  1.00  0.00     0.060 A 
BRANCH  96  97
ATOM     97  S   UNL A   1      42.606  36.726  37.926  1.00  0.00     0.124 S 
ATOM     98  O   UNL A   1      43.350  37.672  37.101  1.00  0.00    -0.237 OA
ATOM     99  O   UNL A   1      41.237  37.111  38.256  1.00  0.00    -0.237 OA
ATOM    100  O   UNL A   1      43.360  36.116  39.017  1.00  0.00    -0.744 OA
ENDBRANCH  96  97
ENDBRANCH  64  89
ENDBRANCH  38  39
ENDBRANCH  30  33
ENDBRANCH  28  29
ENDBRANCH   1  28
TORSDOF 16
ENDMDL
MODEL 3
REMARK VINA RESULT:     -11.7      3.998      9.843
REMARK SMILES C[NH2+][C@@]1(C(=O)NCCCNC(=O)c2ccc(-c3c4nc(c(-c5c(F)cc(S(=O)(=O)[O-])cc5F)c5ccc([nH]5)c(-c5c(F)cc(S(=O)(=O)[O-])cc5F)c5nc(c(-c6c(F)cc(S(=O)(=O)[O-])cc6F)c6ccc3[nH]6)C=C5)C=C4)cc2)CCC[C@H]([N@H+](C)C2CC[NH+](C)CC2)C1
REMARK SMILES IDX 8 1 7 2 6 3 4 4 5 5 3 7 79 8 92 9 80 10 82 11 81 12 2 13
REMARK SMILES IDX 1 14 83 17 84 18 85 20 86 21 91 22 87 23 90 24 88 25 89 26
REMARK SMILES IDX 9 28 10 29 11 30 12 32 13 33 14 34 78 35 15 36 77 37 16 38
REMARK SMILES IDX 17 39 18 40 71 41 19 42 76 43 70 44 72 45 20 46 75 47 69 48
REMARK SMILES IDX 68 49 21 51 55 52 34 53 54 54 35 55 38 56 53 57 73 58 36 59
REMARK SMILES IDX 37 60 52 62 74 63 39 64 22 65 23 66 32 67 24 68 25 69 31 70
REMARK SMILES IDX 33 71 26 72 27 73 28 74 29 75 30 76 56 77 57 78 66 79 58 80
REMARK SMILES IDX 59 81 65 82 67 83 60 84 61 85 62 86 63 87 64 88 40 89 41 90
REMARK SMILES IDX 50 91 42 92 43 93 49 94 51 95 44 96 45 97 46 98 47 99 48 100
REMARK H PARENT 6 6 2 15 2 16 83 19 88 27 10 31 72 50 38 61
REMARK Flexibility Score: inf
ROOT
ATOM      1  C   UNL A   1      33.478  27.902  25.494  1.00  0.00     0.042 C 
ENDROOT
BRANCH   1   2
ATOM      2  C   UNL A   1      33.732  26.521  24.894  1.00  0.00     0.118 C 
BRANCH   2   3
ATOM      3  N   UNL A   1      34.520  25.613  25.733  1.00  0.00    -0.351 N 
ATOM      4  C   UNL A   1      35.076  24.478  25.140  1.00  0.00     0.281 C 
ATOM      5  O   UNL A   1      35.376  24.506  23.942  1.00  0.00    -0.268 OA
ATOM      6  H   UNL A   1      34.655  25.799  26.689  1.00  0.00     0.163 HD
BRANCH   4   7
ATOM      7  C   UNL A   1      35.332  23.186  26.052  1.00  0.00     0.181 C 
ATOM      8  C   UNL A   1      35.566  21.953  25.114  1.00  0.00     0.079 C 
ATOM      9  C   UNL A   1      34.144  22.967  27.022  1.00  0.00     0.144 C 
ATOM     10  C   UNL A   1      34.372  21.070  24.772  1.00  0.00     0.013 C 
ATOM     11  C   UNL A   1      32.854  22.392  26.353  1.00  0.00     0.190 C 
ATOM     12  C   UNL A   1      33.257  21.030  25.793  1.00  0.00     0.065 C 
BRANCH   7  13
ATOM     13  N   UNL A   1      36.610  23.448  26.803  1.00  0.00    -0.336 N 
ATOM     14  C   UNL A   1      37.781  23.816  26.004  1.00  0.00     0.331 C 
ATOM     15  H   UNL A   1      36.432  24.209  27.459  1.00  0.00     0.346 HD
ATOM     16  H   UNL A   1      36.851  22.557  27.237  1.00  0.00     0.346 HD
ENDBRANCH   7  13
BRANCH  11  17
ATOM     17  N   UNL A   1      32.125  23.434  25.555  1.00  0.00    -0.332 N 
ATOM     18  C   UNL A   1      31.196  24.064  26.552  1.00  0.00     0.333 C 
ATOM     19  H   UNL A   1      32.868  23.991  25.133  1.00  0.00     0.348 HD
BRANCH  17  20
ATOM     20  C   UNL A   1      31.321  23.095  24.323  1.00  0.00     0.195 C 
ATOM     21  C   UNL A   1      31.976  22.619  23.016  1.00  0.00     0.126 C 
ATOM     22  C   UNL A   1      30.420  24.274  23.813  1.00  0.00     0.126 C 
ATOM     23  C   UNL A   1      32.795  23.709  22.329  1.00  0.00     0.268 C 
ATOM     24  C   UNL A   1      31.015  25.250  22.767  1.00  0.00     0.268 C 
ATOM     25  N   UNL A   1      31.955  24.754  21.767  1.00  0.00    -0.337 N 
ATOM     26  C   UNL A   1      32.816  25.866  21.313  1.00  0.00     0.332 C 
ATOM     27  H   UNL A   1      31.426  24.372  20.983  1.00  0.00     0.347 HD
ENDBRANCH  17  20
ENDBRANCH  11  17
ENDBRANCH   4   7
ENDBRANCH   2   3
ENDBRANCH   1   2
BRANCH   1  28
ATOM     28  C   UNL A   1      33.933  28.209  26.939  1.00  0.00     0.118 C 
BRANCH  28  29
ATOM     29  N   UNL A   1      33.790  29.555  27.499  1.00  0.00    -0.352 N 
ATOM     30  C   UNL A   1      34.678  30.379  28.181  1.00  0.00     0.251 C 
ATOM     31  H   UNL A   1      32.898  29.951  27.369  1.00  0.00     0.163 HD
ATOM     32  O   UNL A   1      34.339  31.511  28.529  1.00  0.00    -0.269 OA
BRANCH  30  33
ATOM     33  C   UNL A   1      36.049  29.948  28.496  1.00  0.00     0.039 A 
ATOM     34  C   UNL A   1      36.396  29.451  29.766  1.00  0.00     0.014 A 
ATOM     35  C   UNL A   1      37.028  30.119  27.530  1.00  0.00     0.014 A 
ATOM     36  C   UNL A   1      37.718  29.063  30.024  1.00  0.00     0.010 A 
ATOM     37  C   UNL A   1      38.290  29.604  27.736  1.00  0.00     0.010 A 
ATOM     38  C   UNL A   1      38.666  29.111  28.994  1.00  0.00    -0.014 A 
BRANCH  38  39
ATOM     39  C   UNL A   1      40.100  28.766  29.144  1.00  0.00     0.031 A 
ATOM     40  C   UNL A   1      41.052  29.885  29.495  1.00  0.00     0.074 A 
ATOM     41  C   UNL A   1      40.553  27.558  28.760  1.00  0.00     0.049 A 
ATOM     42  N   UNL A   1      42.336  29.981  29.283  1.00  0.00    -0.248 NA
ATOM     43  C   UNL A   1      40.442  31.107  30.054  1.00  0.00     0.031 C 
ATOM     44  C   UNL A   1      39.723  26.425  28.346  1.00  0.00     0.029 A 
ATOM     45  N   UNL A   1      41.836  27.100  28.609  1.00  0.00    -0.354 N 
ATOM     46  C   UNL A   1      42.667  31.295  29.604  1.00  0.00     0.074 A 
ATOM     47  C   UNL A   1      41.440  31.972  29.955  1.00  0.00     0.031 C 
ATOM     48  C   UNL A   1      40.518  25.401  27.997  1.00  0.00     0.029 A 
ATOM     49  C   UNL A   1      41.910  25.820  28.114  1.00  0.00     0.049 A 
ATOM     50  H   UNL A   1      42.630  27.638  28.834  1.00  0.00     0.167 HD
ATOM     51  C   UNL A   1      43.892  31.872  29.628  1.00  0.00     0.037 A 
ATOM     52  C   UNL A   1      42.986  25.082  27.781  1.00  0.00     0.037 A 
ATOM     53  C   UNL A   1      45.101  31.133  29.381  1.00  0.00     0.049 A 
ATOM     54  C   UNL A   1      44.349  25.703  27.937  1.00  0.00     0.074 A 
ATOM     55  C   UNL A   1      46.411  31.558  29.486  1.00  0.00     0.029 A 
ATOM     56  N   UNL A   1      45.138  29.793  29.017  1.00  0.00    -0.354 N 
ATOM     57  N   UNL A   1      44.659  26.935  28.274  1.00  0.00    -0.248 NA
ATOM     58  C   UNL A   1      45.507  24.839  27.682  1.00  0.00     0.031 C 
ATOM     59  C   UNL A   1      47.242  30.477  29.170  1.00  0.00     0.029 A 
ATOM     60  C   UNL A   1      46.449  29.370  28.904  1.00  0.00     0.049 A 
ATOM     61  H   UNL A   1      44.348  29.227  28.863  1.00  0.00     0.167 HD
ATOM     62  C   UNL A   1      46.047  26.985  28.302  1.00  0.00     0.074 A 
ATOM     63  C   UNL A   1      46.515  25.656  27.958  1.00  0.00     0.031 C 
ATOM     64  C   UNL A   1      46.866  28.029  28.582  1.00  0.00     0.037 A 
BRANCH  51  65
ATOM     65  C   UNL A   1      43.982  33.336  29.970  1.00  0.00     0.058 A 
ATOM     66  C   UNL A   1      43.801  34.336  28.999  1.00  0.00     0.135 A 
ATOM     67  C   UNL A   1      44.235  33.752  31.288  1.00  0.00     0.135 A 
ATOM     68  F   UNL A   1      43.570  34.002  27.719  1.00  0.00    -0.206 F 
ATOM     69  C   UNL A   1      43.909  35.687  29.311  1.00  0.00     0.059 A 
ATOM     70  C   UNL A   1      44.310  35.101  31.630  1.00  0.00     0.059 A 
ATOM     71  F   UNL A   1      44.417  32.845  32.261  1.00  0.00    -0.206 F 
ATOM     72  C   UNL A   1      44.163  36.061  30.631  1.00  0.00     0.060 A 
BRANCH  72  73
ATOM     73  S   UNL A   1      44.282  37.821  31.018  1.00  0.00     0.124 S 
ATOM     74  O   UNL A   1      43.716  37.862  32.362  1.00  0.00    -0.237 OA
ATOM     75  O   UNL A   1      45.718  38.062  30.928  1.00  0.00    -0.237 OA
ATOM     76  O   UNL A   1      43.477  38.452  29.977  1.00  0.00    -0.744 OA
ENDBRANCH  72  73
ENDBRANCH  51  65
BRANCH  52  77
ATOM     77  C   UNL A   1      42.819  23.674  27.331  1.00  0.00     0.058 A 
ATOM     78  C   UNL A   1      42.636  22.647  28.270  1.00  0.00     0.135 A 
ATOM     79  C   UNL A   1      42.802  23.323  25.973  1.00  0.00     0.135 A 
ATOM     80  F   UNL A   1      42.643  22.931  29.581  1.00  0.00    -0.206 F 
ATOM     81  C   UNL A   1      42.465  21.323  27.883  1.00  0.00     0.059 A 
ATOM     82  C   UNL A   1      42.608  22.007  25.558  1.00  0.00     0.059 A 
ATOM     83  F   UNL A   1      42.945  24.269  25.031  1.00  0.00    -0.206 F 
ATOM     84  C   UNL A   1      42.451  21.011  26.523  1.00  0.00     0.060 A 
BRANCH  84  85
ATOM     85  S   UNL A   1      42.182  19.294  26.033  1.00  0.00     0.124 S 
ATOM     86  O   UNL A   1      43.041  19.184  24.861  1.00  0.00    -0.237 OA
ATOM     87  O   UNL A   1      42.620  18.563  27.218  1.00  0.00    -0.237 OA
ATOM     88  O   UNL A   1      40.746  19.242  25.771  1.00  0.00    -0.744 OA
ENDBRANCH  84  85
ENDBRANCH  52  77
BRANCH  64  89
ATOM     89  C   UNL A   1      48.342  27.761  28.574  1.00  0.00     0.058 A 
ATOM     90  C   UNL A   1      49.024  27.373  29.736  1.00  0.00     0.135 A 
ATOM     91  C   UNL A   1      49.065  27.828  27.372  1.00  0.00     0.135 A 
ATOM     92  F   UNL A   1      48.374  27.299  30.908  1.00  0.00    -0.206 F 
ATOM     93  C   UNL A   1      50.382  27.079  29.711  1.00  0.00     0.059 A 
ATOM     94  C   UNL A   1      50.416  27.512  27.319  1.00  0.00     0.059 A 
ATOM     95  F   UNL A   1      48.451  28.182  26.231  1.00  0.00    -0.206 F 
ATOM     96  C   UNL A   1      51.069  27.149  28.497  1.00  0.00     0.060 A 
BRANCH  96  97
ATOM     97  S   UNL A   1      52.821  26.724  28.472  1.00  0.00     0.124 S 
ATOM     98  O   UNL A   1      52.855  25.682  27.450  1.00  0.00    -0.237 OA
ATOM     99  O   UNL A   1      53.446  27.991  28.108  1.00  0.00    -0.237 OA
ATOM    100  O   UNL A   1      53.081  26.273  29.837  1.00  0.00    -0.744 OA
ENDBRANCH  96  97
ENDBRANCH  64  89
ENDBRANCH  38  39
ENDBRANCH  30  33
ENDBRANCH  28  29
ENDBRANCH   1  28
TORSDOF 16
ENDMDL
