MODEL 1
REMARK VINA RESULT:     -10.9      0.000      0.000
REMARK SMILES C[C@@H]1CC(=O)N(CC(C)(C)C(=O)NCCCNC(=O)c2ccc(-c3c4nc(c(-c5c(F)cc(S(=O)(=O)[O-])cc5F)c5ccc([nH]5)c(-c5c(F)cc(S(=O)(=O)[O-])cc5F)c5nc(c(-c6c(F)cc(S(=O)(=O)[O-])cc6F)c6ccc3[nH]6)C=C5)C=C4)cc2)C1
REMARK SMILES IDX 15 1 14 2 13 3 11 4 12 5 8 7 9 8 10 9 7 10 6 11 1 12 2 13
REMARK SMILES IDX 3 14 86 15 4 16 5 17 16 18 17 19 18 20 19 22 20 23 21 24
REMARK SMILES IDX 85 25 22 26 84 27 23 28 24 29 25 30 78 31 26 32 83 33 77 34
REMARK SMILES IDX 79 35 27 36 82 37 76 38 75 39 28 41 62 42 41 43 61 44 42 45
REMARK SMILES IDX 45 46 60 47 80 48 43 49 44 50 59 52 81 53 46 54 29 55 30 56
REMARK SMILES IDX 39 57 31 58 32 59 38 60 40 61 33 62 34 63 35 64 36 65 37 66
REMARK SMILES IDX 63 67 64 68 73 69 65 70 66 71 72 72 74 73 67 74 68 75 69 76
REMARK SMILES IDX 70 77 71 78 47 79 48 80 57 81 49 82 50 83 56 84 58 85 51 86
REMARK SMILES IDX 52 87 53 88 54 89 55 90
REMARK H PARENT 13 6 17 21 79 40 45 51
REMARK Flexibility Score: inf
ROOT
ATOM      1  C   UNL A   1      32.198  27.839  27.198  1.00  0.00     0.042 C 
ENDROOT
BRANCH   1   2
ATOM      2  C   UNL A   1      32.018  26.699  26.208  1.00  0.00     0.117 C 
BRANCH   2   3
ATOM      3  N   UNL A   1      31.411  25.539  26.827  1.00  0.00    -0.356 N 
ATOM      4  C   UNL A   1      31.507  24.205  26.596  1.00  0.00     0.227 C 
ATOM      5  O   UNL A   1      30.742  23.518  27.278  1.00  0.00    -0.274 OA
ATOM      6  H   UNL A   1      30.804  25.765  27.568  1.00  0.00     0.163 HD
BRANCH   4   7
ATOM      7  C   UNL A   1      32.467  23.598  25.551  1.00  0.00     0.061 C 
ATOM      8  C   UNL A   1      31.921  23.721  24.117  1.00  0.00     0.023 C 
ATOM      9  C   UNL A   1      32.681  22.109  25.887  1.00  0.00     0.023 C 
BRANCH   7  10
ATOM     10  C   UNL A   1      33.869  24.295  25.639  1.00  0.00     0.135 C 
BRANCH  10  11
ATOM     11  N   UNL A   1      34.986  23.582  25.023  1.00  0.00    -0.341 N 
ATOM     12  C   UNL A   1      37.477  20.871  24.924  1.00  0.00     0.010 C 
ATOM     13  C   UNL A   1      36.235  21.695  24.636  1.00  0.00     0.015 C 
ATOM     14  C   UNL A   1      36.318  22.573  23.381  1.00  0.00     0.105 C 
ATOM     15  C   UNL A   1      35.911  22.719  25.710  1.00  0.00     0.123 C 
ATOM     16  C   UNL A   1      35.293  23.649  23.665  1.00  0.00     0.222 C 
ATOM     17  O   UNL A   1      34.872  24.453  22.845  1.00  0.00    -0.275 OA
ENDBRANCH  10  11
ENDBRANCH   7  10
ENDBRANCH   4   7
ENDBRANCH   2   3
ENDBRANCH   1   2
BRANCH   1  18
ATOM     18  C   UNL A   1      33.553  28.527  27.105  1.00  0.00     0.118 C 
BRANCH  18  19
ATOM     19  N   UNL A   1      33.507  29.918  27.540  1.00  0.00    -0.352 N 
ATOM     20  C   UNL A   1      34.437  30.660  28.228  1.00  0.00     0.251 C 
ATOM     21  H   UNL A   1      32.681  30.400  27.306  1.00  0.00     0.163 HD
ATOM     22  O   UNL A   1      34.121  31.753  28.689  1.00  0.00    -0.269 OA
BRANCH  20  23
ATOM     23  C   UNL A   1      35.804  30.133  28.428  1.00  0.00     0.039 A 
ATOM     24  C   UNL A   1      36.689  30.103  27.348  1.00  0.00     0.014 A 
ATOM     25  C   UNL A   1      36.213  29.673  29.681  1.00  0.00     0.014 A 
ATOM     26  C   UNL A   1      38.008  29.689  27.547  1.00  0.00     0.010 A 
ATOM     27  C   UNL A   1      37.549  29.354  29.899  1.00  0.00     0.010 A 
ATOM     28  C   UNL A   1      38.461  29.355  28.833  1.00  0.00    -0.014 A 
BRANCH  28  29
ATOM     29  C   UNL A   1      39.882  29.008  29.096  1.00  0.00     0.031 A 
ATOM     30  C   UNL A   1      40.831  30.061  29.608  1.00  0.00     0.074 A 
ATOM     31  C   UNL A   1      40.336  27.777  28.790  1.00  0.00     0.049 A 
ATOM     32  N   UNL A   1      42.123  29.987  29.791  1.00  0.00    -0.248 NA
ATOM     33  C   UNL A   1      40.254  31.378  29.925  1.00  0.00     0.031 C 
ATOM     34  C   UNL A   1      39.526  26.687  28.238  1.00  0.00     0.029 A 
ATOM     35  N   UNL A   1      41.596  27.236  28.878  1.00  0.00    -0.354 N 
ATOM     36  C   UNL A   1      42.517  31.250  30.220  1.00  0.00     0.074 A 
ATOM     37  C   UNL A   1      41.335  32.083  30.223  1.00  0.00     0.031 C 
ATOM     38  C   UNL A   1      40.303  25.609  28.053  1.00  0.00     0.029 A 
ATOM     39  C   UNL A   1      41.675  25.940  28.423  1.00  0.00     0.049 A 
ATOM     40  H   UNL A   1      42.370  27.731  29.232  1.00  0.00     0.167 HD
ATOM     41  C   UNL A   1      43.748  31.669  30.598  1.00  0.00     0.037 A 
ATOM     42  C   UNL A   1      42.735  25.117  28.299  1.00  0.00     0.037 A 
ATOM     43  C   UNL A   1      44.912  30.821  30.620  1.00  0.00     0.049 A 
ATOM     44  C   UNL A   1      44.094  25.606  28.725  1.00  0.00     0.074 A 
ATOM     45  C   UNL A   1      46.189  31.129  31.057  1.00  0.00     0.029 A 
ATOM     46  N   UNL A   1      44.945  29.505  30.183  1.00  0.00    -0.354 N 
ATOM     47  N   UNL A   1      44.434  26.781  29.202  1.00  0.00    -0.248 NA
ATOM     48  C   UNL A   1      45.213  24.662  28.600  1.00  0.00     0.031 C 
ATOM     49  C   UNL A   1      47.007  30.019  30.829  1.00  0.00     0.029 A 
ATOM     50  C   UNL A   1      46.227  28.997  30.312  1.00  0.00     0.049 A 
ATOM     51  H   UNL A   1      44.171  29.007  29.833  1.00  0.00     0.167 HD
ATOM     52  C   UNL A   1      45.798  26.705  29.462  1.00  0.00     0.074 A 
ATOM     53  C   UNL A   1      46.218  25.367  29.100  1.00  0.00     0.031 C 
ATOM     54  C   UNL A   1      46.627  27.657  29.958  1.00  0.00     0.037 A 
BRANCH  41  55
ATOM     55  C   UNL A   1      43.905  33.105  31.017  1.00  0.00     0.058 A 
ATOM     56  C   UNL A   1      43.771  33.506  32.355  1.00  0.00     0.135 A 
ATOM     57  C   UNL A   1      44.245  34.088  30.072  1.00  0.00     0.135 A 
ATOM     58  F   UNL A   1      43.432  32.612  33.299  1.00  0.00    -0.206 F 
ATOM     59  C   UNL A   1      43.944  34.832  32.740  1.00  0.00     0.059 A 
ATOM     60  C   UNL A   1      44.453  35.414  30.438  1.00  0.00     0.059 A 
ATOM     61  F   UNL A   1      44.385  33.762  28.777  1.00  0.00    -0.206 F 
ATOM     62  C   UNL A   1      44.288  35.779  31.773  1.00  0.00     0.060 A 
BRANCH  62  63
ATOM     63  S   UNL A   1      44.526  37.491  32.293  1.00  0.00     0.124 S 
ATOM     64  O   UNL A   1      44.201  38.215  31.068  1.00  0.00    -0.237 OA
ATOM     65  O   UNL A   1      43.562  37.622  33.381  1.00  0.00    -0.237 OA
ATOM     66  O   UNL A   1      45.928  37.534  32.694  1.00  0.00    -0.744 OA
ENDBRANCH  62  63
ENDBRANCH  41  55
BRANCH  42  67
ATOM     67  C   UNL A   1      42.554  23.744  27.753  1.00  0.00     0.058 A 
ATOM     68  C   UNL A   1      42.557  23.506  26.371  1.00  0.00     0.135 A 
ATOM     69  C   UNL A   1      42.378  22.640  28.604  1.00  0.00     0.135 A 
ATOM     70  F   UNL A   1      42.715  24.528  25.515  1.00  0.00    -0.206 F 
ATOM     71  C   UNL A   1      42.374  22.229  25.850  1.00  0.00     0.059 A 
ATOM     72  C   UNL A   1      42.223  21.350  28.107  1.00  0.00     0.059 A 
ATOM     73  F   UNL A   1      42.385  22.808  29.936  1.00  0.00    -0.206 F 
ATOM     74  C   UNL A   1      42.209  21.156  26.726  1.00  0.00     0.060 A 
BRANCH  74  75
ATOM     75  S   UNL A   1      42.015  19.498  26.039  1.00  0.00     0.124 S 
ATOM     76  O   UNL A   1      42.943  19.534  24.916  1.00  0.00    -0.237 OA
ATOM     77  O   UNL A   1      42.405  18.653  27.164  1.00  0.00    -0.237 OA
ATOM     78  O   UNL A   1      40.598  19.444  25.688  1.00  0.00    -0.744 OA
ENDBRANCH  74  75
ENDBRANCH  42  67
BRANCH  54  79
ATOM     79  C   UNL A   1      48.066  27.281  30.182  1.00  0.00     0.058 A 
ATOM     80  C   UNL A   1      49.055  27.527  29.218  1.00  0.00     0.135 A 
ATOM     81  C   UNL A   1      48.471  26.734  31.412  1.00  0.00     0.135 A 
ATOM     82  F   UNL A   1      48.722  28.040  28.023  1.00  0.00    -0.206 F 
ATOM     83  C   UNL A   1      50.392  27.227  29.457  1.00  0.00     0.059 A 
ATOM     84  C   UNL A   1      49.806  26.456  31.684  1.00  0.00     0.059 A 
ATOM     85  F   UNL A   1      47.566  26.488  32.373  1.00  0.00    -0.206 F 
ATOM     86  C   UNL A   1      50.759  26.698  30.697  1.00  0.00     0.060 A 
BRANCH  86  87
ATOM     87  S   UNL A   1      52.505  26.361  31.012  1.00  0.00     0.124 S 
ATOM     88  O   UNL A   1      52.433  25.113  31.764  1.00  0.00    -0.237 OA
ATOM     89  O   UNL A   1      53.050  26.258  29.662  1.00  0.00    -0.237 OA
ATOM     90  O   UNL A   1      52.945  27.528  31.772  1.00  0.00    -0.744 OA
ENDBRANCH  86  87
ENDBRANCH  54  79
ENDBRANCH  28  29
ENDBRANCH  20  23
ENDBRANCH  18  19
ENDBRANCH   1  18
TORSDOF 15
ENDMDL
MODEL 2
REMARK VINA RESULT:     -10.9      1.085      1.877
REMARK SMILES C[C@@H]1CC(=O)N(CC(C)(C)C(=O)NCCCNC(=O)c2ccc(-c3c4nc(c(-c5c(F)cc(S(=O)(=O)[O-])cc5F)c5ccc([nH]5)c(-c5c(F)cc(S(=O)(=O)[O-])cc5F)c5nc(c(-c6c(F)cc(S(=O)(=O)[O-])cc6F)c6ccc3[nH]6)C=C5)C=C4)cc2)C1
REMARK SMILES IDX 15 1 14 2 13 3 11 4 12 5 8 7 9 8 10 9 7 10 6 11 1 12 2 13
REMARK SMILES IDX 3 14 86 15 4 16 5 17 16 18 17 19 18 20 19 22 20 23 21 24
REMARK SMILES IDX 85 25 22 26 84 27 23 28 24 29 25 30 78 31 26 32 83 33 77 34
REMARK SMILES IDX 79 35 27 36 82 37 76 38 75 39 28 41 62 42 41 43 61 44 42 45
REMARK SMILES IDX 45 46 60 47 80 48 43 49 44 50 59 52 81 53 46 54 29 55 30 56
REMARK SMILES IDX 39 57 31 58 32 59 38 60 40 61 33 62 34 63 35 64 36 65 37 66
REMARK SMILES IDX 63 67 64 68 73 69 65 70 66 71 72 72 74 73 67 74 68 75 69 76
REMARK SMILES IDX 70 77 71 78 47 79 48 80 57 81 49 82 50 83 56 84 58 85 51 86
REMARK SMILES IDX 52 87 53 88 54 89 55 90
REMARK H PARENT 13 6 17 21 79 40 45 51
REMARK Flexibility Score: inf
ROOT
ATOM      1  C   UNL A   1      33.697  27.920  26.036  1.00  0.00     0.042 C 
ENDROOT
BRANCH   1   2
ATOM      2  C   UNL A   1      33.500  26.432  25.793  1.00  0.00     0.117 C 
BRANCH   2   3
ATOM      3  N   UNL A   1      33.556  26.105  24.382  1.00  0.00    -0.356 N 
ATOM      4  C   UNL A   1      34.076  25.061  23.689  1.00  0.00     0.227 C 
ATOM      5  O   UNL A   1      34.017  25.188  22.464  1.00  0.00    -0.274 OA
ATOM      6  H   UNL A   1      33.127  26.781  23.808  1.00  0.00     0.163 HD
BRANCH   4   7
ATOM      7  C   UNL A   1      34.714  23.832  24.372  1.00  0.00     0.061 C 
ATOM      8  C   UNL A   1      35.753  24.230  25.436  1.00  0.00     0.023 C 
ATOM      9  C   UNL A   1      35.398  22.970  23.292  1.00  0.00     0.023 C 
BRANCH   7  10
ATOM     10  C   UNL A   1      33.601  22.944  25.032  1.00  0.00     0.135 C 
BRANCH  10  11
ATOM     11  N   UNL A   1      33.425  21.607  24.472  1.00  0.00    -0.341 N 
ATOM     12  C   UNL A   1      33.731  17.939  24.610  1.00  0.00     0.010 C 
ATOM     13  C   UNL A   1      33.141  19.337  24.665  1.00  0.00     0.015 C 
ATOM     14  C   UNL A   1      32.426  19.788  23.386  1.00  0.00     0.105 C 
ATOM     15  C   UNL A   1      34.174  20.435  24.846  1.00  0.00     0.123 C 
ATOM     16  C   UNL A   1      32.486  21.295  23.489  1.00  0.00     0.222 C 
ATOM     17  O   UNL A   1      31.857  22.075  22.788  1.00  0.00    -0.275 OA
ENDBRANCH  10  11
ENDBRANCH   7  10
ENDBRANCH   4   7
ENDBRANCH   2   3
ENDBRANCH   1   2
BRANCH   1  18
ATOM     18  C   UNL A   1      33.403  28.353  27.466  1.00  0.00     0.118 C 
BRANCH  18  19
ATOM     19  N   UNL A   1      33.421  29.802  27.628  1.00  0.00    -0.352 N 
ATOM     20  C   UNL A   1      34.410  30.626  28.110  1.00  0.00     0.251 C 
ATOM     21  H   UNL A   1      32.596  30.262  27.350  1.00  0.00     0.163 HD
ATOM     22  O   UNL A   1      34.152  31.798  28.368  1.00  0.00    -0.269 OA
BRANCH  20  23
ATOM     23  C   UNL A   1      35.771  30.095  28.335  1.00  0.00     0.039 A 
ATOM     24  C   UNL A   1      36.677  30.066  27.271  1.00  0.00     0.014 A 
ATOM     25  C   UNL A   1      36.155  29.631  29.594  1.00  0.00     0.014 A 
ATOM     26  C   UNL A   1      37.991  29.648  27.494  1.00  0.00     0.010 A 
ATOM     27  C   UNL A   1      37.486  29.308  29.836  1.00  0.00     0.010 A 
ATOM     28  C   UNL A   1      38.418  29.310  28.788  1.00  0.00    -0.014 A 
BRANCH  28  29
ATOM     29  C   UNL A   1      39.833  28.959  29.077  1.00  0.00     0.031 A 
ATOM     30  C   UNL A   1      40.773  30.006  29.615  1.00  0.00     0.074 A 
ATOM     31  C   UNL A   1      40.291  27.728  28.772  1.00  0.00     0.049 A 
ATOM     32  N   UNL A   1      42.061  29.929  29.823  1.00  0.00    -0.248 NA
ATOM     33  C   UNL A   1      40.193  31.323  29.930  1.00  0.00     0.031 C 
ATOM     34  C   UNL A   1      39.491  26.644  28.197  1.00  0.00     0.029 A 
ATOM     35  N   UNL A   1      41.548  27.186  28.881  1.00  0.00    -0.354 N 
ATOM     36  C   UNL A   1      42.449  31.188  30.269  1.00  0.00     0.074 A 
ATOM     37  C   UNL A   1      41.268  32.023  30.253  1.00  0.00     0.031 C 
ATOM     38  C   UNL A   1      40.270  25.566  28.020  1.00  0.00     0.029 A 
ATOM     39  C   UNL A   1      41.635  25.892  28.420  1.00  0.00     0.049 A 
ATOM     40  H   UNL A   1      42.316  27.677  29.255  1.00  0.00     0.167 HD
ATOM     41  C   UNL A   1      43.673  31.603  30.674  1.00  0.00     0.037 A 
ATOM     42  C   UNL A   1      42.696  25.068  28.311  1.00  0.00     0.037 A 
ATOM     43  C   UNL A   1      44.835  30.753  30.714  1.00  0.00     0.049 A 
ATOM     44  C   UNL A   1      44.047  25.553  28.768  1.00  0.00     0.074 A 
ATOM     45  C   UNL A   1      46.102  31.056  31.178  1.00  0.00     0.029 A 
ATOM     46  N   UNL A   1      44.874  29.440  30.268  1.00  0.00    -0.354 N 
ATOM     47  N   UNL A   1      44.379  26.723  29.259  1.00  0.00    -0.248 NA
ATOM     48  C   UNL A   1      45.166  24.607  28.659  1.00  0.00     0.031 C 
ATOM     49  C   UNL A   1      46.923  29.946  30.959  1.00  0.00     0.029 A 
ATOM     50  C   UNL A   1      46.152  28.929  30.420  1.00  0.00     0.049 A 
ATOM     51  H   UNL A   1      44.107  28.945  29.900  1.00  0.00     0.167 HD
ATOM     52  C   UNL A   1      45.737  26.643  29.546  1.00  0.00     0.074 A 
ATOM     53  C   UNL A   1      46.162  25.307  29.184  1.00  0.00     0.031 C 
ATOM     54  C   UNL A   1      46.557  27.591  30.065  1.00  0.00     0.037 A 
BRANCH  41  55
ATOM     55  C   UNL A   1      43.823  33.036  31.106  1.00  0.00     0.058 A 
ATOM     56  C   UNL A   1      43.985  34.077  30.178  1.00  0.00     0.135 A 
ATOM     57  C   UNL A   1      43.754  33.379  32.467  1.00  0.00     0.135 A 
ATOM     58  F   UNL A   1      44.074  33.807  28.866  1.00  0.00    -0.206 F 
ATOM     59  C   UNL A   1      44.097  35.403  30.583  1.00  0.00     0.059 A 
ATOM     60  C   UNL A   1      43.833  34.702  32.893  1.00  0.00     0.059 A 
ATOM     61  F   UNL A   1      43.602  32.424  33.398  1.00  0.00    -0.206 F 
ATOM     62  C   UNL A   1      44.017  35.706  31.944  1.00  0.00     0.060 A 
BRANCH  62  63
ATOM     63  S   UNL A   1      44.145  37.434  32.450  1.00  0.00     0.124 S 
ATOM     64  O   UNL A   1      43.842  38.125  31.200  1.00  0.00    -0.237 OA
ATOM     65  O   UNL A   1      43.125  37.529  33.490  1.00  0.00    -0.237 OA
ATOM     66  O   UNL A   1      45.523  37.553  32.915  1.00  0.00    -0.744 OA
ENDBRANCH  62  63
ENDBRANCH  41  55
BRANCH  42  67
ATOM     67  C   UNL A   1      42.523  23.699  27.753  1.00  0.00     0.058 A 
ATOM     68  C   UNL A   1      42.460  23.483  26.368  1.00  0.00     0.135 A 
ATOM     69  C   UNL A   1      42.423  22.578  28.593  1.00  0.00     0.135 A 
ATOM     70  F   UNL A   1      42.546  24.521  25.523  1.00  0.00    -0.206 F 
ATOM     71  C   UNL A   1      42.285  22.210  25.836  1.00  0.00     0.059 A 
ATOM     72  C   UNL A   1      42.277  21.292  28.083  1.00  0.00     0.059 A 
ATOM     73  F   UNL A   1      42.495  22.726  29.925  1.00  0.00    -0.206 F 
ATOM     74  C   UNL A   1      42.196  21.119  26.702  1.00  0.00     0.060 A 
BRANCH  74  75
ATOM     75  S   UNL A   1      42.010  19.466  25.998  1.00  0.00     0.124 S 
ATOM     76  O   UNL A   1      42.920  19.527  24.861  1.00  0.00    -0.237 OA
ATOM     77  O   UNL A   1      42.428  18.613  27.107  1.00  0.00    -0.237 OA
ATOM     78  O   UNL A   1      40.589  19.399  25.668  1.00  0.00    -0.744 OA
ENDBRANCH  74  75
ENDBRANCH  42  67
BRANCH  54  79
ATOM     79  C   UNL A   1      47.991  27.211  30.316  1.00  0.00     0.058 A 
ATOM     80  C   UNL A   1      49.003  27.480  29.382  1.00  0.00     0.135 A 
ATOM     81  C   UNL A   1      48.366  26.636  31.542  1.00  0.00     0.135 A 
ATOM     82  F   UNL A   1      48.698  28.021  28.192  1.00  0.00    -0.206 F 
ATOM     83  C   UNL A   1      50.335  27.176  29.647  1.00  0.00     0.059 A 
ATOM     84  C   UNL A   1      49.695  26.353  31.840  1.00  0.00     0.059 A 
ATOM     85  F   UNL A   1      47.439  26.367  32.474  1.00  0.00    -0.206 F 
ATOM     86  C   UNL A   1      50.672  26.619  30.882  1.00  0.00     0.060 A 
BRANCH  86  87
ATOM     87  S   UNL A   1      52.410  26.276  31.231  1.00  0.00     0.124 S 
ATOM     88  O   UNL A   1      52.779  27.428  32.048  1.00  0.00    -0.237 OA
ATOM     89  O   UNL A   1      52.339  24.998  31.933  1.00  0.00    -0.237 OA
ATOM     90  O   UNL A   1      53.020  26.225  29.906  1.00  0.00    -0.744 OA
ENDBRANCH  86  87
ENDBRANCH  54  79
ENDBRANCH  28  29
ENDBRANCH  20  23
ENDBRANCH  18  19
ENDBRANCH   1  18
TORSDOF 15
ENDMDL
MODEL 3
REMARK VINA RESULT:     -10.6      3.052      4.584
REMARK SMILES C[C@@H]1CC(=O)N(CC(C)(C)C(=O)NCCCNC(=O)c2ccc(-c3c4nc(c(-c5c(F)cc(S(=O)(=O)[O-])cc5F)c5ccc([nH]5)c(-c5c(F)cc(S(=O)(=O)[O-])cc5F)c5nc(c(-c6c(F)cc(S(=O)(=O)[O-])cc6F)c6ccc3[nH]6)C=C5)C=C4)cc2)C1
REMARK SMILES IDX 15 1 14 2 13 3 11 4 12 5 8 7 9 8 10 9 7 10 6 11 1 12 2 13
REMARK SMILES IDX 3 14 86 15 4 16 5 17 16 18 17 19 18 20 19 22 20 23 21 24
REMARK SMILES IDX 85 25 22 26 84 27 23 28 24 29 25 30 78 31 26 32 83 33 77 34
REMARK SMILES IDX 79 35 27 36 82 37 76 38 75 39 28 41 62 42 41 43 61 44 42 45
REMARK SMILES IDX 45 46 60 47 80 48 43 49 44 50 59 52 81 53 46 54 29 55 30 56
REMARK SMILES IDX 39 57 31 58 32 59 38 60 40 61 33 62 34 63 35 64 36 65 37 66
REMARK SMILES IDX 63 67 64 68 73 69 65 70 66 71 72 72 74 73 67 74 68 75 69 76
REMARK SMILES IDX 70 77 71 78 47 79 48 80 57 81 49 82 50 83 56 84 58 85 51 86
REMARK SMILES IDX 52 87 53 88 54 89 55 90
REMARK H PARENT 13 6 17 21 79 40 45 51
REMARK Flexibility Score: inf
ROOT
ATOM      1  C   UNL A   1      34.282  30.009  27.272  1.00  0.00     0.042 C 
ENDROOT
BRANCH   1   2
ATOM      2  C   UNL A   1      33.879  28.822  26.412  1.00  0.00     0.117 C 
BRANCH   2   3
ATOM      3  N   UNL A   1      33.736  29.190  25.019  1.00  0.00    -0.356 N 
ATOM      4  C   UNL A   1      33.024  28.669  23.987  1.00  0.00     0.227 C 
ATOM      5  O   UNL A   1      33.242  29.208  22.899  1.00  0.00    -0.274 OA
ATOM      6  H   UNL A   1      34.263  29.983  24.769  1.00  0.00     0.163 HD
BRANCH   4   7
ATOM      7  C   UNL A   1      32.048  27.484  24.151  1.00  0.00     0.061 C 
ATOM      8  C   UNL A   1      31.254  27.561  25.468  1.00  0.00     0.023 C 
ATOM      9  C   UNL A   1      32.857  26.173  24.121  1.00  0.00     0.023 C 
BRANCH   7  10
ATOM     10  C   UNL A   1      31.051  27.437  22.941  1.00  0.00     0.135 C 
BRANCH  10  11
ATOM     11  N   UNL A   1      29.832  28.231  23.076  1.00  0.00    -0.341 N 
ATOM     12  C   UNL A   1      27.820  31.258  22.484  1.00  0.00     0.010 C 
ATOM     13  C   UNL A   1      28.360  29.845  22.369  1.00  0.00     0.015 C 
ATOM     14  C   UNL A   1      27.555  28.781  23.125  1.00  0.00     0.105 C 
ATOM     15  C   UNL A   1      29.747  29.663  22.961  1.00  0.00     0.123 C 
ATOM     16  C   UNL A   1      28.576  27.684  23.335  1.00  0.00     0.222 C 
ATOM     17  O   UNL A   1      28.322  26.550  23.717  1.00  0.00    -0.275 OA
ENDBRANCH  10  11
ENDBRANCH   7  10
ENDBRANCH   4   7
ENDBRANCH   2   3
ENDBRANCH   1   2
BRANCH   1  18
ATOM     18  C   UNL A   1      35.504  29.750  28.144  1.00  0.00     0.118 C 
BRANCH  18  19
ATOM     19  N   UNL A   1      35.421  30.418  29.438  1.00  0.00    -0.352 N 
ATOM     20  C   UNL A   1      36.393  30.632  30.385  1.00  0.00     0.251 C 
ATOM     21  H   UNL A   1      34.531  30.770  29.668  1.00  0.00     0.163 HD
ATOM     22  O   UNL A   1      36.074  31.025  31.504  1.00  0.00    -0.269 OA
BRANCH  20  23
ATOM     23  C   UNL A   1      37.812  30.369  30.064  1.00  0.00     0.039 A 
ATOM     24  C   UNL A   1      38.684  29.985  31.086  1.00  0.00     0.014 A 
ATOM     25  C   UNL A   1      38.281  30.498  28.756  1.00  0.00     0.014 A 
ATOM     26  C   UNL A   1      40.005  29.651  30.778  1.00  0.00     0.010 A 
ATOM     27  C   UNL A   1      39.566  30.072  28.436  1.00  0.00     0.010 A 
ATOM     28  C   UNL A   1      40.443  29.646  29.444  1.00  0.00    -0.014 A 
BRANCH  28  29
ATOM     29  C   UNL A   1      41.811  29.199  29.073  1.00  0.00     0.031 A 
ATOM     30  C   UNL A   1      42.937  30.198  29.011  1.00  0.00     0.074 A 
ATOM     31  C   UNL A   1      42.019  27.919  28.706  1.00  0.00     0.049 A 
ATOM     32  N   UNL A   1      44.167  30.029  28.602  1.00  0.00    -0.248 NA
ATOM     33  C   UNL A   1      42.630  31.574  29.435  1.00  0.00     0.031 C 
ATOM     34  C   UNL A   1      40.996  26.870  28.674  1.00  0.00     0.029 A 
ATOM     35  N   UNL A   1      43.155  27.283  28.268  1.00  0.00    -0.354 N 
ATOM     36  C   UNL A   1      44.772  31.278  28.697  1.00  0.00     0.074 A 
ATOM     37  C   UNL A   1      43.760  32.204  29.154  1.00  0.00     0.031 C 
ATOM     38  C   UNL A   1      41.553  25.722  28.256  1.00  0.00     0.029 A 
ATOM     39  C   UNL A   1      42.958  25.961  27.942  1.00  0.00     0.049 A 
ATOM     40  H   UNL A   1      44.028  27.732  28.194  1.00  0.00     0.167 HD
ATOM     41  C   UNL A   1      46.059  31.616  28.444  1.00  0.00     0.037 A 
ATOM     42  C   UNL A   1      43.807  25.048  27.430  1.00  0.00     0.037 A 
ATOM     43  C   UNL A   1      47.066  30.678  28.018  1.00  0.00     0.049 A 
ATOM     44  C   UNL A   1      45.233  25.448  27.158  1.00  0.00     0.074 A 
ATOM     45  C   UNL A   1      48.415  30.905  27.809  1.00  0.00     0.029 A 
ATOM     46  N   UNL A   1      46.835  29.341  27.730  1.00  0.00    -0.354 N 
ATOM     47  N   UNL A   1      45.808  26.616  27.326  1.00  0.00    -0.248 NA
ATOM     48  C   UNL A   1      46.128  24.409  26.630  1.00  0.00     0.031 C 
ATOM     49  C   UNL A   1      48.987  29.720  27.338  1.00  0.00     0.029 A 
ATOM     50  C   UNL A   1      48.010  28.738  27.316  1.00  0.00     0.049 A 
ATOM     51  H   UNL A   1      45.964  28.889  27.809  1.00  0.00     0.167 HD
ATOM     52  C   UNL A   1      47.136  26.444  26.954  1.00  0.00     0.074 A 
ATOM     53  C   UNL A   1      47.283  25.057  26.563  1.00  0.00     0.031 C 
ATOM     54  C   UNL A   1      48.144  27.351  26.941  1.00  0.00     0.037 A 
BRANCH  41  55
ATOM     55  C   UNL A   1      46.457  33.056  28.620  1.00  0.00     0.058 A 
ATOM     56  C   UNL A   1      46.927  33.551  29.847  1.00  0.00     0.135 A 
ATOM     57  C   UNL A   1      46.415  33.943  27.531  1.00  0.00     0.135 A 
ATOM     58  F   UNL A   1      46.973  32.753  30.926  1.00  0.00    -0.206 F 
ATOM     59  C   UNL A   1      47.317  34.878  29.995  1.00  0.00     0.059 A 
ATOM     60  C   UNL A   1      46.829  35.266  27.649  1.00  0.00     0.059 A 
ATOM     61  F   UNL A   1      45.973  33.524  26.334  1.00  0.00    -0.206 F 
ATOM     62  C   UNL A   1      47.267  35.728  28.889  1.00  0.00     0.060 A 
BRANCH  62  63
ATOM     63  S   UNL A   1      47.796  37.441  29.096  1.00  0.00     0.124 S 
ATOM     64  O   UNL A   1      47.049  37.834  30.287  1.00  0.00    -0.237 OA
ATOM     65  O   UNL A   1      49.239  37.302  29.269  1.00  0.00    -0.237 OA
ATOM     66  O   UNL A   1      47.376  38.081  27.853  1.00  0.00    -0.744 OA
ENDBRANCH  62  63
ENDBRANCH  41  55
BRANCH  42  67
ATOM     67  C   UNL A   1      43.334  23.665  27.147  1.00  0.00     0.058 A 
ATOM     68  C   UNL A   1      43.047  23.250  25.838  1.00  0.00     0.135 A 
ATOM     69  C   UNL A   1      43.163  22.729  28.179  1.00  0.00     0.135 A 
ATOM     70  F   UNL A   1      43.188  24.109  24.816  1.00  0.00    -0.206 F 
ATOM     71  C   UNL A   1      42.590  21.965  25.563  1.00  0.00     0.059 A 
ATOM     72  C   UNL A   1      42.736  21.429  27.926  1.00  0.00     0.059 A 
ATOM     73  F   UNL A   1      43.441  23.067  29.448  1.00  0.00    -0.206 F 
ATOM     74  C   UNL A   1      42.440  21.060  26.615  1.00  0.00     0.060 A 
BRANCH  74  75
ATOM     75  S   UNL A   1      41.886  19.382  26.241  1.00  0.00     0.124 S 
ATOM     76  O   UNL A   1      40.444  19.566  26.135  1.00  0.00    -0.237 OA
ATOM     77  O   UNL A   1      42.589  19.099  24.994  1.00  0.00    -0.237 OA
ATOM     78  O   UNL A   1      42.342  18.613  27.396  1.00  0.00    -0.744 OA
ENDBRANCH  74  75
ENDBRANCH  42  67
BRANCH  54  79
ATOM     79  C   UNL A   1      49.509  26.873  26.529  1.00  0.00     0.058 A 
ATOM     80  C   UNL A   1      50.388  26.269  27.440  1.00  0.00     0.135 A 
ATOM     81  C   UNL A   1      49.911  26.955  25.185  1.00  0.00     0.135 A 
ATOM     82  F   UNL A   1      50.057  26.172  28.738  1.00  0.00    -0.206 F 
ATOM     83  C   UNL A   1      51.627  25.779  27.038  1.00  0.00     0.059 A 
ATOM     84  C   UNL A   1      51.132  26.444  24.755  1.00  0.00     0.059 A 
ATOM     85  F   UNL A   1      49.104  27.516  24.271  1.00  0.00    -0.206 F 
ATOM     86  C   UNL A   1      51.987  25.865  25.691  1.00  0.00     0.060 A 
BRANCH  86  87
ATOM     87  S   UNL A   1      53.575  25.180  25.174  1.00  0.00     0.124 S 
ATOM     88  O   UNL A   1      54.482  25.764  26.157  1.00  0.00    -0.237 OA
ATOM     89  O   UNL A   1      53.348  23.743  25.296  1.00  0.00    -0.237 OA
ATOM     90  O   UNL A   1      53.730  25.671  23.808  1.00  0.00    -0.744 OA
ENDBRANCH  86  87
ENDBRANCH  54  79
ENDBRANCH  28  29
ENDBRANCH  20  23
ENDBRANCH  18  19
ENDBRANCH   1  18
TORSDOF 15
ENDMDL
