MODEL 1
REMARK VINA RESULT:     -13.8      0.000      0.000
REMARK SMILES Cc1ccc(NC(=O)c2ccccc2NC(=O)[C@H]2CCCC[C@H]2C(=O)NCCCNC(=O)c2ccc(-c3c4nc(c(-c5c(F)cc(S(=O)(=O)[O-])cc5F)c5ccc([nH]5)c(-c5c(F)cc(S(=O)(=O)[O-])cc5F)c5nc(c(-c6c(F)cc(S(=O)(=O)[O-])cc6F)c6ccc3[nH]6)C=C5)C=C4)cc2)cc1
REMARK SMILES IDX 27 1 26 2 24 3 25 4 23 6 18 7 19 8 20 9 22 10 21 11 16 12
REMARK SMILES IDX 15 13 17 15 14 16 9 17 10 18 11 19 13 20 12 21 7 22 6 23
REMARK SMILES IDX 8 25 5 26 1 27 2 28 3 29 100 30 4 31 99 32 28 33 29 34 30 35
REMARK SMILES IDX 31 36 32 38 33 39 34 40 98 41 35 42 97 43 36 44 37 45 38 46
REMARK SMILES IDX 91 47 39 48 96 49 90 50 92 51 40 52 95 53 89 54 88 55 41 57
REMARK SMILES IDX 75 58 54 59 74 60 55 61 58 62 73 63 93 64 56 65 57 66 72 68
REMARK SMILES IDX 94 69 59 70 42 71 43 72 52 73 44 74 45 75 51 76 53 77 46 78
REMARK SMILES IDX 47 79 48 80 49 81 50 82 76 83 77 84 86 85 78 86 79 87 85 88
REMARK SMILES IDX 87 89 80 90 81 91 82 92 83 93 84 94 60 95 61 96 70 97 62 98
REMARK SMILES IDX 63 99 69 100 71 101 64 102 65 103 66 104 67 105 68 106
REMARK H PARENT 26 5 15 14 6 24 30 37 92 56 58 67
REMARK Flexibility Score: inf
ROOT
ATOM      1  C   UNL A   1      32.127  31.459  26.878  1.00  0.00     0.117 C 
ENDROOT
BRANCH   1   2
ATOM      2  N   UNL A   1      31.412  30.803  25.752  1.00  0.00    -0.356 N 
ATOM      3  C   UNL A   1      31.524  29.648  25.032  1.00  0.00     0.223 C 
ATOM      4  O   UNL A   1      30.595  29.286  24.297  1.00  0.00    -0.275 OA
ATOM      5  H   UNL A   1      30.654  31.349  25.440  1.00  0.00     0.163 HD
BRANCH   3   6
ATOM      6  C   UNL A   1      32.785  28.789  25.014  1.00  0.00     0.091 C 
ATOM      7  C   UNL A   1      32.937  27.978  26.327  1.00  0.00     0.091 C 
ATOM      8  C   UNL A   1      33.895  26.788  26.183  1.00  0.00     0.014 C 
ATOM      9  C   UNL A   1      33.666  25.998  24.896  1.00  0.00     0.001 C 
ATOM     10  C   UNL A   1      33.051  28.130  23.657  1.00  0.00     0.014 C 
ATOM     11  C   UNL A   1      33.904  26.869  23.677  1.00  0.00     0.001 C 
BRANCH   7  12
ATOM     12  C   UNL A   1      31.620  27.488  26.916  1.00  0.00     0.228 C 
ATOM     13  N   UNL A   1      30.946  26.360  26.562  1.00  0.00    -0.325 N 
ATOM     14  H   UNL A   1      30.417  26.009  27.314  1.00  0.00     0.169 HD
ATOM     15  O   UNL A   1      31.100  28.189  27.794  1.00  0.00    -0.274 OA
BRANCH  13  16
ATOM     16  C   UNL A   1      30.798  25.553  25.408  1.00  0.00     0.054 A 
ATOM     17  C   UNL A   1      30.886  24.134  25.504  1.00  0.00     0.063 A 
ATOM     18  C   UNL A   1      30.836  23.353  24.323  1.00  0.00     0.016 A 
ATOM     19  C   UNL A   1      30.656  23.929  23.072  1.00  0.00     0.001 A 
ATOM     20  C   UNL A   1      30.512  26.089  24.144  1.00  0.00     0.027 A 
ATOM     21  C   UNL A   1      30.471  25.296  22.988  1.00  0.00     0.002 A 
BRANCH  17  22
ATOM     22  C   UNL A   1      31.103  23.296  26.731  1.00  0.00     0.257 C 
ATOM     23  N   UNL A   1      32.173  22.469  26.962  1.00  0.00    -0.322 N 
ATOM     24  H   UNL A   1      31.982  21.787  27.647  1.00  0.00     0.170 HD
ATOM     25  O   UNL A   1      30.248  23.349  27.623  1.00  0.00    -0.269 OA
BRANCH  23  26
ATOM     26  C   UNL A   1      33.472  22.366  26.453  1.00  0.00     0.041 A 
ATOM     27  C   UNL A   1      36.932  22.647  23.954  1.00  0.00     0.044 C 
ATOM     28  C   UNL A   1      35.816  22.409  24.926  1.00  0.00    -0.051 A 
ATOM     29  C   UNL A   1      35.713  23.184  26.089  1.00  0.00     0.005 A 
ATOM     30  C   UNL A   1      34.801  21.499  24.625  1.00  0.00     0.005 A 
ATOM     31  C   UNL A   1      34.547  23.150  26.864  1.00  0.00     0.026 A 
ATOM     32  C   UNL A   1      33.639  21.468  25.394  1.00  0.00     0.026 A 
ENDBRANCH  23  26
ENDBRANCH  17  22
ENDBRANCH  13  16
ENDBRANCH   7  12
ENDBRANCH   3   6
ENDBRANCH   1   2
BRANCH   1  33
ATOM     33  C   UNL A   1      32.130  33.076  27.033  1.00  0.00     0.042 C 
BRANCH  33  34
ATOM     34  C   UNL A   1      33.248  33.709  27.981  1.00  0.00     0.118 C 
BRANCH  34  35
ATOM     35  N   UNL A   1      33.866  33.102  29.333  1.00  0.00    -0.352 N 
ATOM     36  C   UNL A   1      35.033  32.374  29.848  1.00  0.00     0.251 C 
ATOM     37  H   UNL A   1      33.247  33.279  30.077  1.00  0.00     0.163 HD
ATOM     38  O   UNL A   1      35.602  32.992  30.770  1.00  0.00    -0.269 OA
BRANCH  36  39
ATOM     39  C   UNL A   1      35.713  30.957  29.570  1.00  0.00     0.039 A 
ATOM     40  C   UNL A   1      36.016  30.032  30.626  1.00  0.00     0.014 A 
ATOM     41  C   UNL A   1      36.124  30.474  28.336  1.00  0.00     0.014 A 
ATOM     42  C   UNL A   1      37.142  29.104  30.521  1.00  0.00     0.010 A 
ATOM     43  C   UNL A   1      37.238  29.576  28.227  1.00  0.00     0.010 A 
ATOM     44  C   UNL A   1      37.927  29.102  29.353  1.00  0.00    -0.014 A 
BRANCH  44  45
ATOM     45  C   UNL A   1      39.468  28.979  29.317  1.00  0.00     0.031 A 
ATOM     46  C   UNL A   1      40.096  27.755  28.827  1.00  0.00     0.074 A 
ATOM     47  C   UNL A   1      40.437  29.930  29.544  1.00  0.00     0.049 A 
ATOM     48  N   UNL A   1      40.944  27.037  29.492  1.00  0.00    -0.248 NA
ATOM     49  C   UNL A   1      39.868  27.326  27.458  1.00  0.00     0.031 C 
ATOM     50  C   UNL A   1      41.906  29.960  29.384  1.00  0.00     0.029 A 
ATOM     51  N   UNL A   1      40.273  31.244  29.931  1.00  0.00    -0.354 N 
ATOM     52  C   UNL A   1      41.573  26.254  28.545  1.00  0.00     0.074 A 
ATOM     53  C   UNL A   1      40.728  26.310  27.368  1.00  0.00     0.031 C 
ATOM     54  C   UNL A   1      42.424  31.037  30.032  1.00  0.00     0.029 A 
ATOM     55  C   UNL A   1      41.331  31.734  30.680  1.00  0.00     0.049 A 
ATOM     56  H   UNL A   1      39.481  31.781  29.697  1.00  0.00     0.167 HD
ATOM     57  C   UNL A   1      42.893  25.906  28.654  1.00  0.00     0.037 A 
ATOM     58  C   UNL A   1      41.133  32.073  31.999  1.00  0.00     0.037 A 
ATOM     59  C   UNL A   1      43.579  26.726  29.663  1.00  0.00     0.049 A 
ATOM     60  C   UNL A   1      41.833  31.079  32.873  1.00  0.00     0.074 A 
ATOM     61  C   UNL A   1      44.488  27.767  29.530  1.00  0.00     0.029 A 
ATOM     62  N   UNL A   1      43.154  26.757  30.986  1.00  0.00    -0.354 N 
ATOM     63  N   UNL A   1      42.376  30.004  32.391  1.00  0.00    -0.248 NA
ATOM     64  C   UNL A   1      41.970  31.165  34.320  1.00  0.00     0.031 C 
ATOM     65  C   UNL A   1      44.576  28.447  30.769  1.00  0.00     0.029 A 
ATOM     66  C   UNL A   1      43.737  27.812  31.668  1.00  0.00     0.049 A 
ATOM     67  H   UNL A   1      42.523  26.115  31.385  1.00  0.00     0.167 HD
ATOM     68  C   UNL A   1      42.897  29.246  33.384  1.00  0.00     0.074 A 
ATOM     69  C   UNL A   1      42.650  30.031  34.579  1.00  0.00     0.031 C 
ATOM     70  C   UNL A   1      43.461  28.041  33.085  1.00  0.00     0.037 A 
BRANCH  57  71
ATOM     71  C   UNL A   1      43.630  25.099  27.593  1.00  0.00     0.058 A 
ATOM     72  C   UNL A   1      44.151  25.696  26.423  1.00  0.00     0.135 A 
ATOM     73  C   UNL A   1      43.912  23.720  27.713  1.00  0.00     0.135 A 
ATOM     74  F   UNL A   1      44.099  27.019  26.225  1.00  0.00    -0.206 F 
ATOM     75  C   UNL A   1      44.794  24.970  25.417  1.00  0.00     0.059 A 
ATOM     76  C   UNL A   1      44.494  22.960  26.693  1.00  0.00     0.059 A 
ATOM     77  F   UNL A   1      43.692  23.062  28.861  1.00  0.00    -0.206 F 
ATOM     78  C   UNL A   1      44.941  23.597  25.547  1.00  0.00     0.060 A 
BRANCH  78  79
ATOM     79  S   UNL A   1      45.807  22.684  24.256  1.00  0.00     0.124 S 
ATOM     80  O   UNL A   1      46.402  21.578  25.001  1.00  0.00    -0.237 OA
ATOM     81  O   UNL A   1      44.717  22.327  23.354  1.00  0.00    -0.237 OA
ATOM     82  O   UNL A   1      46.759  23.658  23.728  1.00  0.00    -0.744 OA
ENDBRANCH  78  79
ENDBRANCH  57  71
BRANCH  58  83
ATOM     83  C   UNL A   1      39.777  32.721  32.383  1.00  0.00     0.058 A 
ATOM     84  C   UNL A   1      39.325  32.363  33.664  1.00  0.00     0.135 A 
ATOM     85  C   UNL A   1      39.782  34.086  32.175  1.00  0.00     0.135 A 
ATOM     86  F   UNL A   1      38.688  31.198  33.837  1.00  0.00    -0.206 F 
ATOM     87  C   UNL A   1      39.636  33.133  34.788  1.00  0.00     0.059 A 
ATOM     88  C   UNL A   1      40.141  34.852  33.289  1.00  0.00     0.059 A 
ATOM     89  F   UNL A   1      40.050  34.575  30.949  1.00  0.00    -0.206 F 
ATOM     90  C   UNL A   1      40.245  34.359  34.572  1.00  0.00     0.060 A 
BRANCH  90  91
ATOM     91  S   UNL A   1      41.669  35.016  35.829  1.00  0.00     0.124 S 
ATOM     92  O   UNL A   1      40.846  35.851  36.669  1.00  0.00    -0.237 OA
ATOM     93  O   UNL A   1      42.172  33.851  36.547  1.00  0.00    -0.237 OA
ATOM     94  O   UNL A   1      42.687  35.703  35.065  1.00  0.00    -0.744 OA
ENDBRANCH  90  91
ENDBRANCH  58  83
BRANCH  70  95
ATOM     95  C   UNL A   1      43.912  27.017  34.082  1.00  0.00     0.058 A 
ATOM     96  C   UNL A   1      43.047  26.158  34.776  1.00  0.00     0.135 A 
ATOM     97  C   UNL A   1      45.296  26.798  34.287  1.00  0.00     0.135 A 
ATOM     98  F   UNL A   1      41.724  26.170  34.570  1.00  0.00    -0.206 F 
ATOM     99  C   UNL A   1      43.517  25.215  35.685  1.00  0.00     0.059 A 
ATOM    100  C   UNL A   1      45.787  25.812  35.129  1.00  0.00     0.059 A 
ATOM    101  F   UNL A   1      46.230  27.534  33.666  1.00  0.00    -0.206 F 
ATOM    102  C   UNL A   1      44.888  25.053  35.857  1.00  0.00     0.060 A 
BRANCH 102 103
ATOM    103  S   UNL A   1      45.490  23.821  37.017  1.00  0.00     0.124 S 
ATOM    104  O   UNL A   1      44.958  22.594  36.433  1.00  0.00    -0.237 OA
ATOM    105  O   UNL A   1      46.938  23.985  36.932  1.00  0.00    -0.237 OA
ATOM    106  O   UNL A   1      44.893  24.228  38.285  1.00  0.00    -0.744 OA
ENDBRANCH 102 103
ENDBRANCH  70  95
ENDBRANCH  44  45
ENDBRANCH  36  39
ENDBRANCH  34  35
ENDBRANCH  33  34
ENDBRANCH   1  33
TORSDOF 17
ENDMDL
MODEL 2
REMARK VINA RESULT:     -13.4      1.720      2.420
REMARK SMILES Cc1ccc(NC(=O)c2ccccc2NC(=O)[C@H]2CCCC[C@H]2C(=O)NCCCNC(=O)c2ccc(-c3c4nc(c(-c5c(F)cc(S(=O)(=O)[O-])cc5F)c5ccc([nH]5)c(-c5c(F)cc(S(=O)(=O)[O-])cc5F)c5nc(c(-c6c(F)cc(S(=O)(=O)[O-])cc6F)c6ccc3[nH]6)C=C5)C=C4)cc2)cc1
REMARK SMILES IDX 27 1 26 2 24 3 25 4 23 6 18 7 19 8 20 9 22 10 21 11 16 12
REMARK SMILES IDX 15 13 17 15 14 16 9 17 10 18 11 19 13 20 12 21 7 22 6 23
REMARK SMILES IDX 8 25 5 26 1 27 2 28 3 29 100 30 4 31 99 32 28 33 29 34 30 35
REMARK SMILES IDX 31 36 32 38 33 39 34 40 98 41 35 42 97 43 36 44 37 45 38 46
REMARK SMILES IDX 91 47 39 48 96 49 90 50 92 51 40 52 95 53 89 54 88 55 41 57
REMARK SMILES IDX 75 58 54 59 74 60 55 61 58 62 73 63 93 64 56 65 57 66 72 68
REMARK SMILES IDX 94 69 59 70 42 71 43 72 52 73 44 74 45 75 51 76 53 77 46 78
REMARK SMILES IDX 47 79 48 80 49 81 50 82 76 83 77 84 86 85 78 86 79 87 85 88
REMARK SMILES IDX 87 89 80 90 81 91 82 92 83 93 84 94 60 95 61 96 70 97 62 98
REMARK SMILES IDX 63 99 69 100 71 101 64 102 65 103 66 104 67 105 68 106
REMARK H PARENT 26 5 15 14 6 24 30 37 92 56 58 67
REMARK Flexibility Score: inf
ROOT
ATOM      1  C   UNL A   1      32.866  31.218  27.408  1.00  0.00     0.117 C 
ENDROOT
BRANCH   1   2
ATOM      2  N   UNL A   1      32.061  30.790  26.234  1.00  0.00    -0.356 N 
ATOM      3  C   UNL A   1      32.009  29.715  25.395  1.00  0.00     0.223 C 
ATOM      4  O   UNL A   1      31.034  29.564  24.645  1.00  0.00    -0.275 OA
ATOM      5  H   UNL A   1      31.384  31.465  25.997  1.00  0.00     0.163 HD
BRANCH   3   6
ATOM      6  C   UNL A   1      33.139  28.698  25.260  1.00  0.00     0.091 C 
ATOM      7  C   UNL A   1      33.205  27.759  26.491  1.00  0.00     0.091 C 
ATOM      8  C   UNL A   1      33.987  26.468  26.211  1.00  0.00     0.014 C 
ATOM      9  C   UNL A   1      33.625  25.837  24.869  1.00  0.00     0.001 C 
ATOM     10  C   UNL A   1      33.283  28.137  23.842  1.00  0.00     0.014 C 
ATOM     11  C   UNL A   1      33.955  26.775  23.723  1.00  0.00     0.001 C 
BRANCH   7  12
ATOM     12  C   UNL A   1      31.846  27.399  27.078  1.00  0.00     0.228 C 
ATOM     13  N   UNL A   1      31.042  26.373  26.687  1.00  0.00    -0.325 N 
ATOM     14  H   UNL A   1      30.483  26.053  27.431  1.00  0.00     0.169 HD
ATOM     15  O   UNL A   1      31.419  28.116  27.992  1.00  0.00    -0.274 OA
BRANCH  13  16
ATOM     16  C   UNL A   1      30.790  25.640  25.502  1.00  0.00     0.054 A 
ATOM     17  C   UNL A   1      30.829  24.215  25.514  1.00  0.00     0.063 A 
ATOM     18  C   UNL A   1      30.673  23.507  24.296  1.00  0.00     0.016 A 
ATOM     19  C   UNL A   1      30.437  24.159  23.094  1.00  0.00     0.001 A 
ATOM     20  C   UNL A   1      30.445  26.257  24.291  1.00  0.00     0.027 A 
ATOM     21  C   UNL A   1      30.300  25.534  23.098  1.00  0.00     0.002 A 
BRANCH  17  22
ATOM     22  C   UNL A   1      31.091  23.301  26.675  1.00  0.00     0.257 C 
ATOM     23  N   UNL A   1      32.160  22.452  26.806  1.00  0.00    -0.322 N 
ATOM     24  H   UNL A   1      31.992  21.730  27.455  1.00  0.00     0.170 HD
ATOM     25  O   UNL A   1      30.277  23.306  27.607  1.00  0.00    -0.269 OA
BRANCH  23  26
ATOM     26  C   UNL A   1      33.433  22.369  26.233  1.00  0.00     0.041 A 
ATOM     27  C   UNL A   1      36.882  23.026  23.790  1.00  0.00     0.044 C 
ATOM     28  C   UNL A   1      35.754  22.624  24.691  1.00  0.00    -0.051 A 
ATOM     29  C   UNL A   1      35.753  23.008  26.038  1.00  0.00     0.005 A 
ATOM     30  C   UNL A   1      34.636  21.968  24.170  1.00  0.00     0.005 A 
ATOM     31  C   UNL A   1      34.597  22.865  26.817  1.00  0.00     0.026 A 
ATOM     32  C   UNL A   1      33.485  21.829  24.944  1.00  0.00     0.026 A 
ENDBRANCH  23  26
ENDBRANCH  17  22
ENDBRANCH  13  16
ENDBRANCH   7  12
ENDBRANCH   3   6
ENDBRANCH   1   2
BRANCH   1  33
ATOM     33  C   UNL A   1      33.180  32.789  27.675  1.00  0.00     0.042 C 
BRANCH  33  34
ATOM     34  C   UNL A   1      34.689  33.175  28.027  1.00  0.00     0.118 C 
BRANCH  34  35
ATOM     35  N   UNL A   1      35.613  32.600  29.206  1.00  0.00    -0.352 N 
ATOM     36  C   UNL A   1      36.785  31.749  29.450  1.00  0.00     0.251 C 
ATOM     37  H   UNL A   1      35.278  32.936  30.069  1.00  0.00     0.163 HD
ATOM     38  O   UNL A   1      37.679  32.350  30.078  1.00  0.00    -0.269 OA
BRANCH  36  39
ATOM     39  C   UNL A   1      37.170  30.225  29.173  1.00  0.00     0.039 A 
ATOM     40  C   UNL A   1      37.469  29.304  30.235  1.00  0.00     0.014 A 
ATOM     41  C   UNL A   1      37.305  29.628  27.928  1.00  0.00     0.014 A 
ATOM     42  C   UNL A   1      38.396  28.191  30.033  1.00  0.00     0.010 A 
ATOM     43  C   UNL A   1      38.225  28.546  27.723  1.00  0.00     0.010 A 
ATOM     44  C   UNL A   1      38.986  28.004  28.770  1.00  0.00    -0.014 A 
BRANCH  44  45
ATOM     45  C   UNL A   1      40.462  27.614  28.525  1.00  0.00     0.031 A 
ATOM     46  C   UNL A   1      40.811  26.235  28.192  1.00  0.00     0.074 A 
ATOM     47  C   UNL A   1      41.581  28.408  28.416  1.00  0.00     0.049 A 
ATOM     48  N   UNL A   1      41.654  25.502  28.847  1.00  0.00    -0.248 NA
ATOM     49  C   UNL A   1      40.282  25.630  26.982  1.00  0.00     0.031 C 
ATOM     50  C   UNL A   1      42.987  28.156  28.033  1.00  0.00     0.029 A 
ATOM     51  N   UNL A   1      41.678  29.776  28.562  1.00  0.00    -0.354 N 
ATOM     52  C   UNL A   1      41.985  24.477  27.986  1.00  0.00     0.074 A 
ATOM     53  C   UNL A   1      40.959  24.480  26.961  1.00  0.00     0.031 C 
ATOM     54  C   UNL A   1      43.760  29.221  28.375  1.00  0.00     0.029 A 
ATOM     55  C   UNL A   1      42.912  30.194  29.034  1.00  0.00     0.049 A 
ATOM     56  H   UNL A   1      40.941  30.395  28.351  1.00  0.00     0.167 HD
ATOM     57  C   UNL A   1      43.240  23.929  27.959  1.00  0.00     0.037 A 
ATOM     58  C   UNL A   1      43.005  30.777  30.276  1.00  0.00     0.037 A 
ATOM     59  C   UNL A   1      44.206  24.775  28.675  1.00  0.00     0.049 A 
ATOM     60  C   UNL A   1      43.703  29.837  31.210  1.00  0.00     0.074 A 
ATOM     61  C   UNL A   1      45.215  25.607  28.208  1.00  0.00     0.029 A 
ATOM     62  N   UNL A   1      44.035  25.098  30.016  1.00  0.00    -0.354 N 
ATOM     63  N   UNL A   1      43.991  28.619  30.869  1.00  0.00    -0.248 NA
ATOM     64  C   UNL A   1      44.108  30.137  32.576  1.00  0.00     0.031 C 
ATOM     65  C   UNL A   1      45.620  26.458  29.265  1.00  0.00     0.029 A 
ATOM     66  C   UNL A   1      44.874  26.136  30.386  1.00  0.00     0.049 A 
ATOM     67  H   UNL A   1      43.400  24.650  30.622  1.00  0.00     0.167 HD
ATOM     68  C   UNL A   1      44.569  27.958  31.899  1.00  0.00     0.074 A 
ATOM     69  C   UNL A   1      44.655  28.962  32.944  1.00  0.00     0.031 C 
ATOM     70  C   UNL A   1      44.893  26.642  31.757  1.00  0.00     0.037 A 
BRANCH  57  71
ATOM     71  C   UNL A   1      43.652  22.842  26.974  1.00  0.00     0.058 A 
ATOM     72  C   UNL A   1      43.050  21.564  26.972  1.00  0.00     0.135 A 
ATOM     73  C   UNL A   1      44.608  23.032  25.953  1.00  0.00     0.135 A 
ATOM     74  F   UNL A   1      42.024  21.266  27.780  1.00  0.00    -0.206 F 
ATOM     75  C   UNL A   1      43.439  20.538  26.107  1.00  0.00     0.059 A 
ATOM     76  C   UNL A   1      45.061  22.005  25.119  1.00  0.00     0.059 A 
ATOM     77  F   UNL A   1      45.096  24.251  25.675  1.00  0.00    -0.206 F 
ATOM     78  C   UNL A   1      44.464  20.758  25.198  1.00  0.00     0.060 A 
BRANCH  78  79
ATOM     79  S   UNL A   1      44.926  19.434  24.064  1.00  0.00     0.124 S 
ATOM     80  O   UNL A   1      44.182  18.295  24.593  1.00  0.00    -0.237 OA
ATOM     81  O   UNL A   1      44.461  19.956  22.784  1.00  0.00    -0.237 OA
ATOM     82  O   UNL A   1      46.377  19.349  24.212  1.00  0.00    -0.744 OA
ENDBRANCH  78  79
ENDBRANCH  57  71
BRANCH  58  83
ATOM     83  C   UNL A   1      41.846  31.704  30.728  1.00  0.00     0.058 A 
ATOM     84  C   UNL A   1      41.414  31.464  32.044  1.00  0.00     0.135 A 
ATOM     85  C   UNL A   1      42.128  33.033  30.487  1.00  0.00     0.135 A 
ATOM     86  F   UNL A   1      40.557  30.464  32.285  1.00  0.00    -0.206 F 
ATOM     87  C   UNL A   1      41.956  32.162  33.127  1.00  0.00     0.059 A 
ATOM     88  C   UNL A   1      42.714  33.717  31.558  1.00  0.00     0.059 A 
ATOM     89  F   UNL A   1      42.412  33.441  29.236  1.00  0.00    -0.206 F 
ATOM     90  C   UNL A   1      42.795  33.227  32.843  1.00  0.00     0.060 A 
BRANCH  90  91
ATOM     91  S   UNL A   1      44.407  33.578  33.993  1.00  0.00     0.124 S 
ATOM     92  O   UNL A   1      44.057  34.898  34.457  1.00  0.00    -0.237 OA
ATOM     93  O   UNL A   1      44.380  32.598  35.072  1.00  0.00    -0.237 OA
ATOM     94  O   UNL A   1      45.595  33.494  33.172  1.00  0.00    -0.744 OA
ENDBRANCH  90  91
ENDBRANCH  58  83
BRANCH  70  95
ATOM     95  C   UNL A   1      45.366  25.736  32.853  1.00  0.00     0.058 A 
ATOM     96  C   UNL A   1      46.705  25.371  33.052  1.00  0.00     0.135 A 
ATOM     97  C   UNL A   1      44.450  25.283  33.834  1.00  0.00     0.135 A 
ATOM     98  F   UNL A   1      47.689  25.843  32.275  1.00  0.00    -0.206 F 
ATOM     99  C   UNL A   1      47.095  24.534  34.094  1.00  0.00     0.059 A 
ATOM    100  C   UNL A   1      44.830  24.513  34.922  1.00  0.00     0.059 A 
ATOM    101  F   UNL A   1      43.143  25.582  33.776  1.00  0.00    -0.206 F 
ATOM    102  C   UNL A   1      46.149  24.107  35.020  1.00  0.00     0.060 A 
BRANCH 102 103
ATOM    103  S   UNL A   1      46.661  23.043  36.373  1.00  0.00     0.124 S 
ATOM    104  O   UNL A   1      47.402  22.008  35.659  1.00  0.00    -0.237 OA
ATOM    105  O   UNL A   1      47.465  23.940  37.198  1.00  0.00    -0.237 OA
ATOM    106  O   UNL A   1      45.398  22.619  36.968  1.00  0.00    -0.744 OA
ENDBRANCH 102 103
ENDBRANCH  70  95
ENDBRANCH  44  45
ENDBRANCH  36  39
ENDBRANCH  34  35
ENDBRANCH  33  34
ENDBRANCH   1  33
TORSDOF 17
ENDMDL
MODEL 3
REMARK VINA RESULT:     -13.0      3.989      9.372
REMARK SMILES Cc1ccc(NC(=O)c2ccccc2NC(=O)[C@H]2CCCC[C@H]2C(=O)NCCCNC(=O)c2ccc(-c3c4nc(c(-c5c(F)cc(S(=O)(=O)[O-])cc5F)c5ccc([nH]5)c(-c5c(F)cc(S(=O)(=O)[O-])cc5F)c5nc(c(-c6c(F)cc(S(=O)(=O)[O-])cc6F)c6ccc3[nH]6)C=C5)C=C4)cc2)cc1
REMARK SMILES IDX 27 1 26 2 24 3 25 4 23 6 18 7 19 8 20 9 22 10 21 11 16 12
REMARK SMILES IDX 15 13 17 15 14 16 9 17 10 18 11 19 13 20 12 21 7 22 6 23
REMARK SMILES IDX 8 25 5 26 1 27 2 28 3 29 100 30 4 31 99 32 28 33 29 34 30 35
REMARK SMILES IDX 31 36 32 38 33 39 34 40 98 41 35 42 97 43 36 44 37 45 38 46
REMARK SMILES IDX 91 47 39 48 96 49 90 50 92 51 40 52 95 53 89 54 88 55 41 57
REMARK SMILES IDX 75 58 54 59 74 60 55 61 58 62 73 63 93 64 56 65 57 66 72 68
REMARK SMILES IDX 94 69 59 70 42 71 43 72 52 73 44 74 45 75 51 76 53 77 46 78
REMARK SMILES IDX 47 79 48 80 49 81 50 82 76 83 77 84 86 85 78 86 79 87 85 88
REMARK SMILES IDX 87 89 80 90 81 91 82 92 83 93 84 94 60 95 61 96 70 97 62 98
REMARK SMILES IDX 63 99 69 100 71 101 64 102 65 103 66 104 67 105 68 106
REMARK H PARENT 26 5 15 14 6 24 30 37 92 56 58 67
REMARK Flexibility Score: inf
ROOT
ATOM      1  C   UNL A   1      32.931  31.035  27.246  1.00  0.00     0.117 C 
ENDROOT
BRANCH   1   2
ATOM      2  N   UNL A   1      32.090  30.591  26.104  1.00  0.00    -0.356 N 
ATOM      3  C   UNL A   1      32.004  29.498  25.289  1.00  0.00     0.223 C 
ATOM      4  O   UNL A   1      31.008  29.341  24.570  1.00  0.00    -0.275 OA
ATOM      5  H   UNL A   1      31.413  31.267  25.871  1.00  0.00     0.163 HD
BRANCH   3   6
ATOM      6  C   UNL A   1      33.121  28.468  25.146  1.00  0.00     0.091 C 
ATOM      7  C   UNL A   1      33.190  27.532  26.380  1.00  0.00     0.091 C 
ATOM      8  C   UNL A   1      33.952  26.231  26.097  1.00  0.00     0.014 C 
ATOM      9  C   UNL A   1      33.568  25.599  24.761  1.00  0.00     0.001 C 
ATOM     10  C   UNL A   1      33.242  27.898  23.729  1.00  0.00     0.014 C 
ATOM     11  C   UNL A   1      33.896  26.529  23.608  1.00  0.00     0.001 C 
BRANCH   7  12
ATOM     12  C   UNL A   1      31.833  27.190  26.983  1.00  0.00     0.228 C 
ATOM     13  N   UNL A   1      31.028  26.151  26.631  1.00  0.00    -0.325 N 
ATOM     14  H   UNL A   1      30.472  25.856  27.387  1.00  0.00     0.169 HD
ATOM     15  O   UNL A   1      31.407  27.939  27.874  1.00  0.00    -0.274 OA
BRANCH  13  16
ATOM     16  C   UNL A   1      30.774  25.376  25.473  1.00  0.00     0.054 A 
ATOM     17  C   UNL A   1      30.845  23.954  25.527  1.00  0.00     0.063 A 
ATOM     18  C   UNL A   1      30.685  23.206  24.334  1.00  0.00     0.016 A 
ATOM     19  C   UNL A   1      30.415  23.816  23.117  1.00  0.00     0.001 A 
ATOM     20  C   UNL A   1      30.396  25.949  24.250  1.00  0.00     0.027 A 
ATOM     21  C   UNL A   1      30.248  25.187  23.082  1.00  0.00     0.002 A 
BRANCH  17  22
ATOM     22  C   UNL A   1      31.145  23.082  26.710  1.00  0.00     0.257 C 
ATOM     23  N   UNL A   1      32.252  22.285  26.863  1.00  0.00    -0.322 N 
ATOM     24  H   UNL A   1      32.115  21.573  27.530  1.00  0.00     0.170 HD
ATOM     25  O   UNL A   1      30.330  23.073  27.641  1.00  0.00    -0.269 OA
BRANCH  23  26
ATOM     26  C   UNL A   1      33.528  22.246  26.294  1.00  0.00     0.041 A 
ATOM     27  C   UNL A   1      36.945  22.989  23.830  1.00  0.00     0.044 C 
ATOM     28  C   UNL A   1      35.836  22.562  24.744  1.00  0.00    -0.051 A 
ATOM     29  C   UNL A   1      35.814  22.992  26.078  1.00  0.00     0.005 A 
ATOM     30  C   UNL A   1      34.753  21.835  24.246  1.00  0.00     0.005 A 
ATOM     31  C   UNL A   1      34.665  22.818  26.860  1.00  0.00     0.026 A 
ATOM     32  C   UNL A   1      33.609  21.666  25.024  1.00  0.00     0.026 A 
ENDBRANCH  23  26
ENDBRANCH  17  22
ENDBRANCH  13  16
ENDBRANCH   7  12
ENDBRANCH   3   6
ENDBRANCH   1   2
BRANCH   1  33
ATOM     33  C   UNL A   1      34.179  30.132  27.761  1.00  0.00     0.042 C 
BRANCH  33  34
ATOM     34  C   UNL A   1      35.618  30.825  27.765  1.00  0.00     0.118 C 
BRANCH  34  35
ATOM     35  N   UNL A   1      36.854  30.548  28.752  1.00  0.00    -0.352 N 
ATOM     36  C   UNL A   1      38.280  30.200  28.752  1.00  0.00     0.251 C 
ATOM     37  H   UNL A   1      36.548  30.645  29.683  1.00  0.00     0.163 HD
ATOM     38  O   UNL A   1      38.968  31.040  29.367  1.00  0.00    -0.269 OA
BRANCH  36  39
ATOM     39  C   UNL A   1      39.161  28.979  28.223  1.00  0.00     0.039 A 
ATOM     40  C   UNL A   1      39.168  27.699  28.875  1.00  0.00     0.014 A 
ATOM     41  C   UNL A   1      40.032  29.005  27.143  1.00  0.00     0.014 A 
ATOM     42  C   UNL A   1      40.350  26.838  28.843  1.00  0.00     0.010 A 
ATOM     43  C   UNL A   1      41.200  28.174  27.115  1.00  0.00     0.010 A 
ATOM     44  C   UNL A   1      41.493  27.262  28.141  1.00  0.00    -0.014 A 
BRANCH  44  45
ATOM     45  C   UNL A   1      42.950  27.094  28.628  1.00  0.00     0.031 A 
ATOM     46  C   UNL A   1      43.743  28.266  28.993  1.00  0.00     0.074 A 
ATOM     47  C   UNL A   1      43.653  25.952  28.942  1.00  0.00     0.049 A 
ATOM     48  N   UNL A   1      44.890  28.578  28.480  1.00  0.00    -0.248 NA
ATOM     49  C   UNL A   1      43.305  29.120  30.085  1.00  0.00     0.031 C 
ATOM     50  C   UNL A   1      44.972  25.693  29.556  1.00  0.00     0.029 A 
ATOM     51  N   UNL A   1      43.243  24.640  28.837  1.00  0.00    -0.354 N 
ATOM     52  C   UNL A   1      45.450  29.473  29.369  1.00  0.00     0.074 A 
ATOM     53  C   UNL A   1      44.356  29.934  30.202  1.00  0.00     0.031 C 
ATOM     54  C   UNL A   1      45.326  24.394  29.370  1.00  0.00     0.029 A 
ATOM     55  C   UNL A   1      44.282  23.756  28.592  1.00  0.00     0.049 A 
ATOM     56  H   UNL A   1      42.304  24.358  28.929  1.00  0.00     0.167 HD
ATOM     57  C   UNL A   1      46.799  29.515  29.601  1.00  0.00     0.037 A 
ATOM     58  C   UNL A   1      44.335  23.083  27.393  1.00  0.00     0.037 A 
ATOM     59  C   UNL A   1      47.467  28.316  29.077  1.00  0.00     0.049 A 
ATOM     60  C   UNL A   1      45.472  23.617  26.578  1.00  0.00     0.074 A 
ATOM     61  C   UNL A   1      48.001  27.209  29.724  1.00  0.00     0.029 A 
ATOM     62  N   UNL A   1      47.393  27.972  27.732  1.00  0.00    -0.354 N 
ATOM     63  N   UNL A   1      46.145  24.664  26.943  1.00  0.00    -0.248 NA
ATOM     64  C   UNL A   1      45.936  23.078  25.307  1.00  0.00     0.031 C 
ATOM     65  C   UNL A   1      48.208  26.186  28.767  1.00  0.00     0.029 A 
ATOM     66  C   UNL A   1      47.821  26.670  27.529  1.00  0.00     0.049 A 
ATOM     67  H   UNL A   1      47.078  28.573  27.018  1.00  0.00     0.167 HD
ATOM     68  C   UNL A   1      47.082  24.977  26.017  1.00  0.00     0.074 A 
ATOM     69  C   UNL A   1      46.938  23.932  25.019  1.00  0.00     0.031 C 
ATOM     70  C   UNL A   1      47.856  26.085  26.190  1.00  0.00     0.037 A 
BRANCH  57  71
ATOM     71  C   UNL A   1      47.438  30.447  30.624  1.00  0.00     0.058 A 
ATOM     72  C   UNL A   1      47.423  30.166  32.008  1.00  0.00     0.135 A 
ATOM     73  C   UNL A   1      48.146  31.618  30.280  1.00  0.00     0.135 A 
ATOM     74  F   UNL A   1      46.920  29.021  32.489  1.00  0.00    -0.206 F 
ATOM     75  C   UNL A   1      47.965  31.024  32.968  1.00  0.00     0.059 A 
ATOM     76  C   UNL A   1      48.640  32.526  31.222  1.00  0.00     0.059 A 
ATOM     77  F   UNL A   1      48.450  31.899  29.003  1.00  0.00    -0.206 F 
ATOM     78  C   UNL A   1      48.552  32.217  32.569  1.00  0.00     0.060 A 
BRANCH  78  79
ATOM     79  S   UNL A   1      49.280  33.293  33.819  1.00  0.00     0.124 S 
ATOM     80  O   UNL A   1      50.053  32.355  34.628  1.00  0.00    -0.237 OA
ATOM     81  O   UNL A   1      50.059  34.219  33.004  1.00  0.00    -0.237 OA
ATOM     82  O   UNL A   1      48.119  33.876  34.486  1.00  0.00    -0.744 OA
ENDBRANCH  78  79
ENDBRANCH  57  71
BRANCH  58  83
ATOM     83  C   UNL A   1      42.995  22.620  26.765  1.00  0.00     0.058 A 
ATOM     84  C   UNL A   1      42.986  22.668  25.360  1.00  0.00     0.135 A 
ATOM     85  C   UNL A   1      42.587  21.400  27.265  1.00  0.00     0.135 A 
ATOM     86  F   UNL A   1      42.745  23.830  24.741  1.00  0.00    -0.206 F 
ATOM     87  C   UNL A   1      43.350  21.558  24.592  1.00  0.00     0.059 A 
ATOM     88  C   UNL A   1      42.994  20.288  26.519  1.00  0.00     0.059 A 
ATOM     89  F   UNL A   1      42.403  21.248  28.590  1.00  0.00    -0.206 F 
ATOM     90  C   UNL A   1      43.538  20.357  25.255  1.00  0.00     0.060 A 
BRANCH  90  91
ATOM     91  S   UNL A   1      45.003  19.104  24.683  1.00  0.00     0.124 S 
ATOM     92  O   UNL A   1      44.528  18.814  23.352  1.00  0.00    -0.237 OA
ATOM     93  O   UNL A   1      46.239  19.878  24.662  1.00  0.00    -0.237 OA
ATOM     94  O   UNL A   1      45.043  17.983  25.595  1.00  0.00    -0.744 OA
ENDBRANCH  90  91
ENDBRANCH  58  83
BRANCH  70  95
ATOM     95  C   UNL A   1      48.799  26.659  25.177  1.00  0.00     0.058 A 
ATOM     96  C   UNL A   1      50.193  26.517  25.227  1.00  0.00     0.135 A 
ATOM     97  C   UNL A   1      48.284  27.301  24.024  1.00  0.00     0.135 A 
ATOM     98  F   UNL A   1      50.796  25.812  26.194  1.00  0.00    -0.206 F 
ATOM     99  C   UNL A   1      51.026  27.059  24.253  1.00  0.00     0.059 A 
ATOM    100  C   UNL A   1      49.092  27.781  23.005  1.00  0.00     0.059 A 
ATOM    101  F   UNL A   1      46.968  27.481  23.839  1.00  0.00    -0.206 F 
ATOM    102  C   UNL A   1      50.466  27.694  23.149  1.00  0.00     0.060 A 
BRANCH 102 103
ATOM    103  S   UNL A   1      51.544  28.376  21.885  1.00  0.00     0.124 S 
ATOM    104  O   UNL A   1      51.277  27.478  20.766  1.00  0.00    -0.237 OA
ATOM    105  O   UNL A   1      51.039  29.738  21.737  1.00  0.00    -0.237 OA
ATOM    106  O   UNL A   1      52.873  28.269  22.479  1.00  0.00    -0.744 OA
ENDBRANCH 102 103
ENDBRANCH  70  95
ENDBRANCH  44  45
ENDBRANCH  36  39
ENDBRANCH  34  35
ENDBRANCH  33  34
ENDBRANCH   1  33
TORSDOF 17
ENDMDL
