MODEL 1
REMARK VINA RESULT:     -11.8      0.000      0.000
REMARK SMILES Cc1cc2c(c(C)c1Cl)C=C(C(=O)NCCCNC(=O)c1ccc(-c3c4nc(c(-c5c(F)cc(S(=O)(=O)[O-])cc5F)c5ccc([nH]5)c(-c5c(F)cc(S(=O)(=O)[O-])cc5F)c5nc(c(-c6c(F)cc(S(=O)(=O)[O-])cc6F)c6ccc3[nH]6)C=C5)C=C4)cc1)[C@@H](C(F)(F)F)O2
REMARK SMILES IDX 17 1 16 2 15 3 14 4 12 5 13 6 11 8 1 9 2 10 3 11 8 12 4 13
REMARK SMILES IDX 6 14 9 15 5 16 92 17 7 18 10 19 87 20 88 21 89 22 90 23
REMARK SMILES IDX 91 24 18 25 19 26 20 28 21 29 22 30 86 31 23 32 85 33 24 34
REMARK SMILES IDX 25 35 26 36 79 37 27 38 84 39 78 40 80 41 28 42 83 43 77 44
REMARK SMILES IDX 76 45 29 47 63 48 42 49 62 50 43 51 46 52 61 53 81 54 44 55
REMARK SMILES IDX 45 56 60 58 82 59 47 60 30 61 31 62 40 63 32 64 33 65 39 66
REMARK SMILES IDX 41 67 34 68 35 69 36 70 37 71 38 72 64 73 65 74 74 75 66 76
REMARK SMILES IDX 67 77 73 78 75 79 68 80 69 81 70 82 71 83 72 84 48 85 49 86
REMARK SMILES IDX 58 87 50 88 51 89 57 90 59 91 52 92 53 93 54 94 55 95 56 96
REMARK H PARENT 14 7 18 27 80 46 46 57
REMARK Flexibility Score: inf
ROOT
ATOM      1  C   UNL A   1      33.935  28.327  26.601  1.00  0.00     0.118 C 
ENDROOT
BRANCH   1   2
ATOM      2  C   UNL A   1      33.923  28.357  25.077  1.00  0.00     0.042 C 
BRANCH   2   3
ATOM      3  C   UNL A   1      33.113  27.214  24.483  1.00  0.00     0.118 C 
BRANCH   3   4
ATOM      4  N   UNL A   1      32.246  26.590  25.473  1.00  0.00    -0.352 N 
ATOM      5  C   UNL A   1      32.076  25.362  26.014  1.00  0.00     0.251 C 
ATOM      6  O   UNL A   1      31.191  25.285  26.872  1.00  0.00    -0.270 OA
ATOM      7  H   UNL A   1      31.611  27.239  25.853  1.00  0.00     0.163 HD
BRANCH   5   8
ATOM      8  C   UNL A   1      32.867  24.148  25.657  1.00  0.00     0.067 C 
ATOM      9  C   UNL A   1      37.257  19.412  24.843  1.00  0.00     0.046 C 
ATOM     10  C   UNL A   1      36.517  20.691  25.128  1.00  0.00    -0.028 A 
ATOM     11  C   UNL A   1      35.129  20.700  24.984  1.00  0.00     0.052 A 
ATOM     12  C   UNL A   1      37.167  21.869  25.549  1.00  0.00     0.047 A 
ATOM     13  C   UNL A   1      34.400  21.855  25.247  1.00  0.00     0.128 A 
ATOM     14  C   UNL A   1      36.436  23.050  25.827  1.00  0.00    -0.021 A 
ATOM     15  Cl  UNL A   1      38.896  21.833  25.733  1.00  0.00    -0.084 Cl
ATOM     16  C   UNL A   1      35.027  23.027  25.679  1.00  0.00     0.022 A 
ATOM     17  O   UNL A   1      33.049  21.736  25.097  1.00  0.00    -0.475 OA
ATOM     18  C   UNL A   1      37.115  24.319  26.288  1.00  0.00     0.047 C 
ATOM     19  C   UNL A   1      34.167  24.168  26.007  1.00  0.00     0.026 C 
ATOM     20  C   UNL A   1      32.303  22.967  24.929  1.00  0.00     0.314 C 
BRANCH  20  21
ATOM     21  C   UNL A   1      32.100  23.241  23.426  1.00  0.00     0.429 C 
ATOM     22  F   UNL A   1      32.293  22.108  22.705  1.00  0.00    -0.167 F 
ATOM     23  F   UNL A   1      30.847  23.667  23.139  1.00  0.00    -0.167 F 
ATOM     24  F   UNL A   1      32.948  24.177  22.946  1.00  0.00    -0.167 F 
ENDBRANCH  20  21
ENDBRANCH   5   8
ENDBRANCH   3   4
ENDBRANCH   2   3
ENDBRANCH   1   2
BRANCH   1  25
ATOM     25  N   UNL A   1      33.790  29.665  27.171  1.00  0.00    -0.352 N 
ATOM     26  C   UNL A   1      34.616  30.359  28.017  1.00  0.00     0.251 C 
ATOM     27  H   UNL A   1      32.970  30.141  26.907  1.00  0.00     0.163 HD
ATOM     28  O   UNL A   1      34.187  31.346  28.611  1.00  0.00    -0.269 OA
BRANCH  26  29
ATOM     29  C   UNL A   1      36.012  29.921  28.214  1.00  0.00     0.039 A 
ATOM     30  C   UNL A   1      36.935  30.079  27.178  1.00  0.00     0.014 A 
ATOM     31  C   UNL A   1      36.401  29.331  29.418  1.00  0.00     0.014 A 
ATOM     32  C   UNL A   1      38.265  29.705  27.379  1.00  0.00     0.010 A 
ATOM     33  C   UNL A   1      37.741  29.053  29.652  1.00  0.00     0.010 A 
ATOM     34  C   UNL A   1      38.685  29.223  28.631  1.00  0.00    -0.014 A 
BRANCH  34  35
ATOM     35  C   UNL A   1      40.102  28.865  28.884  1.00  0.00     0.031 A 
ATOM     36  C   UNL A   1      41.038  29.890  29.470  1.00  0.00     0.074 A 
ATOM     37  C   UNL A   1      40.552  27.643  28.537  1.00  0.00     0.049 A 
ATOM     38  N   UNL A   1      42.319  29.792  29.708  1.00  0.00    -0.248 NA
ATOM     39  C   UNL A   1      40.467  31.207  29.806  1.00  0.00     0.031 C 
ATOM     40  C   UNL A   1      39.749  26.592  27.909  1.00  0.00     0.029 A 
ATOM     41  N   UNL A   1      41.797  27.078  28.657  1.00  0.00    -0.354 N 
ATOM     42  C   UNL A   1      42.706  31.029  30.208  1.00  0.00     0.074 A 
ATOM     43  C   UNL A   1      41.542  31.884  30.185  1.00  0.00     0.031 C 
ATOM     44  C   UNL A   1      40.511  25.501  27.729  1.00  0.00     0.029 A 
ATOM     45  C   UNL A   1      41.865  25.785  28.193  1.00  0.00     0.049 A 
ATOM     46  H   UNL A   1      42.569  27.553  29.040  1.00  0.00     0.167 HD
ATOM     47  C   UNL A   1      43.917  31.405  30.680  1.00  0.00     0.037 A 
ATOM     48  C   UNL A   1      42.903  24.927  28.148  1.00  0.00     0.037 A 
ATOM     49  C   UNL A   1      45.056  30.530  30.749  1.00  0.00     0.049 A 
ATOM     50  C   UNL A   1      44.237  25.371  28.685  1.00  0.00     0.074 A 
ATOM     51  C   UNL A   1      46.309  30.795  31.272  1.00  0.00     0.029 A 
ATOM     52  N   UNL A   1      45.079  29.223  30.289  1.00  0.00    -0.354 N 
ATOM     53  N   UNL A   1      44.566  26.525  29.218  1.00  0.00    -0.248 NA
ATOM     54  C   UNL A   1      45.340  24.402  28.621  1.00  0.00     0.031 C 
ATOM     55  C   UNL A   1      47.102  29.661  31.091  1.00  0.00     0.029 A 
ATOM     56  C   UNL A   1      46.330  28.673  30.499  1.00  0.00     0.049 A 
ATOM     57  H   UNL A   1      44.317  28.755  29.875  1.00  0.00     0.167 HD
ATOM     58  C   UNL A   1      45.905  26.410  29.573  1.00  0.00     0.074 A 
ATOM     59  C   UNL A   1      46.323  25.073  29.208  1.00  0.00     0.031 C 
ATOM     60  C   UNL A   1      46.718  27.332  30.145  1.00  0.00     0.037 A 
BRANCH  47  61
ATOM     61  C   UNL A   1      44.074  32.806  31.202  1.00  0.00     0.058 A 
ATOM     62  C   UNL A   1      44.471  33.856  30.360  1.00  0.00     0.135 A 
ATOM     63  C   UNL A   1      43.730  33.119  32.526  1.00  0.00     0.135 A 
ATOM     64  F   UNL A   1      44.831  33.608  29.091  1.00  0.00    -0.206 F 
ATOM     65  C   UNL A   1      44.519  35.171  30.812  1.00  0.00     0.059 A 
ATOM     66  C   UNL A   1      43.746  34.430  32.993  1.00  0.00     0.059 A 
ATOM     67  F   UNL A   1      43.352  32.150  33.373  1.00  0.00    -0.206 F 
ATOM     68  C   UNL A   1      44.142  35.449  32.127  1.00  0.00     0.060 A 
BRANCH  68  69
ATOM     69  S   UNL A   1      44.149  37.170  32.672  1.00  0.00     0.124 S 
ATOM     70  O   UNL A   1      43.816  37.869  31.435  1.00  0.00    -0.237 OA
ATOM     71  O   UNL A   1      43.114  37.172  33.700  1.00  0.00    -0.237 OA
ATOM     72  O   UNL A   1      45.512  37.370  33.156  1.00  0.00    -0.744 OA
ENDBRANCH  68  69
ENDBRANCH  47  61
BRANCH  48  73
ATOM     73  C   UNL A   1      42.720  23.558  27.593  1.00  0.00     0.058 A 
ATOM     74  C   UNL A   1      42.418  22.474  28.432  1.00  0.00     0.135 A 
ATOM     75  C   UNL A   1      42.845  23.303  26.218  1.00  0.00     0.135 A 
ATOM     76  F   UNL A   1      42.291  22.665  29.753  1.00  0.00    -0.206 F 
ATOM     77  C   UNL A   1      42.273  21.184  27.932  1.00  0.00     0.059 A 
ATOM     78  C   UNL A   1      42.678  22.026  25.691  1.00  0.00     0.059 A 
ATOM     79  F   UNL A   1      43.114  24.308  25.370  1.00  0.00    -0.206 F 
ATOM     80  C   UNL A   1      42.405  20.969  26.559  1.00  0.00     0.060 A 
BRANCH  80  81
ATOM     81  S   UNL A   1      42.191  19.294  25.921  1.00  0.00     0.124 S 
ATOM     82  O   UNL A   1      43.041  19.320  24.736  1.00  0.00    -0.237 OA
ATOM     83  O   UNL A   1      42.669  18.479  27.033  1.00  0.00    -0.237 OA
ATOM     84  O   UNL A   1      40.756  19.213  25.666  1.00  0.00    -0.744 OA
ENDBRANCH  80  81
ENDBRANCH  48  73
BRANCH  60  85
ATOM     85  C   UNL A   1      48.135  26.932  30.441  1.00  0.00     0.058 A 
ATOM     86  C   UNL A   1      49.183  27.263  29.570  1.00  0.00     0.135 A 
ATOM     87  C   UNL A   1      48.458  26.311  31.658  1.00  0.00     0.135 A 
ATOM     88  F   UNL A   1      48.923  27.851  28.392  1.00  0.00    -0.206 F 
ATOM     89  C   UNL A   1      50.507  26.993  29.897  1.00  0.00     0.059 A 
ATOM     90  C   UNL A   1      49.776  26.055  32.017  1.00  0.00     0.059 A 
ATOM     91  F   UNL A   1      47.490  25.984  32.529  1.00  0.00    -0.206 F 
ATOM     92  C   UNL A   1      50.794  26.399  31.129  1.00  0.00     0.060 A 
BRANCH  92  93
ATOM     93  S   UNL A   1      52.523  26.126  31.568  1.00  0.00     0.124 S 
ATOM     94  O   UNL A   1      52.764  27.214  32.509  1.00  0.00    -0.237 OA
ATOM     95  O   UNL A   1      52.489  24.784  32.144  1.00  0.00    -0.237 OA
ATOM     96  O   UNL A   1      53.221  26.236  30.290  1.00  0.00    -0.744 OA
ENDBRANCH  92  93
ENDBRANCH  60  85
ENDBRANCH  34  35
ENDBRANCH  26  29
ENDBRANCH   1  25
TORSDOF 14
ENDMDL
MODEL 2
REMARK VINA RESULT:     -11.7      4.988     10.400
REMARK SMILES Cc1cc2c(c(C)c1Cl)C=C(C(=O)NCCCNC(=O)c1ccc(-c3c4nc(c(-c5c(F)cc(S(=O)(=O)[O-])cc5F)c5ccc([nH]5)c(-c5c(F)cc(S(=O)(=O)[O-])cc5F)c5nc(c(-c6c(F)cc(S(=O)(=O)[O-])cc6F)c6ccc3[nH]6)C=C5)C=C4)cc1)[C@@H](C(F)(F)F)O2
REMARK SMILES IDX 17 1 16 2 15 3 14 4 12 5 13 6 11 8 1 9 2 10 3 11 8 12 4 13
REMARK SMILES IDX 6 14 9 15 5 16 92 17 7 18 10 19 87 20 88 21 89 22 90 23
REMARK SMILES IDX 91 24 18 25 19 26 20 28 21 29 22 30 86 31 23 32 85 33 24 34
REMARK SMILES IDX 25 35 26 36 79 37 27 38 84 39 78 40 80 41 28 42 83 43 77 44
REMARK SMILES IDX 76 45 29 47 63 48 42 49 62 50 43 51 46 52 61 53 81 54 44 55
REMARK SMILES IDX 45 56 60 58 82 59 47 60 30 61 31 62 40 63 32 64 33 65 39 66
REMARK SMILES IDX 41 67 34 68 35 69 36 70 37 71 38 72 64 73 65 74 74 75 66 76
REMARK SMILES IDX 67 77 73 78 75 79 68 80 69 81 70 82 71 83 72 84 48 85 49 86
REMARK SMILES IDX 58 87 50 88 51 89 57 90 59 91 52 92 53 93 54 94 55 95 56 96
REMARK H PARENT 14 7 18 27 80 46 46 57
REMARK Flexibility Score: inf
ROOT
ATOM      1  C   UNL A   1      39.594  23.490  27.016  1.00  0.00     0.118 C 
ENDROOT
BRANCH   1   2
ATOM      2  C   UNL A   1      38.202  23.596  26.402  1.00  0.00     0.042 C 
BRANCH   2   3
ATOM      3  C   UNL A   1      37.785  22.315  25.694  1.00  0.00     0.118 C 
BRANCH   3   4
ATOM      4  N   UNL A   1      37.474  22.546  24.290  1.00  0.00    -0.352 N 
ATOM      5  C   UNL A   1      36.384  22.852  23.549  1.00  0.00     0.251 C 
ATOM      6  O   UNL A   1      36.591  22.973  22.338  1.00  0.00    -0.270 OA
ATOM      7  H   UNL A   1      38.276  22.456  23.727  1.00  0.00     0.163 HD
BRANCH   5   8
ATOM      8  C   UNL A   1      35.006  23.050  24.088  1.00  0.00     0.067 C 
ATOM      9  C   UNL A   1      29.301  25.202  26.365  1.00  0.00     0.046 C 
ATOM     10  C   UNL A   1      30.728  25.020  25.923  1.00  0.00    -0.028 A 
ATOM     11  C   UNL A   1      31.092  23.808  25.335  1.00  0.00     0.052 A 
ATOM     12  C   UNL A   1      31.703  26.030  26.063  1.00  0.00     0.047 A 
ATOM     13  C   UNL A   1      32.395  23.597  24.901  1.00  0.00     0.128 A 
ATOM     14  C   UNL A   1      33.033  25.831  25.618  1.00  0.00    -0.021 A 
ATOM     15  Cl  UNL A   1      31.226  27.538  26.788  1.00  0.00    -0.084 Cl
ATOM     16  C   UNL A   1      33.370  24.593  25.019  1.00  0.00     0.022 A 
ATOM     17  O   UNL A   1      32.626  22.384  24.319  1.00  0.00    -0.475 OA
ATOM     18  C   UNL A   1      34.088  26.904  25.752  1.00  0.00     0.047 C 
ATOM     19  C   UNL A   1      34.695  24.306  24.459  1.00  0.00     0.026 C 
ATOM     20  C   UNL A   1      34.006  21.948  24.251  1.00  0.00     0.314 C 
BRANCH  20  21
ATOM     21  C   UNL A   1      34.315  21.042  25.459  1.00  0.00     0.429 C 
ATOM     22  F   UNL A   1      34.692  21.787  26.529  1.00  0.00    -0.167 F 
ATOM     23  F   UNL A   1      33.243  20.318  25.856  1.00  0.00    -0.167 F 
ATOM     24  F   UNL A   1      35.308  20.160  25.209  1.00  0.00    -0.167 F 
ENDBRANCH  20  21
ENDBRANCH   5   8
ENDBRANCH   3   4
ENDBRANCH   2   3
ENDBRANCH   1   2
BRANCH   1  25
ATOM     25  N   UNL A   1      40.620  24.034  26.131  1.00  0.00    -0.352 N 
ATOM     26  C   UNL A   1      41.143  25.300  26.056  1.00  0.00     0.251 C 
ATOM     27  H   UNL A   1      40.994  23.391  25.486  1.00  0.00     0.163 HD
ATOM     28  O   UNL A   1      41.784  25.635  25.063  1.00  0.00    -0.269 OA
BRANCH  26  29
ATOM     29  C   UNL A   1      40.933  26.253  27.163  1.00  0.00     0.039 A 
ATOM     30  C   UNL A   1      40.042  25.931  28.188  1.00  0.00     0.014 A 
ATOM     31  C   UNL A   1      41.603  27.479  27.174  1.00  0.00     0.014 A 
ATOM     32  C   UNL A   1      39.876  26.813  29.258  1.00  0.00     0.010 A 
ATOM     33  C   UNL A   1      41.514  28.307  28.284  1.00  0.00     0.010 A 
ATOM     34  C   UNL A   1      40.639  27.991  29.332  1.00  0.00    -0.014 A 
BRANCH  34  35
ATOM     35  C   UNL A   1      40.517  28.920  30.482  1.00  0.00     0.031 A 
ATOM     36  C   UNL A   1      41.415  28.748  31.679  1.00  0.00     0.074 A 
ATOM     37  C   UNL A   1      39.567  29.875  30.467  1.00  0.00     0.049 A 
ATOM     38  N   UNL A   1      41.422  29.414  32.803  1.00  0.00    -0.248 NA
ATOM     39  C   UNL A   1      42.416  27.667  31.619  1.00  0.00     0.031 C 
ATOM     40  C   UNL A   1      38.603  30.096  29.386  1.00  0.00     0.029 A 
ATOM     41  N   UNL A   1      39.248  30.838  31.393  1.00  0.00    -0.354 N 
ATOM     42  C   UNL A   1      42.414  28.831  33.582  1.00  0.00     0.074 A 
ATOM     43  C   UNL A   1      42.948  27.718  32.832  1.00  0.00     0.031 C 
ATOM     44  C   UNL A   1      37.826  31.146  29.694  1.00  0.00     0.029 A 
ATOM     45  C   UNL A   1      38.207  31.651  31.009  1.00  0.00     0.049 A 
ATOM     46  H   UNL A   1      39.721  30.937  32.250  1.00  0.00     0.167 HD
ATOM     47  C   UNL A   1      42.864  29.214  34.798  1.00  0.00     0.037 A 
ATOM     48  C   UNL A   1      37.626  32.685  31.647  1.00  0.00     0.037 A 
ATOM     49  C   UNL A   1      42.362  30.356  35.514  1.00  0.00     0.049 A 
ATOM     50  C   UNL A   1      38.151  33.094  32.998  1.00  0.00     0.074 A 
ATOM     51  C   UNL A   1      42.797  30.868  36.723  1.00  0.00     0.029 A 
ATOM     52  N   UNL A   1      41.323  31.165  35.083  1.00  0.00    -0.354 N 
ATOM     53  N   UNL A   1      39.137  32.570  33.689  1.00  0.00    -0.248 NA
ATOM     54  C   UNL A   1      37.492  34.230  33.657  1.00  0.00     0.031 C 
ATOM     55  C   UNL A   1      41.993  31.964  37.044  1.00  0.00     0.029 A 
ATOM     56  C   UNL A   1      41.089  32.163  36.012  1.00  0.00     0.049 A 
ATOM     57  H   UNL A   1      40.825  31.049  34.241  1.00  0.00     0.167 HD
ATOM     58  C   UNL A   1      39.231  33.329  34.850  1.00  0.00     0.074 A 
ATOM     59  C   UNL A   1      38.213  34.354  34.764  1.00  0.00     0.031 C 
ATOM     60  C   UNL A   1      40.081  33.186  35.896  1.00  0.00     0.037 A 
BRANCH  47  61
ATOM     61  C   UNL A   1      43.981  28.428  35.425  1.00  0.00     0.058 A 
ATOM     62  C   UNL A   1      45.325  28.717  35.140  1.00  0.00     0.135 A 
ATOM     63  C   UNL A   1      43.711  27.447  36.391  1.00  0.00     0.135 A 
ATOM     64  F   UNL A   1      45.638  29.631  34.208  1.00  0.00    -0.206 F 
ATOM     65  C   UNL A   1      46.362  28.061  35.793  1.00  0.00     0.059 A 
ATOM     66  C   UNL A   1      44.733  26.797  37.076  1.00  0.00     0.059 A 
ATOM     67  F   UNL A   1      42.443  27.128  36.694  1.00  0.00    -0.206 F 
ATOM     68  C   UNL A   1      46.056  27.112  36.769  1.00  0.00     0.060 A 
BRANCH  68  69
ATOM     69  S   UNL A   1      47.419  26.322  37.651  1.00  0.00     0.124 S 
ATOM     70  O   UNL A   1      47.193  26.790  39.015  1.00  0.00    -0.237 OA
ATOM     71  O   UNL A   1      47.161  24.906  37.415  1.00  0.00    -0.237 OA
ATOM     72  O   UNL A   1      48.608  26.859  36.994  1.00  0.00    -0.744 OA
ENDBRANCH  68  69
ENDBRANCH  47  61
BRANCH  48  73
ATOM     73  C   UNL A   1      36.499  33.421  31.012  1.00  0.00     0.058 A 
ATOM     74  C   UNL A   1      35.192  33.308  31.510  1.00  0.00     0.135 A 
ATOM     75  C   UNL A   1      36.702  34.248  29.896  1.00  0.00     0.135 A 
ATOM     76  F   UNL A   1      34.945  32.527  32.573  1.00  0.00    -0.206 F 
ATOM     77  C   UNL A   1      34.123  33.967  30.910  1.00  0.00     0.059 A 
ATOM     78  C   UNL A   1      35.654  34.938  29.295  1.00  0.00     0.059 A 
ATOM     79  F   UNL A   1      37.935  34.406  29.392  1.00  0.00    -0.206 F 
ATOM     80  C   UNL A   1      34.364  34.780  29.802  1.00  0.00     0.060 A 
BRANCH  80  81
ATOM     81  S   UNL A   1      32.973  35.647  29.047  1.00  0.00     0.124 S 
ATOM     82  O   UNL A   1      32.405  34.607  28.196  1.00  0.00    -0.237 OA
ATOM     83  O   UNL A   1      32.179  36.025  30.211  1.00  0.00    -0.237 OA
ATOM     84  O   UNL A   1      33.610  36.757  28.345  1.00  0.00    -0.744 OA
ENDBRANCH  80  81
ENDBRANCH  48  73
BRANCH  60  85
ATOM     85  C   UNL A   1      39.975  34.169  37.026  1.00  0.00     0.058 A 
ATOM     86  C   UNL A   1      40.573  35.436  36.950  1.00  0.00     0.135 A 
ATOM     87  C   UNL A   1      39.175  33.883  38.144  1.00  0.00     0.135 A 
ATOM     88  F   UNL A   1      41.352  35.754  35.905  1.00  0.00    -0.206 F 
ATOM     89  C   UNL A   1      40.380  36.387  37.946  1.00  0.00     0.059 A 
ATOM     90  C   UNL A   1      38.947  34.827  39.138  1.00  0.00     0.059 A 
ATOM     91  F   UNL A   1      38.573  32.687  38.256  1.00  0.00    -0.206 F 
ATOM     92  C   UNL A   1      39.556  36.077  39.030  1.00  0.00     0.060 A 
BRANCH  92  93
ATOM     93  S   UNL A   1      39.257  37.350  40.274  1.00  0.00     0.124 S 
ATOM     94  O   UNL A   1      38.407  38.284  39.541  1.00  0.00    -0.237 OA
ATOM     95  O   UNL A   1      38.601  36.596  41.338  1.00  0.00    -0.237 OA
ATOM     96  O   UNL A   1      40.596  37.838  40.591  1.00  0.00    -0.744 OA
ENDBRANCH  92  93
ENDBRANCH  60  85
ENDBRANCH  34  35
ENDBRANCH  26  29
ENDBRANCH   1  25
TORSDOF 14
ENDMDL
MODEL 3
REMARK VINA RESULT:     -11.6      3.275      9.327
REMARK SMILES Cc1cc2c(c(C)c1Cl)C=C(C(=O)NCCCNC(=O)c1ccc(-c3c4nc(c(-c5c(F)cc(S(=O)(=O)[O-])cc5F)c5ccc([nH]5)c(-c5c(F)cc(S(=O)(=O)[O-])cc5F)c5nc(c(-c6c(F)cc(S(=O)(=O)[O-])cc6F)c6ccc3[nH]6)C=C5)C=C4)cc1)[C@@H](C(F)(F)F)O2
REMARK SMILES IDX 17 1 16 2 15 3 14 4 12 5 13 6 11 8 1 9 2 10 3 11 8 12 4 13
REMARK SMILES IDX 6 14 9 15 5 16 92 17 7 18 10 19 87 20 88 21 89 22 90 23
REMARK SMILES IDX 91 24 18 25 19 26 20 28 21 29 22 30 86 31 23 32 85 33 24 34
REMARK SMILES IDX 25 35 26 36 79 37 27 38 84 39 78 40 80 41 28 42 83 43 77 44
REMARK SMILES IDX 76 45 29 47 63 48 42 49 62 50 43 51 46 52 61 53 81 54 44 55
REMARK SMILES IDX 45 56 60 58 82 59 47 60 30 61 31 62 40 63 32 64 33 65 39 66
REMARK SMILES IDX 41 67 34 68 35 69 36 70 37 71 38 72 64 73 65 74 74 75 66 76
REMARK SMILES IDX 67 77 73 78 75 79 68 80 69 81 70 82 71 83 72 84 48 85 49 86
REMARK SMILES IDX 58 87 50 88 51 89 57 90 59 91 52 92 53 93 54 94 55 95 56 96
REMARK H PARENT 14 7 18 27 80 46 46 57
REMARK Flexibility Score: inf
ROOT
ATOM      1  C   UNL A   1      36.219  23.625  25.889  1.00  0.00     0.118 C 
ENDROOT
BRANCH   1   2
ATOM      2  C   UNL A   1      34.973  23.360  26.727  1.00  0.00     0.042 C 
BRANCH   2   3
ATOM      3  C   UNL A   1      33.690  23.556  25.932  1.00  0.00     0.118 C 
BRANCH   3   4
ATOM      4  N   UNL A   1      33.957  23.982  24.566  1.00  0.00    -0.352 N 
ATOM      5  C   UNL A   1      33.748  25.083  23.808  1.00  0.00     0.251 C 
ATOM      6  O   UNL A   1      34.170  25.011  22.650  1.00  0.00    -0.270 OA
ATOM      7  H   UNL A   1      34.414  23.277  24.053  1.00  0.00     0.163 HD
BRANCH   5   8
ATOM      8  C   UNL A   1      33.072  26.331  24.271  1.00  0.00     0.067 C 
ATOM      9  C   UNL A   1      31.342  32.126  26.677  1.00  0.00     0.046 C 
ATOM     10  C   UNL A   1      32.023  30.834  26.314  1.00  0.00    -0.028 A 
ATOM     11  C   UNL A   1      31.403  29.995  25.388  1.00  0.00     0.052 A 
ATOM     12  C   UNL A   1      33.267  30.451  26.857  1.00  0.00     0.047 A 
ATOM     13  C   UNL A   1      31.999  28.796  25.012  1.00  0.00     0.128 A 
ATOM     14  C   UNL A   1      33.888  29.236  26.478  1.00  0.00    -0.021 A 
ATOM     15  Cl  UNL A   1      34.028  31.517  28.001  1.00  0.00    -0.084 Cl
ATOM     16  C   UNL A   1      33.238  28.408  25.530  1.00  0.00     0.022 A 
ATOM     17  O   UNL A   1      31.313  28.072  24.080  1.00  0.00    -0.475 OA
ATOM     18  C   UNL A   1      35.225  28.813  27.043  1.00  0.00     0.047 C 
ATOM     19  C   UNL A   1      33.823  27.166  25.013  1.00  0.00     0.026 C 
ATOM     20  C   UNL A   1      31.641  26.664  23.981  1.00  0.00     0.314 C 
BRANCH  20  21
ATOM     21  C   UNL A   1      30.657  25.847  24.840  1.00  0.00     0.429 C 
ATOM     22  F   UNL A   1      30.495  24.603  24.325  1.00  0.00    -0.167 F 
ATOM     23  F   UNL A   1      31.089  25.682  26.113  1.00  0.00    -0.167 F 
ATOM     24  F   UNL A   1      29.434  26.417  24.917  1.00  0.00    -0.167 F 
ENDBRANCH  20  21
ENDBRANCH   5   8
ENDBRANCH   3   4
ENDBRANCH   2   3
ENDBRANCH   1   2
BRANCH   1  25
ATOM     25  N   UNL A   1      37.235  22.593  26.086  1.00  0.00    -0.352 N 
ATOM     26  C   UNL A   1      38.578  22.712  26.336  1.00  0.00     0.251 C 
ATOM     27  H   UNL A   1      36.902  21.669  26.031  1.00  0.00     0.163 HD
ATOM     28  O   UNL A   1      39.312  21.739  26.185  1.00  0.00    -0.269 OA
BRANCH  26  29
ATOM     29  C   UNL A   1      39.136  24.004  26.781  1.00  0.00     0.039 A 
ATOM     30  C   UNL A   1      39.023  24.377  28.122  1.00  0.00     0.014 A 
ATOM     31  C   UNL A   1      39.753  24.858  25.864  1.00  0.00     0.014 A 
ATOM     32  C   UNL A   1      39.590  25.578  28.552  1.00  0.00     0.010 A 
ATOM     33  C   UNL A   1      40.401  26.001  26.310  1.00  0.00     0.010 A 
ATOM     34  C   UNL A   1      40.316  26.382  27.656  1.00  0.00    -0.014 A 
BRANCH  34  35
ATOM     35  C   UNL A   1      40.968  27.637  28.099  1.00  0.00     0.031 A 
ATOM     36  C   UNL A   1      42.465  27.773  28.007  1.00  0.00     0.074 A 
ATOM     37  C   UNL A   1      40.220  28.624  28.631  1.00  0.00     0.049 A 
ATOM     38  N   UNL A   1      43.226  28.761  28.397  1.00  0.00    -0.248 NA
ATOM     39  C   UNL A   1      43.209  26.640  27.428  1.00  0.00     0.031 C 
ATOM     40  C   UNL A   1      38.769  28.577  28.823  1.00  0.00     0.029 A 
ATOM     41  N   UNL A   1      40.576  29.859  29.114  1.00  0.00    -0.354 N 
ATOM     42  C   UNL A   1      44.530  28.367  28.122  1.00  0.00     0.074 A 
ATOM     43  C   UNL A   1      44.468  27.026  27.588  1.00  0.00     0.031 C 
ATOM     44  C   UNL A   1      38.355  29.741  29.351  1.00  0.00     0.029 A 
ATOM     45  C   UNL A   1      39.512  30.602  29.571  1.00  0.00     0.049 A 
ATOM     46  H   UNL A   1      41.505  30.182  29.132  1.00  0.00     0.167 HD
ATOM     47  C   UNL A   1      45.673  29.075  28.266  1.00  0.00     0.037 A 
ATOM     48  C   UNL A   1      39.476  31.837  30.107  1.00  0.00     0.037 A 
ATOM     49  C   UNL A   1      45.720  30.429  28.749  1.00  0.00     0.049 A 
ATOM     50  C   UNL A   1      40.764  32.605  30.251  1.00  0.00     0.074 A 
ATOM     51  C   UNL A   1      46.821  31.258  28.870  1.00  0.00     0.029 A 
ATOM     52  N   UNL A   1      44.620  31.153  29.182  1.00  0.00    -0.354 N 
ATOM     53  N   UNL A   1      41.980  32.239  29.921  1.00  0.00    -0.248 NA
ATOM     54  C   UNL A   1      40.678  33.950  30.836  1.00  0.00     0.031 C 
ATOM     55  C   UNL A   1      46.393  32.470  29.415  1.00  0.00     0.029 A 
ATOM     56  C   UNL A   1      45.018  32.414  29.588  1.00  0.00     0.049 A 
ATOM     57  H   UNL A   1      43.693  30.820  29.197  1.00  0.00     0.167 HD
ATOM     58  C   UNL A   1      42.799  33.317  30.235  1.00  0.00     0.074 A 
ATOM     59  C   UNL A   1      41.941  34.354  30.769  1.00  0.00     0.031 C 
ATOM     60  C   UNL A   1      44.142  33.437  30.098  1.00  0.00     0.037 A 
BRANCH  47  61
ATOM     61  C   UNL A   1      46.968  28.428  27.863  1.00  0.00     0.058 A 
ATOM     62  C   UNL A   1      47.710  27.656  28.769  1.00  0.00     0.135 A 
ATOM     63  C   UNL A   1      47.419  28.497  26.535  1.00  0.00     0.135 A 
ATOM     64  F   UNL A   1      47.335  27.575  30.056  1.00  0.00    -0.206 F 
ATOM     65  C   UNL A   1      48.854  26.972  28.373  1.00  0.00     0.059 A 
ATOM     66  C   UNL A   1      48.546  27.800  26.111  1.00  0.00     0.059 A 
ATOM     67  F   UNL A   1      46.748  29.228  25.631  1.00  0.00    -0.206 F 
ATOM     68  C   UNL A   1      49.257  27.040  27.039  1.00  0.00     0.060 A 
BRANCH  68  69
ATOM     69  S   UNL A   1      50.707  26.090  26.533  1.00  0.00     0.124 S 
ATOM     70  O   UNL A   1      50.517  26.015  25.088  1.00  0.00    -0.237 OA
ATOM     71  O   UNL A   1      51.804  26.938  26.986  1.00  0.00    -0.237 OA
ATOM     72  O   UNL A   1      50.555  24.828  27.251  1.00  0.00    -0.744 OA
ENDBRANCH  68  69
ENDBRANCH  47  61
BRANCH  48  73
ATOM     73  C   UNL A   1      38.180  32.435  30.528  1.00  0.00     0.058 A 
ATOM     74  C   UNL A   1      37.418  33.206  29.637  1.00  0.00     0.135 A 
ATOM     75  C   UNL A   1      37.677  32.252  31.826  1.00  0.00     0.135 A 
ATOM     76  F   UNL A   1      37.856  33.413  28.387  1.00  0.00    -0.206 F 
ATOM     77  C   UNL A   1      36.218  33.794  30.024  1.00  0.00     0.059 A 
ATOM     78  C   UNL A   1      36.467  32.808  32.229  1.00  0.00     0.059 A 
ATOM     79  F   UNL A   1      38.357  31.507  32.711  1.00  0.00    -0.206 F 
ATOM     80  C   UNL A   1      35.750  33.590  31.323  1.00  0.00     0.060 A 
BRANCH  80  81
ATOM     81  S   UNL A   1      34.181  34.340  31.806  1.00  0.00     0.124 S 
ATOM     82  O   UNL A   1      33.508  34.467  30.518  1.00  0.00    -0.237 OA
ATOM     83  O   UNL A   1      33.632  33.342  32.718  1.00  0.00    -0.237 OA
ATOM     84  O   UNL A   1      34.587  35.595  32.432  1.00  0.00    -0.744 OA
ENDBRANCH  80  81
ENDBRANCH  48  73
BRANCH  60  85
ATOM     85  C   UNL A   1      44.776  34.736  30.505  1.00  0.00     0.058 A 
ATOM     86  C   UNL A   1      44.860  35.817  29.615  1.00  0.00     0.135 A 
ATOM     87  C   UNL A   1      45.200  34.936  31.829  1.00  0.00     0.135 A 
ATOM     88  F   UNL A   1      44.475  35.672  28.338  1.00  0.00    -0.206 F 
ATOM     89  C   UNL A   1      45.343  37.055  30.024  1.00  0.00     0.059 A 
ATOM     90  C   UNL A   1      45.661  36.172  32.266  1.00  0.00     0.059 A 
ATOM     91  F   UNL A   1      45.129  33.935  32.720  1.00  0.00    -0.206 F 
ATOM     92  C   UNL A   1      45.731  37.226  31.356  1.00  0.00     0.060 A 
BRANCH  92  93
ATOM     93  S   UNL A   1      46.283  38.859  31.886  1.00  0.00     0.124 S 
ATOM     94  O   UNL A   1      47.719  38.650  32.038  1.00  0.00    -0.237 OA
ATOM     95  O   UNL A   1      45.880  39.703  30.764  1.00  0.00    -0.237 OA
ATOM     96  O   UNL A   1      45.547  39.082  33.127  1.00  0.00    -0.744 OA
ENDBRANCH  92  93
ENDBRANCH  60  85
ENDBRANCH  34  35
ENDBRANCH  26  29
ENDBRANCH   1  25
TORSDOF 14
ENDMDL
