MODEL 1
REMARK VINA RESULT:     -13.1      0.000      0.000
REMARK SMILES O=C(NCCCNC(=O)c1ccccc1C(=O)Nc1ccc(N2C(=O)[C@H]3[C@@H]4CC[C@@H](C4)[C@@H]3C2=O)cc1)c1ccc(-c2c3nc(c(-c4c(F)cc(S(=O)(=O)[O-])cc4F)c4ccc([nH]4)c(-c4c(F)cc(S(=O)(=O)[O-])cc4F)c4nc(c(-c5c(F)cc(S(=O)(=O)[O-])cc5F)c5ccc2[nH]5)C=C4)C=C3)cc1
REMARK SMILES IDX 5 1 4 2 3 3 1 4 2 5 37 7 38 8 102 9 39 10 101 11 40 12 41 13
REMARK SMILES IDX 42 14 95 15 43 16 100 17 94 18 96 19 44 20 99 21 93 22 92 23
REMARK SMILES IDX 45 25 79 26 58 27 78 28 59 29 62 30 77 31 97 32 60 33 61 34
REMARK SMILES IDX 76 36 98 37 63 38 46 39 47 40 56 41 48 42 49 43 55 44 57 45
REMARK SMILES IDX 50 46 51 47 52 48 53 49 54 50 80 51 81 52 90 53 82 54 83 55
REMARK SMILES IDX 89 56 91 57 84 58 85 59 86 60 87 61 88 62 64 63 65 64 74 65
REMARK SMILES IDX 66 66 67 67 73 68 75 69 68 70 69 71 70 72 71 73 72 74 6 75
REMARK SMILES IDX 7 76 8 77 9 79 10 80 11 81 15 82 12 83 14 84 13 85 16 86
REMARK SMILES IDX 17 87 18 88 19 90 20 91 36 92 21 93 35 94 22 95 23 96 24 97
REMARK SMILES IDX 33 98 25 99 26 100 32 101 34 102 27 103 30 104 28 105 31 106
REMARK SMILES IDX 29 107
REMARK H PARENT 3 6 96 24 62 35 7 78 18 89
REMARK Flexibility Score: inf
ROOT
ATOM      1  C   UNL A   1      33.603  26.973  25.462  1.00  0.00     0.042 C 
ENDROOT
BRANCH   1   2
ATOM      2  C   UNL A   1      34.248  27.707  26.625  1.00  0.00     0.118 C 
BRANCH   2   3
ATOM      3  N   UNL A   1      33.625  28.991  26.930  1.00  0.00    -0.352 N 
ATOM      4  O   UNL A   1      33.523  31.073  27.822  1.00  0.00    -0.269 OA
ATOM      5  C   UNL A   1      34.184  30.070  27.578  1.00  0.00     0.251 C 
ATOM      6  H   UNL A   1      32.691  29.099  26.637  1.00  0.00     0.163 HD
BRANCH   5   7
ATOM      7  C   UNL A   1      35.589  29.959  28.012  1.00  0.00     0.039 A 
ATOM      8  C   UNL A   1      36.612  30.108  27.073  1.00  0.00     0.014 A 
ATOM      9  C   UNL A   1      35.870  29.569  29.323  1.00  0.00     0.014 A 
ATOM     10  C   UNL A   1      37.895  29.699  27.398  1.00  0.00     0.010 A 
ATOM     11  C   UNL A   1      37.186  29.269  29.679  1.00  0.00     0.010 A 
ATOM     12  C   UNL A   1      38.204  29.308  28.712  1.00  0.00    -0.014 A 
BRANCH  12  13
ATOM     13  C   UNL A   1      39.622  29.082  29.082  1.00  0.00     0.031 A 
ATOM     14  C   UNL A   1      40.472  30.171  29.673  1.00  0.00     0.074 A 
ATOM     15  C   UNL A   1      40.134  27.857  28.847  1.00  0.00     0.049 A 
ATOM     16  N   UNL A   1      41.743  30.138  29.980  1.00  0.00    -0.248 NA
ATOM     17  C   UNL A   1      39.825  31.465  29.948  1.00  0.00     0.031 C 
ATOM     18  C   UNL A   1      39.392  26.735  28.260  1.00  0.00     0.029 A 
ATOM     19  N   UNL A   1      41.386  27.344  29.060  1.00  0.00    -0.354 N 
ATOM     20  C   UNL A   1      42.058  31.406  30.453  1.00  0.00     0.074 A 
ATOM     21  C   UNL A   1      40.844  32.191  30.393  1.00  0.00     0.031 C 
ATOM     22  C   UNL A   1      40.191  25.665  28.183  1.00  0.00     0.029 A 
ATOM     23  C   UNL A   1      41.524  26.047  28.625  1.00  0.00     0.049 A 
ATOM     24  H   UNL A   1      42.114  27.853  29.483  1.00  0.00     0.167 HD
ATOM     25  C   UNL A   1      43.257  31.862  30.890  1.00  0.00     0.037 A 
ATOM     26  C   UNL A   1      42.614  25.264  28.535  1.00  0.00     0.037 A 
ATOM     27  C   UNL A   1      44.447  31.049  30.962  1.00  0.00     0.049 A 
ATOM     28  C   UNL A   1      43.932  25.814  28.992  1.00  0.00     0.074 A 
ATOM     29  C   UNL A   1      45.691  31.393  31.467  1.00  0.00     0.029 A 
ATOM     30  N   UNL A   1      44.552  29.746  30.500  1.00  0.00    -0.354 N 
ATOM     31  N   UNL A   1      44.194  26.990  29.511  1.00  0.00    -0.248 NA
ATOM     32  C   UNL A   1      45.103  24.943  28.843  1.00  0.00     0.031 C 
ATOM     33  C   UNL A   1      46.563  30.325  31.244  1.00  0.00     0.029 A 
ATOM     34  C   UNL A   1      45.851  29.290  30.659  1.00  0.00     0.049 A 
ATOM     35  H   UNL A   1      43.812  29.221  30.116  1.00  0.00     0.167 HD
ATOM     36  C   UNL A   1      45.560  26.996  29.759  1.00  0.00     0.074 A 
ATOM     37  C   UNL A   1      46.062  25.696  29.362  1.00  0.00     0.031 C 
ATOM     38  C   UNL A   1      46.331  27.991  30.259  1.00  0.00     0.037 A 
BRANCH  25  39
ATOM     39  C   UNL A   1      43.380  33.305  31.304  1.00  0.00     0.058 A 
ATOM     40  C   UNL A   1      43.271  33.710  32.642  1.00  0.00     0.135 A 
ATOM     41  C   UNL A   1      43.740  34.278  30.354  1.00  0.00     0.135 A 
ATOM     42  F   UNL A   1      42.919  32.827  33.589  1.00  0.00    -0.206 F 
ATOM     43  C   UNL A   1      43.514  35.027  33.025  1.00  0.00     0.059 A 
ATOM     44  C   UNL A   1      44.011  35.594  30.718  1.00  0.00     0.059 A 
ATOM     45  F   UNL A   1      43.859  33.945  29.059  1.00  0.00    -0.206 F 
ATOM     46  C   UNL A   1      43.894  35.960  32.056  1.00  0.00     0.060 A 
BRANCH  46  47
ATOM     47  S   UNL A   1      44.259  37.649  32.581  1.00  0.00     0.124 S 
ATOM     48  O   UNL A   1      43.230  37.869  33.593  1.00  0.00    -0.237 OA
ATOM     49  O   UNL A   1      45.624  37.530  33.084  1.00  0.00    -0.237 OA
ATOM     50  O   UNL A   1      44.109  38.428  31.356  1.00  0.00    -0.744 OA
ENDBRANCH  46  47
ENDBRANCH  25  39
BRANCH  26  51
ATOM     51  C   UNL A   1      42.507  23.912  27.927  1.00  0.00     0.058 A 
ATOM     52  C   UNL A   1      42.440  23.742  26.538  1.00  0.00     0.135 A 
ATOM     53  C   UNL A   1      42.467  22.759  28.730  1.00  0.00     0.135 A 
ATOM     54  F   UNL A   1      42.477  24.812  25.729  1.00  0.00    -0.206 F 
ATOM     55  C   UNL A   1      42.303  22.483  25.966  1.00  0.00     0.059 A 
ATOM     56  C   UNL A   1      42.368  21.486  28.181  1.00  0.00     0.059 A 
ATOM     57  F   UNL A   1      42.551  22.864  30.066  1.00  0.00    -0.206 F 
ATOM     58  C   UNL A   1      42.264  21.361  26.798  1.00  0.00     0.060 A 
BRANCH  58  59
ATOM     59  S   UNL A   1      42.086  19.731  26.045  1.00  0.00     0.124 S 
ATOM     60  O   UNL A   1      42.436  18.857  27.158  1.00  0.00    -0.237 OA
ATOM     61  O   UNL A   1      40.681  19.729  25.647  1.00  0.00    -0.237 OA
ATOM     62  O   UNL A   1      43.042  19.764  24.943  1.00  0.00    -0.744 OA
ENDBRANCH  58  59
ENDBRANCH  26  51
BRANCH  38  63
ATOM     63  C   UNL A   1      47.799  27.709  30.416  1.00  0.00     0.058 A 
ATOM     64  C   UNL A   1      48.306  27.097  31.572  1.00  0.00     0.135 A 
ATOM     65  C   UNL A   1      48.696  27.995  29.374  1.00  0.00     0.135 A 
ATOM     66  F   UNL A   1      47.492  26.818  32.603  1.00  0.00    -0.206 F 
ATOM     67  C   UNL A   1      49.656  26.786  31.694  1.00  0.00     0.059 A 
ATOM     68  C   UNL A   1      50.043  27.664  29.463  1.00  0.00     0.059 A 
ATOM     69  F   UNL A   1      48.259  28.579  28.247  1.00  0.00    -0.206 F 
ATOM     70  C   UNL A   1      50.514  27.063  30.629  1.00  0.00     0.060 A 
BRANCH  70  71
ATOM     71  S   UNL A   1      52.250  26.593  30.777  1.00  0.00     0.124 S 
ATOM     72  O   UNL A   1      52.635  26.438  29.378  1.00  0.00    -0.237 OA
ATOM     73  O   UNL A   1      52.824  27.743  31.469  1.00  0.00    -0.237 OA
ATOM     74  O   UNL A   1      52.203  25.359  31.556  1.00  0.00    -0.744 OA
ENDBRANCH  70  71
ENDBRANCH  38  63
ENDBRANCH  12  13
ENDBRANCH   5   7
ENDBRANCH   2   3
ENDBRANCH   1   2
BRANCH   1  75
ATOM     75  C   UNL A   1      33.898  25.488  25.476  1.00  0.00     0.118 C 
BRANCH  75  76
ATOM     76  N   UNL A   1      34.561  25.050  24.261  1.00  0.00    -0.352 N 
ATOM     77  C   UNL A   1      34.768  23.780  23.807  1.00  0.00     0.252 C 
ATOM     78  H   UNL A   1      34.909  25.768  23.685  1.00  0.00     0.163 HD
ATOM     79  O   UNL A   1      35.454  23.586  22.803  1.00  0.00    -0.269 OA
BRANCH  77  80
ATOM     80  C   UNL A   1      34.309  22.619  24.585  1.00  0.00     0.052 A 
ATOM     81  C   UNL A   1      35.069  22.455  25.767  1.00  0.00     0.014 A 
ATOM     82  C   UNL A   1      33.206  21.790  24.327  1.00  0.00     0.052 A 
ATOM     83  C   UNL A   1      34.683  21.563  26.758  1.00  0.00     0.001 A 
ATOM     84  C   UNL A   1      32.818  20.919  25.376  1.00  0.00     0.014 A 
ATOM     85  C   UNL A   1      33.531  20.819  26.577  1.00  0.00     0.001 A 
BRANCH  82  86
ATOM     86  C   UNL A   1      32.270  21.771  23.152  1.00  0.00     0.256 C 
ATOM     87  O   UNL A   1      32.185  20.710  22.520  1.00  0.00    -0.269 OA
ATOM     88  N   UNL A   1      31.409  22.766  22.748  1.00  0.00    -0.322 N 
ATOM     89  H   UNL A   1      30.787  22.487  22.036  1.00  0.00     0.170 HD
BRANCH  88  90
ATOM     90  C   UNL A   1      31.244  24.087  23.150  1.00  0.00     0.041 A 
ATOM     91  C   UNL A   1      31.694  25.077  22.268  1.00  0.00     0.028 A 
ATOM     92  C   UNL A   1      30.605  24.441  24.330  1.00  0.00     0.028 A 
ATOM     93  C   UNL A   1      31.261  26.393  22.430  1.00  0.00     0.029 A 
ATOM     94  C   UNL A   1      30.290  25.783  24.558  1.00  0.00     0.029 A 
ATOM     95  C   UNL A   1      30.521  26.743  23.560  1.00  0.00     0.052 A 
BRANCH  95  96
ATOM     96  N   UNL A   1      29.859  27.981  23.635  1.00  0.00    -0.250 N 
ATOM     97  C   UNL A   1      28.497  28.143  23.354  1.00  0.00     0.237 C 
ATOM     98  C   UNL A   1      30.540  29.216  23.710  1.00  0.00     0.237 C 
ATOM     99  O   UNL A   1      27.588  27.339  23.373  1.00  0.00    -0.274 OA
ATOM    100  C   UNL A   1      28.439  29.532  22.826  1.00  0.00     0.095 C 
ATOM    101  C   UNL A   1      29.423  30.217  23.759  1.00  0.00     0.095 C 
ATOM    102  O   UNL A   1      31.731  29.458  23.807  1.00  0.00    -0.274 OA
ATOM    103  C   UNL A   1      27.336  30.579  22.676  1.00  0.00     0.002 C 
ATOM    104  C   UNL A   1      29.192  31.676  23.378  1.00  0.00     0.002 C 
ATOM    105  C   UNL A   1      27.749  31.368  21.414  1.00  0.00     0.005 C 
ATOM    106  C   UNL A   1      27.677  31.675  23.714  1.00  0.00     0.009 C 
ATOM    107  C   UNL A   1      29.121  31.960  21.850  1.00  0.00     0.005 C 
ENDBRANCH  95  96
ENDBRANCH  88  90
ENDBRANCH  82  86
ENDBRANCH  77  80
ENDBRANCH  75  76
ENDBRANCH   1  75
TORSDOF 16
ENDMDL
MODEL 2
REMARK VINA RESULT:     -13.0      2.877      5.966
REMARK SMILES O=C(NCCCNC(=O)c1ccccc1C(=O)Nc1ccc(N2C(=O)[C@H]3[C@@H]4CC[C@@H](C4)[C@@H]3C2=O)cc1)c1ccc(-c2c3nc(c(-c4c(F)cc(S(=O)(=O)[O-])cc4F)c4ccc([nH]4)c(-c4c(F)cc(S(=O)(=O)[O-])cc4F)c4nc(c(-c5c(F)cc(S(=O)(=O)[O-])cc5F)c5ccc2[nH]5)C=C4)C=C3)cc1
REMARK SMILES IDX 5 1 4 2 3 3 1 4 2 5 37 7 38 8 102 9 39 10 101 11 40 12 41 13
REMARK SMILES IDX 42 14 95 15 43 16 100 17 94 18 96 19 44 20 99 21 93 22 92 23
REMARK SMILES IDX 45 25 79 26 58 27 78 28 59 29 62 30 77 31 97 32 60 33 61 34
REMARK SMILES IDX 76 36 98 37 63 38 46 39 47 40 56 41 48 42 49 43 55 44 57 45
REMARK SMILES IDX 50 46 51 47 52 48 53 49 54 50 80 51 81 52 90 53 82 54 83 55
REMARK SMILES IDX 89 56 91 57 84 58 85 59 86 60 87 61 88 62 64 63 65 64 74 65
REMARK SMILES IDX 66 66 67 67 73 68 75 69 68 70 69 71 70 72 71 73 72 74 6 75
REMARK SMILES IDX 7 76 8 77 9 79 10 80 11 81 15 82 12 83 14 84 13 85 16 86
REMARK SMILES IDX 17 87 18 88 19 90 20 91 36 92 21 93 35 94 22 95 23 96 24 97
REMARK SMILES IDX 33 98 25 99 26 100 32 101 34 102 27 103 30 104 28 105 31 106
REMARK SMILES IDX 29 107
REMARK H PARENT 3 6 96 24 62 35 7 78 18 89
REMARK Flexibility Score: inf
ROOT
ATOM      1  C   UNL A   1      33.986  29.097  27.392  1.00  0.00     0.042 C 
ENDROOT
BRANCH   1   2
ATOM      2  C   UNL A   1      35.299  29.710  27.849  1.00  0.00     0.118 C 
BRANCH   2   3
ATOM      3  N   UNL A   1      35.211  30.405  29.130  1.00  0.00    -0.352 N 
ATOM      4  O   UNL A   1      35.990  31.177  31.113  1.00  0.00    -0.269 OA
ATOM      5  C   UNL A   1      36.218  30.627  30.042  1.00  0.00     0.251 C 
ATOM      6  H   UNL A   1      34.323  30.755  29.370  1.00  0.00     0.163 HD
BRANCH   5   7
ATOM      7  C   UNL A   1      37.569  30.139  29.708  1.00  0.00     0.039 A 
ATOM      8  C   UNL A   1      38.413  29.701  30.731  1.00  0.00     0.014 A 
ATOM      9  C   UNL A   1      38.030  30.253  28.395  1.00  0.00     0.014 A 
ATOM     10  C   UNL A   1      39.765  29.544  30.472  1.00  0.00     0.010 A 
ATOM     11  C   UNL A   1      39.371  29.980  28.117  1.00  0.00     0.010 A 
ATOM     12  C   UNL A   1      40.253  29.648  29.158  1.00  0.00    -0.014 A 
BRANCH  12  13
ATOM     13  C   UNL A   1      41.659  29.266  28.880  1.00  0.00     0.031 A 
ATOM     14  C   UNL A   1      42.772  30.276  28.886  1.00  0.00     0.074 A 
ATOM     15  C   UNL A   1      41.903  27.971  28.596  1.00  0.00     0.049 A 
ATOM     16  N   UNL A   1      44.035  30.100  28.595  1.00  0.00    -0.248 NA
ATOM     17  C   UNL A   1      42.432  31.660  29.257  1.00  0.00     0.031 C 
ATOM     18  C   UNL A   1      40.884  26.915  28.549  1.00  0.00     0.029 A 
ATOM     19  N   UNL A   1      43.066  27.316  28.290  1.00  0.00    -0.354 N 
ATOM     20  C   UNL A   1      44.636  31.347  28.714  1.00  0.00     0.074 A 
ATOM     21  C   UNL A   1      43.598  32.277  29.105  1.00  0.00     0.031 C 
ATOM     22  C   UNL A   1      41.468  25.747  28.258  1.00  0.00     0.029 A 
ATOM     23  C   UNL A   1      42.882  25.983  28.005  1.00  0.00     0.049 A 
ATOM     24  H   UNL A   1      43.946  27.755  28.275  1.00  0.00     0.167 HD
ATOM     25  C   UNL A   1      45.935  31.673  28.508  1.00  0.00     0.037 A 
ATOM     26  C   UNL A   1      43.740  25.060  27.537  1.00  0.00     0.037 A 
ATOM     27  C   UNL A   1      46.954  30.719  28.141  1.00  0.00     0.049 A 
ATOM     28  C   UNL A   1      45.160  25.465  27.283  1.00  0.00     0.074 A 
ATOM     29  C   UNL A   1      48.314  30.933  27.989  1.00  0.00     0.029 A 
ATOM     30  N   UNL A   1      46.726  29.382  27.848  1.00  0.00    -0.354 N 
ATOM     31  N   UNL A   1      45.728  26.631  27.478  1.00  0.00    -0.248 NA
ATOM     32  C   UNL A   1      46.056  24.439  26.737  1.00  0.00     0.031 C 
ATOM     33  C   UNL A   1      48.895  29.747  27.536  1.00  0.00     0.029 A 
ATOM     34  C   UNL A   1      47.911  28.773  27.466  1.00  0.00     0.049 A 
ATOM     35  H   UNL A   1      45.852  28.932  27.905  1.00  0.00     0.167 HD
ATOM     36  C   UNL A   1      47.051  26.477  27.086  1.00  0.00     0.074 A 
ATOM     37  C   UNL A   1      47.206  25.096  26.673  1.00  0.00     0.031 C 
ATOM     38  C   UNL A   1      48.045  27.397  27.060  1.00  0.00     0.037 A 
BRANCH  25  39
ATOM     39  C   UNL A   1      46.353  33.114  28.638  1.00  0.00     0.058 A 
ATOM     40  C   UNL A   1      46.888  33.631  29.826  1.00  0.00     0.135 A 
ATOM     41  C   UNL A   1      46.332  33.954  27.511  1.00  0.00     0.135 A 
ATOM     42  F   UNL A   1      46.924  32.879  30.936  1.00  0.00    -0.206 F 
ATOM     43  C   UNL A   1      47.389  34.930  29.893  1.00  0.00     0.059 A 
ATOM     44  C   UNL A   1      46.848  35.247  27.548  1.00  0.00     0.059 A 
ATOM     45  F   UNL A   1      45.830  33.510  26.347  1.00  0.00    -0.206 F 
ATOM     46  C   UNL A   1      47.374  35.726  28.745  1.00  0.00     0.060 A 
BRANCH  46  47
ATOM     47  S   UNL A   1      48.078  37.387  28.838  1.00  0.00     0.124 S 
ATOM     48  O   UNL A   1      49.486  37.125  28.555  1.00  0.00    -0.237 OA
ATOM     49  O   UNL A   1      47.344  38.094  27.792  1.00  0.00    -0.237 OA
ATOM     50  O   UNL A   1      47.781  37.808  30.204  1.00  0.00    -0.744 OA
ENDBRANCH  46  47
ENDBRANCH  25  39
BRANCH  26  51
ATOM     51  C   UNL A   1      43.254  23.692  27.216  1.00  0.00     0.058 A 
ATOM     52  C   UNL A   1      43.026  22.746  28.224  1.00  0.00     0.135 A 
ATOM     53  C   UNL A   1      43.009  23.305  25.887  1.00  0.00     0.135 A 
ATOM     54  F   UNL A   1      43.243  23.069  29.508  1.00  0.00    -0.206 F 
ATOM     55  C   UNL A   1      42.607  21.455  27.926  1.00  0.00     0.059 A 
ATOM     56  C   UNL A   1      42.554  22.032  25.567  1.00  0.00     0.059 A 
ATOM     57  F   UNL A   1      43.188  24.180  24.885  1.00  0.00    -0.206 F 
ATOM     58  C   UNL A   1      42.377  21.107  26.593  1.00  0.00     0.060 A 
BRANCH  58  59
ATOM     59  S   UNL A   1      41.832  19.428  26.218  1.00  0.00     0.124 S 
ATOM     60  O   UNL A   1      42.585  19.143  25.003  1.00  0.00    -0.237 OA
ATOM     61  O   UNL A   1      42.246  18.698  27.412  1.00  0.00    -0.237 OA
ATOM     62  O   UNL A   1      40.390  19.573  26.049  1.00  0.00    -0.744 OA
ENDBRANCH  58  59
ENDBRANCH  26  51
BRANCH  38  63
ATOM     63  C   UNL A   1      49.393  26.938  26.578  1.00  0.00     0.058 A 
ATOM     64  C   UNL A   1      50.290  26.281  27.434  1.00  0.00     0.135 A 
ATOM     65  C   UNL A   1      49.762  27.098  25.233  1.00  0.00     0.135 A 
ATOM     66  F   UNL A   1      49.990  26.118  28.733  1.00  0.00    -0.206 F 
ATOM     67  C   UNL A   1      51.514  25.807  26.975  1.00  0.00     0.059 A 
ATOM     68  C   UNL A   1      50.967  26.604  24.746  1.00  0.00     0.059 A 
ATOM     69  F   UNL A   1      48.937  27.717  24.374  1.00  0.00    -0.206 F 
ATOM     70  C   UNL A   1      51.838  25.964  25.626  1.00  0.00     0.060 A 
BRANCH  70  71
ATOM     71  S   UNL A   1      53.400  25.284  25.032  1.00  0.00     0.124 S 
ATOM     72  O   UNL A   1      54.371  26.091  25.764  1.00  0.00    -0.237 OA
ATOM     73  O   UNL A   1      53.304  23.886  25.439  1.00  0.00    -0.237 OA
ATOM     74  O   UNL A   1      53.348  25.518  23.592  1.00  0.00    -0.744 OA
ENDBRANCH  70  71
ENDBRANCH  38  63
ENDBRANCH  12  13
ENDBRANCH   5   7
ENDBRANCH   2   3
ENDBRANCH   1   2
BRANCH   1  75
ATOM     75  C   UNL A   1      33.638  29.464  25.965  1.00  0.00     0.118 C 
BRANCH  75  76
ATOM     76  N   UNL A   1      34.148  28.497  25.010  1.00  0.00    -0.352 N 
ATOM     77  C   UNL A   1      33.460  27.728  24.117  1.00  0.00     0.252 C 
ATOM     78  H   UNL A   1      35.125  28.380  25.007  1.00  0.00     0.163 HD
ATOM     79  O   UNL A   1      34.049  26.873  23.456  1.00  0.00    -0.269 OA
BRANCH  77  80
ATOM     80  C   UNL A   1      31.994  27.800  24.036  1.00  0.00     0.052 A 
ATOM     81  C   UNL A   1      31.569  28.348  22.803  1.00  0.00     0.014 A 
ATOM     82  C   UNL A   1      31.055  27.314  24.960  1.00  0.00     0.052 A 
ATOM     83  C   UNL A   1      30.236  28.314  22.416  1.00  0.00     0.001 A 
ATOM     84  C   UNL A   1      29.710  27.259  24.517  1.00  0.00     0.014 A 
ATOM     85  C   UNL A   1      29.308  27.733  23.262  1.00  0.00     0.001 A 
BRANCH  82  86
ATOM     86  C   UNL A   1      31.266  26.707  26.318  1.00  0.00     0.256 C 
ATOM     87  O   UNL A   1      31.160  27.462  27.293  1.00  0.00    -0.269 OA
ATOM     88  N   UNL A   1      31.464  25.379  26.623  1.00  0.00    -0.322 N 
ATOM     89  H   UNL A   1      31.440  25.186  27.588  1.00  0.00     0.170 HD
BRANCH  88  90
ATOM     90  C   UNL A   1      31.691  24.257  25.832  1.00  0.00     0.041 A 
ATOM     91  C   UNL A   1      32.818  24.285  25.002  1.00  0.00     0.028 A 
ATOM     92  C   UNL A   1      30.896  23.121  25.893  1.00  0.00     0.028 A 
ATOM     93  C   UNL A   1      33.302  23.097  24.455  1.00  0.00     0.029 A 
ATOM     94  C   UNL A   1      31.312  21.963  25.231  1.00  0.00     0.029 A 
ATOM     95  C   UNL A   1      32.567  21.920  24.602  1.00  0.00     0.052 A 
BRANCH  95  96
ATOM     96  N   UNL A   1      33.133  20.671  24.291  1.00  0.00    -0.250 N 
ATOM     97  C   UNL A   1      32.550  19.763  23.398  1.00  0.00     0.237 C 
ATOM     98  C   UNL A   1      34.169  20.084  25.050  1.00  0.00     0.237 C 
ATOM     99  O   UNL A   1      31.760  19.945  22.494  1.00  0.00    -0.274 OA
ATOM    100  C   UNL A   1      32.986  18.450  23.942  1.00  0.00     0.095 C 
ATOM    101  C   UNL A   1      34.413  18.784  24.341  1.00  0.00     0.095 C 
ATOM    102  O   UNL A   1      34.804  20.521  25.994  1.00  0.00    -0.274 OA
ATOM    103  C   UNL A   1      33.120  17.040  23.368  1.00  0.00     0.002 C 
ATOM    104  C   UNL A   1      34.937  17.391  24.678  1.00  0.00     0.002 C 
ATOM    105  C   UNL A   1      32.834  16.122  24.576  1.00  0.00     0.005 C 
ATOM    106  C   UNL A   1      34.643  16.784  23.280  1.00  0.00     0.009 C 
ATOM    107  C   UNL A   1      33.985  16.517  25.547  1.00  0.00     0.005 C 
ENDBRANCH  95  96
ENDBRANCH  88  90
ENDBRANCH  82  86
ENDBRANCH  77  80
ENDBRANCH  75  76
ENDBRANCH   1  75
TORSDOF 16
ENDMDL
MODEL 3
REMARK VINA RESULT:     -13.0      4.533     10.312
REMARK SMILES O=C(NCCCNC(=O)c1ccccc1C(=O)Nc1ccc(N2C(=O)[C@H]3[C@@H]4CC[C@@H](C4)[C@@H]3C2=O)cc1)c1ccc(-c2c3nc(c(-c4c(F)cc(S(=O)(=O)[O-])cc4F)c4ccc([nH]4)c(-c4c(F)cc(S(=O)(=O)[O-])cc4F)c4nc(c(-c5c(F)cc(S(=O)(=O)[O-])cc5F)c5ccc2[nH]5)C=C4)C=C3)cc1
REMARK SMILES IDX 5 1 4 2 3 3 1 4 2 5 37 7 38 8 102 9 39 10 101 11 40 12 41 13
REMARK SMILES IDX 42 14 95 15 43 16 100 17 94 18 96 19 44 20 99 21 93 22 92 23
REMARK SMILES IDX 45 25 79 26 58 27 78 28 59 29 62 30 77 31 97 32 60 33 61 34
REMARK SMILES IDX 76 36 98 37 63 38 46 39 47 40 56 41 48 42 49 43 55 44 57 45
REMARK SMILES IDX 50 46 51 47 52 48 53 49 54 50 80 51 81 52 90 53 82 54 83 55
REMARK SMILES IDX 89 56 91 57 84 58 85 59 86 60 87 61 88 62 64 63 65 64 74 65
REMARK SMILES IDX 66 66 67 67 73 68 75 69 68 70 69 71 70 72 71 73 72 74 6 75
REMARK SMILES IDX 7 76 8 77 9 79 10 80 11 81 15 82 12 83 14 84 13 85 16 86
REMARK SMILES IDX 17 87 18 88 19 90 20 91 36 92 21 93 35 94 22 95 23 96 24 97
REMARK SMILES IDX 33 98 25 99 26 100 32 101 34 102 27 103 30 104 28 105 31 106
REMARK SMILES IDX 29 107
REMARK H PARENT 3 6 96 24 62 35 7 78 18 89
REMARK Flexibility Score: inf
ROOT
ATOM      1  C   UNL A   1      31.712  32.224  26.723  1.00  0.00     0.042 C 
ENDROOT
BRANCH   1   2
ATOM      2  C   UNL A   1      32.944  32.819  27.386  1.00  0.00     0.118 C 
BRANCH   2   3
ATOM      3  N   UNL A   1      32.755  34.188  27.857  1.00  0.00    -0.352 N 
ATOM      4  O   UNL A   1      33.211  36.013  29.122  1.00  0.00    -0.269 OA
ATOM      5  C   UNL A   1      33.519  34.880  28.770  1.00  0.00     0.251 C 
ATOM      6  H   UNL A   1      31.989  34.675  27.476  1.00  0.00     0.163 HD
BRANCH   5   7
ATOM      7  C   UNL A   1      34.690  34.195  29.347  1.00  0.00     0.039 A 
ATOM      8  C   UNL A   1      34.519  33.344  30.441  1.00  0.00     0.014 A 
ATOM      9  C   UNL A   1      35.967  34.516  28.880  1.00  0.00     0.014 A 
ATOM     10  C   UNL A   1      35.627  32.954  31.176  1.00  0.00     0.010 A 
ATOM     11  C   UNL A   1      37.084  34.023  29.556  1.00  0.00     0.010 A 
ATOM     12  C   UNL A   1      36.922  33.259  30.723  1.00  0.00    -0.014 A 
BRANCH  12  13
ATOM     13  C   UNL A   1      38.087  32.649  31.409  1.00  0.00     0.031 A 
ATOM     14  C   UNL A   1      38.815  31.466  30.835  1.00  0.00     0.074 A 
ATOM     15  C   UNL A   1      38.460  33.184  32.589  1.00  0.00     0.049 A 
ATOM     16  N   UNL A   1      39.805  30.787  31.356  1.00  0.00    -0.248 NA
ATOM     17  C   UNL A   1      38.381  30.973  29.518  1.00  0.00     0.031 C 
ATOM     18  C   UNL A   1      37.804  34.326  33.237  1.00  0.00     0.029 A 
ATOM     19  N   UNL A   1      39.466  32.850  33.456  1.00  0.00    -0.354 N 
ATOM     20  C   UNL A   1      40.092  29.770  30.453  1.00  0.00     0.074 A 
ATOM     21  C   UNL A   1      39.170  29.919  29.347  1.00  0.00     0.031 C 
ATOM     22  C   UNL A   1      38.436  34.610  34.382  1.00  0.00     0.029 A 
ATOM     23  C   UNL A   1      39.479  33.618  34.596  1.00  0.00     0.049 A 
ATOM     24  H   UNL A   1      40.114  32.131  33.280  1.00  0.00     0.167 HD
ATOM     25  C   UNL A   1      41.038  28.805  30.553  1.00  0.00     0.037 A 
ATOM     26  C   UNL A   1      40.209  33.506  35.720  1.00  0.00     0.037 A 
ATOM     27  C   UNL A   1      41.959  28.695  31.658  1.00  0.00     0.049 A 
ATOM     28  C   UNL A   1      41.219  32.403  35.812  1.00  0.00     0.074 A 
ATOM     29  C   UNL A   1      43.008  27.803  31.814  1.00  0.00     0.029 A 
ATOM     30  N   UNL A   1      41.933  29.482  32.800  1.00  0.00    -0.354 N 
ATOM     31  N   UNL A   1      41.531  31.500  34.913  1.00  0.00    -0.248 NA
ATOM     32  C   UNL A   1      41.969  32.292  37.068  1.00  0.00     0.031 C 
ATOM     33  C   UNL A   1      43.567  28.004  33.078  1.00  0.00     0.029 A 
ATOM     34  C   UNL A   1      42.912  29.062  33.686  1.00  0.00     0.049 A 
ATOM     35  H   UNL A   1      41.312  30.230  32.957  1.00  0.00     0.167 HD
ATOM     36  C   UNL A   1      42.521  30.717  35.493  1.00  0.00     0.074 A 
ATOM     37  C   UNL A   1      42.777  31.274  36.807  1.00  0.00     0.031 C 
ATOM     38  C   UNL A   1      43.152  29.630  34.989  1.00  0.00     0.037 A 
BRANCH  25  39
ATOM     39  C   UNL A   1      41.129  27.762  29.471  1.00  0.00     0.058 A 
ATOM     40  C   UNL A   1      42.210  27.703  28.579  1.00  0.00     0.135 A 
ATOM     41  C   UNL A   1      40.177  26.728  29.412  1.00  0.00     0.135 A 
ATOM     42  F   UNL A   1      43.142  28.667  28.583  1.00  0.00    -0.206 F 
ATOM     43  C   UNL A   1      42.345  26.658  27.668  1.00  0.00     0.059 A 
ATOM     44  C   UNL A   1      40.304  25.662  28.525  1.00  0.00     0.059 A 
ATOM     45  F   UNL A   1      39.122  26.734  30.242  1.00  0.00    -0.206 F 
ATOM     46  C   UNL A   1      41.392  25.636  27.657  1.00  0.00     0.060 A 
BRANCH  46  47
ATOM     47  S   UNL A   1      41.615  24.261  26.506  1.00  0.00     0.124 S 
ATOM     48  O   UNL A   1      42.791  23.601  27.063  1.00  0.00    -0.237 OA
ATOM     49  O   UNL A   1      40.356  23.534  26.644  1.00  0.00    -0.237 OA
ATOM     50  O   UNL A   1      41.817  24.921  25.220  1.00  0.00    -0.744 OA
ENDBRANCH  46  47
ENDBRANCH  25  39
BRANCH  26  51
ATOM     51  C   UNL A   1      39.955  34.423  36.863  1.00  0.00     0.058 A 
ATOM     52  C   UNL A   1      39.077  34.071  37.896  1.00  0.00     0.135 A 
ATOM     53  C   UNL A   1      40.589  35.675  36.940  1.00  0.00     0.135 A 
ATOM     54  F   UNL A   1      38.451  32.885  37.869  1.00  0.00    -0.206 F 
ATOM     55  C   UNL A   1      38.809  34.939  38.948  1.00  0.00     0.059 A 
ATOM     56  C   UNL A   1      40.365  36.545  38.000  1.00  0.00     0.059 A 
ATOM     57  F   UNL A   1      41.457  36.052  35.987  1.00  0.00    -0.206 F 
ATOM     58  C   UNL A   1      39.456  36.176  38.988  1.00  0.00     0.060 A 
BRANCH  58  59
ATOM     59  S   UNL A   1      39.100  37.295  40.358  1.00  0.00     0.124 S 
ATOM     60  O   UNL A   1      38.268  38.298  39.706  1.00  0.00    -0.237 OA
ATOM     61  O   UNL A   1      38.419  36.416  41.303  1.00  0.00    -0.237 OA
ATOM     62  O   UNL A   1      40.424  37.746  40.775  1.00  0.00    -0.744 OA
ENDBRANCH  58  59
ENDBRANCH  26  51
BRANCH  38  63
ATOM     63  C   UNL A   1      44.191  28.976  35.856  1.00  0.00     0.058 A 
ATOM     64  C   UNL A   1      45.528  29.402  35.843  1.00  0.00     0.135 A 
ATOM     65  C   UNL A   1      43.832  27.959  36.755  1.00  0.00     0.135 A 
ATOM     66  F   UNL A   1      45.925  30.360  34.990  1.00  0.00    -0.206 F 
ATOM     67  C   UNL A   1      46.477  28.834  36.685  1.00  0.00     0.059 A 
ATOM     68  C   UNL A   1      44.758  27.400  37.629  1.00  0.00     0.059 A 
ATOM     69  F   UNL A   1      42.565  27.519  36.808  1.00  0.00    -0.206 F 
ATOM     70  C   UNL A   1      46.079  27.841  37.583  1.00  0.00     0.060 A 
BRANCH  70  71
ATOM     71  S   UNL A   1      47.309  27.162  38.715  1.00  0.00     0.124 S 
ATOM     72  O   UNL A   1      46.475  26.388  39.628  1.00  0.00    -0.237 OA
ATOM     73  O   UNL A   1      48.158  26.383  37.818  1.00  0.00    -0.237 OA
ATOM     74  O   UNL A   1      47.936  28.349  39.289  1.00  0.00    -0.744 OA
ENDBRANCH  70  71
ENDBRANCH  38  63
ENDBRANCH  12  13
ENDBRANCH   5   7
ENDBRANCH   2   3
ENDBRANCH   1   2
BRANCH   1  75
ATOM     75  C   UNL A   1      31.753  30.712  26.671  1.00  0.00     0.118 C 
BRANCH  75  76
ATOM     76  N   UNL A   1      32.826  30.222  25.825  1.00  0.00    -0.352 N 
ATOM     77  C   UNL A   1      32.781  29.272  24.845  1.00  0.00     0.252 C 
ATOM     78  H   UNL A   1      33.708  30.631  25.979  1.00  0.00     0.163 HD
ATOM     79  O   UNL A   1      33.818  28.896  24.301  1.00  0.00    -0.269 OA
BRANCH  77  80
ATOM     80  C   UNL A   1      31.524  28.576  24.531  1.00  0.00     0.052 A 
ATOM     81  C   UNL A   1      30.991  29.003  23.292  1.00  0.00     0.014 A 
ATOM     82  C   UNL A   1      30.914  27.534  25.247  1.00  0.00     0.052 A 
ATOM     83  C   UNL A   1      29.933  28.336  22.691  1.00  0.00     0.001 A 
ATOM     84  C   UNL A   1      29.862  26.851  24.586  1.00  0.00     0.014 A 
ATOM     85  C   UNL A   1      29.390  27.232  23.324  1.00  0.00     0.001 A 
BRANCH  82  86
ATOM     86  C   UNL A   1      31.289  26.925  26.568  1.00  0.00     0.256 C 
ATOM     87  O   UNL A   1      31.246  27.666  27.559  1.00  0.00    -0.269 OA
ATOM     88  N   UNL A   1      31.578  25.606  26.834  1.00  0.00    -0.322 N 
ATOM     89  H   UNL A   1      31.661  25.403  27.794  1.00  0.00     0.170 HD
BRANCH  88  90
ATOM     90  C   UNL A   1      31.776  24.503  26.009  1.00  0.00     0.041 A 
ATOM     91  C   UNL A   1      32.920  24.514  25.202  1.00  0.00     0.028 A 
ATOM     92  C   UNL A   1      30.937  23.398  26.016  1.00  0.00     0.028 A 
ATOM     93  C   UNL A   1      33.368  23.326  24.624  1.00  0.00     0.029 A 
ATOM     94  C   UNL A   1      31.320  22.247  25.322  1.00  0.00     0.029 A 
ATOM     95  C   UNL A   1      32.585  22.175  24.716  1.00  0.00     0.052 A 
BRANCH  95  96
ATOM     96  N   UNL A   1      33.107  20.916  24.372  1.00  0.00    -0.250 N 
ATOM     97  C   UNL A   1      32.526  20.078  23.413  1.00  0.00     0.237 C 
ATOM     98  C   UNL A   1      34.078  20.246  25.149  1.00  0.00     0.237 C 
ATOM     99  O   UNL A   1      31.788  20.337  22.484  1.00  0.00    -0.274 OA
ATOM    100  C   UNL A   1      32.875  18.722  23.913  1.00  0.00     0.095 C 
ATOM    101  C   UNL A   1      34.296  18.969  24.392  1.00  0.00     0.095 C 
ATOM    102  O   UNL A   1      34.686  20.610  26.141  1.00  0.00    -0.274 OA
ATOM    103  C   UNL A   1      32.972  17.334  23.281  1.00  0.00     0.002 C 
ATOM    104  C   UNL A   1      34.738  17.539  24.687  1.00  0.00     0.002 C 
ATOM    105  C   UNL A   1      32.587  16.379  24.431  1.00  0.00     0.005 C 
ATOM    106  C   UNL A   1      34.484  17.009  23.250  1.00  0.00     0.009 C 
ATOM    107  C   UNL A   1      33.708  16.673  25.470  1.00  0.00     0.005 C 
ENDBRANCH  95  96
ENDBRANCH  88  90
ENDBRANCH  82  86
ENDBRANCH  77  80
ENDBRANCH  75  76
ENDBRANCH   1  75
TORSDOF 16
ENDMDL
