MODEL 1
REMARK VINA RESULT:     -10.5      0.000      0.000
REMARK SMILES C#CCN(CC(=O)NCCCNC(=O)c1ccc(-c2c3nc(c(-c4c(F)cc(S(=O)(=O)[O-])cc4F)c4ccc([nH]4)c(-c4c(F)cc(S(=O)(=O)[O-])cc4F)c4nc(c(-c5c(F)cc(S(=O)(=O)[O-])cc5F)c5ccc2[nH]5)C=C4)C=C3)cc1)C(=O)[C@H](c1ccc(Cl)cc1)C(C)C
REMARK SMILES IDX 9 1 8 2 6 3 7 4 5 6 4 7 3 8 2 9 1 10 81 11 82 12 83 13 91 14
REMARK SMILES IDX 92 15 93 16 84 17 85 18 90 19 86 20 89 21 87 22 88 23 10 24
REMARK SMILES IDX 11 25 12 26 13 27 14 29 15 30 16 31 80 32 17 33 79 34 18 35
REMARK SMILES IDX 19 36 20 37 73 38 21 39 78 40 72 41 74 42 22 43 77 44 71 45
REMARK SMILES IDX 70 46 23 48 57 49 36 50 56 51 37 52 40 53 55 54 75 55 38 56
REMARK SMILES IDX 39 57 54 59 76 60 41 61 24 62 25 63 34 64 26 65 27 66 33 67
REMARK SMILES IDX 35 68 28 69 29 70 30 71 31 72 32 73 58 74 59 75 68 76 60 77
REMARK SMILES IDX 61 78 67 79 69 80 62 81 63 82 64 83 65 84 66 85 42 86 43 87
REMARK SMILES IDX 52 88 44 89 45 90 51 91 53 92 46 93 47 94 48 95 49 96 50 97
REMARK H PARENT 8 5 12 28 74 47 40 58
REMARK Flexibility Score: inf
ROOT
ATOM      1  C   UNL A   1      32.363  27.914  24.743  1.00  0.00     0.117 C 
ENDROOT
BRANCH   1   2
ATOM      2  N   UNL A   1      33.188  27.874  23.556  1.00  0.00    -0.354 N 
ATOM      3  C   UNL A   1      33.072  27.122  22.432  1.00  0.00     0.239 C 
ATOM      4  O   UNL A   1      33.965  27.233  21.590  1.00  0.00    -0.273 OA
ATOM      5  H   UNL A   1      33.956  28.489  23.565  1.00  0.00     0.163 HD
BRANCH   3   6
ATOM      6  C   UNL A   1      31.854  26.219  22.202  1.00  0.00     0.220 C 
BRANCH   6   7
ATOM      7  N   UNL A   1      31.864  24.907  22.855  1.00  0.00    -0.322 N 
BRANCH   7   8
ATOM      8  C   UNL A   1      30.770  24.644  23.794  1.00  0.00     0.209 C 
BRANCH   8   9
ATOM      9  C   UNL A   1      29.697  25.721  23.808  1.00  0.00    -0.085 C 
ATOM     10  C   UNL A   1      28.778  26.646  23.819  1.00  0.00     0.006 C 
ENDBRANCH   8   9
ENDBRANCH   7   8
BRANCH   7  11
ATOM     11  C   UNL A   1      32.818  23.900  22.647  1.00  0.00     0.231 C 
ATOM     12  O   UNL A   1      33.419  23.830  21.569  1.00  0.00    -0.274 OA
BRANCH  11  13
ATOM     13  C   UNL A   1      33.129  22.848  23.757  1.00  0.00     0.111 C 
BRANCH  13  14
ATOM     14  C   UNL A   1      32.968  21.371  23.239  1.00  0.00    -0.000 C 
ATOM     15  C   UNL A   1      32.743  20.377  24.392  1.00  0.00     0.008 C 
ATOM     16  C   UNL A   1      31.798  21.196  22.254  1.00  0.00     0.008 C 
ENDBRANCH  13  14
BRANCH  13  17
ATOM     17  C   UNL A   1      34.536  23.072  24.324  1.00  0.00    -0.035 A 
ATOM     18  C   UNL A   1      35.665  22.662  23.593  1.00  0.00     0.006 A 
ATOM     19  C   UNL A   1      34.731  23.647  25.588  1.00  0.00     0.006 A 
ATOM     20  C   UNL A   1      36.941  22.715  24.155  1.00  0.00     0.021 A 
ATOM     21  C   UNL A   1      36.016  23.745  26.133  1.00  0.00     0.021 A 
ATOM     22  C   UNL A   1      37.109  23.250  25.428  1.00  0.00     0.041 A 
ATOM     23  Cl  UNL A   1      38.677  23.285  26.136  1.00  0.00    -0.084 Cl
ENDBRANCH  13  17
ENDBRANCH  11  13
ENDBRANCH   7  11
ENDBRANCH   6   7
ENDBRANCH   3   6
ENDBRANCH   1   2
BRANCH   1  24
ATOM     24  C   UNL A   1      32.997  27.132  25.887  1.00  0.00     0.042 C 
BRANCH  24  25
ATOM     25  C   UNL A   1      34.140  27.870  26.576  1.00  0.00     0.118 C 
BRANCH  25  26
ATOM     26  N   UNL A   1      33.789  29.242  26.916  1.00  0.00    -0.352 N 
ATOM     27  C   UNL A   1      34.463  30.161  27.680  1.00  0.00     0.251 C 
ATOM     28  H   UNL A   1      32.936  29.559  26.539  1.00  0.00     0.163 HD
ATOM     29  O   UNL A   1      33.884  31.172  28.061  1.00  0.00    -0.269 OA
BRANCH  27  30
ATOM     30  C   UNL A   1      35.873  29.922  28.043  1.00  0.00     0.039 A 
ATOM     31  C   UNL A   1      36.177  29.489  29.335  1.00  0.00     0.014 A 
ATOM     32  C   UNL A   1      36.892  30.144  27.113  1.00  0.00     0.014 A 
ATOM     33  C   UNL A   1      37.504  29.219  29.674  1.00  0.00     0.010 A 
ATOM     34  C   UNL A   1      38.200  29.797  27.427  1.00  0.00     0.010 A 
ATOM     35  C   UNL A   1      38.521  29.338  28.712  1.00  0.00    -0.014 A 
BRANCH  35  36
ATOM     36  C   UNL A   1      39.926  28.986  29.027  1.00  0.00     0.031 A 
ATOM     37  C   UNL A   1      40.843  30.015  29.631  1.00  0.00     0.074 A 
ATOM     38  C   UNL A   1      40.391  27.765  28.698  1.00  0.00     0.049 A 
ATOM     39  N   UNL A   1      42.119  29.924  29.904  1.00  0.00    -0.248 NA
ATOM     40  C   UNL A   1      40.255  31.329  29.940  1.00  0.00     0.031 C 
ATOM     41  C   UNL A   1      39.608  26.706  28.057  1.00  0.00     0.029 A 
ATOM     42  N   UNL A   1      41.638  27.212  28.845  1.00  0.00    -0.354 N 
ATOM     43  C   UNL A   1      42.489  31.169  30.398  1.00  0.00     0.074 A 
ATOM     44  C   UNL A   1      41.317  32.014  30.338  1.00  0.00     0.031 C 
ATOM     45  C   UNL A   1      40.386  25.626  27.884  1.00  0.00     0.029 A 
ATOM     46  C   UNL A   1      41.731  25.927  28.366  1.00  0.00     0.049 A 
ATOM     47  H   UNL A   1      42.395  27.690  29.255  1.00  0.00     0.167 HD
ATOM     48  C   UNL A   1      43.692  31.563  30.879  1.00  0.00     0.037 A 
ATOM     49  C   UNL A   1      42.784  25.088  28.313  1.00  0.00     0.037 A 
ATOM     50  C   UNL A   1      44.844  30.704  30.958  1.00  0.00     0.049 A 
ATOM     51  C   UNL A   1      44.106  25.544  28.864  1.00  0.00     0.074 A 
ATOM     52  C   UNL A   1      46.091  30.984  31.488  1.00  0.00     0.029 A 
ATOM     53  N   UNL A   1      44.892  29.398  30.491  1.00  0.00    -0.354 N 
ATOM     54  N   UNL A   1      44.422  26.703  29.393  1.00  0.00    -0.248 NA
ATOM     55  C   UNL A   1      45.213  24.580  28.821  1.00  0.00     0.031 C 
ATOM     56  C   UNL A   1      46.905  29.861  31.303  1.00  0.00     0.029 A 
ATOM     57  C   UNL A   1      46.153  28.864  30.703  1.00  0.00     0.049 A 
ATOM     58  H   UNL A   1      44.140  28.921  30.071  1.00  0.00     0.167 HD
ATOM     59  C   UNL A   1      45.758  26.599  29.768  1.00  0.00     0.074 A 
ATOM     60  C   UNL A   1      46.184  25.258  29.416  1.00  0.00     0.031 C 
ATOM     61  C   UNL A   1      46.557  27.526  30.350  1.00  0.00     0.037 A 
BRANCH  48  62
ATOM     62  C   UNL A   1      43.819  32.983  31.360  1.00  0.00     0.058 A 
ATOM     63  C   UNL A   1      44.240  34.017  30.508  1.00  0.00     0.135 A 
ATOM     64  C   UNL A   1      43.491  33.321  32.683  1.00  0.00     0.135 A 
ATOM     65  F   UNL A   1      44.582  33.749  29.237  1.00  0.00    -0.206 F 
ATOM     66  C   UNL A   1      44.361  35.328  30.957  1.00  0.00     0.059 A 
ATOM     67  C   UNL A   1      43.576  34.631  33.146  1.00  0.00     0.059 A 
ATOM     68  F   UNL A   1      43.084  32.373  33.542  1.00  0.00    -0.206 F 
ATOM     69  C   UNL A   1      44.029  35.625  32.278  1.00  0.00     0.060 A 
BRANCH  69  70
ATOM     70  S   UNL A   1      44.191  37.331  32.845  1.00  0.00     0.124 S 
ATOM     71  O   UNL A   1      45.565  37.344  33.338  1.00  0.00    -0.237 OA
ATOM     72  O   UNL A   1      43.949  38.090  31.622  1.00  0.00    -0.237 OA
ATOM     73  O   UNL A   1      43.156  37.451  33.867  1.00  0.00    -0.744 OA
ENDBRANCH  69  70
ENDBRANCH  48  62
BRANCH  49  74
ATOM     74  C   UNL A   1      42.617  23.726  27.741  1.00  0.00     0.058 A 
ATOM     75  C   UNL A   1      42.709  23.509  26.358  1.00  0.00     0.135 A 
ATOM     76  C   UNL A   1      42.391  22.612  28.564  1.00  0.00     0.135 A 
ATOM     77  F   UNL A   1      42.921  24.543  25.530  1.00  0.00    -0.206 F 
ATOM     78  C   UNL A   1      42.571  22.239  25.809  1.00  0.00     0.059 A 
ATOM     79  C   UNL A   1      42.274  21.328  28.040  1.00  0.00     0.059 A 
ATOM     80  F   UNL A   1      42.314  22.764  29.895  1.00  0.00    -0.206 F 
ATOM     81  C   UNL A   1      42.357  21.153  26.660  1.00  0.00     0.060 A 
BRANCH  81  82
ATOM     82  S   UNL A   1      42.237  19.501  25.940  1.00  0.00     0.124 S 
ATOM     83  O   UNL A   1      43.108  19.623  24.777  1.00  0.00    -0.237 OA
ATOM     84  O   UNL A   1      42.732  18.658  27.023  1.00  0.00    -0.237 OA
ATOM     85  O   UNL A   1      40.813  19.364  25.651  1.00  0.00    -0.744 OA
ENDBRANCH  81  82
ENDBRANCH  49  74
BRANCH  61  86
ATOM     86  C   UNL A   1      47.966  27.116  30.675  1.00  0.00     0.058 A 
ATOM     87  C   UNL A   1      49.042  27.444  29.837  1.00  0.00     0.135 A 
ATOM     88  C   UNL A   1      48.248  26.431  31.868  1.00  0.00     0.135 A 
ATOM     89  F   UNL A   1      48.825  28.093  28.681  1.00  0.00    -0.206 F 
ATOM     90  C   UNL A   1      50.347  27.089  30.159  1.00  0.00     0.059 A 
ATOM     91  C   UNL A   1      49.548  26.089  32.223  1.00  0.00     0.059 A 
ATOM     92  F   UNL A   1      47.255  26.102  32.710  1.00  0.00    -0.206 F 
ATOM     93  C   UNL A   1      50.591  26.412  31.355  1.00  0.00     0.060 A 
BRANCH  93  94
ATOM     94  S   UNL A   1      52.293  25.986  31.779  1.00  0.00     0.124 S 
ATOM     95  O   UNL A   1      52.935  26.007  30.469  1.00  0.00    -0.237 OA
ATOM     96  O   UNL A   1      52.669  27.066  32.687  1.00  0.00    -0.237 OA
ATOM     97  O   UNL A   1      52.170  24.670  32.398  1.00  0.00    -0.744 OA
ENDBRANCH  93  94
ENDBRANCH  61  86
ENDBRANCH  35  36
ENDBRANCH  27  30
ENDBRANCH  25  26
ENDBRANCH  24  25
ENDBRANCH   1  24
TORSDOF 20
ENDMDL
MODEL 2
REMARK VINA RESULT:     -10.2      2.538      3.089
REMARK SMILES C#CCN(CC(=O)NCCCNC(=O)c1ccc(-c2c3nc(c(-c4c(F)cc(S(=O)(=O)[O-])cc4F)c4ccc([nH]4)c(-c4c(F)cc(S(=O)(=O)[O-])cc4F)c4nc(c(-c5c(F)cc(S(=O)(=O)[O-])cc5F)c5ccc2[nH]5)C=C4)C=C3)cc1)C(=O)[C@H](c1ccc(Cl)cc1)C(C)C
REMARK SMILES IDX 9 1 8 2 6 3 7 4 5 6 4 7 3 8 2 9 1 10 81 11 82 12 83 13 91 14
REMARK SMILES IDX 92 15 93 16 84 17 85 18 90 19 86 20 89 21 87 22 88 23 10 24
REMARK SMILES IDX 11 25 12 26 13 27 14 29 15 30 16 31 80 32 17 33 79 34 18 35
REMARK SMILES IDX 19 36 20 37 73 38 21 39 78 40 72 41 74 42 22 43 77 44 71 45
REMARK SMILES IDX 70 46 23 48 57 49 36 50 56 51 37 52 40 53 55 54 75 55 38 56
REMARK SMILES IDX 39 57 54 59 76 60 41 61 24 62 25 63 34 64 26 65 27 66 33 67
REMARK SMILES IDX 35 68 28 69 29 70 30 71 31 72 32 73 58 74 59 75 68 76 60 77
REMARK SMILES IDX 61 78 67 79 69 80 62 81 63 82 64 83 65 84 66 85 42 86 43 87
REMARK SMILES IDX 52 88 44 89 45 90 51 91 53 92 46 93 47 94 48 95 49 96 50 97
REMARK H PARENT 8 5 12 28 74 47 40 58
REMARK Flexibility Score: inf
ROOT
ATOM      1  C   UNL A   1      32.140  28.351  24.269  1.00  0.00     0.117 C 
ENDROOT
BRANCH   1   2
ATOM      2  N   UNL A   1      33.035  28.060  23.171  1.00  0.00    -0.354 N 
ATOM      3  C   UNL A   1      32.974  27.090  22.224  1.00  0.00     0.239 C 
ATOM      4  O   UNL A   1      33.918  27.019  21.434  1.00  0.00    -0.273 OA
ATOM      5  H   UNL A   1      33.810  28.661  23.099  1.00  0.00     0.163 HD
BRANCH   3   6
ATOM      6  C   UNL A   1      31.758  26.162  22.111  1.00  0.00     0.220 C 
BRANCH   6   7
ATOM      7  N   UNL A   1      31.815  24.897  22.848  1.00  0.00    -0.322 N 
BRANCH   7   8
ATOM      8  C   UNL A   1      30.829  24.727  23.919  1.00  0.00     0.209 C 
BRANCH   8   9
ATOM      9  C   UNL A   1      29.710  25.756  23.896  1.00  0.00    -0.085 C 
ATOM     10  C   UNL A   1      28.752  26.640  23.876  1.00  0.00     0.006 C 
ENDBRANCH   8   9
ENDBRANCH   7   8
BRANCH   7  11
ATOM     11  C   UNL A   1      32.718  23.851  22.604  1.00  0.00     0.231 C 
ATOM     12  O   UNL A   1      33.213  23.710  21.481  1.00  0.00    -0.274 OA
BRANCH  11  13
ATOM     13  C   UNL A   1      33.105  22.846  23.733  1.00  0.00     0.111 C 
BRANCH  13  14
ATOM     14  C   UNL A   1      33.121  21.357  23.224  1.00  0.00    -0.000 C 
ATOM     15  C   UNL A   1      33.247  20.353  24.383  1.00  0.00     0.008 C 
ATOM     16  C   UNL A   1      31.862  20.973  22.427  1.00  0.00     0.008 C 
ENDBRANCH  13  14
BRANCH  13  17
ATOM     17  C   UNL A   1      34.460  23.224  24.343  1.00  0.00    -0.035 A 
ATOM     18  C   UNL A   1      35.645  23.004  23.619  1.00  0.00     0.006 A 
ATOM     19  C   UNL A   1      34.556  23.755  25.637  1.00  0.00     0.006 A 
ATOM     20  C   UNL A   1      36.893  23.196  24.212  1.00  0.00     0.021 A 
ATOM     21  C   UNL A   1      35.807  23.995  26.216  1.00  0.00     0.021 A 
ATOM     22  C   UNL A   1      36.968  23.684  25.513  1.00  0.00     0.041 A 
ATOM     23  Cl  UNL A   1      38.505  23.889  26.258  1.00  0.00    -0.084 Cl
ENDBRANCH  13  17
ENDBRANCH  11  13
ENDBRANCH   7  11
ENDBRANCH   6   7
ENDBRANCH   3   6
ENDBRANCH   1   2
BRANCH   1  24
ATOM     24  C   UNL A   1      32.715  27.873  25.596  1.00  0.00     0.042 C 
BRANCH  24  25
ATOM     25  C   UNL A   1      34.006  28.581  25.996  1.00  0.00     0.118 C 
BRANCH  25  26
ATOM     26  N   UNL A   1      33.781  29.967  26.380  1.00  0.00    -0.352 N 
ATOM     27  C   UNL A   1      34.387  30.722  27.352  1.00  0.00     0.251 C 
ATOM     28  H   UNL A   1      33.087  30.436  25.861  1.00  0.00     0.163 HD
ATOM     29  O   UNL A   1      33.884  31.787  27.694  1.00  0.00    -0.269 OA
BRANCH  27  30
ATOM     30  C   UNL A   1      35.633  30.245  27.983  1.00  0.00     0.039 A 
ATOM     31  C   UNL A   1      36.849  30.453  27.330  1.00  0.00     0.014 A 
ATOM     32  C   UNL A   1      35.594  29.577  29.210  1.00  0.00     0.014 A 
ATOM     33  C   UNL A   1      38.036  30.044  27.940  1.00  0.00     0.010 A 
ATOM     34  C   UNL A   1      36.781  29.245  29.852  1.00  0.00     0.010 A 
ATOM     35  C   UNL A   1      38.013  29.468  29.221  1.00  0.00    -0.014 A 
BRANCH  35  36
ATOM     36  C   UNL A   1      39.265  29.093  29.921  1.00  0.00     0.031 A 
ATOM     37  C   UNL A   1      39.700  29.852  31.144  1.00  0.00     0.074 A 
ATOM     38  C   UNL A   1      40.044  28.121  29.407  1.00  0.00     0.049 A 
ATOM     39  N   UNL A   1      40.796  29.727  31.846  1.00  0.00    -0.248 NA
ATOM     40  C   UNL A   1      38.797  30.911  31.625  1.00  0.00     0.031 C 
ATOM     41  C   UNL A   1      39.750  27.355  28.193  1.00  0.00     0.029 A 
ATOM     42  N   UNL A   1      41.247  27.618  29.833  1.00  0.00    -0.354 N 
ATOM     43  C   UNL A   1      40.725  30.700  32.836  1.00  0.00     0.074 A 
ATOM     44  C   UNL A   1      39.503  31.442  32.613  1.00  0.00     0.031 C 
ATOM     45  C   UNL A   1      40.735  26.468  27.983  1.00  0.00     0.029 A 
ATOM     46  C   UNL A   1      41.747  26.626  29.022  1.00  0.00     0.049 A 
ATOM     47  H   UNL A   1      41.708  27.937  30.641  1.00  0.00     0.167 HD
ATOM     48  C   UNL A   1      41.589  30.937  33.852  1.00  0.00     0.037 A 
ATOM     49  C   UNL A   1      42.896  25.928  29.104  1.00  0.00     0.037 A 
ATOM     50  C   UNL A   1      42.788  30.174  34.078  1.00  0.00     0.049 A 
ATOM     51  C   UNL A   1      43.834  26.201  30.248  1.00  0.00     0.074 A 
ATOM     52  C   UNL A   1      43.698  30.289  35.114  1.00  0.00     0.029 A 
ATOM     53  N   UNL A   1      43.247  29.156  33.255  1.00  0.00    -0.354 N 
ATOM     54  N   UNL A   1      43.717  27.078  31.217  1.00  0.00    -0.248 NA
ATOM     55  C   UNL A   1      45.054  25.386  30.317  1.00  0.00     0.031 C 
ATOM     56  C   UNL A   1      44.728  29.369  34.894  1.00  0.00     0.029 A 
ATOM     57  C   UNL A   1      44.437  28.646  33.748  1.00  0.00     0.049 A 
ATOM     58  H   UNL A   1      42.793  28.842  32.440  1.00  0.00     0.167 HD
ATOM     59  C   UNL A   1      44.836  26.904  32.024  1.00  0.00     0.074 A 
ATOM     60  C   UNL A   1      45.610  25.829  31.436  1.00  0.00     0.031 C 
ATOM     61  C   UNL A   1      45.190  27.572  33.150  1.00  0.00     0.037 A 
BRANCH  48  62
ATOM     62  C   UNL A   1      41.264  32.063  34.795  1.00  0.00     0.058 A 
ATOM     63  C   UNL A   1      41.732  33.369  34.576  1.00  0.00     0.135 A 
ATOM     64  C   UNL A   1      40.450  31.842  35.918  1.00  0.00     0.135 A 
ATOM     65  F   UNL A   1      42.526  33.635  33.526  1.00  0.00    -0.206 F 
ATOM     66  C   UNL A   1      41.434  34.407  35.452  1.00  0.00     0.059 A 
ATOM     67  C   UNL A   1      40.115  32.872  36.793  1.00  0.00     0.059 A 
ATOM     68  F   UNL A   1      39.975  30.614  36.178  1.00  0.00    -0.206 F 
ATOM     69  C   UNL A   1      40.626  34.148  36.559  1.00  0.00     0.060 A 
BRANCH  69  70
ATOM     70  S   UNL A   1      40.248  35.507  37.686  1.00  0.00     0.124 S 
ATOM     71  O   UNL A   1      40.131  36.629  36.759  1.00  0.00    -0.237 OA
ATOM     72  O   UNL A   1      39.002  35.064  38.303  1.00  0.00    -0.237 OA
ATOM     73  O   UNL A   1      41.405  35.545  38.574  1.00  0.00    -0.744 OA
ENDBRANCH  69  70
ENDBRANCH  48  62
BRANCH  49  74
ATOM     74  C   UNL A   1      43.205  24.888  28.088  1.00  0.00     0.058 A 
ATOM     75  C   UNL A   1      43.914  25.210  26.921  1.00  0.00     0.135 A 
ATOM     76  C   UNL A   1      42.824  23.551  28.274  1.00  0.00     0.135 A 
ATOM     77  F   UNL A   1      44.297  26.476  26.696  1.00  0.00    -0.206 F 
ATOM     78  C   UNL A   1      44.223  24.245  25.968  1.00  0.00     0.059 A 
ATOM     79  C   UNL A   1      43.143  22.564  27.347  1.00  0.00     0.059 A 
ATOM     80  F   UNL A   1      42.161  23.188  29.383  1.00  0.00    -0.206 F 
ATOM     81  C   UNL A   1      43.837  22.923  26.192  1.00  0.00     0.060 A 
BRANCH  81  82
ATOM     82  S   UNL A   1      44.295  21.670  24.974  1.00  0.00     0.124 S 
ATOM     83  O   UNL A   1      44.084  22.386  23.722  1.00  0.00    -0.237 OA
ATOM     84  O   UNL A   1      45.685  21.395  25.326  1.00  0.00    -0.237 OA
ATOM     85  O   UNL A   1      43.362  20.581  25.247  1.00  0.00    -0.744 OA
ENDBRANCH  81  82
ENDBRANCH  49  74
BRANCH  61  86
ATOM     86  C   UNL A   1      46.454  27.140  33.840  1.00  0.00     0.058 A 
ATOM     87  C   UNL A   1      47.700  27.695  33.512  1.00  0.00     0.135 A 
ATOM     88  C   UNL A   1      46.408  26.196  34.878  1.00  0.00     0.135 A 
ATOM     89  F   UNL A   1      47.799  28.597  32.522  1.00  0.00    -0.206 F 
ATOM     90  C   UNL A   1      48.861  27.313  34.176  1.00  0.00     0.059 A 
ATOM     91  C   UNL A   1      47.551  25.819  35.573  1.00  0.00     0.059 A 
ATOM     92  F   UNL A   1      45.238  25.642  35.237  1.00  0.00    -0.206 F 
ATOM     93  C   UNL A   1      48.777  26.376  35.206  1.00  0.00     0.060 A 
BRANCH  93  94
ATOM     94  S   UNL A   1      50.285  25.914  36.083  1.00  0.00     0.124 S 
ATOM     95  O   UNL A   1      49.758  25.527  37.388  1.00  0.00    -0.237 OA
ATOM     96  O   UNL A   1      50.804  24.825  35.262  1.00  0.00    -0.237 OA
ATOM     97  O   UNL A   1      51.079  27.139  36.064  1.00  0.00    -0.744 OA
ENDBRANCH  93  94
ENDBRANCH  61  86
ENDBRANCH  35  36
ENDBRANCH  27  30
ENDBRANCH  25  26
ENDBRANCH  24  25
ENDBRANCH   1  24
TORSDOF 20
ENDMDL
MODEL 3
REMARK VINA RESULT:     -10.1      0.427      8.206
REMARK SMILES C#CCN(CC(=O)NCCCNC(=O)c1ccc(-c2c3nc(c(-c4c(F)cc(S(=O)(=O)[O-])cc4F)c4ccc([nH]4)c(-c4c(F)cc(S(=O)(=O)[O-])cc4F)c4nc(c(-c5c(F)cc(S(=O)(=O)[O-])cc5F)c5ccc2[nH]5)C=C4)C=C3)cc1)C(=O)[C@H](c1ccc(Cl)cc1)C(C)C
REMARK SMILES IDX 9 1 8 2 6 3 7 4 5 6 4 7 3 8 2 9 1 10 81 11 82 12 83 13 91 14
REMARK SMILES IDX 92 15 93 16 84 17 85 18 90 19 86 20 89 21 87 22 88 23 10 24
REMARK SMILES IDX 11 25 12 26 13 27 14 29 15 30 16 31 80 32 17 33 79 34 18 35
REMARK SMILES IDX 19 36 20 37 73 38 21 39 78 40 72 41 74 42 22 43 77 44 71 45
REMARK SMILES IDX 70 46 23 48 57 49 36 50 56 51 37 52 40 53 55 54 75 55 38 56
REMARK SMILES IDX 39 57 54 59 76 60 41 61 24 62 25 63 34 64 26 65 27 66 33 67
REMARK SMILES IDX 35 68 28 69 29 70 30 71 31 72 32 73 58 74 59 75 68 76 60 77
REMARK SMILES IDX 61 78 67 79 69 80 62 81 63 82 64 83 65 84 66 85 42 86 43 87
REMARK SMILES IDX 52 88 44 89 45 90 51 91 53 92 46 93 47 94 48 95 49 96 50 97
REMARK H PARENT 8 5 12 28 74 47 40 58
REMARK Flexibility Score: inf
ROOT
ATOM      1  C   UNL A   1      32.164  28.145  24.699  1.00  0.00     0.117 C 
ENDROOT
BRANCH   1   2
ATOM      2  N   UNL A   1      33.083  28.053  23.586  1.00  0.00    -0.354 N 
ATOM      3  C   UNL A   1      33.091  27.210  22.522  1.00  0.00     0.239 C 
ATOM      4  O   UNL A   1      34.043  27.301  21.744  1.00  0.00    -0.273 OA
ATOM      5  H   UNL A   1      33.818  28.707  23.602  1.00  0.00     0.163 HD
BRANCH   3   6
ATOM      6  C   UNL A   1      31.938  26.229  22.275  1.00  0.00     0.220 C 
BRANCH   6   7
ATOM      7  N   UNL A   1      32.001  24.939  22.968  1.00  0.00    -0.322 N 
BRANCH   7   8
ATOM      8  C   UNL A   1      30.887  24.636  23.871  1.00  0.00     0.209 C 
BRANCH   8   9
ATOM      9  C   UNL A   1      29.783  25.681  23.860  1.00  0.00    -0.085 C 
ATOM     10  C   UNL A   1      28.836  26.578  23.850  1.00  0.00     0.006 C 
ENDBRANCH   8   9
ENDBRANCH   7   8
BRANCH   7  11
ATOM     11  C   UNL A   1      33.022  23.987  22.829  1.00  0.00     0.231 C 
ATOM     12  O   UNL A   1      33.721  23.973  21.810  1.00  0.00    -0.274 OA
BRANCH  11  13
ATOM     13  C   UNL A   1      33.287  22.928  23.943  1.00  0.00     0.111 C 
BRANCH  13  14
ATOM     14  C   UNL A   1      32.987  21.462  23.454  1.00  0.00    -0.000 C 
ATOM     15  C   UNL A   1      32.511  20.557  24.604  1.00  0.00     0.008 C 
ATOM     16  C   UNL A   1      31.916  21.397  22.351  1.00  0.00     0.008 C 
ENDBRANCH  13  14
BRANCH  13  17
ATOM     17  C   UNL A   1      34.728  23.042  24.456  1.00  0.00    -0.035 A 
ATOM     18  C   UNL A   1      35.733  22.214  23.926  1.00  0.00     0.006 A 
ATOM     19  C   UNL A   1      35.070  23.936  25.481  1.00  0.00     0.006 A 
ATOM     20  C   UNL A   1      37.012  22.194  24.484  1.00  0.00     0.021 A 
ATOM     21  C   UNL A   1      36.365  23.951  26.008  1.00  0.00     0.021 A 
ATOM     22  C   UNL A   1      37.320  23.058  25.529  1.00  0.00     0.041 A 
ATOM     23  Cl  UNL A   1      38.887  23.011  26.240  1.00  0.00    -0.084 Cl
ENDBRANCH  13  17
ENDBRANCH  11  13
ENDBRANCH   7  11
ENDBRANCH   6   7
ENDBRANCH   3   6
ENDBRANCH   1   2
BRANCH   1  24
ATOM     24  C   UNL A   1      32.744  27.501  25.951  1.00  0.00     0.042 C 
BRANCH  24  25
ATOM     25  C   UNL A   1      34.019  28.173  26.453  1.00  0.00     0.118 C 
BRANCH  25  26
ATOM     26  N   UNL A   1      33.767  29.497  27.002  1.00  0.00    -0.352 N 
ATOM     27  C   UNL A   1      34.528  30.257  27.855  1.00  0.00     0.251 C 
ATOM     28  H   UNL A   1      32.921  29.912  26.718  1.00  0.00     0.163 HD
ATOM     29  O   UNL A   1      34.029  31.233  28.405  1.00  0.00    -0.269 OA
BRANCH  27  30
ATOM     30  C   UNL A   1      35.935  29.890  28.109  1.00  0.00     0.039 A 
ATOM     31  C   UNL A   1      36.871  30.041  27.085  1.00  0.00     0.014 A 
ATOM     32  C   UNL A   1      36.320  29.382  29.352  1.00  0.00     0.014 A 
ATOM     33  C   UNL A   1      38.212  29.738  27.331  1.00  0.00     0.010 A 
ATOM     34  C   UNL A   1      37.666  29.159  29.619  1.00  0.00     0.010 A 
ATOM     35  C   UNL A   1      38.624  29.328  28.609  1.00  0.00    -0.014 A 
BRANCH  35  36
ATOM     36  C   UNL A   1      40.052  29.071  28.914  1.00  0.00     0.031 A 
ATOM     37  C   UNL A   1      40.664  27.737  28.587  1.00  0.00     0.074 A 
ATOM     38  C   UNL A   1      40.771  30.014  29.554  1.00  0.00     0.049 A 
ATOM     39  N   UNL A   1      41.868  27.295  28.846  1.00  0.00    -0.248 NA
ATOM     40  C   UNL A   1      39.800  26.759  27.906  1.00  0.00     0.031 C 
ATOM     41  C   UNL A   1      40.266  31.324  29.971  1.00  0.00     0.029 A 
ATOM     42  N   UNL A   1      42.076  30.013  29.977  1.00  0.00    -0.354 N 
ATOM     43  C   UNL A   1      41.900  25.987  28.378  1.00  0.00     0.074 A 
ATOM     44  C   UNL A   1      40.580  25.688  27.866  1.00  0.00     0.031 C 
ATOM     45  C   UNL A   1      41.253  32.007  30.572  1.00  0.00     0.029 A 
ATOM     46  C   UNL A   1      42.449  31.171  30.617  1.00  0.00     0.049 A 
ATOM     47  H   UNL A   1      42.687  29.254  29.835  1.00  0.00     0.167 HD
ATOM     48  C   UNL A   1      42.942  25.123  28.356  1.00  0.00     0.037 A 
ATOM     49  C   UNL A   1      43.621  31.517  31.184  1.00  0.00     0.037 A 
ATOM     50  C   UNL A   1      44.258  25.442  28.844  1.00  0.00     0.049 A 
ATOM     51  C   UNL A   1      44.768  30.545  31.137  1.00  0.00     0.074 A 
ATOM     52  C   UNL A   1      45.401  24.663  28.809  1.00  0.00     0.029 A 
ATOM     53  N   UNL A   1      44.607  26.636  29.458  1.00  0.00    -0.354 N 
ATOM     54  N   UNL A   1      44.802  29.336  30.626  1.00  0.00    -0.248 NA
ATOM     55  C   UNL A   1      46.037  30.983  31.731  1.00  0.00     0.031 C 
ATOM     56  C   UNL A   1      46.430  25.370  29.440  1.00  0.00     0.029 A 
ATOM     57  C   UNL A   1      45.943  26.609  29.824  1.00  0.00     0.049 A 
ATOM     58  H   UNL A   1      43.995  27.393  29.610  1.00  0.00     0.167 HD
ATOM     59  C   UNL A   1      46.101  28.879  30.818  1.00  0.00     0.074 A 
ATOM     60  C   UNL A   1      46.824  29.948  31.478  1.00  0.00     0.031 C 
ATOM     61  C   UNL A   1      46.646  27.685  30.477  1.00  0.00     0.037 A 
BRANCH  48  62
ATOM     62  C   UNL A   1      42.700  23.753  27.782  1.00  0.00     0.058 A 
ATOM     63  C   UNL A   1      42.691  23.525  26.396  1.00  0.00     0.135 A 
ATOM     64  C   UNL A   1      42.504  22.649  28.626  1.00  0.00     0.135 A 
ATOM     65  F   UNL A   1      42.858  24.547  25.542  1.00  0.00    -0.206 F 
ATOM     66  C   UNL A   1      42.462  22.259  25.867  1.00  0.00     0.059 A 
ATOM     67  C   UNL A   1      42.304  21.367  28.120  1.00  0.00     0.059 A 
ATOM     68  F   UNL A   1      42.503  22.808  29.959  1.00  0.00    -0.206 F 
ATOM     69  C   UNL A   1      42.268  21.186  26.738  1.00  0.00     0.060 A 
BRANCH  69  70
ATOM     70  S   UNL A   1      41.975  19.550  26.035  1.00  0.00     0.124 S 
ATOM     71  O   UNL A   1      42.843  19.577  24.862  1.00  0.00    -0.237 OA
ATOM     72  O   UNL A   1      42.397  18.665  27.116  1.00  0.00    -0.237 OA
ATOM     73  O   UNL A   1      40.542  19.551  25.755  1.00  0.00    -0.744 OA
ENDBRANCH  69  70
ENDBRANCH  48  62
BRANCH  49  74
ATOM     74  C   UNL A   1      43.771  32.853  31.817  1.00  0.00     0.058 A 
ATOM     75  C   UNL A   1      44.071  33.986  31.046  1.00  0.00     0.135 A 
ATOM     76  C   UNL A   1      43.591  33.031  33.198  1.00  0.00     0.135 A 
ATOM     77  F   UNL A   1      44.256  33.866  29.723  1.00  0.00    -0.206 F 
ATOM     78  C   UNL A   1      44.199  35.246  31.621  1.00  0.00     0.059 A 
ATOM     79  C   UNL A   1      43.689  34.285  33.792  1.00  0.00     0.059 A 
ATOM     80  F   UNL A   1      43.283  31.981  33.976  1.00  0.00    -0.206 F 
ATOM     81  C   UNL A   1      44.002  35.386  32.996  1.00  0.00     0.060 A 
BRANCH  81  82
ATOM     82  S   UNL A   1      44.114  37.036  33.723  1.00  0.00     0.124 S 
ATOM     83  O   UNL A   1      42.960  37.043  34.614  1.00  0.00    -0.237 OA
ATOM     84  O   UNL A   1      45.421  36.996  34.371  1.00  0.00    -0.237 OA
ATOM     85  O   UNL A   1      44.025  37.919  32.564  1.00  0.00    -0.744 OA
ENDBRANCH  81  82
ENDBRANCH  49  74
BRANCH  61  86
ATOM     86  C   UNL A   1      48.104  27.480  30.782  1.00  0.00     0.058 A 
ATOM     87  C   UNL A   1      48.531  26.899  31.985  1.00  0.00     0.135 A 
ATOM     88  C   UNL A   1      49.082  27.822  29.834  1.00  0.00     0.135 A 
ATOM     89  F   UNL A   1      47.636  26.560  32.927  1.00  0.00    -0.206 F 
ATOM     90  C   UNL A   1      49.879  26.684  32.248  1.00  0.00     0.059 A 
ATOM     91  C   UNL A   1      50.433  27.592  30.065  1.00  0.00     0.059 A 
ATOM     92  F   UNL A   1      48.725  28.372  28.662  1.00  0.00    -0.206 F 
ATOM     93  C   UNL A   1      50.824  27.032  31.281  1.00  0.00     0.060 A 
BRANCH  93  94
ATOM     94  S   UNL A   1      52.568  26.716  31.619  1.00  0.00     0.124 S 
ATOM     95  O   UNL A   1      52.566  25.274  31.847  1.00  0.00    -0.237 OA
ATOM     96  O   UNL A   1      53.211  27.161  30.387  1.00  0.00    -0.237 OA
ATOM     97  O   UNL A   1      52.842  27.538  32.794  1.00  0.00    -0.744 OA
ENDBRANCH  93  94
ENDBRANCH  61  86
ENDBRANCH  35  36
ENDBRANCH  27  30
ENDBRANCH  25  26
ENDBRANCH  24  25
ENDBRANCH   1  24
TORSDOF 20
ENDMDL
