MODEL 1
REMARK VINA RESULT:     -11.2      0.000      0.000
REMARK SMILES C#CC[N@@H+](CC(=O)NCCCNC(=O)c1ccc(-c2c3nc(c(-c4c(F)cc(S(=O)(=O)[O-])cc4F)c4ccc([nH]4)c(-c4c(F)cc(S(=O)(=O)[O-])cc4F)c4nc(c(-c5c(F)cc(S(=O)(=O)[O-])cc5F)c5ccc2[nH]5)C=C4)C=C3)cc1)Cc1ccc(C(C)C)cc1
REMARK SMILES IDX 9 1 8 2 6 3 7 4 5 6 4 7 3 9 2 10 1 11 81 12 82 13 83 14
REMARK SMILES IDX 90 15 84 16 89 17 85 18 86 19 87 20 88 21 10 22 11 23 12 24
REMARK SMILES IDX 13 25 14 27 15 28 16 29 80 30 17 31 79 32 18 33 19 34 20 35
REMARK SMILES IDX 73 36 21 37 78 38 72 39 74 40 22 41 77 42 71 43 70 44 23 46
REMARK SMILES IDX 57 47 36 48 56 49 37 50 40 51 55 52 75 53 38 54 39 55 54 57
REMARK SMILES IDX 76 58 41 59 24 60 25 61 34 62 26 63 27 64 33 65 35 66 28 67
REMARK SMILES IDX 29 68 30 69 31 70 32 71 58 72 59 73 68 74 60 75 61 76 67 77
REMARK SMILES IDX 69 78 62 79 63 80 64 81 65 82 66 83 42 84 43 85 52 86 44 87
REMARK SMILES IDX 45 88 51 89 53 90 46 91 47 92 48 93 49 94 50 95
REMARK H PARENT 8 5 4 8 12 26 74 45 40 56
REMARK Flexibility Score: inf
ROOT
ATOM      1  C   UNL A   1      37.557  23.185  25.212  1.00  0.00     0.118 C 
ENDROOT
BRANCH   1   2
ATOM      2  N   UNL A   1      37.601  21.741  25.418  1.00  0.00    -0.351 N 
ATOM      3  C   UNL A   1      36.724  20.738  25.114  1.00  0.00     0.275 C 
ATOM      4  O   UNL A   1      37.204  19.604  24.996  1.00  0.00    -0.269 OA
ATOM      5  H   UNL A   1      38.423  21.430  25.862  1.00  0.00     0.163 HD
BRANCH   3   6
ATOM      6  C   UNL A   1      35.228  20.972  24.850  1.00  0.00     0.364 C 
BRANCH   6   7
ATOM      7  N   UNL A   1      34.285  20.503  25.896  1.00  0.00    -0.313 N 
ATOM      8  H   UNL A   1      34.736  19.726  26.378  1.00  0.00     0.349 HD
BRANCH   7   9
ATOM      9  C   UNL A   1      33.084  19.991  25.278  1.00  0.00     0.354 C 
BRANCH   9  10
ATOM     10  C   UNL A   1      32.598  20.691  24.020  1.00  0.00    -0.047 C 
ATOM     11  C   UNL A   1      32.181  21.291  22.940  1.00  0.00     0.010 C 
ENDBRANCH   9  10
ENDBRANCH   7   9
BRANCH   7  12
ATOM     12  C   UNL A   1      34.077  21.416  27.037  1.00  0.00     0.300 C 
BRANCH  12  13
ATOM     13  C   UNL A   1      33.365  22.731  26.791  1.00  0.00     0.006 A 
ATOM     14  C   UNL A   1      34.090  23.847  26.360  1.00  0.00     0.010 A 
ATOM     15  C   UNL A   1      31.986  22.886  26.984  1.00  0.00     0.010 A 
ATOM     16  C   UNL A   1      33.441  25.034  26.005  1.00  0.00     0.004 A 
ATOM     17  C   UNL A   1      31.331  24.057  26.601  1.00  0.00     0.004 A 
ATOM     18  C   UNL A   1      32.046  25.131  26.060  1.00  0.00    -0.045 A 
BRANCH  18  19
ATOM     19  C   UNL A   1      31.282  26.342  25.554  1.00  0.00     0.013 C 
ATOM     20  C   UNL A   1      31.491  27.542  26.475  1.00  0.00     0.012 C 
ATOM     21  C   UNL A   1      31.600  26.708  24.101  1.00  0.00     0.012 C 
ENDBRANCH  18  19
ENDBRANCH  12  13
ENDBRANCH   7  12
ENDBRANCH   6   7
ENDBRANCH   3   6
ENDBRANCH   1   2
BRANCH   1  22
ATOM     22  C   UNL A   1      38.261  24.051  26.273  1.00  0.00     0.042 C 
BRANCH  22  23
ATOM     23  C   UNL A   1      39.577  23.507  26.833  1.00  0.00     0.118 C 
BRANCH  23  24
ATOM     24  N   UNL A   1      40.698  23.962  26.030  1.00  0.00    -0.352 N 
ATOM     25  C   UNL A   1      41.365  25.161  26.074  1.00  0.00     0.251 C 
ATOM     26  H   UNL A   1      41.025  23.321  25.359  1.00  0.00     0.163 HD
ATOM     27  O   UNL A   1      42.009  25.515  25.088  1.00  0.00    -0.269 OA
BRANCH  25  28
ATOM     28  C   UNL A   1      41.342  26.025  27.285  1.00  0.00     0.039 A 
ATOM     29  C   UNL A   1      40.410  25.740  28.290  1.00  0.00     0.014 A 
ATOM     30  C   UNL A   1      42.127  27.178  27.382  1.00  0.00     0.014 A 
ATOM     31  C   UNL A   1      40.263  26.604  29.381  1.00  0.00     0.010 A 
ATOM     32  C   UNL A   1      42.014  28.015  28.497  1.00  0.00     0.010 A 
ATOM     33  C   UNL A   1      41.060  27.755  29.494  1.00  0.00    -0.014 A 
BRANCH  33  34
ATOM     34  C   UNL A   1      40.860  28.708  30.620  1.00  0.00     0.031 A 
ATOM     35  C   UNL A   1      41.718  28.622  31.857  1.00  0.00     0.074 A 
ATOM     36  C   UNL A   1      39.893  29.644  30.548  1.00  0.00     0.049 A 
ATOM     37  N   UNL A   1      41.691  29.361  32.937  1.00  0.00    -0.248 NA
ATOM     38  C   UNL A   1      42.724  27.550  31.891  1.00  0.00     0.031 C 
ATOM     39  C   UNL A   1      38.964  29.811  29.430  1.00  0.00     0.029 A 
ATOM     40  N   UNL A   1      39.526  30.626  31.435  1.00  0.00    -0.354 N 
ATOM     41  C   UNL A   1      42.660  28.835  33.785  1.00  0.00     0.074 A 
ATOM     42  C   UNL A   1      43.227  27.687  33.110  1.00  0.00     0.031 C 
ATOM     43  C   UNL A   1      38.143  30.841  29.692  1.00  0.00     0.029 A 
ATOM     44  C   UNL A   1      38.469  31.392  31.004  1.00  0.00     0.049 A 
ATOM     45  H   UNL A   1      39.977  30.767  32.299  1.00  0.00     0.167 HD
ATOM     46  C   UNL A   1      43.054  29.275  35.005  1.00  0.00     0.037 A 
ATOM     47  C   UNL A   1      37.833  32.422  31.597  1.00  0.00     0.037 A 
ATOM     48  C   UNL A   1      42.511  30.434  35.666  1.00  0.00     0.049 A 
ATOM     49  C   UNL A   1      38.302  32.912  32.938  1.00  0.00     0.074 A 
ATOM     50  C   UNL A   1      42.899  31.003  36.866  1.00  0.00     0.029 A 
ATOM     51  N   UNL A   1      41.457  31.197  35.185  1.00  0.00    -0.354 N 
ATOM     52  N   UNL A   1      39.272  32.450  33.691  1.00  0.00    -0.248 NA
ATOM     53  C   UNL A   1      37.601  34.072  33.507  1.00  0.00     0.031 C 
ATOM     54  C   UNL A   1      42.054  32.088  37.131  1.00  0.00     0.029 A 
ATOM     55  C   UNL A   1      41.166  32.219  36.075  1.00  0.00     0.049 A 
ATOM     56  H   UNL A   1      40.985  31.037  34.336  1.00  0.00     0.167 HD
ATOM     57  C   UNL A   1      39.308  33.270  34.814  1.00  0.00     0.074 A 
ATOM     58  C   UNL A   1      38.271  34.266  34.635  1.00  0.00     0.031 C 
ATOM     59  C   UNL A   1      40.126  33.202  35.893  1.00  0.00     0.037 A 
BRANCH  46  60
ATOM     60  C   UNL A   1      44.127  28.488  35.710  1.00  0.00     0.058 A 
ATOM     61  C   UNL A   1      45.491  28.756  35.515  1.00  0.00     0.135 A 
ATOM     62  C   UNL A   1      43.785  27.453  36.597  1.00  0.00     0.135 A 
ATOM     63  F   UNL A   1      45.874  29.727  34.671  1.00  0.00    -0.206 F 
ATOM     64  C   UNL A   1      46.479  27.998  36.137  1.00  0.00     0.059 A 
ATOM     65  C   UNL A   1      44.756  26.700  37.251  1.00  0.00     0.059 A 
ATOM     66  F   UNL A   1      42.496  27.157  36.826  1.00  0.00    -0.206 F 
ATOM     67  C   UNL A   1      46.102  26.965  36.996  1.00  0.00     0.060 A 
BRANCH  67  68
ATOM     68  S   UNL A   1      47.391  25.967  37.770  1.00  0.00     0.124 S 
ATOM     69  O   UNL A   1      47.098  24.644  37.227  1.00  0.00    -0.237 OA
ATOM     70  O   UNL A   1      48.613  26.595  37.280  1.00  0.00    -0.237 OA
ATOM     71  O   UNL A   1      47.135  26.130  39.198  1.00  0.00    -0.744 OA
ENDBRANCH  67  68
ENDBRANCH  46  60
BRANCH  47  72
ATOM     72  C   UNL A   1      36.695  33.072  30.897  1.00  0.00     0.058 A 
ATOM     73  C   UNL A   1      35.374  32.866  31.319  1.00  0.00     0.135 A 
ATOM     74  C   UNL A   1      36.912  33.959  29.831  1.00  0.00     0.135 A 
ATOM     75  F   UNL A   1      35.118  32.019  32.328  1.00  0.00    -0.206 F 
ATOM     76  C   UNL A   1      34.306  33.521  30.714  1.00  0.00     0.059 A 
ATOM     77  C   UNL A   1      35.863  34.642  29.223  1.00  0.00     0.059 A 
ATOM     78  F   UNL A   1      38.161  34.200  29.401  1.00  0.00    -0.206 F 
ATOM     79  C   UNL A   1      34.562  34.415  29.673  1.00  0.00     0.060 A 
BRANCH  79  80
ATOM     80  S   UNL A   1      33.181  35.335  28.960  1.00  0.00     0.124 S 
ATOM     81  O   UNL A   1      32.421  35.694  30.151  1.00  0.00    -0.237 OA
ATOM     82  O   UNL A   1      33.861  36.432  28.279  1.00  0.00    -0.237 OA
ATOM     83  O   UNL A   1      32.550  34.358  28.077  1.00  0.00    -0.744 OA
ENDBRANCH  79  80
ENDBRANCH  47  72
BRANCH  59  84
ATOM     84  C   UNL A   1      39.946  34.241  36.964  1.00  0.00     0.058 A 
ATOM     85  C   UNL A   1      40.526  35.515  36.856  1.00  0.00     0.135 A 
ATOM     86  C   UNL A   1      39.148  33.978  38.088  1.00  0.00     0.135 A 
ATOM     87  F   UNL A   1      41.303  35.817  35.803  1.00  0.00    -0.206 F 
ATOM     88  C   UNL A   1      40.337  36.485  37.836  1.00  0.00     0.059 A 
ATOM     89  C   UNL A   1      38.927  34.940  39.069  1.00  0.00     0.059 A 
ATOM     90  F   UNL A   1      38.562  32.779  38.235  1.00  0.00    -0.206 F 
ATOM     91  C   UNL A   1      39.536  36.188  38.940  1.00  0.00     0.060 A 
BRANCH  91  92
ATOM     92  S   UNL A   1      39.274  37.463  40.192  1.00  0.00     0.124 S 
ATOM     93  O   UNL A   1      38.351  38.361  39.507  1.00  0.00    -0.237 OA
ATOM     94  O   UNL A   1      38.711  36.702  41.303  1.00  0.00    -0.237 OA
ATOM     95  O   UNL A   1      40.615  37.993  40.421  1.00  0.00    -0.744 OA
ENDBRANCH  91  92
ENDBRANCH  59  84
ENDBRANCH  33  34
ENDBRANCH  25  28
ENDBRANCH  23  24
ENDBRANCH  22  23
ENDBRANCH   1  22
TORSDOF 19
ENDMDL
MODEL 2
REMARK VINA RESULT:     -11.1      5.110     12.048
REMARK SMILES C#CC[N@@H+](CC(=O)NCCCNC(=O)c1ccc(-c2c3nc(c(-c4c(F)cc(S(=O)(=O)[O-])cc4F)c4ccc([nH]4)c(-c4c(F)cc(S(=O)(=O)[O-])cc4F)c4nc(c(-c5c(F)cc(S(=O)(=O)[O-])cc5F)c5ccc2[nH]5)C=C4)C=C3)cc1)Cc1ccc(C(C)C)cc1
REMARK SMILES IDX 9 1 8 2 6 3 7 4 5 6 4 7 3 9 2 10 1 11 81 12 82 13 83 14
REMARK SMILES IDX 90 15 84 16 89 17 85 18 86 19 87 20 88 21 10 22 11 23 12 24
REMARK SMILES IDX 13 25 14 27 15 28 16 29 80 30 17 31 79 32 18 33 19 34 20 35
REMARK SMILES IDX 73 36 21 37 78 38 72 39 74 40 22 41 77 42 71 43 70 44 23 46
REMARK SMILES IDX 57 47 36 48 56 49 37 50 40 51 55 52 75 53 38 54 39 55 54 57
REMARK SMILES IDX 76 58 41 59 24 60 25 61 34 62 26 63 27 64 33 65 35 66 28 67
REMARK SMILES IDX 29 68 30 69 31 70 32 71 58 72 59 73 68 74 60 75 61 76 67 77
REMARK SMILES IDX 69 78 62 79 63 80 64 81 65 82 66 83 42 84 43 85 52 86 44 87
REMARK SMILES IDX 45 88 51 89 53 90 46 91 47 92 48 93 49 94 50 95
REMARK H PARENT 8 5 4 8 12 26 74 45 40 56
REMARK Flexibility Score: inf
ROOT
ATOM      1  C   UNL A   1      33.517  34.936  28.389  1.00  0.00     0.118 C 
ENDROOT
BRANCH   1   2
ATOM      2  N   UNL A   1      32.888  35.362  29.634  1.00  0.00    -0.351 N 
ATOM      3  C   UNL A   1      33.337  35.418  30.924  1.00  0.00     0.275 C 
ATOM      4  O   UNL A   1      32.764  36.219  31.672  1.00  0.00    -0.269 OA
ATOM      5  H   UNL A   1      31.959  35.669  29.523  1.00  0.00     0.163 HD
BRANCH   3   6
ATOM      6  C   UNL A   1      34.534  34.603  31.439  1.00  0.00     0.364 C 
BRANCH   6   7
ATOM      7  N   UNL A   1      34.257  33.209  31.867  1.00  0.00    -0.313 N 
ATOM      8  H   UNL A   1      33.426  32.901  31.362  1.00  0.00     0.349 HD
BRANCH   7   9
ATOM      9  C   UNL A   1      33.943  33.181  33.276  1.00  0.00     0.354 C 
BRANCH   9  10
ATOM     10  C   UNL A   1      34.938  33.833  34.222  1.00  0.00    -0.047 C 
ATOM     11  C   UNL A   1      35.792  34.392  35.034  1.00  0.00     0.010 C 
ENDBRANCH   9  10
ENDBRANCH   7   9
BRANCH   7  12
ATOM     12  C   UNL A   1      35.220  32.188  31.407  1.00  0.00     0.300 C 
BRANCH  12  13
ATOM     13  C   UNL A   1      36.568  32.104  32.094  1.00  0.00     0.006 A 
ATOM     14  C   UNL A   1      37.512  33.119  31.905  1.00  0.00     0.010 A 
ATOM     15  C   UNL A   1      36.923  31.031  32.923  1.00  0.00     0.010 A 
ATOM     16  C   UNL A   1      38.711  33.130  32.624  1.00  0.00     0.004 A 
ATOM     17  C   UNL A   1      38.105  31.055  33.666  1.00  0.00     0.004 A 
ATOM     18  C   UNL A   1      38.993  32.130  33.562  1.00  0.00    -0.045 A 
BRANCH  18  19
ATOM     19  C   UNL A   1      40.209  32.169  34.470  1.00  0.00     0.013 C 
ATOM     20  C   UNL A   1      40.034  33.211  35.572  1.00  0.00     0.012 C 
ATOM     21  C   UNL A   1      40.580  30.805  35.062  1.00  0.00     0.012 C 
ENDBRANCH  18  19
ENDBRANCH  12  13
ENDBRANCH   7  12
ENDBRANCH   6   7
ENDBRANCH   3   6
ENDBRANCH   1   2
BRANCH   1  22
ATOM     22  C   UNL A   1      33.207  33.502  27.920  1.00  0.00     0.042 C 
BRANCH  22  23
ATOM     23  C   UNL A   1      34.313  32.464  28.122  1.00  0.00     0.118 C 
BRANCH  23  24
ATOM     24  N   UNL A   1      33.773  31.120  28.029  1.00  0.00    -0.352 N 
ATOM     25  C   UNL A   1      34.437  29.928  27.882  1.00  0.00     0.251 C 
ATOM     26  H   UNL A   1      32.791  31.055  28.077  1.00  0.00     0.163 HD
ATOM     27  O   UNL A   1      33.822  28.960  27.438  1.00  0.00    -0.269 OA
BRANCH  25  28
ATOM     28  C   UNL A   1      35.866  29.777  28.264  1.00  0.00     0.039 A 
ATOM     29  C   UNL A   1      36.844  29.968  27.281  1.00  0.00     0.014 A 
ATOM     30  C   UNL A   1      36.246  29.324  29.532  1.00  0.00     0.014 A 
ATOM     31  C   UNL A   1      38.189  29.705  27.563  1.00  0.00     0.010 A 
ATOM     32  C   UNL A   1      37.597  29.109  29.828  1.00  0.00     0.010 A 
ATOM     33  C   UNL A   1      38.580  29.267  28.838  1.00  0.00    -0.014 A 
BRANCH  33  34
ATOM     34  C   UNL A   1      40.002  28.925  29.119  1.00  0.00     0.031 A 
ATOM     35  C   UNL A   1      40.910  29.924  29.791  1.00  0.00     0.074 A 
ATOM     36  C   UNL A   1      40.491  27.724  28.756  1.00  0.00     0.049 A 
ATOM     37  N   UNL A   1      42.172  29.808  30.116  1.00  0.00    -0.248 NA
ATOM     38  C   UNL A   1      40.325  31.232  30.122  1.00  0.00     0.031 C 
ATOM     39  C   UNL A   1      39.735  26.681  28.061  1.00  0.00     0.029 A 
ATOM     40  N   UNL A   1      41.742  27.179  28.912  1.00  0.00    -0.354 N 
ATOM     41  C   UNL A   1      42.539  31.029  30.671  1.00  0.00     0.074 A 
ATOM     42  C   UNL A   1      41.375  31.886  30.599  1.00  0.00     0.031 C 
ATOM     43  C   UNL A   1      40.533  25.619  27.862  1.00  0.00     0.029 A 
ATOM     44  C   UNL A   1      41.862  25.912  28.393  1.00  0.00     0.049 A 
ATOM     45  H   UNL A   1      42.484  27.653  29.355  1.00  0.00     0.167 HD
ATOM     46  C   UNL A   1      43.728  31.400  31.207  1.00  0.00     0.037 A 
ATOM     47  C   UNL A   1      42.920  25.078  28.347  1.00  0.00     0.037 A 
ATOM     48  C   UNL A   1      44.878  30.538  31.305  1.00  0.00     0.049 A 
ATOM     49  C   UNL A   1      44.222  25.497  28.971  1.00  0.00     0.074 A 
ATOM     50  C   UNL A   1      46.100  30.797  31.901  1.00  0.00     0.029 A 
ATOM     51  N   UNL A   1      44.951  29.253  30.788  1.00  0.00    -0.354 N 
ATOM     52  N   UNL A   1      44.527  26.628  29.560  1.00  0.00    -0.248 NA
ATOM     53  C   UNL A   1      45.322  24.522  28.935  1.00  0.00     0.031 C 
ATOM     54  C   UNL A   1      46.927  29.683  31.709  1.00  0.00     0.029 A 
ATOM     55  C   UNL A   1      46.205  28.714  31.030  1.00  0.00     0.049 A 
ATOM     56  H   UNL A   1      44.220  28.792  30.318  1.00  0.00     0.167 HD
ATOM     57  C   UNL A   1      45.847  26.497  29.979  1.00  0.00     0.074 A 
ATOM     58  C   UNL A   1      46.278  25.170  29.587  1.00  0.00     0.031 C 
ATOM     59  C   UNL A   1      46.628  27.395  30.629  1.00  0.00     0.037 A 
BRANCH  46  60
ATOM     60  C   UNL A   1      43.844  32.809  31.723  1.00  0.00     0.058 A 
ATOM     61  C   UNL A   1      44.105  33.891  30.868  1.00  0.00     0.135 A 
ATOM     62  C   UNL A   1      43.687  33.082  33.092  1.00  0.00     0.135 A 
ATOM     63  F   UNL A   1      44.273  33.687  29.552  1.00  0.00    -0.206 F 
ATOM     64  C   UNL A   1      44.253  35.186  31.356  1.00  0.00     0.059 A 
ATOM     65  C   UNL A   1      43.805  34.373  33.599  1.00  0.00     0.059 A 
ATOM     66  F   UNL A   1      43.431  32.086  33.955  1.00  0.00    -0.206 F 
ATOM     67  C   UNL A   1      44.111  35.416  32.725  1.00  0.00     0.060 A 
BRANCH  67  68
ATOM     68  S   UNL A   1      44.338  37.094  33.351  1.00  0.00     0.124 S 
ATOM     69  O   UNL A   1      42.985  37.426  33.786  1.00  0.00    -0.237 OA
ATOM     70  O   UNL A   1      45.317  36.904  34.415  1.00  0.00    -0.237 OA
ATOM     71  O   UNL A   1      44.820  37.829  32.185  1.00  0.00    -0.744 OA
ENDBRANCH  67  68
ENDBRANCH  46  60
BRANCH  47  72
ATOM     72  C   UNL A   1      42.768  23.747  27.706  1.00  0.00     0.058 A 
ATOM     73  C   UNL A   1      42.990  23.578  26.332  1.00  0.00     0.135 A 
ATOM     74  C   UNL A   1      42.458  22.608  28.465  1.00  0.00     0.135 A 
ATOM     75  F   UNL A   1      43.280  24.640  25.564  1.00  0.00    -0.206 F 
ATOM     76  C   UNL A   1      42.916  22.326  25.731  1.00  0.00     0.059 A 
ATOM     77  C   UNL A   1      42.399  21.342  27.892  1.00  0.00     0.059 A 
ATOM     78  F   UNL A   1      42.252  22.718  29.787  1.00  0.00    -0.206 F 
ATOM     79  C   UNL A   1      42.630  21.211  26.522  1.00  0.00     0.060 A 
BRANCH  79  80
ATOM     80  S   UNL A   1      42.634  19.577  25.753  1.00  0.00     0.124 S 
ATOM     81  O   UNL A   1      41.236  19.429  25.368  1.00  0.00    -0.237 OA
ATOM     82  O   UNL A   1      43.584  19.755  24.659  1.00  0.00    -0.237 OA
ATOM     83  O   UNL A   1      43.091  18.703  26.829  1.00  0.00    -0.744 OA
ENDBRANCH  79  80
ENDBRANCH  47  72
BRANCH  59  84
ATOM     84  C   UNL A   1      48.029  26.972  30.973  1.00  0.00     0.058 A 
ATOM     85  C   UNL A   1      48.329  26.343  32.191  1.00  0.00     0.135 A 
ATOM     86  C   UNL A   1      49.076  27.155  30.055  1.00  0.00     0.135 A 
ATOM     87  F   UNL A   1      47.365  26.149  33.107  1.00  0.00    -0.206 F 
ATOM     88  C   UNL A   1      49.622  25.928  32.498  1.00  0.00     0.059 A 
ATOM     89  C   UNL A   1      50.372  26.728  30.331  1.00  0.00     0.059 A 
ATOM     90  F   UNL A   1      48.842  27.742  28.871  1.00  0.00    -0.206 F 
ATOM     91  C   UNL A   1      50.637  26.125  31.560  1.00  0.00     0.060 A 
BRANCH  91  92
ATOM     92  S   UNL A   1      52.306  25.558  31.955  1.00  0.00     0.124 S 
ATOM     93  O   UNL A   1      52.083  24.138  32.198  1.00  0.00    -0.237 OA
ATOM     94  O   UNL A   1      53.045  25.886  30.739  1.00  0.00    -0.237 OA
ATOM     95  O   UNL A   1      52.664  26.350  33.128  1.00  0.00    -0.744 OA
ENDBRANCH  91  92
ENDBRANCH  59  84
ENDBRANCH  33  34
ENDBRANCH  25  28
ENDBRANCH  23  24
ENDBRANCH  22  23
ENDBRANCH   1  22
TORSDOF 19
ENDMDL
MODEL 3
REMARK VINA RESULT:     -11.0      3.388      9.545
REMARK SMILES C#CC[N@@H+](CC(=O)NCCCNC(=O)c1ccc(-c2c3nc(c(-c4c(F)cc(S(=O)(=O)[O-])cc4F)c4ccc([nH]4)c(-c4c(F)cc(S(=O)(=O)[O-])cc4F)c4nc(c(-c5c(F)cc(S(=O)(=O)[O-])cc5F)c5ccc2[nH]5)C=C4)C=C3)cc1)Cc1ccc(C(C)C)cc1
REMARK SMILES IDX 9 1 8 2 6 3 7 4 5 6 4 7 3 9 2 10 1 11 81 12 82 13 83 14
REMARK SMILES IDX 90 15 84 16 89 17 85 18 86 19 87 20 88 21 10 22 11 23 12 24
REMARK SMILES IDX 13 25 14 27 15 28 16 29 80 30 17 31 79 32 18 33 19 34 20 35
REMARK SMILES IDX 73 36 21 37 78 38 72 39 74 40 22 41 77 42 71 43 70 44 23 46
REMARK SMILES IDX 57 47 36 48 56 49 37 50 40 51 55 52 75 53 38 54 39 55 54 57
REMARK SMILES IDX 76 58 41 59 24 60 25 61 34 62 26 63 27 64 33 65 35 66 28 67
REMARK SMILES IDX 29 68 30 69 31 70 32 71 58 72 59 73 68 74 60 75 61 76 67 77
REMARK SMILES IDX 69 78 62 79 63 80 64 81 65 82 66 83 42 84 43 85 52 86 44 87
REMARK SMILES IDX 45 88 51 89 53 90 46 91 47 92 48 93 49 94 50 95
REMARK H PARENT 8 5 4 8 12 26 74 45 40 56
REMARK Flexibility Score: inf
ROOT
ATOM      1  C   UNL A   1      32.150  26.736  25.843  1.00  0.00     0.118 C 
ENDROOT
BRANCH   1   2
ATOM      2  N   UNL A   1      31.577  25.654  26.635  1.00  0.00    -0.351 N 
ATOM      3  C   UNL A   1      31.475  24.307  26.421  1.00  0.00     0.275 C 
ATOM      4  O   UNL A   1      31.355  23.598  27.427  1.00  0.00    -0.269 OA
ATOM      5  H   UNL A   1      31.189  25.951  27.490  1.00  0.00     0.163 HD
BRANCH   3   6
ATOM      6  C   UNL A   1      31.574  23.661  25.030  1.00  0.00     0.364 C 
BRANCH   6   7
ATOM      7  N   UNL A   1      32.939  23.458  24.484  1.00  0.00    -0.313 N 
ATOM      8  H   UNL A   1      33.518  24.219  24.838  1.00  0.00     0.349 HD
BRANCH   7   9
ATOM      9  C   UNL A   1      32.912  23.566  23.044  1.00  0.00     0.354 C 
BRANCH   9  10
ATOM     10  C   UNL A   1      32.324  24.838  22.455  1.00  0.00    -0.047 C 
ATOM     11  C   UNL A   1      31.820  25.928  21.948  1.00  0.00     0.010 C 
ENDBRANCH   9  10
ENDBRANCH   7   9
BRANCH   7  12
ATOM     12  C   UNL A   1      33.687  22.306  25.024  1.00  0.00     0.300 C 
BRANCH  12  13
ATOM     13  C   UNL A   1      35.189  22.430  25.189  1.00  0.00     0.006 A 
ATOM     14  C   UNL A   1      35.739  23.611  25.699  1.00  0.00     0.010 A 
ATOM     15  C   UNL A   1      36.071  21.399  24.841  1.00  0.00     0.010 A 
ATOM     16  C   UNL A   1      37.106  23.706  25.979  1.00  0.00     0.004 A 
ATOM     17  C   UNL A   1      37.430  21.478  25.148  1.00  0.00     0.004 A 
ATOM     18  C   UNL A   1      37.958  22.616  25.767  1.00  0.00    -0.045 A 
BRANCH  18  19
ATOM     19  C   UNL A   1      39.417  22.616  26.183  1.00  0.00     0.013 C 
ATOM     20  C   UNL A   1      39.627  23.465  27.435  1.00  0.00     0.012 C 
ATOM     21  C   UNL A   1      40.004  21.214  26.372  1.00  0.00     0.012 C 
ENDBRANCH  18  19
ENDBRANCH  12  13
ENDBRANCH   7  12
ENDBRANCH   6   7
ENDBRANCH   3   6
ENDBRANCH   1   2
BRANCH   1  22
ATOM     22  C   UNL A   1      32.664  27.960  26.625  1.00  0.00     0.042 C 
BRANCH  22  23
ATOM     23  C   UNL A   1      33.797  28.757  25.975  1.00  0.00     0.118 C 
BRANCH  23  24
ATOM     24  N   UNL A   1      33.733  30.150  26.377  1.00  0.00    -0.352 N 
ATOM     25  C   UNL A   1      34.405  30.791  27.389  1.00  0.00     0.251 C 
ATOM     26  H   UNL A   1      33.122  30.715  25.851  1.00  0.00     0.163 HD
ATOM     27  O   UNL A   1      33.948  31.847  27.824  1.00  0.00    -0.269 OA
BRANCH  25  28
ATOM     28  C   UNL A   1      35.672  30.253  27.950  1.00  0.00     0.039 A 
ATOM     29  C   UNL A   1      35.654  29.711  29.241  1.00  0.00     0.014 A 
ATOM     30  C   UNL A   1      36.893  30.394  27.281  1.00  0.00     0.014 A 
ATOM     31  C   UNL A   1      36.846  29.317  29.858  1.00  0.00     0.010 A 
ATOM     32  C   UNL A   1      38.079  29.954  27.880  1.00  0.00     0.010 A 
ATOM     33  C   UNL A   1      38.073  29.440  29.186  1.00  0.00    -0.014 A 
BRANCH  33  34
ATOM     34  C   UNL A   1      39.349  29.082  29.866  1.00  0.00     0.031 A 
ATOM     35  C   UNL A   1      39.786  29.818  31.108  1.00  0.00     0.074 A 
ATOM     36  C   UNL A   1      40.131  28.108  29.363  1.00  0.00     0.049 A 
ATOM     37  N   UNL A   1      40.861  29.649  31.835  1.00  0.00    -0.248 NA
ATOM     38  C   UNL A   1      38.909  30.900  31.579  1.00  0.00     0.031 C 
ATOM     39  C   UNL A   1      39.849  27.345  28.146  1.00  0.00     0.029 A 
ATOM     40  N   UNL A   1      41.326  27.597  29.806  1.00  0.00    -0.354 N 
ATOM     41  C   UNL A   1      40.801  30.611  32.838  1.00  0.00     0.074 A 
ATOM     42  C   UNL A   1      39.603  31.388  32.598  1.00  0.00     0.031 C 
ATOM     43  C   UNL A   1      40.836  26.456  27.947  1.00  0.00     0.029 A 
ATOM     44  C   UNL A   1      41.831  26.600  29.006  1.00  0.00     0.049 A 
ATOM     45  H   UNL A   1      41.778  27.915  30.621  1.00  0.00     0.167 HD
ATOM     46  C   UNL A   1      41.652  30.819  33.872  1.00  0.00     0.037 A 
ATOM     47  C   UNL A   1      42.967  25.881  29.110  1.00  0.00     0.037 A 
ATOM     48  C   UNL A   1      42.828  30.029  34.127  1.00  0.00     0.049 A 
ATOM     49  C   UNL A   1      43.885  26.109  30.278  1.00  0.00     0.074 A 
ATOM     50  C   UNL A   1      43.709  30.113  35.192  1.00  0.00     0.029 A 
ATOM     51  N   UNL A   1      43.293  29.012  33.306  1.00  0.00    -0.354 N 
ATOM     52  N   UNL A   1      43.771  26.972  31.260  1.00  0.00    -0.248 NA
ATOM     53  C   UNL A   1      45.080  25.257  30.363  1.00  0.00     0.031 C 
ATOM     54  C   UNL A   1      44.728  29.173  34.994  1.00  0.00     0.029 A 
ATOM     55  C   UNL A   1      44.460  28.476  33.826  1.00  0.00     0.049 A 
ATOM     56  H   UNL A   1      42.857  28.715  32.474  1.00  0.00     0.167 HD
ATOM     57  C   UNL A   1      44.869  26.758  32.086  1.00  0.00     0.074 A 
ATOM     58  C   UNL A   1      45.629  25.674  31.496  1.00  0.00     0.031 C 
ATOM     59  C   UNL A   1      45.214  27.401  33.228  1.00  0.00     0.037 A 
BRANCH  46  60
ATOM     60  C   UNL A   1      41.341  31.960  34.804  1.00  0.00     0.058 A 
ATOM     61  C   UNL A   1      40.421  31.826  35.856  1.00  0.00     0.135 A 
ATOM     62  C   UNL A   1      41.976  33.203  34.645  1.00  0.00     0.135 A 
ATOM     63  F   UNL A   1      39.778  30.664  36.047  1.00  0.00    -0.206 F 
ATOM     64  C   UNL A   1      40.106  32.897  36.688  1.00  0.00     0.059 A 
ATOM     65  C   UNL A   1      41.696  34.279  35.483  1.00  0.00     0.059 A 
ATOM     66  F   UNL A   1      42.869  33.386  33.660  1.00  0.00    -0.206 F 
ATOM     67  C   UNL A   1      40.742  34.123  36.488  1.00  0.00     0.060 A 
BRANCH  67  68
ATOM     68  S   UNL A   1      40.301  35.512  37.552  1.00  0.00     0.124 S 
ATOM     69  O   UNL A   1      39.215  34.938  38.342  1.00  0.00    -0.237 OA
ATOM     70  O   UNL A   1      41.543  35.764  38.273  1.00  0.00    -0.237 OA
ATOM     71  O   UNL A   1      39.906  36.552  36.607  1.00  0.00    -0.744 OA
ENDBRANCH  67  68
ENDBRANCH  46  60
BRANCH  47  72
ATOM     72  C   UNL A   1      43.275  24.856  28.080  1.00  0.00     0.058 A 
ATOM     73  C   UNL A   1      43.875  25.212  26.864  1.00  0.00     0.135 A 
ATOM     74  C   UNL A   1      43.030  23.495  28.317  1.00  0.00     0.135 A 
ATOM     75  F   UNL A   1      44.120  26.503  26.589  1.00  0.00    -0.206 F 
ATOM     76  C   UNL A   1      44.228  24.254  25.919  1.00  0.00     0.059 A 
ATOM     77  C   UNL A   1      43.393  22.516  27.398  1.00  0.00     0.059 A 
ATOM     78  F   UNL A   1      42.470  23.104  29.473  1.00  0.00    -0.206 F 
ATOM     79  C   UNL A   1      43.992  22.907  26.200  1.00  0.00     0.060 A 
BRANCH  79  80
ATOM     80  S   UNL A   1      44.545  21.663  25.012  1.00  0.00     0.124 S 
ATOM     81  O   UNL A   1      44.403  22.379  23.750  1.00  0.00    -0.237 OA
ATOM     82  O   UNL A   1      45.912  21.404  25.451  1.00  0.00    -0.237 OA
ATOM     83  O   UNL A   1      43.610  20.562  25.223  1.00  0.00    -0.744 OA
ENDBRANCH  79  80
ENDBRANCH  47  72
BRANCH  59  84
ATOM     84  C   UNL A   1      46.463  26.945  33.929  1.00  0.00     0.058 A 
ATOM     85  C   UNL A   1      47.711  27.528  33.662  1.00  0.00     0.135 A 
ATOM     86  C   UNL A   1      46.405  25.944  34.913  1.00  0.00     0.135 A 
ATOM     87  F   UNL A   1      47.823  28.485  32.726  1.00  0.00    -0.206 F 
ATOM     88  C   UNL A   1      48.862  27.122  34.330  1.00  0.00     0.059 A 
ATOM     89  C   UNL A   1      47.539  25.538  35.610  1.00  0.00     0.059 A 
ATOM     90  F   UNL A   1      45.234  25.361  35.214  1.00  0.00    -0.206 F 
ATOM     91  C   UNL A   1      48.766  26.126  35.304  1.00  0.00     0.060 A 
BRANCH  91  92
ATOM     92  S   UNL A   1      50.260  25.625  36.186  1.00  0.00     0.124 S 
ATOM     93  O   UNL A   1      50.434  24.256  35.716  1.00  0.00    -0.237 OA
ATOM     94  O   UNL A   1      51.246  26.591  35.708  1.00  0.00    -0.237 OA
ATOM     95  O   UNL A   1      49.887  25.766  37.591  1.00  0.00    -0.744 OA
ENDBRANCH  91  92
ENDBRANCH  59  84
ENDBRANCH  33  34
ENDBRANCH  25  28
ENDBRANCH  23  24
ENDBRANCH  22  23
ENDBRANCH   1  22
TORSDOF 19
ENDMDL
