MODEL 1
REMARK VINA RESULT:     -11.4      0.000      0.000
REMARK SMILES C[C@H](C(=O)NCCCNC(=O)c1ccc(-c2c3nc(c(-c4c(F)cc(S(=O)(=O)[O-])cc4F)c4ccc([nH]4)c(-c4c(F)cc(S(=O)(=O)[O-])cc4F)c4nc(c(-c5c(F)cc(S(=O)(=O)[O-])cc5F)c5ccc2[nH]5)C=C4)C=C3)cc1)c1ccc2c3cc(Cl)ccc3n(C(=O)c3ccc(Cl)cc3)c2c1
REMARK SMILES IDX 7 1 6 2 5 3 3 4 4 5 2 7 1 8 78 9 79 10 100 11 80 12 99 13
REMARK SMILES IDX 81 14 89 15 82 16 88 17 83 18 87 19 84 20 86 21 85 22 90 23
REMARK SMILES IDX 91 24 92 25 93 26 98 27 94 28 97 29 95 30 96 31 8 32 9 33
REMARK SMILES IDX 10 34 11 36 12 37 13 38 77 39 14 40 76 41 15 42 16 43 17 44
REMARK SMILES IDX 70 45 18 46 75 47 69 48 71 49 19 50 74 51 68 52 67 53 20 55
REMARK SMILES IDX 54 56 33 57 53 58 34 59 37 60 52 61 72 62 35 63 36 64 51 66
REMARK SMILES IDX 73 67 38 68 21 69 22 70 31 71 23 72 24 73 30 74 32 75 25 76
REMARK SMILES IDX 26 77 27 78 28 79 29 80 55 81 56 82 65 83 57 84 58 85 64 86
REMARK SMILES IDX 66 87 59 88 60 89 61 90 62 91 63 92 39 93 40 94 49 95 41 96
REMARK SMILES IDX 42 97 48 98 50 99 43 100 44 101 45 102 46 103 47 104
REMARK H PARENT 5 6 9 35 71 54 37 65
REMARK Flexibility Score: inf
ROOT
ATOM      1  C   UNL A   1      33.556  34.134  28.179  1.00  0.00     0.042 C 
ENDROOT
BRANCH   1   2
ATOM      2  C   UNL A   1      33.754  35.190  29.263  1.00  0.00     0.117 C 
BRANCH   2   3
ATOM      3  N   UNL A   1      32.759  35.108  30.315  1.00  0.00    -0.356 N 
ATOM      4  C   UNL A   1      32.905  35.295  31.661  1.00  0.00     0.227 C 
ATOM      5  O   UNL A   1      31.899  35.197  32.367  1.00  0.00    -0.274 OA
ATOM      6  H   UNL A   1      31.847  34.886  30.016  1.00  0.00     0.163 HD
BRANCH   4   7
ATOM      7  C   UNL A   1      34.287  35.644  32.236  1.00  0.00     0.105 C 
ATOM      8  C   UNL A   1      34.144  36.298  33.616  1.00  0.00     0.023 C 
BRANCH   7   9
ATOM      9  C   UNL A   1      35.204  34.431  32.317  1.00  0.00    -0.034 A 
ATOM     10  C   UNL A   1      34.791  33.191  31.825  1.00  0.00     0.005 A 
ATOM     11  C   UNL A   1      36.476  34.549  32.900  1.00  0.00     0.032 A 
ATOM     12  C   UNL A   1      35.618  32.067  31.925  1.00  0.00     0.011 A 
ATOM     13  C   UNL A   1      37.304  33.413  33.015  1.00  0.00     0.057 A 
ATOM     14  C   UNL A   1      36.893  32.177  32.523  1.00  0.00     0.008 A 
ATOM     15  N   UNL A   1      38.597  33.271  33.542  1.00  0.00    -0.276 N 
ATOM     16  C   UNL A   1      37.931  31.244  32.796  1.00  0.00     0.009 A 
ATOM     17  C   UNL A   1      38.951  31.918  33.480  1.00  0.00     0.057 A 
ATOM     18  C   UNL A   1      38.048  29.857  32.552  1.00  0.00     0.031 A 
ATOM     19  C   UNL A   1      40.039  31.202  34.020  1.00  0.00     0.029 A 
ATOM     20  C   UNL A   1      39.156  29.168  33.038  1.00  0.00     0.041 A 
ATOM     21  C   UNL A   1      40.130  29.824  33.777  1.00  0.00     0.023 A 
ATOM     22  Cl  UNL A   1      39.298  27.479  32.739  1.00  0.00    -0.084 Cl
BRANCH  15  23
ATOM     23  C   UNL A   1      39.338  34.355  34.082  1.00  0.00     0.262 C 
ATOM     24  O   UNL A   1      40.023  34.990  33.278  1.00  0.00    -0.268 OA
BRANCH  23  25
ATOM     25  C   UNL A   1      39.453  34.788  35.508  1.00  0.00     0.040 A 
ATOM     26  C   UNL A   1      38.774  34.008  36.467  1.00  0.00     0.015 A 
ATOM     27  C   UNL A   1      40.063  35.975  35.928  1.00  0.00     0.015 A 
ATOM     28  C   UNL A   1      38.720  34.388  37.809  1.00  0.00     0.021 A 
ATOM     29  C   UNL A   1      40.037  36.340  37.283  1.00  0.00     0.021 A 
ATOM     30  C   UNL A   1      39.361  35.551  38.215  1.00  0.00     0.041 A 
ATOM     31  Cl  UNL A   1      39.288  36.033  39.864  1.00  0.00    -0.084 Cl
ENDBRANCH  23  25
ENDBRANCH  15  23
ENDBRANCH   7   9
ENDBRANCH   4   7
ENDBRANCH   2   3
ENDBRANCH   1   2
BRANCH   1  32
ATOM     32  C   UNL A   1      34.481  32.923  28.297  1.00  0.00     0.118 C 
BRANCH  32  33
ATOM     33  N   UNL A   1      33.805  31.672  27.985  1.00  0.00    -0.352 N 
ATOM     34  C   UNL A   1      34.290  30.400  27.815  1.00  0.00     0.251 C 
ATOM     35  H   UNL A   1      32.830  31.752  27.877  1.00  0.00     0.163 HD
ATOM     36  O   UNL A   1      33.533  29.544  27.361  1.00  0.00    -0.269 OA
BRANCH  34  37
ATOM     37  C   UNL A   1      35.686  30.040  28.156  1.00  0.00     0.039 A 
ATOM     38  C   UNL A   1      36.665  30.194  27.168  1.00  0.00     0.014 A 
ATOM     39  C   UNL A   1      36.036  29.488  29.391  1.00  0.00     0.014 A 
ATOM     40  C   UNL A   1      37.989  29.836  27.431  1.00  0.00     0.010 A 
ATOM     41  C   UNL A   1      37.371  29.195  29.678  1.00  0.00     0.010 A 
ATOM     42  C   UNL A   1      38.361  29.358  28.699  1.00  0.00    -0.014 A 
BRANCH  42  43
ATOM     43  C   UNL A   1      39.786  29.052  28.997  1.00  0.00     0.031 A 
ATOM     44  C   UNL A   1      40.676  30.072  29.655  1.00  0.00     0.074 A 
ATOM     45  C   UNL A   1      40.282  27.848  28.651  1.00  0.00     0.049 A 
ATOM     46  N   UNL A   1      41.929  29.960  30.018  1.00  0.00    -0.248 NA
ATOM     47  C   UNL A   1      40.091  31.394  29.925  1.00  0.00     0.031 C 
ATOM     48  C   UNL A   1      39.537  26.798  27.952  1.00  0.00     0.029 A 
ATOM     49  N   UNL A   1      41.526  27.299  28.842  1.00  0.00    -0.354 N 
ATOM     50  C   UNL A   1      42.284  31.193  30.552  1.00  0.00     0.074 A 
ATOM     51  C   UNL A   1      41.130  32.055  30.418  1.00  0.00     0.031 C 
ATOM     52  C   UNL A   1      40.326  25.722  27.805  1.00  0.00     0.029 A 
ATOM     53  C   UNL A   1      41.638  26.012  28.372  1.00  0.00     0.049 A 
ATOM     54  H   UNL A   1      42.266  27.782  29.276  1.00  0.00     0.167 HD
ATOM     55  C   UNL A   1      43.456  31.565  31.123  1.00  0.00     0.037 A 
ATOM     56  C   UNL A   1      42.679  25.158  28.400  1.00  0.00     0.037 A 
ATOM     57  C   UNL A   1      44.598  30.697  31.269  1.00  0.00     0.049 A 
ATOM     58  C   UNL A   1      43.961  25.586  29.057  1.00  0.00     0.074 A 
ATOM     59  C   UNL A   1      45.809  30.961  31.883  1.00  0.00     0.029 A 
ATOM     60  N   UNL A   1      44.670  29.396  30.790  1.00  0.00    -0.354 N 
ATOM     61  N   UNL A   1      44.253  26.733  29.623  1.00  0.00    -0.248 NA
ATOM     62  C   UNL A   1      45.050  24.601  29.093  1.00  0.00     0.031 C 
ATOM     63  C   UNL A   1      46.630  29.835  31.741  1.00  0.00     0.029 A 
ATOM     64  C   UNL A   1      45.913  28.852  31.078  1.00  0.00     0.049 A 
ATOM     65  H   UNL A   1      43.946  28.928  30.317  1.00  0.00     0.167 HD
ATOM     66  C   UNL A   1      45.555  26.602  30.096  1.00  0.00     0.074 A 
ATOM     67  C   UNL A   1      45.982  25.256  29.771  1.00  0.00     0.031 C 
ATOM     68  C   UNL A   1      46.328  27.513  30.737  1.00  0.00     0.037 A 
BRANCH  55  69
ATOM     69  C   UNL A   1      43.562  32.974  31.644  1.00  0.00     0.058 A 
ATOM     70  C   UNL A   1      43.869  34.051  30.795  1.00  0.00     0.135 A 
ATOM     71  C   UNL A   1      43.318  33.260  32.997  1.00  0.00     0.135 A 
ATOM     72  F   UNL A   1      44.125  33.835  29.495  1.00  0.00    -0.206 F 
ATOM     73  C   UNL A   1      43.958  35.355  31.274  1.00  0.00     0.059 A 
ATOM     74  C   UNL A   1      43.375  34.560  33.493  1.00  0.00     0.059 A 
ATOM     75  F   UNL A   1      43.018  32.271  33.853  1.00  0.00    -0.206 F 
ATOM     76  C   UNL A   1      43.710  35.599  32.626  1.00  0.00     0.060 A 
BRANCH  76  77
ATOM     77  S   UNL A   1      43.826  37.297  33.230  1.00  0.00     0.124 S 
ATOM     78  O   UNL A   1      43.767  38.053  31.983  1.00  0.00    -0.237 OA
ATOM     79  O   UNL A   1      42.655  37.403  34.092  1.00  0.00    -0.237 OA
ATOM     80  O   UNL A   1      45.113  37.325  33.919  1.00  0.00    -0.744 OA
ENDBRANCH  76  77
ENDBRANCH  55  69
BRANCH  56  81
ATOM     81  C   UNL A   1      42.536  23.799  27.814  1.00  0.00     0.058 A 
ATOM     82  C   UNL A   1      42.380  22.672  28.635  1.00  0.00     0.135 A 
ATOM     83  C   UNL A   1      42.531  23.602  26.425  1.00  0.00     0.135 A 
ATOM     84  F   UNL A   1      42.383  22.809  29.970  1.00  0.00    -0.206 F 
ATOM     85  C   UNL A   1      42.240  21.395  28.101  1.00  0.00     0.059 A 
ATOM     86  C   UNL A   1      42.366  22.338  25.866  1.00  0.00     0.059 A 
ATOM     87  F   UNL A   1      42.658  24.650  25.597  1.00  0.00    -0.206 F 
ATOM     88  C   UNL A   1      42.232  21.239  26.714  1.00  0.00     0.060 A 
BRANCH  88  89
ATOM     89  S   UNL A   1      41.995  19.585  26.029  1.00  0.00     0.124 S 
ATOM     90  O   UNL A   1      40.565  19.587  25.745  1.00  0.00    -0.237 OA
ATOM     91  O   UNL A   1      42.878  19.604  24.866  1.00  0.00    -0.237 OA
ATOM     92  O   UNL A   1      42.423  18.709  27.116  1.00  0.00    -0.744 OA
ENDBRANCH  88  89
ENDBRANCH  56  81
BRANCH  68  93
ATOM     93  C   UNL A   1      47.709  27.074  31.139  1.00  0.00     0.058 A 
ATOM     94  C   UNL A   1      47.958  26.479  32.386  1.00  0.00     0.135 A 
ATOM     95  C   UNL A   1      48.795  27.243  30.264  1.00  0.00     0.135 A 
ATOM     96  F   UNL A   1      46.957  26.299  33.260  1.00  0.00    -0.206 F 
ATOM     97  C   UNL A   1      49.243  26.105  32.769  1.00  0.00     0.059 A 
ATOM     98  C   UNL A   1      50.083  26.851  30.615  1.00  0.00     0.059 A 
ATOM     99  F   UNL A   1      48.610  27.795  29.055  1.00  0.00    -0.206 F 
ATOM    100  C   UNL A   1      50.300  26.301  31.879  1.00  0.00     0.060 A 
BRANCH 100 101
ATOM    101  S   UNL A   1      51.963  25.817  32.388  1.00  0.00     0.124 S 
ATOM    102  O   UNL A   1      51.924  24.374  32.179  1.00  0.00    -0.237 OA
ATOM    103  O   UNL A   1      52.806  26.568  31.463  1.00  0.00    -0.237 OA
ATOM    104  O   UNL A   1      52.030  26.250  33.780  1.00  0.00    -0.744 OA
ENDBRANCH 100 101
ENDBRANCH  68  93
ENDBRANCH  42  43
ENDBRANCH  34  37
ENDBRANCH  32  33
ENDBRANCH   1  32
TORSDOF 16
ENDMDL
MODEL 2
REMARK VINA RESULT:     -11.2      0.631      7.993
REMARK SMILES C[C@H](C(=O)NCCCNC(=O)c1ccc(-c2c3nc(c(-c4c(F)cc(S(=O)(=O)[O-])cc4F)c4ccc([nH]4)c(-c4c(F)cc(S(=O)(=O)[O-])cc4F)c4nc(c(-c5c(F)cc(S(=O)(=O)[O-])cc5F)c5ccc2[nH]5)C=C4)C=C3)cc1)c1ccc2c3cc(Cl)ccc3n(C(=O)c3ccc(Cl)cc3)c2c1
REMARK SMILES IDX 7 1 6 2 5 3 3 4 4 5 2 7 1 8 78 9 79 10 100 11 80 12 99 13
REMARK SMILES IDX 81 14 89 15 82 16 88 17 83 18 87 19 84 20 86 21 85 22 90 23
REMARK SMILES IDX 91 24 92 25 93 26 98 27 94 28 97 29 95 30 96 31 8 32 9 33
REMARK SMILES IDX 10 34 11 36 12 37 13 38 77 39 14 40 76 41 15 42 16 43 17 44
REMARK SMILES IDX 70 45 18 46 75 47 69 48 71 49 19 50 74 51 68 52 67 53 20 55
REMARK SMILES IDX 54 56 33 57 53 58 34 59 37 60 52 61 72 62 35 63 36 64 51 66
REMARK SMILES IDX 73 67 38 68 21 69 22 70 31 71 23 72 24 73 30 74 32 75 25 76
REMARK SMILES IDX 26 77 27 78 28 79 29 80 55 81 56 82 65 83 57 84 58 85 64 86
REMARK SMILES IDX 66 87 59 88 60 89 61 90 62 91 63 92 39 93 40 94 49 95 41 96
REMARK SMILES IDX 42 97 48 98 50 99 43 100 44 101 45 102 46 103 47 104
REMARK H PARENT 5 6 9 35 71 54 37 65
REMARK Flexibility Score: inf
ROOT
ATOM      1  C   UNL A   1      33.643  34.013  28.158  1.00  0.00     0.042 C 
ENDROOT
BRANCH   1   2
ATOM      2  C   UNL A   1      33.849  35.041  29.268  1.00  0.00     0.117 C 
BRANCH   2   3
ATOM      3  N   UNL A   1      32.891  34.899  30.349  1.00  0.00    -0.356 N 
ATOM      4  C   UNL A   1      33.069  35.084  31.692  1.00  0.00     0.227 C 
ATOM      5  O   UNL A   1      32.091  34.928  32.427  1.00  0.00    -0.274 OA
ATOM      6  H   UNL A   1      31.984  34.631  30.076  1.00  0.00     0.163 HD
BRANCH   4   7
ATOM      7  C   UNL A   1      34.447  35.502  32.228  1.00  0.00     0.105 C 
ATOM      8  C   UNL A   1      34.305  36.211  33.580  1.00  0.00     0.023 C 
BRANCH   7   9
ATOM      9  C   UNL A   1      35.404  34.323  32.347  1.00  0.00    -0.034 A 
ATOM     10  C   UNL A   1      35.045  33.062  31.867  1.00  0.00     0.005 A 
ATOM     11  C   UNL A   1      36.660  34.494  32.952  1.00  0.00     0.032 A 
ATOM     12  C   UNL A   1      35.909  31.970  32.001  1.00  0.00     0.011 A 
ATOM     13  C   UNL A   1      37.524  33.390  33.102  1.00  0.00     0.057 A 
ATOM     14  C   UNL A   1      37.166  32.134  32.622  1.00  0.00     0.008 A 
ATOM     15  N   UNL A   1      38.811  33.303  33.656  1.00  0.00    -0.276 N 
ATOM     16  C   UNL A   1      38.230  31.242  32.930  1.00  0.00     0.009 A 
ATOM     17  C   UNL A   1      39.213  31.962  33.623  1.00  0.00     0.057 A 
ATOM     18  C   UNL A   1      38.401  29.857  32.711  1.00  0.00     0.031 A 
ATOM     19  C   UNL A   1      40.314  31.293  34.196  1.00  0.00     0.029 A 
ATOM     20  C   UNL A   1      39.522  29.214  33.230  1.00  0.00     0.041 A 
ATOM     21  C   UNL A   1      40.457  29.916  33.977  1.00  0.00     0.023 A 
ATOM     22  Cl  UNL A   1      39.729  27.527  32.961  1.00  0.00    -0.084 Cl
BRANCH  15  23
ATOM     23  C   UNL A   1      39.502  34.421  34.192  1.00  0.00     0.262 C 
ATOM     24  O   UNL A   1      40.173  35.073  33.391  1.00  0.00    -0.268 OA
BRANCH  23  25
ATOM     25  C   UNL A   1      39.582  34.873  35.615  1.00  0.00     0.040 A 
ATOM     26  C   UNL A   1      38.844  34.132  36.561  1.00  0.00     0.015 A 
ATOM     27  C   UNL A   1      40.216  36.046  36.038  1.00  0.00     0.015 A 
ATOM     28  C   UNL A   1      38.756  34.537  37.894  1.00  0.00     0.021 A 
ATOM     29  C   UNL A   1      40.155  36.434  37.385  1.00  0.00     0.021 A 
ATOM     30  C   UNL A   1      39.421  35.685  38.305  1.00  0.00     0.041 A 
ATOM     31  Cl  UNL A   1      39.308  36.197  39.943  1.00  0.00    -0.084 Cl
ENDBRANCH  23  25
ENDBRANCH  15  23
ENDBRANCH   7   9
ENDBRANCH   4   7
ENDBRANCH   2   3
ENDBRANCH   1   2
BRANCH   1  32
ATOM     32  C   UNL A   1      34.609  32.831  28.202  1.00  0.00     0.118 C 
BRANCH  32  33
ATOM     33  N   UNL A   1      33.943  31.557  27.968  1.00  0.00    -0.352 N 
ATOM     34  C   UNL A   1      34.441  30.283  27.859  1.00  0.00     0.251 C 
ATOM     35  H   UNL A   1      32.966  31.621  27.872  1.00  0.00     0.163 HD
ATOM     36  O   UNL A   1      33.687  29.396  27.463  1.00  0.00    -0.269 OA
BRANCH  34  37
ATOM     37  C   UNL A   1      35.846  29.958  28.195  1.00  0.00     0.039 A 
ATOM     38  C   UNL A   1      36.811  30.097  27.192  1.00  0.00     0.014 A 
ATOM     39  C   UNL A   1      36.218  29.450  29.442  1.00  0.00     0.014 A 
ATOM     40  C   UNL A   1      38.144  29.770  27.451  1.00  0.00     0.010 A 
ATOM     41  C   UNL A   1      37.561  29.188  29.724  1.00  0.00     0.010 A 
ATOM     42  C   UNL A   1      38.538  29.338  28.729  1.00  0.00    -0.014 A 
BRANCH  42  43
ATOM     43  C   UNL A   1      39.970  29.065  29.021  1.00  0.00     0.031 A 
ATOM     44  C   UNL A   1      40.590  27.736  28.682  1.00  0.00     0.074 A 
ATOM     45  C   UNL A   1      40.711  30.022  29.615  1.00  0.00     0.049 A 
ATOM     46  N   UNL A   1      41.830  27.342  28.835  1.00  0.00    -0.248 NA
ATOM     47  C   UNL A   1      39.702  26.709  28.117  1.00  0.00     0.031 C 
ATOM     48  C   UNL A   1      40.210  31.328  30.049  1.00  0.00     0.029 A 
ATOM     49  N   UNL A   1      42.041  30.049  29.953  1.00  0.00    -0.354 N 
ATOM     50  C   UNL A   1      41.870  26.026  28.391  1.00  0.00     0.074 A 
ATOM     51  C   UNL A   1      40.520  25.670  28.012  1.00  0.00     0.031 C 
ATOM     52  C   UNL A   1      41.224  32.041  30.561  1.00  0.00     0.029 A 
ATOM     53  C   UNL A   1      42.441  31.236  30.520  1.00  0.00     0.049 A 
ATOM     54  H   UNL A   1      42.650  29.291  29.802  1.00  0.00     0.167 HD
ATOM     55  C   UNL A   1      42.939  25.197  28.286  1.00  0.00     0.037 A 
ATOM     56  C   UNL A   1      43.652  31.635  30.953  1.00  0.00     0.037 A 
ATOM     57  C   UNL A   1      44.285  25.562  28.650  1.00  0.00     0.049 A 
ATOM     58  C   UNL A   1      44.825  30.707  30.807  1.00  0.00     0.074 A 
ATOM     59  C   UNL A   1      45.443  24.815  28.529  1.00  0.00     0.029 A 
ATOM     60  N   UNL A   1      44.653  26.777  29.211  1.00  0.00    -0.354 N 
ATOM     61  N   UNL A   1      44.856  29.491  30.316  1.00  0.00    -0.248 NA
ATOM     62  C   UNL A   1      46.129  31.209  31.260  1.00  0.00     0.031 C 
ATOM     63  C   UNL A   1      46.505  25.561  29.053  1.00  0.00     0.029 A 
ATOM     64  C   UNL A   1      46.017  26.792  29.459  1.00  0.00     0.049 A 
ATOM     65  H   UNL A   1      44.036  27.519  29.404  1.00  0.00     0.167 HD
ATOM     66  C   UNL A   1      46.186  29.087  30.387  1.00  0.00     0.074 A 
ATOM     67  C   UNL A   1      46.929  30.199  30.945  1.00  0.00     0.031 C 
ATOM     68  C   UNL A   1      46.741  27.904  30.027  1.00  0.00     0.037 A 
BRANCH  55  69
ATOM     69  C   UNL A   1      42.697  23.812  27.747  1.00  0.00     0.058 A 
ATOM     70  C   UNL A   1      42.482  22.717  28.601  1.00  0.00     0.135 A 
ATOM     71  C   UNL A   1      42.641  23.580  26.363  1.00  0.00     0.135 A 
ATOM     72  F   UNL A   1      42.536  22.878  29.934  1.00  0.00    -0.206 F 
ATOM     73  C   UNL A   1      42.249  21.438  28.103  1.00  0.00     0.059 A 
ATOM     74  C   UNL A   1      42.383  22.314  25.843  1.00  0.00     0.059 A 
ATOM     75  F   UNL A   1      42.837  24.589  25.501  1.00  0.00    -0.206 F 
ATOM     76  C   UNL A   1      42.203  21.247  26.722  1.00  0.00     0.060 A 
BRANCH  76  77
ATOM     77  S   UNL A   1      41.897  19.582  26.093  1.00  0.00     0.124 S 
ATOM     78  O   UNL A   1      42.789  19.538  24.939  1.00  0.00    -0.237 OA
ATOM     79  O   UNL A   1      42.281  18.745  27.224  1.00  0.00    -0.237 OA
ATOM     80  O   UNL A   1      40.470  19.593  25.782  1.00  0.00    -0.744 OA
ENDBRANCH  76  77
ENDBRANCH  55  69
BRANCH  56  81
ATOM     81  C   UNL A   1      43.819  32.994  31.534  1.00  0.00     0.058 A 
ATOM     82  C   UNL A   1      44.110  34.097  30.718  1.00  0.00     0.135 A 
ATOM     83  C   UNL A   1      43.669  33.219  32.911  1.00  0.00     0.135 A 
ATOM     84  F   UNL A   1      44.267  33.931  29.396  1.00  0.00    -0.206 F 
ATOM     85  C   UNL A   1      44.264  35.374  31.248  1.00  0.00     0.059 A 
ATOM     86  C   UNL A   1      43.792  34.491  33.461  1.00  0.00     0.059 A 
ATOM     87  F   UNL A   1      43.372  32.200  33.731  1.00  0.00    -0.206 F 
ATOM     88  C   UNL A   1      44.100  35.562  32.621  1.00  0.00     0.060 A 
BRANCH  88  89
ATOM     89  S   UNL A   1      44.248  37.232  33.292  1.00  0.00     0.124 S 
ATOM     90  O   UNL A   1      44.511  38.009  32.087  1.00  0.00    -0.237 OA
ATOM     91  O   UNL A   1      42.940  37.432  33.909  1.00  0.00    -0.237 OA
ATOM     92  O   UNL A   1      45.363  37.119  34.228  1.00  0.00    -0.744 OA
ENDBRANCH  88  89
ENDBRANCH  56  81
BRANCH  68  93
ATOM     93  C   UNL A   1      48.226  27.761  30.216  1.00  0.00     0.058 A 
ATOM     94  C   UNL A   1      49.133  28.119  29.206  1.00  0.00     0.135 A 
ATOM     95  C   UNL A   1      48.749  27.269  31.423  1.00  0.00     0.135 A 
ATOM     96  F   UNL A   1      48.687  28.590  28.032  1.00  0.00    -0.206 F 
ATOM     97  C   UNL A   1      50.505  27.954  29.370  1.00  0.00     0.059 A 
ATOM     98  C   UNL A   1      50.118  27.122  31.619  1.00  0.00     0.059 A 
ATOM     99  F   UNL A   1      47.926  26.924  32.426  1.00  0.00    -0.206 F 
ATOM    100  C   UNL A   1      50.988  27.448  30.578  1.00  0.00     0.060 A 
BRANCH 100 101
ATOM    101  S   UNL A   1      52.769  27.233  30.779  1.00  0.00     0.124 S 
ATOM    102  O   UNL A   1      52.833  25.935  31.444  1.00  0.00    -0.237 OA
ATOM    103  O   UNL A   1      53.247  27.263  29.401  1.00  0.00    -0.237 OA
ATOM    104  O   UNL A   1      53.158  28.378  31.596  1.00  0.00    -0.744 OA
ENDBRANCH 100 101
ENDBRANCH  68  93
ENDBRANCH  42  43
ENDBRANCH  34  37
ENDBRANCH  32  33
ENDBRANCH   1  32
TORSDOF 16
ENDMDL
MODEL 3
REMARK VINA RESULT:     -11.0      2.445      8.568
REMARK SMILES C[C@H](C(=O)NCCCNC(=O)c1ccc(-c2c3nc(c(-c4c(F)cc(S(=O)(=O)[O-])cc4F)c4ccc([nH]4)c(-c4c(F)cc(S(=O)(=O)[O-])cc4F)c4nc(c(-c5c(F)cc(S(=O)(=O)[O-])cc5F)c5ccc2[nH]5)C=C4)C=C3)cc1)c1ccc2c3cc(Cl)ccc3n(C(=O)c3ccc(Cl)cc3)c2c1
REMARK SMILES IDX 7 1 6 2 5 3 3 4 4 5 2 7 1 8 78 9 79 10 100 11 80 12 99 13
REMARK SMILES IDX 81 14 89 15 82 16 88 17 83 18 87 19 84 20 86 21 85 22 90 23
REMARK SMILES IDX 91 24 92 25 93 26 98 27 94 28 97 29 95 30 96 31 8 32 9 33
REMARK SMILES IDX 10 34 11 36 12 37 13 38 77 39 14 40 76 41 15 42 16 43 17 44
REMARK SMILES IDX 70 45 18 46 75 47 69 48 71 49 19 50 74 51 68 52 67 53 20 55
REMARK SMILES IDX 54 56 33 57 53 58 34 59 37 60 52 61 72 62 35 63 36 64 51 66
REMARK SMILES IDX 73 67 38 68 21 69 22 70 31 71 23 72 24 73 30 74 32 75 25 76
REMARK SMILES IDX 26 77 27 78 28 79 29 80 55 81 56 82 65 83 57 84 58 85 64 86
REMARK SMILES IDX 66 87 59 88 60 89 61 90 62 91 63 92 39 93 40 94 49 95 41 96
REMARK SMILES IDX 42 97 48 98 50 99 43 100 44 101 45 102 46 103 47 104
REMARK H PARENT 5 6 9 35 71 54 37 65
REMARK Flexibility Score: inf
ROOT
ATOM      1  C   UNL A   1      34.900  33.575  28.712  1.00  0.00     0.042 C 
ENDROOT
BRANCH   1   2
ATOM      2  C   UNL A   1      34.606  34.468  29.915  1.00  0.00     0.117 C 
BRANCH   2   3
ATOM      3  N   UNL A   1      33.866  33.781  30.956  1.00  0.00    -0.356 N 
ATOM      4  C   UNL A   1      34.180  33.618  32.277  1.00  0.00     0.227 C 
ATOM      5  O   UNL A   1      33.375  33.011  32.987  1.00  0.00    -0.274 OA
ATOM      6  H   UNL A   1      33.016  33.373  30.671  1.00  0.00     0.163 HD
BRANCH   4   7
ATOM      7  C   UNL A   1      35.484  34.213  32.829  1.00  0.00     0.105 C 
ATOM      8  C   UNL A   1      35.249  34.833  34.211  1.00  0.00     0.023 C 
BRANCH   7   9
ATOM      9  C   UNL A   1      36.607  33.186  32.894  1.00  0.00    -0.034 A 
ATOM     10  C   UNL A   1      36.331  31.845  33.169  1.00  0.00     0.005 A 
ATOM     11  C   UNL A   1      37.938  33.584  32.687  1.00  0.00     0.032 A 
ATOM     12  C   UNL A   1      37.362  30.904  33.260  1.00  0.00     0.011 A 
ATOM     13  C   UNL A   1      38.978  32.639  32.794  1.00  0.00     0.057 A 
ATOM     14  C   UNL A   1      38.703  31.302  33.066  1.00  0.00     0.008 A 
ATOM     15  N   UNL A   1      40.365  32.780  32.629  1.00  0.00    -0.276 N 
ATOM     16  C   UNL A   1      39.947  30.613  33.119  1.00  0.00     0.009 A 
ATOM     17  C   UNL A   1      40.969  31.548  32.909  1.00  0.00     0.057 A 
ATOM     18  C   UNL A   1      40.274  29.265  33.384  1.00  0.00     0.031 A 
ATOM     19  C   UNL A   1      42.319  31.174  33.068  1.00  0.00     0.029 A 
ATOM     20  C   UNL A   1      41.612  28.891  33.481  1.00  0.00     0.041 A 
ATOM     21  C   UNL A   1      42.621  29.833  33.343  1.00  0.00     0.023 A 
ATOM     22  Cl  UNL A   1      42.009  27.248  33.802  1.00  0.00    -0.084 Cl
BRANCH  15  23
ATOM     23  C   UNL A   1      40.984  34.012  32.289  1.00  0.00     0.262 C 
ATOM     24  O   UNL A   1      41.269  34.749  33.235  1.00  0.00    -0.268 OA
BRANCH  23  25
ATOM     25  C   UNL A   1      41.273  34.567  30.932  1.00  0.00     0.040 A 
ATOM     26  C   UNL A   1      42.530  35.182  30.749  1.00  0.00     0.015 A 
ATOM     27  C   UNL A   1      40.340  34.640  29.891  1.00  0.00     0.015 A 
ATOM     28  C   UNL A   1      42.855  35.834  29.559  1.00  0.00     0.021 A 
ATOM     29  C   UNL A   1      40.680  35.266  28.682  1.00  0.00     0.021 A 
ATOM     30  C   UNL A   1      41.930  35.866  28.523  1.00  0.00     0.041 A 
ATOM     31  Cl  UNL A   1      42.319  36.678  27.058  1.00  0.00    -0.084 Cl
ENDBRANCH  23  25
ENDBRANCH  15  23
ENDBRANCH   7   9
ENDBRANCH   4   7
ENDBRANCH   2   3
ENDBRANCH   1   2
BRANCH   1  32
ATOM     32  C   UNL A   1      35.791  32.372  29.019  1.00  0.00     0.118 C 
BRANCH  32  33
ATOM     33  N   UNL A   1      35.137  31.105  28.724  1.00  0.00    -0.352 N 
ATOM     34  C   UNL A   1      35.649  29.891  28.342  1.00  0.00     0.251 C 
ATOM     35  H   UNL A   1      34.158  31.122  28.816  1.00  0.00     0.163 HD
ATOM     36  O   UNL A   1      34.866  29.022  27.962  1.00  0.00    -0.269 OA
BRANCH  34  37
ATOM     37  C   UNL A   1      37.103  29.609  28.368  1.00  0.00     0.039 A 
ATOM     38  C   UNL A   1      37.683  29.261  29.593  1.00  0.00     0.014 A 
ATOM     39  C   UNL A   1      37.914  29.752  27.239  1.00  0.00     0.014 A 
ATOM     40  C   UNL A   1      39.056  29.019  29.675  1.00  0.00     0.010 A 
ATOM     41  C   UNL A   1      39.274  29.442  27.305  1.00  0.00     0.010 A 
ATOM     42  C   UNL A   1      39.862  29.080  28.525  1.00  0.00    -0.014 A 
BRANCH  42  43
ATOM     43  C   UNL A   1      41.308  28.745  28.604  1.00  0.00     0.031 A 
ATOM     44  C   UNL A   1      41.805  27.368  28.255  1.00  0.00     0.074 A 
ATOM     45  C   UNL A   1      42.178  29.690  29.014  1.00  0.00     0.049 A 
ATOM     46  N   UNL A   1      43.034  26.915  28.235  1.00  0.00    -0.248 NA
ATOM     47  C   UNL A   1      40.792  26.362  27.901  1.00  0.00     0.031 C 
ATOM     48  C   UNL A   1      41.812  31.044  29.440  1.00  0.00     0.029 A 
ATOM     49  N   UNL A   1      43.544  29.663  29.136  1.00  0.00    -0.354 N 
ATOM     50  C   UNL A   1      42.943  25.576  27.872  1.00  0.00     0.074 A 
ATOM     51  C   UNL A   1      41.534  25.275  27.733  1.00  0.00     0.031 C 
ATOM     52  C   UNL A   1      42.927  31.726  29.741  1.00  0.00     0.029 A 
ATOM     53  C   UNL A   1      44.083  30.855  29.559  1.00  0.00     0.049 A 
ATOM     54  H   UNL A   1      44.086  28.865  28.938  1.00  0.00     0.167 HD
ATOM     55  C   UNL A   1      43.942  24.686  27.652  1.00  0.00     0.037 A 
ATOM     56  C   UNL A   1      45.365  31.210  29.770  1.00  0.00     0.037 A 
ATOM     57  C   UNL A   1      45.344  24.996  27.777  1.00  0.00     0.049 A 
ATOM     58  C   UNL A   1      46.456  30.212  29.499  1.00  0.00     0.074 A 
ATOM     59  C   UNL A   1      46.432  24.181  27.521  1.00  0.00     0.029 A 
ATOM     60  N   UNL A   1      45.852  26.217  28.196  1.00  0.00    -0.354 N 
ATOM     61  N   UNL A   1      46.353  28.971  29.085  1.00  0.00    -0.248 NA
ATOM     62  C   UNL A   1      47.837  30.665  29.709  1.00  0.00     0.031 C 
ATOM     63  C   UNL A   1      47.598  24.895  27.824  1.00  0.00     0.029 A 
ATOM     64  C   UNL A   1      47.237  26.171  28.225  1.00  0.00     0.049 A 
ATOM     65  H   UNL A   1      45.308  27.002  28.437  1.00  0.00     0.167 HD
ATOM     66  C   UNL A   1      47.657  28.500  28.971  1.00  0.00     0.074 A 
ATOM     67  C   UNL A   1      48.529  29.598  29.336  1.00  0.00     0.031 C 
ATOM     68  C   UNL A   1      48.092  27.270  28.602  1.00  0.00     0.037 A 
BRANCH  55  69
ATOM     69  C   UNL A   1      43.554  23.289  27.244  1.00  0.00     0.058 A 
ATOM     70  C   UNL A   1      43.028  22.372  28.170  1.00  0.00     0.135 A 
ATOM     71  C   UNL A   1      43.672  22.872  25.909  1.00  0.00     0.135 A 
ATOM     72  F   UNL A   1      42.904  22.712  29.463  1.00  0.00    -0.206 F 
ATOM     73  C   UNL A   1      42.661  21.084  27.791  1.00  0.00     0.059 A 
ATOM     74  C   UNL A   1      43.286  21.597  25.502  1.00  0.00     0.059 A 
ATOM     75  F   UNL A   1      44.166  23.707  24.981  1.00  0.00    -0.206 F 
ATOM     76  C   UNL A   1      42.795  20.705  26.455  1.00  0.00     0.060 A 
BRANCH  76  77
ATOM     77  S   UNL A   1      42.310  19.032  25.981  1.00  0.00     0.124 S 
ATOM     78  O   UNL A   1      42.724  18.267  27.152  1.00  0.00    -0.237 OA
ATOM     79  O   UNL A   1      40.871  19.166  25.786  1.00  0.00    -0.237 OA
ATOM     80  O   UNL A   1      43.083  18.785  24.766  1.00  0.00    -0.744 OA
ENDBRANCH  76  77
ENDBRANCH  55  69
BRANCH  56  81
ATOM     81  C   UNL A   1      45.685  32.586  30.233  1.00  0.00     0.058 A 
ATOM     82  C   UNL A   1      45.975  33.607  29.316  1.00  0.00     0.135 A 
ATOM     83  C   UNL A   1      45.684  32.913  31.597  1.00  0.00     0.135 A 
ATOM     84  F   UNL A   1      45.992  33.342  28.000  1.00  0.00    -0.206 F 
ATOM     85  C   UNL A   1      46.271  34.900  29.733  1.00  0.00     0.059 A 
ATOM     86  C   UNL A   1      45.951  34.206  32.039  1.00  0.00     0.059 A 
ATOM     87  F   UNL A   1      45.394  31.977  32.513  1.00  0.00    -0.206 F 
ATOM     88  C   UNL A   1      46.254  35.190  31.099  1.00  0.00     0.060 A 
BRANCH  88  89
ATOM     89  S   UNL A   1      46.586  36.885  31.629  1.00  0.00     0.124 S 
ATOM     90  O   UNL A   1      47.644  36.683  32.611  1.00  0.00    -0.237 OA
ATOM     91  O   UNL A   1      46.986  37.525  30.380  1.00  0.00    -0.237 OA
ATOM     92  O   UNL A   1      45.301  37.325  32.165  1.00  0.00    -0.744 OA
ENDBRANCH  88  89
ENDBRANCH  56  81
BRANCH  68  93
ATOM     93  C   UNL A   1      49.581  27.057  28.564  1.00  0.00     0.058 A 
ATOM     94  C   UNL A   1      50.278  26.540  29.668  1.00  0.00     0.135 A 
ATOM     95  C   UNL A   1      50.317  27.364  27.409  1.00  0.00     0.135 A 
ATOM     96  F   UNL A   1      49.623  26.234  30.798  1.00  0.00    -0.206 F 
ATOM     97  C   UNL A   1      51.660  26.376  29.642  1.00  0.00     0.059 A 
ATOM     98  C   UNL A   1      51.695  27.182  27.351  1.00  0.00     0.059 A 
ATOM     99  F   UNL A   1      49.698  27.849  26.321  1.00  0.00    -0.206 F 
ATOM    100  C   UNL A   1      52.361  26.707  28.481  1.00  0.00     0.060 A 
BRANCH 100 101
ATOM    101  S   UNL A   1      54.154  26.495  28.460  1.00  0.00     0.124 S 
ATOM    102  O   UNL A   1      54.602  27.836  28.103  1.00  0.00    -0.237 OA
ATOM    103  O   UNL A   1      54.437  26.076  29.830  1.00  0.00    -0.237 OA
ATOM    104  O   UNL A   1      54.361  25.470  27.442  1.00  0.00    -0.744 OA
ENDBRANCH 100 101
ENDBRANCH  68  93
ENDBRANCH  42  43
ENDBRANCH  34  37
ENDBRANCH  32  33
ENDBRANCH   1  32
TORSDOF 16
ENDMDL
