MODEL 1
REMARK VINA RESULT:     -12.5      0.000      0.000
REMARK SMILES O=C(NCCCNC(=O)c1coc(-c2csc(-c3ccc(Cl)cn3)n2)c1)c1ccc(-c2c3nc(c(-c4c(F)cc(S(=O)(=O)[O-])cc4F)c4ccc([nH]4)c(-c4c(F)cc(S(=O)(=O)[O-])cc4F)c4nc(c(-c5c(F)cc(S(=O)(=O)[O-])cc5F)c5ccc2[nH]5)C=C4)C=C3)cc1
REMARK SMILES IDX 4 1 3 2 1 3 2 4 27 6 28 7 92 8 29 9 91 10 30 11 31 12 32 13
REMARK SMILES IDX 85 14 33 15 90 16 84 17 86 18 34 19 89 20 83 21 82 22 35 24
REMARK SMILES IDX 69 25 48 26 68 27 49 28 52 29 67 30 87 31 50 32 51 33 66 35
REMARK SMILES IDX 88 36 53 37 36 38 37 39 46 40 38 41 39 42 45 43 47 44 40 45
REMARK SMILES IDX 41 46 42 47 43 48 44 49 70 50 71 51 80 52 72 53 73 54 79 55
REMARK SMILES IDX 81 56 74 57 75 58 76 59 77 60 78 61 54 62 55 63 64 64 56 65
REMARK SMILES IDX 57 66 63 67 65 68 58 69 59 70 60 71 61 72 62 73 5 74 6 75
REMARK SMILES IDX 7 76 8 77 9 79 10 80 11 81 26 82 12 83 13 84 14 85 15 86
REMARK SMILES IDX 25 87 16 88 17 89 18 90 19 91 24 92 20 93 23 94 21 95 22 96
REMARK H PARENT 3 5 86 23 52 34 7 78
REMARK Flexibility Score: inf
ROOT
ATOM      1  C   UNL A   1      41.235  23.039  27.407  1.00  0.00     0.118 C 
ENDROOT
BRANCH   1   2
ATOM      2  N   UNL A   1      41.526  23.869  26.251  1.00  0.00    -0.352 N 
ATOM      3  O   UNL A   1      41.678  25.723  25.001  1.00  0.00    -0.269 OA
ATOM      4  C   UNL A   1      41.518  25.235  26.118  1.00  0.00     0.251 C 
ATOM      5  H   UNL A   1      41.767  23.374  25.433  1.00  0.00     0.163 HD
BRANCH   4   6
ATOM      6  C   UNL A   1      41.297  26.125  27.283  1.00  0.00     0.039 A 
ATOM      7  C   UNL A   1      42.132  27.211  27.554  1.00  0.00     0.014 A 
ATOM      8  C   UNL A   1      40.168  25.901  28.082  1.00  0.00     0.014 A 
ATOM      9  C   UNL A   1      41.884  28.022  28.665  1.00  0.00     0.010 A 
ATOM     10  C   UNL A   1      39.904  26.727  29.178  1.00  0.00     0.010 A 
ATOM     11  C   UNL A   1      40.774  27.782  29.489  1.00  0.00    -0.014 A 
BRANCH  11  12
ATOM     12  C   UNL A   1      40.529  28.652  30.663  1.00  0.00     0.031 A 
ATOM     13  C   UNL A   1      41.411  28.564  31.874  1.00  0.00     0.074 A 
ATOM     14  C   UNL A   1      39.527  29.548  30.627  1.00  0.00     0.049 A 
ATOM     15  N   UNL A   1      41.411  29.312  32.948  1.00  0.00    -0.248 NA
ATOM     16  C   UNL A   1      42.420  27.494  31.882  1.00  0.00     0.031 C 
ATOM     17  C   UNL A   1      38.579  29.712  29.525  1.00  0.00     0.029 A 
ATOM     18  N   UNL A   1      39.153  30.503  31.537  1.00  0.00    -0.354 N 
ATOM     19  C   UNL A   1      42.408  28.799  33.767  1.00  0.00     0.074 A 
ATOM     20  C   UNL A   1      42.989  27.671  33.067  1.00  0.00     0.031 C 
ATOM     21  C   UNL A   1      37.757  30.736  29.805  1.00  0.00     0.029 A 
ATOM     22  C   UNL A   1      38.121  31.298  31.104  1.00  0.00     0.049 A 
ATOM     23  H   UNL A   1      39.584  30.610  32.417  1.00  0.00     0.167 HD
ATOM     24  C   UNL A   1      42.807  29.228  34.989  1.00  0.00     0.037 A 
ATOM     25  C   UNL A   1      37.551  32.375  31.675  1.00  0.00     0.037 A 
ATOM     26  C   UNL A   1      42.254  30.359  35.683  1.00  0.00     0.049 A 
ATOM     27  C   UNL A   1      38.052  32.874  32.997  1.00  0.00     0.074 A 
ATOM     28  C   UNL A   1      42.615  30.881  36.914  1.00  0.00     0.029 A 
ATOM     29  N   UNL A   1      41.222  31.150  35.202  1.00  0.00    -0.354 N 
ATOM     30  N   UNL A   1      39.018  32.398  33.743  1.00  0.00    -0.248 NA
ATOM     31  C   UNL A   1      37.389  34.063  33.550  1.00  0.00     0.031 C 
ATOM     32  C   UNL A   1      41.799  31.991  37.175  1.00  0.00     0.029 A 
ATOM     33  C   UNL A   1      40.934  32.157  36.107  1.00  0.00     0.049 A 
ATOM     34  H   UNL A   1      40.762  31.015  34.342  1.00  0.00     0.167 HD
ATOM     35  C   UNL A   1      39.085  33.232  34.852  1.00  0.00     0.074 A 
ATOM     36  C   UNL A   1      38.063  34.244  34.679  1.00  0.00     0.031 C 
ATOM     37  C   UNL A   1      39.919  33.161  35.916  1.00  0.00     0.037 A 
BRANCH  24  38
ATOM     38  C   UNL A   1      43.908  28.451  35.641  1.00  0.00     0.058 A 
ATOM     39  C   UNL A   1      45.254  28.732  35.363  1.00  0.00     0.135 A 
ATOM     40  C   UNL A   1      43.618  27.393  36.514  1.00  0.00     0.135 A 
ATOM     41  F   UNL A   1      45.577  29.724  34.518  1.00  0.00    -0.206 F 
ATOM     42  C   UNL A   1      46.281  27.970  35.911  1.00  0.00     0.059 A 
ATOM     43  C   UNL A   1      44.628  26.621  37.077  1.00  0.00     0.059 A 
ATOM     44  F   UNL A   1      42.344  27.081  36.797  1.00  0.00    -0.206 F 
ATOM     45  C   UNL A   1      45.956  26.904  36.752  1.00  0.00     0.060 A 
BRANCH  45  46
ATOM     46  S   UNL A   1      47.273  25.869  37.424  1.00  0.00     0.124 S 
ATOM     47  O   UNL A   1      46.850  24.543  36.982  1.00  0.00    -0.237 OA
ATOM     48  O   UNL A   1      48.470  26.397  36.776  1.00  0.00    -0.237 OA
ATOM     49  O   UNL A   1      47.184  26.115  38.860  1.00  0.00    -0.744 OA
ENDBRANCH  45  46
ENDBRANCH  24  38
BRANCH  25  50
ATOM     50  C   UNL A   1      36.473  33.086  30.952  1.00  0.00     0.058 A 
ATOM     51  C   UNL A   1      35.145  32.997  31.393  1.00  0.00     0.135 A 
ATOM     52  C   UNL A   1      36.755  33.907  29.855  1.00  0.00     0.135 A 
ATOM     53  F   UNL A   1      34.837  32.223  32.444  1.00  0.00    -0.206 F 
ATOM     54  C   UNL A   1      34.127  33.713  30.774  1.00  0.00     0.059 A 
ATOM     55  C   UNL A   1      35.755  34.635  29.221  1.00  0.00     0.059 A 
ATOM     56  F   UNL A   1      38.015  34.023  29.408  1.00  0.00    -0.206 F 
ATOM     57  C   UNL A   1      34.443  34.531  29.689  1.00  0.00     0.060 A 
BRANCH  57  58
ATOM     58  S   UNL A   1      33.152  35.540  28.926  1.00  0.00     0.124 S 
ATOM     59  O   UNL A   1      33.943  36.511  28.180  1.00  0.00    -0.237 OA
ATOM     60  O   UNL A   1      32.412  34.570  28.124  1.00  0.00    -0.237 OA
ATOM     61  O   UNL A   1      32.430  36.061  30.084  1.00  0.00    -0.744 OA
ENDBRANCH  57  58
ENDBRANCH  25  50
BRANCH  37  62
ATOM     62  C   UNL A   1      39.760  34.214  36.970  1.00  0.00     0.058 A 
ATOM     63  C   UNL A   1      40.310  35.493  36.802  1.00  0.00     0.135 A 
ATOM     64  C   UNL A   1      39.042  33.949  38.145  1.00  0.00     0.135 A 
ATOM     65  F   UNL A   1      41.008  35.786  35.694  1.00  0.00    -0.206 F 
ATOM     66  C   UNL A   1      40.164  36.478  37.773  1.00  0.00     0.059 A 
ATOM     67  C   UNL A   1      38.882  34.921  39.128  1.00  0.00     0.059 A 
ATOM     68  F   UNL A   1      38.501  32.739  38.350  1.00  0.00    -0.206 F 
ATOM     69  C   UNL A   1      39.455  36.179  38.938  1.00  0.00     0.060 A 
BRANCH  69  70
ATOM     70  S   UNL A   1      39.242  37.452  40.203  1.00  0.00     0.124 S 
ATOM     71  O   UNL A   1      38.762  36.663  41.332  1.00  0.00    -0.237 OA
ATOM     72  O   UNL A   1      40.586  38.004  40.344  1.00  0.00    -0.237 OA
ATOM     73  O   UNL A   1      38.265  38.352  39.598  1.00  0.00    -0.744 OA
ENDBRANCH  69  70
ENDBRANCH  37  62
ENDBRANCH  11  12
ENDBRANCH   4   6
ENDBRANCH   1   2
BRANCH   1  74
ATOM     74  C   UNL A   1      40.356  21.832  27.070  1.00  0.00     0.042 C 
BRANCH  74  75
ATOM     75  C   UNL A   1      39.192  22.128  26.121  1.00  0.00     0.118 C 
BRANCH  75  76
ATOM     76  N   UNL A   1      38.615  20.923  25.556  1.00  0.00    -0.352 N 
ATOM     77  C   UNL A   1      37.381  20.730  24.989  1.00  0.00     0.254 C 
ATOM     78  H   UNL A   1      39.193  20.127  25.583  1.00  0.00     0.163 HD
ATOM     79  O   UNL A   1      36.983  19.583  24.811  1.00  0.00    -0.269 OA
BRANCH  77  80
ATOM     80  C   UNL A   1      36.579  21.876  24.625  1.00  0.00     0.078 A 
ATOM     81  C   UNL A   1      36.670  22.607  23.459  1.00  0.00     0.209 A 
ATOM     82  C   UNL A   1      35.453  22.410  25.314  1.00  0.00     0.066 A 
ATOM     83  O   UNL A   1      35.695  23.550  23.398  1.00  0.00    -0.462 OA
ATOM     84  C   UNL A   1      34.946  23.431  24.536  1.00  0.00     0.153 A 
BRANCH  84  85
ATOM     85  C   UNL A   1      33.751  24.257  24.861  1.00  0.00     0.117 A 
ATOM     86  C   UNL A   1      32.483  23.724  24.946  1.00  0.00     0.099 A 
ATOM     87  N   UNL A   1      33.845  25.614  25.108  1.00  0.00    -0.231 NA
ATOM     88  S   UNL A   1      31.374  24.946  25.406  1.00  0.00    -0.120 S 
ATOM     89  C   UNL A   1      32.656  26.101  25.418  1.00  0.00     0.142 A 
BRANCH  89  90
ATOM     90  C   UNL A   1      32.381  27.515  25.703  1.00  0.00     0.099 A 
ATOM     91  C   UNL A   1      32.765  28.078  26.920  1.00  0.00     0.033 A 
ATOM     92  N   UNL A   1      31.723  28.221  24.744  1.00  0.00    -0.252 NA
ATOM     93  C   UNL A   1      32.477  29.422  27.166  1.00  0.00     0.024 A 
ATOM     94  C   UNL A   1      31.443  29.519  25.021  1.00  0.00     0.132 A 
ATOM     95  C   UNL A   1      31.800  30.155  26.200  1.00  0.00     0.059 A 
ATOM     96  Cl  UNL A   1      31.411  31.804  26.461  1.00  0.00    -0.083 Cl
ENDBRANCH  89  90
ENDBRANCH  84  85
ENDBRANCH  77  80
ENDBRANCH  75  76
ENDBRANCH  74  75
ENDBRANCH   1  74
TORSDOF 15
ENDMDL
MODEL 2
REMARK VINA RESULT:     -12.3      1.579      2.620
REMARK SMILES O=C(NCCCNC(=O)c1coc(-c2csc(-c3ccc(Cl)cn3)n2)c1)c1ccc(-c2c3nc(c(-c4c(F)cc(S(=O)(=O)[O-])cc4F)c4ccc([nH]4)c(-c4c(F)cc(S(=O)(=O)[O-])cc4F)c4nc(c(-c5c(F)cc(S(=O)(=O)[O-])cc5F)c5ccc2[nH]5)C=C4)C=C3)cc1
REMARK SMILES IDX 4 1 3 2 1 3 2 4 27 6 28 7 92 8 29 9 91 10 30 11 31 12 32 13
REMARK SMILES IDX 85 14 33 15 90 16 84 17 86 18 34 19 89 20 83 21 82 22 35 24
REMARK SMILES IDX 69 25 48 26 68 27 49 28 52 29 67 30 87 31 50 32 51 33 66 35
REMARK SMILES IDX 88 36 53 37 36 38 37 39 46 40 38 41 39 42 45 43 47 44 40 45
REMARK SMILES IDX 41 46 42 47 43 48 44 49 70 50 71 51 80 52 72 53 73 54 79 55
REMARK SMILES IDX 81 56 74 57 75 58 76 59 77 60 78 61 54 62 55 63 64 64 56 65
REMARK SMILES IDX 57 66 63 67 65 68 58 69 59 70 60 71 61 72 62 73 5 74 6 75
REMARK SMILES IDX 7 76 8 77 9 79 10 80 11 81 26 82 12 83 13 84 14 85 15 86
REMARK SMILES IDX 25 87 16 88 17 89 18 90 19 91 24 92 20 93 23 94 21 95 22 96
REMARK H PARENT 3 5 86 23 52 34 7 78
REMARK Flexibility Score: inf
ROOT
ATOM      1  C   UNL A   1      44.019  24.437  26.915  1.00  0.00     0.118 C 
ENDROOT
BRANCH   1   2
ATOM      2  N   UNL A   1      43.026  24.741  25.898  1.00  0.00    -0.352 N 
ATOM      3  O   UNL A   1      41.154  25.580  24.997  1.00  0.00    -0.269 OA
ATOM      4  C   UNL A   1      41.935  25.571  25.948  1.00  0.00     0.251 C 
ATOM      5  H   UNL A   1      43.157  24.278  25.038  1.00  0.00     0.163 HD
BRANCH   4   6
ATOM      6  C   UNL A   1      41.669  26.431  27.125  1.00  0.00     0.039 A 
ATOM      7  C   UNL A   1      42.269  27.683  27.278  1.00  0.00     0.014 A 
ATOM      8  C   UNL A   1      40.727  25.993  28.065  1.00  0.00     0.014 A 
ATOM      9  C   UNL A   1      41.988  28.459  28.406  1.00  0.00     0.010 A 
ATOM     10  C   UNL A   1      40.425  26.780  29.180  1.00  0.00     0.010 A 
ATOM     11  C   UNL A   1      41.070  28.010  29.369  1.00  0.00    -0.014 A 
BRANCH  11  12
ATOM     12  C   UNL A   1      40.787  28.846  30.559  1.00  0.00     0.031 A 
ATOM     13  C   UNL A   1      41.664  28.766  31.774  1.00  0.00     0.074 A 
ATOM     14  C   UNL A   1      39.752  29.704  30.535  1.00  0.00     0.049 A 
ATOM     15  N   UNL A   1      41.630  29.491  32.863  1.00  0.00    -0.248 NA
ATOM     16  C   UNL A   1      42.713  27.735  31.766  1.00  0.00     0.031 C 
ATOM     17  C   UNL A   1      38.805  29.855  29.430  1.00  0.00     0.029 A 
ATOM     18  N   UNL A   1      39.338  30.626  31.462  1.00  0.00    -0.354 N 
ATOM     19  C   UNL A   1      42.641  28.999  33.677  1.00  0.00     0.074 A 
ATOM     20  C   UNL A   1      43.268  27.908  32.958  1.00  0.00     0.031 C 
ATOM     21  C   UNL A   1      37.943  30.842  29.726  1.00  0.00     0.029 A 
ATOM     22  C   UNL A   1      38.279  31.390  31.038  1.00  0.00     0.049 A 
ATOM     23  H   UNL A   1      39.759  30.731  32.346  1.00  0.00     0.167 HD
ATOM     24  C   UNL A   1      43.018  29.418  34.910  1.00  0.00     0.037 A 
ATOM     25  C   UNL A   1      37.666  32.434  31.628  1.00  0.00     0.037 A 
ATOM     26  C   UNL A   1      42.419  30.513  35.623  1.00  0.00     0.049 A 
ATOM     27  C   UNL A   1      38.140  32.924  32.963  1.00  0.00     0.074 A 
ATOM     28  C   UNL A   1      42.753  31.022  36.867  1.00  0.00     0.029 A 
ATOM     29  N   UNL A   1      41.360  31.274  35.152  1.00  0.00    -0.354 N 
ATOM     30  N   UNL A   1      39.120  32.468  33.705  1.00  0.00    -0.248 NA
ATOM     31  C   UNL A   1      37.430  34.076  33.535  1.00  0.00     0.031 C 
ATOM     32  C   UNL A   1      41.895  32.095  37.146  1.00  0.00     0.029 A 
ATOM     33  C   UNL A   1      41.030  32.251  36.076  1.00  0.00     0.049 A 
ATOM     34  H   UNL A   1      40.910  31.140  34.287  1.00  0.00     0.167 HD
ATOM     35  C   UNL A   1      39.149  33.282  34.831  1.00  0.00     0.074 A 
ATOM     36  C   UNL A   1      38.091  34.259  34.672  1.00  0.00     0.031 C 
ATOM     37  C   UNL A   1      39.980  33.220  35.899  1.00  0.00     0.037 A 
BRANCH  24  38
ATOM     38  C   UNL A   1      44.143  28.669  35.553  1.00  0.00     0.058 A 
ATOM     39  C   UNL A   1      45.479  29.013  35.299  1.00  0.00     0.135 A 
ATOM     40  C   UNL A   1      43.888  27.575  36.393  1.00  0.00     0.135 A 
ATOM     41  F   UNL A   1      45.769  30.041  34.486  1.00  0.00    -0.206 F 
ATOM     42  C   UNL A   1      46.531  28.279  35.838  1.00  0.00     0.059 A 
ATOM     43  C   UNL A   1      44.924  26.830  36.945  1.00  0.00     0.059 A 
ATOM     44  F   UNL A   1      42.625  27.202  36.652  1.00  0.00    -0.206 F 
ATOM     45  C   UNL A   1      46.242  27.177  36.644  1.00  0.00     0.060 A 
BRANCH  45  46
ATOM     46  S   UNL A   1      47.594  26.179  37.303  1.00  0.00     0.124 S 
ATOM     47  O   UNL A   1      47.087  25.850  38.632  1.00  0.00    -0.237 OA
ATOM     48  O   UNL A   1      47.670  25.064  36.363  1.00  0.00    -0.237 OA
ATOM     49  O   UNL A   1      48.728  27.098  37.269  1.00  0.00    -0.744 OA
ENDBRANCH  45  46
ENDBRANCH  24  38
BRANCH  25  50
ATOM     50  C   UNL A   1      36.566  33.119  30.913  1.00  0.00     0.058 A 
ATOM     51  C   UNL A   1      35.238  32.960  31.334  1.00  0.00     0.135 A 
ATOM     52  C   UNL A   1      36.825  33.984  29.843  1.00  0.00     0.135 A 
ATOM     53  F   UNL A   1      34.953  32.142  32.358  1.00  0.00    -0.206 F 
ATOM     54  C   UNL A   1      34.198  33.649  30.724  1.00  0.00     0.059 A 
ATOM     55  C   UNL A   1      35.801  34.687  29.219  1.00  0.00     0.059 A 
ATOM     56  F   UNL A   1      38.083  34.167  29.416  1.00  0.00    -0.206 F 
ATOM     57  C   UNL A   1      34.489  34.512  29.667  1.00  0.00     0.060 A 
BRANCH  57  58
ATOM     58  S   UNL A   1      33.164  35.487  28.918  1.00  0.00     0.124 S 
ATOM     59  O   UNL A   1      32.457  35.972  30.097  1.00  0.00    -0.237 OA
ATOM     60  O   UNL A   1      33.894  36.494  28.154  1.00  0.00    -0.237 OA
ATOM     61  O   UNL A   1      32.456  34.496  28.113  1.00  0.00    -0.744 OA
ENDBRANCH  57  58
ENDBRANCH  25  50
BRANCH  37  62
ATOM     62  C   UNL A   1      39.775  34.244  36.973  1.00  0.00     0.058 A 
ATOM     63  C   UNL A   1      39.076  33.929  38.148  1.00  0.00     0.135 A 
ATOM     64  C   UNL A   1      40.291  35.540  36.837  1.00  0.00     0.135 A 
ATOM     65  F   UNL A   1      38.561  32.701  38.317  1.00  0.00    -0.206 F 
ATOM     66  C   UNL A   1      38.884  34.871  39.152  1.00  0.00     0.059 A 
ATOM     67  C   UNL A   1      40.114  36.498  37.830  1.00  0.00     0.059 A 
ATOM     68  F   UNL A   1      40.965  35.887  35.729  1.00  0.00    -0.206 F 
ATOM     69  C   UNL A   1      39.400  36.157  38.980  1.00  0.00     0.060 A 
BRANCH  69  70
ATOM     70  S   UNL A   1      39.173  37.391  40.281  1.00  0.00     0.124 S 
ATOM     71  O   UNL A   1      38.564  36.591  41.338  1.00  0.00    -0.237 OA
ATOM     72  O   UNL A   1      40.535  37.849  40.540  1.00  0.00    -0.237 OA
ATOM     73  O   UNL A   1      38.300  38.374  39.648  1.00  0.00    -0.744 OA
ENDBRANCH  69  70
ENDBRANCH  37  62
ENDBRANCH  11  12
ENDBRANCH   4   6
ENDBRANCH   1   2
BRANCH   1  74
ATOM     74  C   UNL A   1      44.379  22.951  26.974  1.00  0.00     0.042 C 
BRANCH  74  75
ATOM     75  C   UNL A   1      43.713  22.084  25.903  1.00  0.00     0.118 C 
BRANCH  75  76
ATOM     76  N   UNL A   1      43.366  20.763  26.393  1.00  0.00    -0.352 N 
ATOM     77  C   UNL A   1      42.213  20.332  26.997  1.00  0.00     0.254 C 
ATOM     78  H   UNL A   1      44.059  20.075  26.273  1.00  0.00     0.163 HD
ATOM     79  O   UNL A   1      42.213  19.249  27.573  1.00  0.00    -0.269 OA
BRANCH  77  80
ATOM     80  C   UNL A   1      41.031  21.164  26.949  1.00  0.00     0.078 A 
ATOM     81  C   UNL A   1      40.836  22.356  27.614  1.00  0.00     0.209 A 
ATOM     82  C   UNL A   1      39.886  21.008  26.118  1.00  0.00     0.066 A 
ATOM     83  O   UNL A   1      39.655  22.924  27.260  1.00  0.00    -0.462 OA
ATOM     84  C   UNL A   1      39.070  22.099  26.341  1.00  0.00     0.153 A 
BRANCH  84  85
ATOM     85  C   UNL A   1      37.769  22.360  25.665  1.00  0.00     0.117 A 
ATOM     86  C   UNL A   1      37.382  21.698  24.521  1.00  0.00     0.099 A 
ATOM     87  N   UNL A   1      36.864  23.283  26.155  1.00  0.00    -0.231 NA
ATOM     88  S   UNL A   1      35.808  22.199  24.068  1.00  0.00    -0.120 S 
ATOM     89  C   UNL A   1      35.776  23.292  25.404  1.00  0.00     0.142 A 
BRANCH  89  90
ATOM     90  C   UNL A   1      34.623  24.179  25.612  1.00  0.00     0.099 A 
ATOM     91  C   UNL A   1      34.683  25.517  25.223  1.00  0.00     0.033 A 
ATOM     92  N   UNL A   1      33.530  23.638  26.213  1.00  0.00    -0.252 NA
ATOM     93  C   UNL A   1      33.575  26.337  25.444  1.00  0.00     0.024 A 
ATOM     94  C   UNL A   1      32.477  24.465  26.429  1.00  0.00     0.132 A 
ATOM     95  C   UNL A   1      32.452  25.802  26.064  1.00  0.00     0.059 A 
ATOM     96  Cl  UNL A   1      31.073  26.773  26.370  1.00  0.00    -0.083 Cl
ENDBRANCH  89  90
ENDBRANCH  84  85
ENDBRANCH  77  80
ENDBRANCH  75  76
ENDBRANCH  74  75
ENDBRANCH   1  74
TORSDOF 15
ENDMDL
MODEL 3
REMARK VINA RESULT:     -12.2      2.458      3.590
REMARK SMILES O=C(NCCCNC(=O)c1coc(-c2csc(-c3ccc(Cl)cn3)n2)c1)c1ccc(-c2c3nc(c(-c4c(F)cc(S(=O)(=O)[O-])cc4F)c4ccc([nH]4)c(-c4c(F)cc(S(=O)(=O)[O-])cc4F)c4nc(c(-c5c(F)cc(S(=O)(=O)[O-])cc5F)c5ccc2[nH]5)C=C4)C=C3)cc1
REMARK SMILES IDX 4 1 3 2 1 3 2 4 27 6 28 7 92 8 29 9 91 10 30 11 31 12 32 13
REMARK SMILES IDX 85 14 33 15 90 16 84 17 86 18 34 19 89 20 83 21 82 22 35 24
REMARK SMILES IDX 69 25 48 26 68 27 49 28 52 29 67 30 87 31 50 32 51 33 66 35
REMARK SMILES IDX 88 36 53 37 36 38 37 39 46 40 38 41 39 42 45 43 47 44 40 45
REMARK SMILES IDX 41 46 42 47 43 48 44 49 70 50 71 51 80 52 72 53 73 54 79 55
REMARK SMILES IDX 81 56 74 57 75 58 76 59 77 60 78 61 54 62 55 63 64 64 56 65
REMARK SMILES IDX 57 66 63 67 65 68 58 69 59 70 60 71 61 72 62 73 5 74 6 75
REMARK SMILES IDX 7 76 8 77 9 79 10 80 11 81 26 82 12 83 13 84 14 85 15 86
REMARK SMILES IDX 25 87 16 88 17 89 18 90 19 91 24 92 20 93 23 94 21 95 22 96
REMARK H PARENT 3 5 86 23 52 34 7 78
REMARK Flexibility Score: inf
ROOT
ATOM      1  C   UNL A   1      43.703  23.705  27.332  1.00  0.00     0.118 C 
ENDROOT
BRANCH   1   2
ATOM      2  N   UNL A   1      43.041  24.276  26.171  1.00  0.00    -0.352 N 
ATOM      3  O   UNL A   1      41.653  25.587  24.998  1.00  0.00    -0.269 OA
ATOM      4  C   UNL A   1      42.200  25.356  26.075  1.00  0.00     0.251 C 
ATOM      5  H   UNL A   1      43.225  23.816  25.319  1.00  0.00     0.163 HD
BRANCH   4   6
ATOM      6  C   UNL A   1      41.921  26.227  27.241  1.00  0.00     0.039 A 
ATOM      7  C   UNL A   1      42.628  27.411  27.467  1.00  0.00     0.014 A 
ATOM      8  C   UNL A   1      40.864  25.877  28.091  1.00  0.00     0.014 A 
ATOM      9  C   UNL A   1      42.331  28.200  28.581  1.00  0.00     0.010 A 
ATOM     10  C   UNL A   1      40.548  26.679  29.191  1.00  0.00     0.010 A 
ATOM     11  C   UNL A   1      41.294  27.836  29.455  1.00  0.00    -0.014 A 
BRANCH  11  12
ATOM     12  C   UNL A   1      40.995  28.686  30.633  1.00  0.00     0.031 A 
ATOM     13  C   UNL A   1      41.866  28.630  31.854  1.00  0.00     0.074 A 
ATOM     14  C   UNL A   1      39.952  29.533  30.590  1.00  0.00     0.049 A 
ATOM     15  N   UNL A   1      41.817  29.370  32.933  1.00  0.00    -0.248 NA
ATOM     16  C   UNL A   1      42.924  27.609  31.866  1.00  0.00     0.031 C 
ATOM     17  C   UNL A   1      39.011  29.661  29.478  1.00  0.00     0.029 A 
ATOM     18  N   UNL A   1      39.523  30.463  31.503  1.00  0.00    -0.354 N 
ATOM     19  C   UNL A   1      42.828  28.898  33.760  1.00  0.00     0.074 A 
ATOM     20  C   UNL A   1      43.470  27.804  33.059  1.00  0.00     0.031 C 
ATOM     21  C   UNL A   1      38.138  30.643  29.755  1.00  0.00     0.029 A 
ATOM     22  C   UNL A   1      38.460  31.212  31.062  1.00  0.00     0.049 A 
ATOM     23  H   UNL A   1      39.938  30.584  32.388  1.00  0.00     0.167 HD
ATOM     24  C   UNL A   1      43.192  29.336  34.989  1.00  0.00     0.037 A 
ATOM     25  C   UNL A   1      37.833  32.257  31.634  1.00  0.00     0.037 A 
ATOM     26  C   UNL A   1      42.578  30.435  35.684  1.00  0.00     0.049 A 
ATOM     27  C   UNL A   1      38.294  32.769  32.965  1.00  0.00     0.074 A 
ATOM     28  C   UNL A   1      42.900  30.964  36.923  1.00  0.00     0.029 A 
ATOM     29  N   UNL A   1      41.516  31.180  35.196  1.00  0.00    -0.354 N 
ATOM     30  N   UNL A   1      39.273  32.333  33.719  1.00  0.00    -0.248 NA
ATOM     31  C   UNL A   1      37.569  33.922  33.518  1.00  0.00     0.031 C 
ATOM     32  C   UNL A   1      42.030  32.032  37.182  1.00  0.00     0.029 A 
ATOM     33  C   UNL A   1      41.170  32.166  36.105  1.00  0.00     0.049 A 
ATOM     34  H   UNL A   1      41.073  31.029  34.330  1.00  0.00     0.167 HD
ATOM     35  C   UNL A   1      39.287  33.161  34.834  1.00  0.00     0.074 A 
ATOM     36  C   UNL A   1      38.221  34.126  34.656  1.00  0.00     0.031 C 
ATOM     37  C   UNL A   1      40.112  33.122  35.909  1.00  0.00     0.037 A 
BRANCH  24  38
ATOM     38  C   UNL A   1      44.321  28.607  35.649  1.00  0.00     0.058 A 
ATOM     39  C   UNL A   1      44.077  27.548  36.536  1.00  0.00     0.135 A 
ATOM     40  C   UNL A   1      45.651  28.994  35.427  1.00  0.00     0.135 A 
ATOM     41  F   UNL A   1      42.819  27.158  36.791  1.00  0.00    -0.206 F 
ATOM     42  C   UNL A   1      45.117  26.911  37.206  1.00  0.00     0.059 A 
ATOM     43  C   UNL A   1      46.705  28.369  36.083  1.00  0.00     0.059 A 
ATOM     44  F   UNL A   1      45.929  30.011  34.597  1.00  0.00    -0.206 F 
ATOM     45  C   UNL A   1      46.426  27.342  36.987  1.00  0.00     0.060 A 
BRANCH  45  46
ATOM     46  S   UNL A   1      47.781  26.565  37.893  1.00  0.00     0.124 S 
ATOM     47  O   UNL A   1      47.535  27.050  39.247  1.00  0.00    -0.237 OA
ATOM     48  O   UNL A   1      47.544  25.140  37.681  1.00  0.00    -0.237 OA
ATOM     49  O   UNL A   1      48.967  27.102  37.233  1.00  0.00    -0.744 OA
ENDBRANCH  45  46
ENDBRANCH  24  38
BRANCH  25  50
ATOM     50  C   UNL A   1      36.731  32.921  30.903  1.00  0.00     0.058 A 
ATOM     51  C   UNL A   1      35.397  32.689  31.266  1.00  0.00     0.135 A 
ATOM     52  C   UNL A   1      36.991  33.838  29.877  1.00  0.00     0.135 A 
ATOM     53  F   UNL A   1      35.110  31.821  32.247  1.00  0.00    -0.206 F 
ATOM     54  C   UNL A   1      34.350  33.357  30.642  1.00  0.00     0.059 A 
ATOM     55  C   UNL A   1      35.961  34.520  29.240  1.00  0.00     0.059 A 
ATOM     56  F   UNL A   1      38.255  34.091  29.506  1.00  0.00    -0.206 F 
ATOM     57  C   UNL A   1      34.642  34.272  29.630  1.00  0.00     0.060 A 
BRANCH  57  58
ATOM     58  S   UNL A   1      33.304  35.218  28.868  1.00  0.00     0.124 S 
ATOM     59  O   UNL A   1      34.044  36.269  28.180  1.00  0.00    -0.237 OA
ATOM     60  O   UNL A   1      32.655  34.230  28.011  1.00  0.00    -0.237 OA
ATOM     61  O   UNL A   1      32.518  35.644  30.023  1.00  0.00    -0.744 OA
ENDBRANCH  57  58
ENDBRANCH  25  50
BRANCH  37  62
ATOM     62  C   UNL A   1      39.890  34.158  36.968  1.00  0.00     0.058 A 
ATOM     63  C   UNL A   1      40.470  35.431  36.864  1.00  0.00     0.135 A 
ATOM     64  C   UNL A   1      39.084  33.885  38.082  1.00  0.00     0.135 A 
ATOM     65  F   UNL A   1      41.252  35.733  35.816  1.00  0.00    -0.206 F 
ATOM     66  C   UNL A   1      40.267  36.401  37.840  1.00  0.00     0.059 A 
ATOM     67  C   UNL A   1      38.866  34.841  39.069  1.00  0.00     0.059 A 
ATOM     68  F   UNL A   1      38.512  32.680  38.223  1.00  0.00    -0.206 F 
ATOM     69  C   UNL A   1      39.470  36.093  38.944  1.00  0.00     0.060 A 
BRANCH  69  70
ATOM     70  S   UNL A   1      39.183  37.346  40.214  1.00  0.00     0.124 S 
ATOM     71  O   UNL A   1      38.595  36.548  41.284  1.00  0.00    -0.237 OA
ATOM     72  O   UNL A   1      40.524  37.863  40.475  1.00  0.00    -0.237 OA
ATOM     73  O   UNL A   1      38.279  38.280  39.551  1.00  0.00    -0.744 OA
ENDBRANCH  69  70
ENDBRANCH  37  62
ENDBRANCH  11  12
ENDBRANCH   4   6
ENDBRANCH   1   2
BRANCH   1  74
ATOM     74  C   UNL A   1      44.635  22.544  26.978  1.00  0.00     0.042 C 
BRANCH  74  75
ATOM     75  C   UNL A   1      44.599  22.115  25.509  1.00  0.00     0.118 C 
BRANCH  75  76
ATOM     76  N   UNL A   1      44.651  20.673  25.350  1.00  0.00    -0.352 N 
ATOM     77  C   UNL A   1      43.776  19.714  25.793  1.00  0.00     0.254 C 
ATOM     78  H   UNL A   1      45.428  20.334  24.850  1.00  0.00     0.163 HD
ATOM     79  O   UNL A   1      44.129  18.539  25.786  1.00  0.00    -0.269 OA
BRANCH  77  80
ATOM     80  C   UNL A   1      42.467  20.109  26.263  1.00  0.00     0.078 A 
ATOM     81  C   UNL A   1      41.918  19.834  27.498  1.00  0.00     0.209 A 
ATOM     82  C   UNL A   1      41.529  20.965  25.619  1.00  0.00     0.066 A 
ATOM     83  O   UNL A   1      40.715  20.445  27.643  1.00  0.00    -0.462 OA
ATOM     84  C   UNL A   1      40.473  21.141  26.492  1.00  0.00     0.153 A 
BRANCH  84  85
ATOM     85  C   UNL A   1      39.272  21.983  26.238  1.00  0.00     0.117 A 
ATOM     86  C   UNL A   1      39.169  23.282  26.686  1.00  0.00     0.099 A 
ATOM     87  N   UNL A   1      38.185  21.510  25.527  1.00  0.00    -0.231 NA
ATOM     88  S   UNL A   1      37.689  23.960  26.153  1.00  0.00    -0.120 S 
ATOM     89  C   UNL A   1      37.277  22.462  25.402  1.00  0.00     0.142 A 
BRANCH  89  90
ATOM     90  C   UNL A   1      35.978  22.296  24.736  1.00  0.00     0.099 A 
ATOM     91  C   UNL A   1      35.578  23.184  23.737  1.00  0.00     0.033 A 
ATOM     92  N   UNL A   1      35.197  21.265  25.156  1.00  0.00    -0.252 NA
ATOM     93  C   UNL A   1      34.333  23.007  23.132  1.00  0.00     0.024 A 
ATOM     94  C   UNL A   1      33.986  21.131  24.560  1.00  0.00     0.132 A 
ATOM     95  C   UNL A   1      33.519  21.964  23.554  1.00  0.00     0.059 A 
ATOM     96  Cl  UNL A   1      31.975  21.714  22.851  1.00  0.00    -0.083 Cl
ENDBRANCH  89  90
ENDBRANCH  84  85
ENDBRANCH  77  80
ENDBRANCH  75  76
ENDBRANCH  74  75
ENDBRANCH   1  74
TORSDOF 15
ENDMDL
