MODEL 1
REMARK VINA RESULT:     -10.9      0.000      0.000
REMARK SMILES C[C@@H](CCC(=O)Nc1ccccn1)C(=O)NCCCNC(=O)c1ccc(-c2c3nc(c(-c4c(F)cc(S(=O)(=O)[O-])cc4F)c4ccc([nH]4)c(-c4c(F)cc(S(=O)(=O)[O-])cc4F)c4nc(c(-c5c(F)cc(S(=O)(=O)[O-])cc5F)c5ccc2[nH]5)C=C4)C=C3)cc1
REMARK SMILES IDX 17 1 16 2 14 3 15 4 2 6 1 7 3 8 4 9 5 10 6 11 7 12 8 14 9 15
REMARK SMILES IDX 13 16 10 17 12 18 11 19 18 20 19 21 20 22 21 23 22 25 23 26
REMARK SMILES IDX 24 27 88 28 25 29 87 30 26 31 27 32 28 33 81 34 29 35 86 36
REMARK SMILES IDX 80 37 82 38 30 39 85 40 79 41 78 42 31 44 65 45 44 46 64 47
REMARK SMILES IDX 45 48 48 49 63 50 83 51 46 52 47 53 62 55 84 56 49 57 32 58
REMARK SMILES IDX 33 59 42 60 34 61 35 62 41 63 43 64 36 65 37 66 38 67 39 68
REMARK SMILES IDX 40 69 66 70 67 71 76 72 68 73 69 74 75 75 77 76 70 77 71 78
REMARK SMILES IDX 72 79 73 80 74 81 50 82 51 83 60 84 52 85 53 86 59 87 61 88
REMARK SMILES IDX 54 89 55 90 56 91 57 92 58 93
REMARK H PARENT 16 5 7 13 20 24 82 43 48 54
REMARK Flexibility Score: inf
ROOT
ATOM      1  C   UNL A   1      42.350  21.716  27.721  1.00  0.00     0.117 C 
ENDROOT
BRANCH   1   2
ATOM      2  N   UNL A   1      42.908  22.231  28.976  1.00  0.00    -0.356 N 
ATOM      3  C   UNL A   1      43.723  23.219  29.404  1.00  0.00     0.222 C 
ATOM      4  O   UNL A   1      43.813  23.289  30.641  1.00  0.00    -0.275 OA
ATOM      5  H   UNL A   1      42.592  21.694  29.738  1.00  0.00     0.163 HD
BRANCH   3   6
ATOM      6  C   UNL A   1      44.527  24.246  28.578  1.00  0.00     0.076 C 
ATOM      7  C   UNL A   1      45.088  25.394  29.457  1.00  0.00     0.018 C 
BRANCH   6   8
ATOM      8  C   UNL A   1      45.528  23.820  27.510  1.00  0.00     0.023 C 
BRANCH   8   9
ATOM      9  C   UNL A   1      45.258  24.267  26.071  1.00  0.00     0.101 C 
BRANCH   9  10
ATOM     10  C   UNL A   1      46.076  23.616  24.988  1.00  0.00     0.225 C 
ATOM     11  O   UNL A   1      46.724  24.355  24.232  1.00  0.00    -0.275 OA
ATOM     12  N   UNL A   1      46.252  22.286  24.838  1.00  0.00    -0.311 N 
ATOM     13  H   UNL A   1      47.115  22.117  24.396  1.00  0.00     0.171 HD
BRANCH  12  14
ATOM     14  C   UNL A   1      45.620  21.074  25.101  1.00  0.00     0.132 A 
ATOM     15  C   UNL A   1      44.278  20.786  24.974  1.00  0.00     0.047 A 
ATOM     16  N   UNL A   1      46.512  20.093  25.336  1.00  0.00    -0.239 NA
ATOM     17  C   UNL A   1      43.824  19.469  25.119  1.00  0.00     0.005 A 
ATOM     18  C   UNL A   1      46.064  18.825  25.482  1.00  0.00     0.113 A 
ATOM     19  C   UNL A   1      44.736  18.462  25.387  1.00  0.00     0.020 A 
ENDBRANCH  12  14
ENDBRANCH   9  10
ENDBRANCH   8   9
ENDBRANCH   6   8
ENDBRANCH   3   6
ENDBRANCH   1   2
BRANCH   1  20
ATOM     20  C   UNL A   1      40.810  21.741  27.717  1.00  0.00     0.042 C 
BRANCH  20  21
ATOM     21  C   UNL A   1      40.139  22.924  27.015  1.00  0.00     0.118 C 
BRANCH  21  22
ATOM     22  N   UNL A   1      41.006  23.632  26.087  1.00  0.00    -0.352 N 
ATOM     23  C   UNL A   1      41.557  24.892  26.106  1.00  0.00     0.251 C 
ATOM     24  H   UNL A   1      41.244  23.107  25.288  1.00  0.00     0.163 HD
ATOM     25  O   UNL A   1      42.215  25.245  25.126  1.00  0.00    -0.269 OA
BRANCH  23  26
ATOM     26  C   UNL A   1      41.386  25.845  27.237  1.00  0.00     0.039 A 
ATOM     27  C   UNL A   1      42.243  26.955  27.302  1.00  0.00     0.014 A 
ATOM     28  C   UNL A   1      40.474  25.643  28.272  1.00  0.00     0.014 A 
ATOM     29  C   UNL A   1      42.151  27.873  28.358  1.00  0.00     0.010 A 
ATOM     30  C   UNL A   1      40.327  26.601  29.283  1.00  0.00     0.010 A 
ATOM     31  C   UNL A   1      41.165  27.725  29.345  1.00  0.00    -0.014 A 
BRANCH  31  32
ATOM     32  C   UNL A   1      41.007  28.713  30.456  1.00  0.00     0.031 A 
ATOM     33  C   UNL A   1      41.892  28.630  31.677  1.00  0.00     0.074 A 
ATOM     34  C   UNL A   1      40.018  29.630  30.414  1.00  0.00     0.049 A 
ATOM     35  N   UNL A   1      41.808  29.278  32.811  1.00  0.00    -0.248 NA
ATOM     36  C   UNL A   1      42.994  27.655  31.629  1.00  0.00     0.031 C 
ATOM     37  C   UNL A   1      39.059  29.792  29.319  1.00  0.00     0.029 A 
ATOM     38  N   UNL A   1      39.643  30.591  31.322  1.00  0.00    -0.354 N 
ATOM     39  C   UNL A   1      42.807  28.755  33.627  1.00  0.00     0.074 A 
ATOM     40  C   UNL A   1      43.458  27.708  32.869  1.00  0.00     0.031 C 
ATOM     41  C   UNL A   1      38.222  30.803  29.609  1.00  0.00     0.029 A 
ATOM     42  C   UNL A   1      38.556  31.336  30.925  1.00  0.00     0.049 A 
ATOM     43  H   UNL A   1      40.109  30.734  32.178  1.00  0.00     0.167 HD
ATOM     44  C   UNL A   1      43.166  29.125  34.881  1.00  0.00     0.037 A 
ATOM     45  C   UNL A   1      37.895  32.331  31.552  1.00  0.00     0.037 A 
ATOM     46  C   UNL A   1      42.565  30.217  35.601  1.00  0.00     0.049 A 
ATOM     47  C   UNL A   1      38.354  32.772  32.915  1.00  0.00     0.074 A 
ATOM     48  C   UNL A   1      42.905  30.724  36.843  1.00  0.00     0.029 A 
ATOM     49  N   UNL A   1      41.511  30.989  35.131  1.00  0.00    -0.354 N 
ATOM     50  N   UNL A   1      39.322  32.286  33.655  1.00  0.00    -0.248 NA
ATOM     51  C   UNL A   1      37.638  33.900  33.527  1.00  0.00     0.031 C 
ATOM     52  C   UNL A   1      42.044  31.788  37.135  1.00  0.00     0.029 A 
ATOM     53  C   UNL A   1      41.189  31.966  36.059  1.00  0.00     0.049 A 
ATOM     54  H   UNL A   1      41.058  30.861  34.267  1.00  0.00     0.167 HD
ATOM     55  C   UNL A   1      39.347  33.062  34.809  1.00  0.00     0.074 A 
ATOM     56  C   UNL A   1      38.305  34.059  34.663  1.00  0.00     0.031 C 
ATOM     57  C   UNL A   1      40.157  32.959  35.890  1.00  0.00     0.037 A 
BRANCH  44  58
ATOM     58  C   UNL A   1      44.270  28.348  35.550  1.00  0.00     0.058 A 
ATOM     59  C   UNL A   1      44.003  27.231  36.358  1.00  0.00     0.135 A 
ATOM     60  C   UNL A   1      45.616  28.711  35.366  1.00  0.00     0.135 A 
ATOM     61  F   UNL A   1      42.736  26.843  36.576  1.00  0.00    -0.206 F 
ATOM     62  C   UNL A   1      45.022  26.531  36.995  1.00  0.00     0.059 A 
ATOM     63  C   UNL A   1      46.654  28.006  35.971  1.00  0.00     0.059 A 
ATOM     64  F   UNL A   1      45.933  29.765  34.599  1.00  0.00    -0.206 F 
ATOM     65  C   UNL A   1      46.345  26.929  36.801  1.00  0.00     0.060 A 
BRANCH  65  66
ATOM     66  S   UNL A   1      47.655  26.019  37.647  1.00  0.00     0.124 S 
ATOM     67  O   UNL A   1      47.057  25.806  38.962  1.00  0.00    -0.237 OA
ATOM     68  O   UNL A   1      47.798  24.828  36.816  1.00  0.00    -0.237 OA
ATOM     69  O   UNL A   1      48.786  26.942  37.614  1.00  0.00    -0.744 OA
ENDBRANCH  65  66
ENDBRANCH  44  58
BRANCH  45  70
ATOM     70  C   UNL A   1      36.749  33.003  30.879  1.00  0.00     0.058 A 
ATOM     71  C   UNL A   1      35.433  32.783  31.316  1.00  0.00     0.135 A 
ATOM     72  C   UNL A   1      36.941  33.888  29.807  1.00  0.00     0.135 A 
ATOM     73  F   UNL A   1      35.196  31.939  32.331  1.00  0.00    -0.206 F 
ATOM     74  C   UNL A   1      34.348  33.406  30.707  1.00  0.00     0.059 A 
ATOM     75  C   UNL A   1      35.874  34.541  29.197  1.00  0.00     0.059 A 
ATOM     76  F   UNL A   1      38.181  34.144  29.361  1.00  0.00    -0.206 F 
ATOM     77  C   UNL A   1      34.579  34.287  29.648  1.00  0.00     0.060 A 
BRANCH  77  78
ATOM     78  S   UNL A   1      33.168  35.130  28.901  1.00  0.00     0.124 S 
ATOM     79  O   UNL A   1      32.677  34.118  27.974  1.00  0.00    -0.237 OA
ATOM     80  O   UNL A   1      32.321  35.402  30.058  1.00  0.00    -0.237 OA
ATOM     81  O   UNL A   1      33.771  36.311  28.286  1.00  0.00    -0.744 OA
ENDBRANCH  77  78
ENDBRANCH  45  70
BRANCH  57  82
ATOM     82  C   UNL A   1      39.976  33.969  36.987  1.00  0.00     0.058 A 
ATOM     83  C   UNL A   1      40.623  35.214  36.956  1.00  0.00     0.135 A 
ATOM     84  C   UNL A   1      39.101  33.708  38.055  1.00  0.00     0.135 A 
ATOM     85  F   UNL A   1      41.473  35.508  35.960  1.00  0.00    -0.206 F 
ATOM     86  C   UNL A   1      40.422  36.160  37.955  1.00  0.00     0.059 A 
ATOM     87  C   UNL A   1      38.868  34.649  39.053  1.00  0.00     0.059 A 
ATOM     88  F   UNL A   1      38.451  32.536  38.125  1.00  0.00    -0.206 F 
ATOM     89  C   UNL A   1      39.541  35.869  38.999  1.00  0.00     0.060 A 
BRANCH  89  90
ATOM     90  S   UNL A   1      39.259  37.120  40.269  1.00  0.00     0.124 S 
ATOM     91  O   UNL A   1      38.495  38.121  39.531  1.00  0.00    -0.237 OA
ATOM     92  O   UNL A   1      38.517  36.377  41.283  1.00  0.00    -0.237 OA
ATOM     93  O   UNL A   1      40.608  37.520  40.658  1.00  0.00    -0.744 OA
ENDBRANCH  89  90
ENDBRANCH  57  82
ENDBRANCH  31  32
ENDBRANCH  23  26
ENDBRANCH  21  22
ENDBRANCH  20  21
ENDBRANCH   1  20
TORSDOF 17
ENDMDL
MODEL 2
REMARK VINA RESULT:     -10.8      7.041     13.763
REMARK SMILES C[C@@H](CCC(=O)Nc1ccccn1)C(=O)NCCCNC(=O)c1ccc(-c2c3nc(c(-c4c(F)cc(S(=O)(=O)[O-])cc4F)c4ccc([nH]4)c(-c4c(F)cc(S(=O)(=O)[O-])cc4F)c4nc(c(-c5c(F)cc(S(=O)(=O)[O-])cc5F)c5ccc2[nH]5)C=C4)C=C3)cc1
REMARK SMILES IDX 17 1 16 2 14 3 15 4 2 6 1 7 3 8 4 9 5 10 6 11 7 12 8 14 9 15
REMARK SMILES IDX 13 16 10 17 12 18 11 19 18 20 19 21 20 22 21 23 22 25 23 26
REMARK SMILES IDX 24 27 88 28 25 29 87 30 26 31 27 32 28 33 81 34 29 35 86 36
REMARK SMILES IDX 80 37 82 38 30 39 85 40 79 41 78 42 31 44 65 45 44 46 64 47
REMARK SMILES IDX 45 48 48 49 63 50 83 51 46 52 47 53 62 55 84 56 49 57 32 58
REMARK SMILES IDX 33 59 42 60 34 61 35 62 41 63 43 64 36 65 37 66 38 67 39 68
REMARK SMILES IDX 40 69 66 70 67 71 76 72 68 73 69 74 75 75 77 76 70 77 71 78
REMARK SMILES IDX 72 79 73 80 74 81 50 82 51 83 60 84 52 85 53 86 59 87 61 88
REMARK SMILES IDX 54 89 55 90 56 91 57 92 58 93
REMARK H PARENT 16 5 7 13 20 24 82 43 48 54
REMARK Flexibility Score: inf
ROOT
ATOM      1  C   UNL A   1      33.583  29.965  26.769  1.00  0.00     0.117 C 
ENDROOT
BRANCH   1   2
ATOM      2  N   UNL A   1      32.459  29.233  27.363  1.00  0.00    -0.356 N 
ATOM      3  C   UNL A   1      31.842  28.037  27.249  1.00  0.00     0.222 C 
ATOM      4  O   UNL A   1      30.944  27.859  28.088  1.00  0.00    -0.275 OA
ATOM      5  H   UNL A   1      32.020  29.780  28.054  1.00  0.00     0.163 HD
BRANCH   3   6
ATOM      6  C   UNL A   1      32.109  26.895  26.246  1.00  0.00     0.076 C 
ATOM      7  C   UNL A   1      30.883  25.959  26.084  1.00  0.00     0.018 C 
BRANCH   6   8
ATOM      8  C   UNL A   1      32.807  27.136  24.911  1.00  0.00     0.023 C 
BRANCH   8   9
ATOM      9  C   UNL A   1      31.922  27.426  23.695  1.00  0.00     0.101 C 
BRANCH   9  10
ATOM     10  C   UNL A   1      32.261  28.645  22.879  1.00  0.00     0.225 C 
ATOM     11  O   UNL A   1      33.456  28.849  22.617  1.00  0.00    -0.275 OA
ATOM     12  N   UNL A   1      31.362  29.478  22.313  1.00  0.00    -0.311 N 
ATOM     13  H   UNL A   1      31.759  29.896  21.515  1.00  0.00     0.171 HD
BRANCH  12  14
ATOM     14  C   UNL A   1      30.061  29.942  22.482  1.00  0.00     0.132 A 
ATOM     15  C   UNL A   1      29.516  30.511  23.613  1.00  0.00     0.047 A 
ATOM     16  N   UNL A   1      29.386  29.952  21.317  1.00  0.00    -0.239 NA
ATOM     17  C   UNL A   1      28.237  31.079  23.569  1.00  0.00     0.005 A 
ATOM     18  C   UNL A   1      28.148  30.498  21.284  1.00  0.00     0.113 A 
ATOM     19  C   UNL A   1      27.530  31.068  22.379  1.00  0.00     0.020 A 
ENDBRANCH  12  14
ENDBRANCH   9  10
ENDBRANCH   8   9
ENDBRANCH   6   8
ENDBRANCH   3   6
ENDBRANCH   1   2
BRANCH   1  20
ATOM     20  C   UNL A   1      34.842  29.912  27.654  1.00  0.00     0.042 C 
BRANCH  20  21
ATOM     21  C   UNL A   1      35.316  31.234  28.264  1.00  0.00     0.118 C 
BRANCH  21  22
ATOM     22  N   UNL A   1      35.333  31.243  29.718  1.00  0.00    -0.352 N 
ATOM     23  C   UNL A   1      36.289  30.884  30.639  1.00  0.00     0.251 C 
ATOM     24  H   UNL A   1      34.495  31.568  30.122  1.00  0.00     0.163 HD
ATOM     25  O   UNL A   1      35.987  30.943  31.832  1.00  0.00    -0.269 OA
BRANCH  23  26
ATOM     26  C   UNL A   1      37.653  30.420  30.266  1.00  0.00     0.039 A 
ATOM     27  C   UNL A   1      38.085  30.628  28.947  1.00  0.00     0.014 A 
ATOM     28  C   UNL A   1      38.484  29.718  31.139  1.00  0.00     0.014 A 
ATOM     29  C   UNL A   1      39.348  30.188  28.526  1.00  0.00     0.010 A 
ATOM     30  C   UNL A   1      39.777  29.350  30.743  1.00  0.00     0.010 A 
ATOM     31  C   UNL A   1      40.225  29.573  29.431  1.00  0.00    -0.014 A 
BRANCH  31  32
ATOM     32  C   UNL A   1      41.597  29.137  29.029  1.00  0.00     0.031 A 
ATOM     33  C   UNL A   1      42.730  30.136  28.989  1.00  0.00     0.074 A 
ATOM     34  C   UNL A   1      41.815  27.871  28.619  1.00  0.00     0.049 A 
ATOM     35  N   UNL A   1      43.942  30.001  28.515  1.00  0.00    -0.248 NA
ATOM     36  C   UNL A   1      42.443  31.480  29.516  1.00  0.00     0.031 C 
ATOM     37  C   UNL A   1      40.803  26.813  28.560  1.00  0.00     0.029 A 
ATOM     38  N   UNL A   1      42.955  27.257  28.157  1.00  0.00    -0.354 N 
ATOM     39  C   UNL A   1      44.543  31.250  28.636  1.00  0.00     0.074 A 
ATOM     40  C   UNL A   1      43.546  32.139  29.193  1.00  0.00     0.031 C 
ATOM     41  C   UNL A   1      41.370  25.681  28.110  1.00  0.00     0.029 A 
ATOM     42  C   UNL A   1      42.775  25.937  27.811  1.00  0.00     0.049 A 
ATOM     43  H   UNL A   1      43.821  27.719  28.081  1.00  0.00     0.167 HD
ATOM     44  C   UNL A   1      45.812  31.620  28.334  1.00  0.00     0.037 A 
ATOM     45  C   UNL A   1      43.638  25.035  27.302  1.00  0.00     0.037 A 
ATOM     46  C   UNL A   1      46.822  30.713  27.852  1.00  0.00     0.049 A 
ATOM     47  C   UNL A   1      45.061  25.449  27.040  1.00  0.00     0.074 A 
ATOM     48  C   UNL A   1      48.156  30.968  27.589  1.00  0.00     0.029 A 
ATOM     49  N   UNL A   1      46.612  29.368  27.581  1.00  0.00    -0.354 N 
ATOM     50  N   UNL A   1      45.618  26.627  27.193  1.00  0.00    -0.248 NA
ATOM     51  C   UNL A   1      45.977  24.412  26.542  1.00  0.00     0.031 C 
ATOM     52  C   UNL A   1      48.749  29.783  27.140  1.00  0.00     0.029 A 
ATOM     53  C   UNL A   1      47.791  28.781  27.154  1.00  0.00     0.049 A 
ATOM     54  H   UNL A   1      45.751  28.900  27.677  1.00  0.00     0.167 HD
ATOM     55  C   UNL A   1      46.952  26.468  26.833  1.00  0.00     0.074 A 
ATOM     56  C   UNL A   1      47.123  25.076  26.467  1.00  0.00     0.031 C 
ATOM     57  C   UNL A   1      47.945  27.390  26.808  1.00  0.00     0.037 A 
BRANCH  44  58
ATOM     58  C   UNL A   1      46.185  33.067  28.531  1.00  0.00     0.058 A 
ATOM     59  C   UNL A   1      46.686  33.541  29.754  1.00  0.00     0.135 A 
ATOM     60  C   UNL A   1      46.062  33.988  27.477  1.00  0.00     0.135 A 
ATOM     61  F   UNL A   1      46.817  32.708  30.798  1.00  0.00    -0.206 F 
ATOM     62  C   UNL A   1      47.005  34.882  29.941  1.00  0.00     0.059 A 
ATOM     63  C   UNL A   1      46.404  35.330  27.633  1.00  0.00     0.059 A 
ATOM     64  F   UNL A   1      45.597  33.592  26.282  1.00  0.00    -0.206 F 
ATOM     65  C   UNL A   1      46.856  35.771  28.876  1.00  0.00     0.060 A 
BRANCH  65  66
ATOM     66  S   UNL A   1      47.261  37.511  29.139  1.00  0.00     0.124 S 
ATOM     67  O   UNL A   1      46.007  38.021  29.686  1.00  0.00    -0.237 OA
ATOM     68  O   UNL A   1      48.376  37.436  30.077  1.00  0.00    -0.237 OA
ATOM     69  O   UNL A   1      47.601  37.986  27.801  1.00  0.00    -0.744 OA
ENDBRANCH  65  66
ENDBRANCH  44  58
BRANCH  45  70
ATOM     70  C   UNL A   1      43.190  23.640  27.041  1.00  0.00     0.058 A 
ATOM     71  C   UNL A   1      42.941  23.201  25.730  1.00  0.00     0.135 A 
ATOM     72  C   UNL A   1      43.020  22.714  28.082  1.00  0.00     0.135 A 
ATOM     73  F   UNL A   1      43.080  24.051  24.702  1.00  0.00    -0.206 F 
ATOM     74  C   UNL A   1      42.528  21.900  25.462  1.00  0.00     0.059 A 
ATOM     75  C   UNL A   1      42.631  21.400  27.837  1.00  0.00     0.059 A 
ATOM     76  F   UNL A   1      43.260  23.079  29.350  1.00  0.00    -0.206 F 
ATOM     77  C   UNL A   1      42.378  21.005  26.523  1.00  0.00     0.060 A 
BRANCH  77  78
ATOM     78  S   UNL A   1      41.894  19.303  26.158  1.00  0.00     0.124 S 
ATOM     79  O   UNL A   1      42.739  18.998  25.009  1.00  0.00    -0.237 OA
ATOM     80  O   UNL A   1      42.228  18.613  27.399  1.00  0.00    -0.237 OA
ATOM     81  O   UNL A   1      40.464  19.416  25.878  1.00  0.00    -0.744 OA
ENDBRANCH  77  78
ENDBRANCH  45  70
BRANCH  57  82
ATOM     82  C   UNL A   1      49.314  26.920  26.404  1.00  0.00     0.058 A 
ATOM     83  C   UNL A   1      50.179  26.302  27.319  1.00  0.00     0.135 A 
ATOM     84  C   UNL A   1      49.740  27.039  25.071  1.00  0.00     0.135 A 
ATOM     85  F   UNL A   1      49.820  26.171  28.605  1.00  0.00    -0.206 F 
ATOM     86  C   UNL A   1      51.430  25.835  26.931  1.00  0.00     0.059 A 
ATOM     87  C   UNL A   1      50.978  26.557  24.656  1.00  0.00     0.059 A 
ATOM     88  F   UNL A   1      48.945  27.612  24.155  1.00  0.00    -0.206 F 
ATOM     89  C   UNL A   1      51.820  25.965  25.597  1.00  0.00     0.060 A 
BRANCH  89  90
ATOM     90  S   UNL A   1      53.430  25.319  25.097  1.00  0.00     0.124 S 
ATOM     91  O   UNL A   1      54.334  26.106  25.929  1.00  0.00    -0.237 OA
ATOM     92  O   UNL A   1      53.321  23.905  25.440  1.00  0.00    -0.237 OA
ATOM     93  O   UNL A   1      53.481  25.607  23.666  1.00  0.00    -0.744 OA
ENDBRANCH  89  90
ENDBRANCH  57  82
ENDBRANCH  31  32
ENDBRANCH  23  26
ENDBRANCH  21  22
ENDBRANCH  20  21
ENDBRANCH   1  20
TORSDOF 17
ENDMDL
MODEL 3
REMARK VINA RESULT:     -10.6      3.577      5.339
REMARK SMILES C[C@@H](CCC(=O)Nc1ccccn1)C(=O)NCCCNC(=O)c1ccc(-c2c3nc(c(-c4c(F)cc(S(=O)(=O)[O-])cc4F)c4ccc([nH]4)c(-c4c(F)cc(S(=O)(=O)[O-])cc4F)c4nc(c(-c5c(F)cc(S(=O)(=O)[O-])cc5F)c5ccc2[nH]5)C=C4)C=C3)cc1
REMARK SMILES IDX 17 1 16 2 14 3 15 4 2 6 1 7 3 8 4 9 5 10 6 11 7 12 8 14 9 15
REMARK SMILES IDX 13 16 10 17 12 18 11 19 18 20 19 21 20 22 21 23 22 25 23 26
REMARK SMILES IDX 24 27 88 28 25 29 87 30 26 31 27 32 28 33 81 34 29 35 86 36
REMARK SMILES IDX 80 37 82 38 30 39 85 40 79 41 78 42 31 44 65 45 44 46 64 47
REMARK SMILES IDX 45 48 48 49 63 50 83 51 46 52 47 53 62 55 84 56 49 57 32 58
REMARK SMILES IDX 33 59 42 60 34 61 35 62 41 63 43 64 36 65 37 66 38 67 39 68
REMARK SMILES IDX 40 69 66 70 67 71 76 72 68 73 69 74 75 75 77 76 70 77 71 78
REMARK SMILES IDX 72 79 73 80 74 81 50 82 51 83 60 84 52 85 53 86 59 87 61 88
REMARK SMILES IDX 54 89 55 90 56 91 57 92 58 93
REMARK H PARENT 16 5 7 13 20 24 82 43 48 54
REMARK Flexibility Score: inf
ROOT
ATOM      1  C   UNL A   1      38.248  21.502  25.633  1.00  0.00     0.117 C 
ENDROOT
BRANCH   1   2
ATOM      2  N   UNL A   1      37.133  22.317  26.127  1.00  0.00    -0.356 N 
ATOM      3  C   UNL A   1      36.065  22.990  25.645  1.00  0.00     0.222 C 
ATOM      4  O   UNL A   1      35.337  23.467  26.531  1.00  0.00    -0.275 OA
ATOM      5  H   UNL A   1      37.175  22.398  27.107  1.00  0.00     0.163 HD
BRANCH   3   6
ATOM      6  C   UNL A   1      35.643  23.227  24.180  1.00  0.00     0.076 C 
ATOM      7  C   UNL A   1      36.793  22.924  23.183  1.00  0.00     0.018 C 
BRANCH   6   8
ATOM      8  C   UNL A   1      34.297  22.758  23.638  1.00  0.00     0.023 C 
BRANCH   8   9
ATOM      9  C   UNL A   1      33.733  21.446  24.193  1.00  0.00     0.101 C 
BRANCH   9  10
ATOM     10  C   UNL A   1      32.528  20.873  23.496  1.00  0.00     0.225 C 
ATOM     11  O   UNL A   1      31.704  21.669  23.021  1.00  0.00    -0.275 OA
ATOM     12  N   UNL A   1      32.323  19.562  23.246  1.00  0.00    -0.311 N 
ATOM     13  H   UNL A   1      31.757  19.465  22.447  1.00  0.00     0.171 HD
BRANCH  12  14
ATOM     14  C   UNL A   1      32.646  18.303  23.742  1.00  0.00     0.132 A 
ATOM     15  C   UNL A   1      33.480  17.367  23.169  1.00  0.00     0.047 A 
ATOM     16  N   UNL A   1      32.187  18.134  24.996  1.00  0.00    -0.239 NA
ATOM     17  C   UNL A   1      33.835  16.212  23.878  1.00  0.00     0.005 A 
ATOM     18  C   UNL A   1      32.528  17.012  25.672  1.00  0.00     0.113 A 
ATOM     19  C   UNL A   1      33.342  16.023  25.158  1.00  0.00     0.020 A 
ENDBRANCH  12  14
ENDBRANCH   9  10
ENDBRANCH   8   9
ENDBRANCH   6   8
ENDBRANCH   3   6
ENDBRANCH   1   2
BRANCH   1  20
ATOM     20  C   UNL A   1      39.544  21.749  26.428  1.00  0.00     0.042 C 
BRANCH  20  21
ATOM     21  C   UNL A   1      39.843  23.194  26.833  1.00  0.00     0.118 C 
BRANCH  21  22
ATOM     22  N   UNL A   1      40.862  23.838  26.020  1.00  0.00    -0.352 N 
ATOM     23  C   UNL A   1      41.525  25.038  26.137  1.00  0.00     0.251 C 
ATOM     24  H   UNL A   1      41.129  23.313  25.230  1.00  0.00     0.163 HD
ATOM     25  O   UNL A   1      42.308  25.350  25.239  1.00  0.00    -0.269 OA
BRANCH  23  26
ATOM     26  C   UNL A   1      41.331  25.974  27.278  1.00  0.00     0.039 A 
ATOM     27  C   UNL A   1      42.189  27.080  27.379  1.00  0.00     0.014 A 
ATOM     28  C   UNL A   1      40.396  25.757  28.290  1.00  0.00     0.014 A 
ATOM     29  C   UNL A   1      42.075  27.982  28.447  1.00  0.00     0.010 A 
ATOM     30  C   UNL A   1      40.229  26.701  29.312  1.00  0.00     0.010 A 
ATOM     31  C   UNL A   1      41.068  27.822  29.410  1.00  0.00    -0.014 A 
BRANCH  31  32
ATOM     32  C   UNL A   1      40.887  28.792  30.532  1.00  0.00     0.031 A 
ATOM     33  C   UNL A   1      41.758  28.700  31.763  1.00  0.00     0.074 A 
ATOM     34  C   UNL A   1      39.892  29.702  30.490  1.00  0.00     0.049 A 
ATOM     35  N   UNL A   1      41.654  29.332  32.905  1.00  0.00    -0.248 NA
ATOM     36  C   UNL A   1      42.868  27.735  31.715  1.00  0.00     0.031 C 
ATOM     37  C   UNL A   1      38.945  29.871  29.386  1.00  0.00     0.029 A 
ATOM     38  N   UNL A   1      39.497  30.647  31.407  1.00  0.00    -0.354 N 
ATOM     39  C   UNL A   1      42.647  28.805  33.726  1.00  0.00     0.074 A 
ATOM     40  C   UNL A   1      43.316  27.774  32.962  1.00  0.00     0.031 C 
ATOM     41  C   UNL A   1      38.096  30.871  29.679  1.00  0.00     0.029 A 
ATOM     42  C   UNL A   1      38.409  31.389  31.007  1.00  0.00     0.049 A 
ATOM     43  H   UNL A   1      39.951  30.782  32.270  1.00  0.00     0.167 HD
ATOM     44  C   UNL A   1      42.988  29.160  34.990  1.00  0.00     0.037 A 
ATOM     45  C   UNL A   1      37.732  32.369  31.638  1.00  0.00     0.037 A 
ATOM     46  C   UNL A   1      42.368  30.238  35.717  1.00  0.00     0.049 A 
ATOM     47  C   UNL A   1      38.170  32.795  33.013  1.00  0.00     0.074 A 
ATOM     48  C   UNL A   1      42.689  30.730  36.970  1.00  0.00     0.029 A 
ATOM     49  N   UNL A   1      41.314  31.007  35.245  1.00  0.00    -0.354 N 
ATOM     50  N   UNL A   1      39.133  32.307  33.759  1.00  0.00    -0.248 NA
ATOM     51  C   UNL A   1      37.437  33.909  33.632  1.00  0.00     0.031 C 
ATOM     52  C   UNL A   1      41.815  31.782  37.265  1.00  0.00     0.029 A 
ATOM     53  C   UNL A   1      40.972  31.969  36.181  1.00  0.00     0.049 A 
ATOM     54  H   UNL A   1      40.873  30.887  34.373  1.00  0.00     0.167 HD
ATOM     55  C   UNL A   1      39.137  33.067  34.923  1.00  0.00     0.074 A 
ATOM     56  C   UNL A   1      38.089  34.057  34.779  1.00  0.00     0.031 C 
ATOM     57  C   UNL A   1      39.934  32.956  36.013  1.00  0.00     0.037 A 
BRANCH  44  58
ATOM     58  C   UNL A   1      44.090  28.384  35.662  1.00  0.00     0.058 A 
ATOM     59  C   UNL A   1      45.438  28.760  35.541  1.00  0.00     0.135 A 
ATOM     60  C   UNL A   1      43.796  27.262  36.455  1.00  0.00     0.135 A 
ATOM     61  F   UNL A   1      45.779  29.819  34.790  1.00  0.00    -0.206 F 
ATOM     62  C   UNL A   1      46.456  28.027  36.142  1.00  0.00     0.059 A 
ATOM     63  C   UNL A   1      44.798  26.531  37.091  1.00  0.00     0.059 A 
ATOM     64  F   UNL A   1      42.526  26.860  36.614  1.00  0.00    -0.206 F 
ATOM     65  C   UNL A   1      46.127  26.910  36.910  1.00  0.00     0.060 A 
BRANCH  65  66
ATOM     66  S   UNL A   1      47.461  25.960  37.671  1.00  0.00     0.124 S 
ATOM     67  O   UNL A   1      48.634  26.725  37.257  1.00  0.00    -0.237 OA
ATOM     68  O   UNL A   1      47.129  26.032  39.091  1.00  0.00    -0.237 OA
ATOM     69  O   UNL A   1      47.327  24.639  37.066  1.00  0.00    -0.744 OA
ENDBRANCH  65  66
ENDBRANCH  44  58
BRANCH  45  70
ATOM     70  C   UNL A   1      36.589  33.041  30.961  1.00  0.00     0.058 A 
ATOM     71  C   UNL A   1      35.271  32.820  31.390  1.00  0.00     0.135 A 
ATOM     72  C   UNL A   1      36.786  33.927  29.891  1.00  0.00     0.135 A 
ATOM     73  F   UNL A   1      35.030  31.974  32.403  1.00  0.00    -0.206 F 
ATOM     74  C   UNL A   1      34.188  33.442  30.777  1.00  0.00     0.059 A 
ATOM     75  C   UNL A   1      35.721  34.581  29.276  1.00  0.00     0.059 A 
ATOM     76  F   UNL A   1      38.027  34.185  29.452  1.00  0.00    -0.206 F 
ATOM     77  C   UNL A   1      34.424  34.324  29.720  1.00  0.00     0.060 A 
BRANCH  77  78
ATOM     78  S   UNL A   1      33.016  35.168  28.967  1.00  0.00     0.124 S 
ATOM     79  O   UNL A   1      32.153  35.387  30.121  1.00  0.00    -0.237 OA
ATOM     80  O   UNL A   1      33.637  36.359  28.396  1.00  0.00    -0.237 OA
ATOM     81  O   UNL A   1      32.529  34.196  27.990  1.00  0.00    -0.744 OA
ENDBRANCH  77  78
ENDBRANCH  45  70
BRANCH  57  82
ATOM     82  C   UNL A   1      39.731  33.948  37.122  1.00  0.00     0.058 A 
ATOM     83  C   UNL A   1      38.987  33.629  38.268  1.00  0.00     0.135 A 
ATOM     84  C   UNL A   1      40.336  35.215  37.061  1.00  0.00     0.135 A 
ATOM     85  F   UNL A   1      38.385  32.435  38.371  1.00  0.00    -0.206 F 
ATOM     86  C   UNL A   1      38.834  34.539  39.309  1.00  0.00     0.059 A 
ATOM     87  C   UNL A   1      40.215  36.131  38.101  1.00  0.00     0.059 A 
ATOM     88  F   UNL A   1      41.067  35.564  35.991  1.00  0.00    -0.206 F 
ATOM     89  C   UNL A   1      39.453  35.787  39.217  1.00  0.00     0.060 A 
BRANCH  89  90
ATOM     90  S   UNL A   1      39.279  36.944  40.591  1.00  0.00     0.124 S 
ATOM     91  O   UNL A   1      38.414  36.197  41.498  1.00  0.00    -0.237 OA
ATOM     92  O   UNL A   1      40.660  37.118  41.032  1.00  0.00    -0.237 OA
ATOM     93  O   UNL A   1      38.675  38.119  39.971  1.00  0.00    -0.744 OA
ENDBRANCH  89  90
ENDBRANCH  57  82
ENDBRANCH  31  32
ENDBRANCH  23  26
ENDBRANCH  21  22
ENDBRANCH  20  21
ENDBRANCH   1  20
TORSDOF 17
ENDMDL
