MODEL 1
REMARK VINA RESULT:     -11.9      0.000      0.000
REMARK SMILES COCCS(=O)(=O)N1C[C@@H](C(=O)NCCCNC(=O)c2ccc(-c3c4nc(c(-c5c(F)cc(S(=O)(=O)[O-])cc5F)c5ccc([nH]5)c(-c5c(F)cc(S(=O)(=O)[O-])cc5F)c5nc(c(-c6c(F)cc(S(=O)(=O)[O-])cc6F)c6ccc3[nH]6)C=C5)C=C4)cc2)c2ccccc21
REMARK SMILES IDX 14 1 13 2 11 3 12 4 10 6 8 7 9 8 91 9 86 10 90 11 87 12
REMARK SMILES IDX 89 13 88 14 5 15 6 16 7 17 4 18 3 19 2 20 1 21 15 22 16 23
REMARK SMILES IDX 17 24 18 25 19 27 20 28 21 29 85 30 22 31 84 32 23 33 24 34
REMARK SMILES IDX 25 35 78 36 26 37 83 38 77 39 79 40 27 41 82 42 76 43 75 44
REMARK SMILES IDX 28 46 62 47 41 48 61 49 42 50 45 51 60 52 80 53 43 54 44 55
REMARK SMILES IDX 59 57 81 58 46 59 29 60 30 61 39 62 31 63 32 64 38 65 40 66
REMARK SMILES IDX 33 67 34 68 35 69 36 70 37 71 63 72 64 73 73 74 65 75 66 76
REMARK SMILES IDX 72 77 74 78 67 79 68 80 69 81 70 82 71 83 47 84 48 85 57 86
REMARK SMILES IDX 49 87 50 88 56 89 58 90 51 91 52 92 53 93 54 94 55 95
REMARK H PARENT 13 5 17 26 79 45 45 56
REMARK Flexibility Score: inf
ROOT
ATOM      1  C   UNL A   1      38.152  23.516  26.316  1.00  0.00     0.117 C 
ENDROOT
BRANCH   1   2
ATOM      2  N   UNL A   1      37.627  23.445  24.961  1.00  0.00    -0.355 N 
ATOM      3  C   UNL A   1      36.573  22.747  24.462  1.00  0.00     0.229 C 
ATOM      4  O   UNL A   1      36.353  22.823  23.249  1.00  0.00    -0.274 OA
ATOM      5  H   UNL A   1      38.112  23.990  24.299  1.00  0.00     0.163 HD
BRANCH   3   6
ATOM      6  C   UNL A   1      35.671  21.922  25.348  1.00  0.00     0.131 C 
ATOM      7  N   UNL A   1      33.953  20.292  25.011  1.00  0.00    -0.269 N 
ATOM      8  C   UNL A   1      35.396  20.517  24.774  1.00  0.00     0.153 C 
ATOM      9  C   UNL A   1      33.322  21.505  25.391  1.00  0.00     0.056 A 
ATOM     10  C   UNL A   1      34.296  22.486  25.589  1.00  0.00    -0.009 A 
ATOM     11  C   UNL A   1      31.978  21.793  25.546  1.00  0.00     0.027 A 
ATOM     12  C   UNL A   1      33.951  23.770  25.986  1.00  0.00     0.007 A 
ATOM     13  C   UNL A   1      31.619  23.092  25.920  1.00  0.00     0.002 A 
ATOM     14  C   UNL A   1      32.598  24.071  26.145  1.00  0.00     0.000 A 
BRANCH   7  15
ATOM     15  S   UNL A   1      33.212  18.841  24.726  1.00  0.00     0.237 S 
ATOM     16  O   UNL A   1      32.434  18.972  23.508  1.00  0.00    -0.206 OA
ATOM     17  O   UNL A   1      32.573  18.395  25.945  1.00  0.00    -0.206 OA
BRANCH  15  18
ATOM     18  C   UNL A   1      34.586  17.741  24.406  1.00  0.00     0.188 C 
BRANCH  18  19
ATOM     19  C   UNL A   1      34.444  16.361  25.024  1.00  0.00     0.178 C 
BRANCH  19  20
ATOM     20  O   UNL A   1      33.335  15.619  24.507  1.00  0.00    -0.384 OA
ATOM     21  C   UNL A   1      32.698  14.799  25.472  1.00  0.00     0.194 C 
ENDBRANCH  19  20
ENDBRANCH  18  19
ENDBRANCH  15  18
ENDBRANCH   7  15
ENDBRANCH   3   6
ENDBRANCH   1   2
BRANCH   1  22
ATOM     22  C   UNL A   1      39.314  22.565  26.527  1.00  0.00     0.042 C 
BRANCH  22  23
ATOM     23  C   UNL A   1      40.544  23.259  27.084  1.00  0.00     0.118 C 
BRANCH  23  24
ATOM     24  N   UNL A   1      41.285  23.982  26.056  1.00  0.00    -0.352 N 
ATOM     25  C   UNL A   1      41.646  25.306  26.004  1.00  0.00     0.251 C 
ATOM     26  H   UNL A   1      41.569  23.441  25.285  1.00  0.00     0.163 HD
ATOM     27  O   UNL A   1      42.045  25.792  24.951  1.00  0.00    -0.269 OA
BRANCH  25  28
ATOM     28  C   UNL A   1      41.536  26.132  27.221  1.00  0.00     0.039 A 
ATOM     29  C   UNL A   1      42.494  27.113  27.477  1.00  0.00     0.014 A 
ATOM     30  C   UNL A   1      40.465  25.942  28.097  1.00  0.00     0.014 A 
ATOM     31  C   UNL A   1      42.334  27.953  28.581  1.00  0.00     0.010 A 
ATOM     32  C   UNL A   1      40.244  26.853  29.118  1.00  0.00     0.010 A 
ATOM     33  C   UNL A   1      41.185  27.855  29.384  1.00  0.00    -0.014 A 
BRANCH  33  34
ATOM     34  C   UNL A   1      40.953  28.770  30.527  1.00  0.00     0.031 A 
ATOM     35  C   UNL A   1      41.799  28.645  31.767  1.00  0.00     0.074 A 
ATOM     36  C   UNL A   1      39.943  29.659  30.475  1.00  0.00     0.049 A 
ATOM     37  N   UNL A   1      41.713  29.298  32.896  1.00  0.00    -0.248 NA
ATOM     38  C   UNL A   1      42.859  27.622  31.747  1.00  0.00     0.031 C 
ATOM     39  C   UNL A   1      39.027  29.838  29.347  1.00  0.00     0.029 A 
ATOM     40  N   UNL A   1      39.515  30.580  31.397  1.00  0.00    -0.354 N 
ATOM     41  C   UNL A   1      42.695  28.760  33.718  1.00  0.00     0.074 A 
ATOM     42  C   UNL A   1      43.309  27.673  32.990  1.00  0.00     0.031 C 
ATOM     43  C   UNL A   1      38.177  30.839  29.624  1.00  0.00     0.029 A 
ATOM     44  C   UNL A   1      38.454  31.341  30.965  1.00  0.00     0.049 A 
ATOM     45  H   UNL A   1      39.929  30.687  32.284  1.00  0.00     0.167 HD
ATOM     46  C   UNL A   1      43.078  29.157  34.955  1.00  0.00     0.037 A 
ATOM     47  C   UNL A   1      37.783  32.331  31.584  1.00  0.00     0.037 A 
ATOM     48  C   UNL A   1      42.468  30.251  35.663  1.00  0.00     0.049 A 
ATOM     49  C   UNL A   1      38.202  32.735  32.971  1.00  0.00     0.074 A 
ATOM     50  C   UNL A   1      42.801  30.768  36.902  1.00  0.00     0.029 A 
ATOM     51  N   UNL A   1      41.392  30.993  35.196  1.00  0.00    -0.354 N 
ATOM     52  N   UNL A   1      39.174  32.258  33.712  1.00  0.00    -0.248 NA
ATOM     53  C   UNL A   1      37.434  33.815  33.605  1.00  0.00     0.031 C 
ATOM     54  C   UNL A   1      41.892  31.787  37.207  1.00  0.00     0.029 A 
ATOM     55  C   UNL A   1      41.031  31.947  36.132  1.00  0.00     0.049 A 
ATOM     56  H   UNL A   1      40.950  30.861  34.326  1.00  0.00     0.167 HD
ATOM     57  C   UNL A   1      39.159  33.003  34.887  1.00  0.00     0.074 A 
ATOM     58  C   UNL A   1      38.084  33.967  34.751  1.00  0.00     0.031 C 
ATOM     59  C   UNL A   1      39.960  32.903  35.976  1.00  0.00     0.037 A 
BRANCH  46  60
ATOM     60  C   UNL A   1      44.205  28.400  35.607  1.00  0.00     0.058 A 
ATOM     61  C   UNL A   1      45.550  28.741  35.388  1.00  0.00     0.135 A 
ATOM     62  C   UNL A   1      43.939  27.311  36.454  1.00  0.00     0.135 A 
ATOM     63  F   UNL A   1      45.866  29.762  34.576  1.00  0.00    -0.206 F 
ATOM     64  C   UNL A   1      46.590  28.001  35.940  1.00  0.00     0.059 A 
ATOM     65  C   UNL A   1      44.964  26.578  37.048  1.00  0.00     0.059 A 
ATOM     66  F   UNL A   1      42.674  26.939  36.702  1.00  0.00    -0.206 F 
ATOM     67  C   UNL A   1      46.287  26.917  36.765  1.00  0.00     0.060 A 
BRANCH  67  68
ATOM     68  S   UNL A   1      47.647  25.949  37.449  1.00  0.00     0.124 S 
ATOM     69  O   UNL A   1      46.933  24.825  38.047  1.00  0.00    -0.237 OA
ATOM     70  O   UNL A   1      48.437  25.638  36.262  1.00  0.00    -0.237 OA
ATOM     71  O   UNL A   1      48.276  26.866  38.394  1.00  0.00    -0.744 OA
ENDBRANCH  67  68
ENDBRANCH  46  60
BRANCH  47  72
ATOM     72  C   UNL A   1      36.681  33.037  30.877  1.00  0.00     0.058 A 
ATOM     73  C   UNL A   1      35.342  32.798  31.224  1.00  0.00     0.135 A 
ATOM     74  C   UNL A   1      36.936  33.973  29.865  1.00  0.00     0.135 A 
ATOM     75  F   UNL A   1      35.046  31.908  32.183  1.00  0.00    -0.206 F 
ATOM     76  C   UNL A   1      34.295  33.451  30.583  1.00  0.00     0.059 A 
ATOM     77  C   UNL A   1      35.906  34.661  29.229  1.00  0.00     0.059 A 
ATOM     78  F   UNL A   1      38.198  34.252  29.507  1.00  0.00    -0.206 F 
ATOM     79  C   UNL A   1      34.588  34.385  29.589  1.00  0.00     0.060 A 
BRANCH  79  80
ATOM     80  S   UNL A   1      33.222  35.264  28.801  1.00  0.00     0.124 S 
ATOM     81  O   UNL A   1      32.620  34.210  27.993  1.00  0.00    -0.237 OA
ATOM     82  O   UNL A   1      32.442  35.711  29.952  1.00  0.00    -0.237 OA
ATOM     83  O   UNL A   1      33.890  36.326  28.056  1.00  0.00    -0.744 OA
ENDBRANCH  79  80
ENDBRANCH  47  72
BRANCH  59  84
ATOM     84  C   UNL A   1      39.736  33.886  37.093  1.00  0.00     0.058 A 
ATOM     85  C   UNL A   1      38.945  33.573  38.209  1.00  0.00     0.135 A 
ATOM     86  C   UNL A   1      40.367  35.141  37.068  1.00  0.00     0.135 A 
ATOM     87  F   UNL A   1      38.313  32.390  38.280  1.00  0.00    -0.206 F 
ATOM     88  C   UNL A   1      38.765  34.479  39.248  1.00  0.00     0.059 A 
ATOM     89  C   UNL A   1      40.229  36.050  38.112  1.00  0.00     0.059 A 
ATOM     90  F   UNL A   1      41.144  35.488  36.029  1.00  0.00    -0.206 F 
ATOM     91  C   UNL A   1      39.415  35.714  39.193  1.00  0.00     0.060 A 
BRANCH  91  92
ATOM     92  S   UNL A   1      39.202  36.864  40.567  1.00  0.00     0.124 S 
ATOM     93  O   UNL A   1      38.545  37.989  39.910  1.00  0.00    -0.237 OA
ATOM     94  O   UNL A   1      38.373  36.096  41.490  1.00  0.00    -0.237 OA
ATOM     95  O   UNL A   1      40.568  37.112  41.018  1.00  0.00    -0.744 OA
ENDBRANCH  91  92
ENDBRANCH  59  84
ENDBRANCH  33  34
ENDBRANCH  25  28
ENDBRANCH  23  24
ENDBRANCH  22  23
ENDBRANCH   1  22
TORSDOF 17
ENDMDL
MODEL 2
REMARK VINA RESULT:     -11.7      0.454      8.252
REMARK SMILES COCCS(=O)(=O)N1C[C@@H](C(=O)NCCCNC(=O)c2ccc(-c3c4nc(c(-c5c(F)cc(S(=O)(=O)[O-])cc5F)c5ccc([nH]5)c(-c5c(F)cc(S(=O)(=O)[O-])cc5F)c5nc(c(-c6c(F)cc(S(=O)(=O)[O-])cc6F)c6ccc3[nH]6)C=C5)C=C4)cc2)c2ccccc21
REMARK SMILES IDX 14 1 13 2 11 3 12 4 10 6 8 7 9 8 91 9 86 10 90 11 87 12
REMARK SMILES IDX 89 13 88 14 5 15 6 16 7 17 4 18 3 19 2 20 1 21 15 22 16 23
REMARK SMILES IDX 17 24 18 25 19 27 20 28 21 29 85 30 22 31 84 32 23 33 24 34
REMARK SMILES IDX 25 35 78 36 26 37 83 38 77 39 79 40 27 41 82 42 76 43 75 44
REMARK SMILES IDX 28 46 62 47 41 48 61 49 42 50 45 51 60 52 80 53 43 54 44 55
REMARK SMILES IDX 59 57 81 58 46 59 29 60 30 61 39 62 31 63 32 64 38 65 40 66
REMARK SMILES IDX 33 67 34 68 35 69 36 70 37 71 63 72 64 73 73 74 65 75 66 76
REMARK SMILES IDX 72 77 74 78 67 79 68 80 69 81 70 82 71 83 47 84 48 85 57 86
REMARK SMILES IDX 49 87 50 88 56 89 58 90 51 91 52 92 53 93 54 94 55 95
REMARK H PARENT 13 5 17 26 79 45 45 56
REMARK Flexibility Score: inf
ROOT
ATOM      1  C   UNL A   1      37.948  23.711  26.149  1.00  0.00     0.117 C 
ENDROOT
BRANCH   1   2
ATOM      2  N   UNL A   1      37.462  23.555  24.786  1.00  0.00    -0.355 N 
ATOM      3  C   UNL A   1      36.444  22.797  24.297  1.00  0.00     0.229 C 
ATOM      4  O   UNL A   1      36.254  22.805  23.077  1.00  0.00    -0.274 OA
ATOM      5  H   UNL A   1      37.947  24.081  24.110  1.00  0.00     0.163 HD
BRANCH   3   6
ATOM      6  C   UNL A   1      35.546  21.989  25.201  1.00  0.00     0.131 C 
ATOM      7  N   UNL A   1      33.883  20.293  24.905  1.00  0.00    -0.269 N 
ATOM      8  C   UNL A   1      35.325  20.550  24.690  1.00  0.00     0.153 C 
ATOM      9  C   UNL A   1      33.209  21.503  25.212  1.00  0.00     0.056 A 
ATOM     10  C   UNL A   1      34.149  22.522  25.384  1.00  0.00    -0.009 A 
ATOM     11  C   UNL A   1      31.854  21.758  25.322  1.00  0.00     0.027 A 
ATOM     12  C   UNL A   1      33.758  23.812  25.710  1.00  0.00     0.007 A 
ATOM     13  C   UNL A   1      31.448  23.062  25.625  1.00  0.00     0.002 A 
ATOM     14  C   UNL A   1      32.393  24.080  25.824  1.00  0.00     0.000 A 
BRANCH   7  15
ATOM     15  S   UNL A   1      33.192  18.809  24.674  1.00  0.00     0.237 S 
ATOM     16  O   UNL A   1      32.411  18.869  23.451  1.00  0.00    -0.206 OA
ATOM     17  O   UNL A   1      32.567  18.387  25.907  1.00  0.00    -0.206 OA
BRANCH  15  18
ATOM     18  C   UNL A   1      34.603  17.745  24.394  1.00  0.00     0.188 C 
BRANCH  18  19
ATOM     19  C   UNL A   1      34.506  16.385  25.062  1.00  0.00     0.178 C 
BRANCH  19  20
ATOM     20  O   UNL A   1      33.491  15.546  24.500  1.00  0.00    -0.384 OA
ATOM     21  C   UNL A   1      32.652  14.940  25.468  1.00  0.00     0.194 C 
ENDBRANCH  19  20
ENDBRANCH  18  19
ENDBRANCH  15  18
ENDBRANCH   7  15
ENDBRANCH   3   6
ENDBRANCH   1   2
BRANCH   1  22
ATOM     22  C   UNL A   1      39.117  22.793  26.445  1.00  0.00     0.042 C 
BRANCH  22  23
ATOM     23  C   UNL A   1      40.278  23.518  27.102  1.00  0.00     0.118 C 
BRANCH  23  24
ATOM     24  N   UNL A   1      41.120  24.208  26.131  1.00  0.00    -0.352 N 
ATOM     25  C   UNL A   1      41.443  25.539  26.040  1.00  0.00     0.251 C 
ATOM     26  H   UNL A   1      41.517  23.633  25.437  1.00  0.00     0.163 HD
ATOM     27  O   UNL A   1      41.958  25.977  25.017  1.00  0.00    -0.269 OA
BRANCH  25  28
ATOM     28  C   UNL A   1      41.154  26.430  27.179  1.00  0.00     0.039 A 
ATOM     29  C   UNL A   1      40.197  26.057  28.122  1.00  0.00     0.014 A 
ATOM     30  C   UNL A   1      41.854  27.630  27.318  1.00  0.00     0.014 A 
ATOM     31  C   UNL A   1      39.995  26.860  29.245  1.00  0.00     0.010 A 
ATOM     32  C   UNL A   1      41.740  28.360  28.491  1.00  0.00     0.010 A 
ATOM     33  C   UNL A   1      40.796  27.995  29.458  1.00  0.00    -0.014 A 
BRANCH  33  34
ATOM     34  C   UNL A   1      40.650  28.837  30.670  1.00  0.00     0.031 A 
ATOM     35  C   UNL A   1      39.601  29.916  30.707  1.00  0.00     0.074 A 
ATOM     36  C   UNL A   1      41.501  28.674  31.701  1.00  0.00     0.049 A 
ATOM     37  N   UNL A   1      39.357  30.800  31.638  1.00  0.00    -0.248 NA
ATOM     38  C   UNL A   1      38.736  30.042  29.521  1.00  0.00     0.031 C 
ATOM     39  C   UNL A   1      42.587  27.693  31.758  1.00  0.00     0.029 A 
ATOM     40  N   UNL A   1      41.588  29.334  32.900  1.00  0.00    -0.354 N 
ATOM     41  C   UNL A   1      38.323  31.588  31.148  1.00  0.00     0.074 A 
ATOM     42  C   UNL A   1      38.042  31.133  29.805  1.00  0.00     0.031 C 
ATOM     43  C   UNL A   1      43.200  27.785  32.949  1.00  0.00     0.029 A 
ATOM     44  C   UNL A   1      42.585  28.859  33.720  1.00  0.00     0.049 A 
ATOM     45  H   UNL A   1      40.992  30.077  33.151  1.00  0.00     0.167 HD
ATOM     46  C   UNL A   1      37.643  32.580  31.772  1.00  0.00     0.037 A 
ATOM     47  C   UNL A   1      42.957  29.249  34.953  1.00  0.00     0.037 A 
ATOM     48  C   UNL A   1      37.922  33.014  33.114  1.00  0.00     0.049 A 
ATOM     49  C   UNL A   1      42.211  30.375  35.615  1.00  0.00     0.074 A 
ATOM     50  C   UNL A   1      37.271  33.979  33.860  1.00  0.00     0.029 A 
ATOM     51  N   UNL A   1      38.944  32.514  33.910  1.00  0.00    -0.354 N 
ATOM     52  N   UNL A   1      41.194  31.070  35.163  1.00  0.00    -0.248 NA
ATOM     53  C   UNL A   1      42.661  30.767  36.958  1.00  0.00     0.031 C 
ATOM     54  C   UNL A   1      37.933  34.101  35.088  1.00  0.00     0.029 A 
ATOM     55  C   UNL A   1      38.958  33.168  35.131  1.00  0.00     0.049 A 
ATOM     56  H   UNL A   1      39.567  31.799  33.646  1.00  0.00     0.167 HD
ATOM     57  C   UNL A   1      40.858  31.959  36.179  1.00  0.00     0.074 A 
ATOM     58  C   UNL A   1      41.777  31.705  37.271  1.00  0.00     0.031 C 
ATOM     59  C   UNL A   1      39.878  32.897  36.209  1.00  0.00     0.037 A 
BRANCH  46  60
ATOM     60  C   UNL A   1      36.537  33.252  30.999  1.00  0.00     0.058 A 
ATOM     61  C   UNL A   1      36.806  34.184  29.983  1.00  0.00     0.135 A 
ATOM     62  C   UNL A   1      35.191  32.969  31.284  1.00  0.00     0.135 A 
ATOM     63  F   UNL A   1      38.072  34.506  29.676  1.00  0.00    -0.206 F 
ATOM     64  C   UNL A   1      35.783  34.850  29.315  1.00  0.00     0.059 A 
ATOM     65  C   UNL A   1      34.151  33.596  30.603  1.00  0.00     0.059 A 
ATOM     66  F   UNL A   1      34.873  32.086  32.244  1.00  0.00    -0.206 F 
ATOM     67  C   UNL A   1      34.459  34.553  29.636  1.00  0.00     0.060 A 
BRANCH  67  68
ATOM     68  S   UNL A   1      33.145  35.447  28.781  1.00  0.00     0.124 S 
ATOM     69  O   UNL A   1      33.913  36.352  27.932  1.00  0.00    -0.237 OA
ATOM     70  O   UNL A   1      32.438  34.375  28.088  1.00  0.00    -0.237 OA
ATOM     71  O   UNL A   1      32.404  36.083  29.867  1.00  0.00    -0.744 OA
ENDBRANCH  67  68
ENDBRANCH  46  60
BRANCH  47  72
ATOM     72  C   UNL A   1      44.058  28.538  35.657  1.00  0.00     0.058 A 
ATOM     73  C   UNL A   1      43.780  27.466  36.519  1.00  0.00     0.135 A 
ATOM     74  C   UNL A   1      45.402  28.893  35.470  1.00  0.00     0.135 A 
ATOM     75  F   UNL A   1      42.510  27.090  36.734  1.00  0.00    -0.206 F 
ATOM     76  C   UNL A   1      44.793  26.780  37.182  1.00  0.00     0.059 A 
ATOM     77  C   UNL A   1      46.435  28.204  36.100  1.00  0.00     0.059 A 
ATOM     78  F   UNL A   1      45.724  29.899  34.644  1.00  0.00    -0.206 F 
ATOM     79  C   UNL A   1      46.118  27.155  36.961  1.00  0.00     0.060 A 
BRANCH  79  80
ATOM     80  S   UNL A   1      47.427  26.224  37.788  1.00  0.00     0.124 S 
ATOM     81  O   UNL A   1      48.036  25.516  36.669  1.00  0.00    -0.237 OA
ATOM     82  O   UNL A   1      48.229  27.289  38.383  1.00  0.00    -0.237 OA
ATOM     83  O   UNL A   1      46.698  25.392  38.740  1.00  0.00    -0.744 OA
ENDBRANCH  79  80
ENDBRANCH  47  72
BRANCH  59  84
ATOM     84  C   UNL A   1      39.720  33.692  37.476  1.00  0.00     0.058 A 
ATOM     85  C   UNL A   1      38.875  33.272  38.515  1.00  0.00     0.135 A 
ATOM     86  C   UNL A   1      40.467  34.865  37.672  1.00  0.00     0.135 A 
ATOM     87  F   UNL A   1      38.133  32.162  38.376  1.00  0.00    -0.206 F 
ATOM     88  C   UNL A   1      38.755  34.002  39.693  1.00  0.00     0.059 A 
ATOM     89  C   UNL A   1      40.389  35.593  38.855  1.00  0.00     0.059 A 
ATOM     90  F   UNL A   1      41.299  35.307  36.715  1.00  0.00    -0.206 F 
ATOM     91  C   UNL A   1      39.520  35.159  39.856  1.00  0.00     0.060 A 
BRANCH  91  92
ATOM     92  S   UNL A   1      39.383  36.074  41.405  1.00  0.00     0.124 S 
ATOM     93  O   UNL A   1      39.638  37.441  40.963  1.00  0.00    -0.237 OA
ATOM     94  O   UNL A   1      38.013  35.786  41.816  1.00  0.00    -0.237 OA
ATOM     95  O   UNL A   1      40.420  35.482  42.243  1.00  0.00    -0.744 OA
ENDBRANCH  91  92
ENDBRANCH  59  84
ENDBRANCH  33  34
ENDBRANCH  25  28
ENDBRANCH  23  24
ENDBRANCH  22  23
ENDBRANCH   1  22
TORSDOF 17
ENDMDL
MODEL 3
REMARK VINA RESULT:     -11.5      6.824     12.473
REMARK SMILES COCCS(=O)(=O)N1C[C@@H](C(=O)NCCCNC(=O)c2ccc(-c3c4nc(c(-c5c(F)cc(S(=O)(=O)[O-])cc5F)c5ccc([nH]5)c(-c5c(F)cc(S(=O)(=O)[O-])cc5F)c5nc(c(-c6c(F)cc(S(=O)(=O)[O-])cc6F)c6ccc3[nH]6)C=C5)C=C4)cc2)c2ccccc21
REMARK SMILES IDX 14 1 13 2 11 3 12 4 10 6 8 7 9 8 91 9 86 10 90 11 87 12
REMARK SMILES IDX 89 13 88 14 5 15 6 16 7 17 4 18 3 19 2 20 1 21 15 22 16 23
REMARK SMILES IDX 17 24 18 25 19 27 20 28 21 29 85 30 22 31 84 32 23 33 24 34
REMARK SMILES IDX 25 35 78 36 26 37 83 38 77 39 79 40 27 41 82 42 76 43 75 44
REMARK SMILES IDX 28 46 62 47 41 48 61 49 42 50 45 51 60 52 80 53 43 54 44 55
REMARK SMILES IDX 59 57 81 58 46 59 29 60 30 61 39 62 31 63 32 64 38 65 40 66
REMARK SMILES IDX 33 67 34 68 35 69 36 70 37 71 63 72 64 73 73 74 65 75 66 76
REMARK SMILES IDX 72 77 74 78 67 79 68 80 69 81 70 82 71 83 47 84 48 85 57 86
REMARK SMILES IDX 49 87 50 88 56 89 58 90 51 91 52 92 53 93 54 94 55 95
REMARK H PARENT 13 5 17 26 79 45 45 56
REMARK Flexibility Score: inf
ROOT
ATOM      1  C   UNL A   1      34.662  30.508  27.263  1.00  0.00     0.117 C 
ENDROOT
BRANCH   1   2
ATOM      2  N   UNL A   1      33.644  29.646  27.846  1.00  0.00    -0.355 N 
ATOM      3  C   UNL A   1      32.798  28.762  27.255  1.00  0.00     0.229 C 
ATOM      4  O   UNL A   1      31.985  28.173  27.974  1.00  0.00    -0.274 OA
ATOM      5  H   UNL A   1      33.555  29.714  28.824  1.00  0.00     0.163 HD
BRANCH   3   6
ATOM      6  C   UNL A   1      32.852  28.474  25.774  1.00  0.00     0.131 C 
ATOM      7  N   UNL A   1      31.317  27.674  24.121  1.00  0.00    -0.269 N 
ATOM      8  C   UNL A   1      31.527  28.803  25.055  1.00  0.00     0.153 C 
ATOM      9  C   UNL A   1      32.210  26.613  24.424  1.00  0.00     0.056 A 
ATOM     10  C   UNL A   1      33.118  27.040  25.395  1.00  0.00    -0.009 A 
ATOM     11  C   UNL A   1      32.253  25.323  23.927  1.00  0.00     0.027 A 
ATOM     12  C   UNL A   1      34.118  26.200  25.863  1.00  0.00     0.007 A 
ATOM     13  C   UNL A   1      33.241  24.460  24.411  1.00  0.00     0.002 A 
ATOM     14  C   UNL A   1      34.170  24.896  25.367  1.00  0.00     0.000 A 
BRANCH   7  15
ATOM     15  S   UNL A   1      30.110  27.655  22.992  1.00  0.00     0.237 S 
ATOM     16  O   UNL A   1      29.024  26.847  23.516  1.00  0.00    -0.206 OA
ATOM     17  O   UNL A   1      30.681  27.343  21.700  1.00  0.00    -0.206 OA
BRANCH  15  18
ATOM     18  C   UNL A   1      29.574  29.362  22.944  1.00  0.00     0.188 C 
BRANCH  18  19
ATOM     19  C   UNL A   1      28.128  29.555  22.523  1.00  0.00     0.178 C 
BRANCH  19  20
ATOM     20  O   UNL A   1      27.986  30.022  21.177  1.00  0.00    -0.384 OA
ATOM     21  C   UNL A   1      28.292  31.397  21.016  1.00  0.00     0.194 C 
ENDBRANCH  19  20
ENDBRANCH  18  19
ENDBRANCH  15  18
ENDBRANCH   7  15
ENDBRANCH   3   6
ENDBRANCH   1   2
BRANCH   1  22
ATOM     22  C   UNL A   1      34.729  31.857  27.952  1.00  0.00     0.042 C 
BRANCH  22  23
ATOM     23  C   UNL A   1      35.945  31.995  28.850  1.00  0.00     0.118 C 
BRANCH  23  24
ATOM     24  N   UNL A   1      35.738  31.386  30.159  1.00  0.00    -0.352 N 
ATOM     25  C   UNL A   1      36.516  30.482  30.838  1.00  0.00     0.251 C 
ATOM     26  H   UNL A   1      34.918  31.666  30.626  1.00  0.00     0.163 HD
ATOM     27  O   UNL A   1      36.063  29.891  31.813  1.00  0.00    -0.269 OA
BRANCH  25  28
ATOM     28  C   UNL A   1      37.893  30.225  30.376  1.00  0.00     0.039 A 
ATOM     29  C   UNL A   1      38.911  30.038  31.311  1.00  0.00     0.014 A 
ATOM     30  C   UNL A   1      38.165  30.149  29.008  1.00  0.00     0.014 A 
ATOM     31  C   UNL A   1      40.192  29.704  30.868  1.00  0.00     0.010 A 
ATOM     32  C   UNL A   1      39.403  29.698  28.578  1.00  0.00     0.010 A 
ATOM     33  C   UNL A   1      40.436  29.490  29.501  1.00  0.00    -0.014 A 
BRANCH  33  34
ATOM     34  C   UNL A   1      41.769  29.075  29.002  1.00  0.00     0.031 A 
ATOM     35  C   UNL A   1      42.885  30.082  28.927  1.00  0.00     0.074 A 
ATOM     36  C   UNL A   1      41.951  27.818  28.554  1.00  0.00     0.049 A 
ATOM     37  N   UNL A   1      44.097  29.940  28.460  1.00  0.00    -0.248 NA
ATOM     38  C   UNL A   1      42.585  31.442  29.408  1.00  0.00     0.031 C 
ATOM     39  C   UNL A   1      40.930  26.768  28.532  1.00  0.00     0.029 A 
ATOM     40  N   UNL A   1      43.062  27.209  28.029  1.00  0.00    -0.354 N 
ATOM     41  C   UNL A   1      44.696  31.188  28.581  1.00  0.00     0.074 A 
ATOM     42  C   UNL A   1      43.691  32.094  29.088  1.00  0.00     0.031 C 
ATOM     43  C   UNL A   1      41.474  25.634  28.064  1.00  0.00     0.029 A 
ATOM     44  C   UNL A   1      42.866  25.886  27.708  1.00  0.00     0.049 A 
ATOM     45  H   UNL A   1      43.919  27.674  27.895  1.00  0.00     0.167 HD
ATOM     46  C   UNL A   1      45.979  31.542  28.328  1.00  0.00     0.037 A 
ATOM     47  C   UNL A   1      43.716  24.981  27.186  1.00  0.00     0.037 A 
ATOM     48  C   UNL A   1      46.975  30.626  27.839  1.00  0.00     0.049 A 
ATOM     49  C   UNL A   1      45.127  25.403  26.881  1.00  0.00     0.074 A 
ATOM     50  C   UNL A   1      48.314  30.863  27.587  1.00  0.00     0.029 A 
ATOM     51  N   UNL A   1      46.737  29.296  27.519  1.00  0.00    -0.354 N 
ATOM     52  N   UNL A   1      45.697  26.571  27.059  1.00  0.00    -0.248 NA
ATOM     53  C   UNL A   1      46.013  24.381  26.306  1.00  0.00     0.031 C 
ATOM     54  C   UNL A   1      48.873  29.692  27.065  1.00  0.00     0.029 A 
ATOM     55  C   UNL A   1      47.898  28.706  27.049  1.00  0.00     0.049 A 
ATOM     56  H   UNL A   1      45.870  28.839  27.614  1.00  0.00     0.167 HD
ATOM     57  C   UNL A   1      47.018  26.417  26.652  1.00  0.00     0.074 A 
ATOM     58  C   UNL A   1      47.161  25.038  26.226  1.00  0.00     0.031 C 
ATOM     59  C   UNL A   1      48.022  27.329  26.635  1.00  0.00     0.037 A 
BRANCH  46  60
ATOM     60  C   UNL A   1      46.363  32.976  28.580  1.00  0.00     0.058 A 
ATOM     61  C   UNL A   1      46.276  33.953  27.574  1.00  0.00     0.135 A 
ATOM     62  C   UNL A   1      46.835  33.380  29.840  1.00  0.00     0.135 A 
ATOM     63  F   UNL A   1      45.846  33.624  26.345  1.00  0.00    -0.206 F 
ATOM     64  C   UNL A   1      46.691  35.263  27.790  1.00  0.00     0.059 A 
ATOM     65  C   UNL A   1      47.222  34.695  30.090  1.00  0.00     0.059 A 
ATOM     66  F   UNL A   1      46.940  32.492  30.841  1.00  0.00    -0.206 F 
ATOM     67  C   UNL A   1      47.168  35.623  29.051  1.00  0.00     0.060 A 
BRANCH  67  68
ATOM     68  S   UNL A   1      47.730  37.319  29.306  1.00  0.00     0.124 S 
ATOM     69  O   UNL A   1      46.666  38.079  28.659  1.00  0.00    -0.237 OA
ATOM     70  O   UNL A   1      47.782  37.414  30.761  1.00  0.00    -0.237 OA
ATOM     71  O   UNL A   1      49.025  37.353  28.632  1.00  0.00    -0.744 OA
ENDBRANCH  67  68
ENDBRANCH  46  60
BRANCH  47  72
ATOM     72  C   UNL A   1      43.267  23.580  26.966  1.00  0.00     0.058 A 
ATOM     73  C   UNL A   1      43.006  23.109  25.670  1.00  0.00     0.135 A 
ATOM     74  C   UNL A   1      43.111  22.681  28.031  1.00  0.00     0.135 A 
ATOM     75  F   UNL A   1      43.136  23.932  24.618  1.00  0.00    -0.206 F 
ATOM     76  C   UNL A   1      42.593  21.801  25.439  1.00  0.00     0.059 A 
ATOM     77  C   UNL A   1      42.727  21.360  27.822  1.00  0.00     0.059 A 
ATOM     78  F   UNL A   1      43.364  23.075  29.288  1.00  0.00    -0.206 F 
ATOM     79  C   UNL A   1      42.461  20.933  26.522  1.00  0.00     0.060 A 
BRANCH  79  80
ATOM     80  S   UNL A   1      41.974  19.223  26.203  1.00  0.00     0.124 S 
ATOM     81  O   UNL A   1      42.323  18.577  27.462  1.00  0.00    -0.237 OA
ATOM     82  O   UNL A   1      40.546  19.359  25.930  1.00  0.00    -0.237 OA
ATOM     83  O   UNL A   1      42.791  18.849  25.053  1.00  0.00    -0.744 OA
ENDBRANCH  79  80
ENDBRANCH  47  72
BRANCH  59  84
ATOM     84  C   UNL A   1      49.376  26.859  26.179  1.00  0.00     0.058 A 
ATOM     85  C   UNL A   1      49.816  27.032  24.857  1.00  0.00     0.135 A 
ATOM     86  C   UNL A   1      50.266  26.272  27.094  1.00  0.00     0.135 A 
ATOM     87  F   UNL A   1      49.002  27.579  23.940  1.00  0.00    -0.206 F 
ATOM     88  C   UNL A   1      51.080  26.616  24.452  1.00  0.00     0.059 A 
ATOM     89  C   UNL A   1      51.548  25.880  26.720  1.00  0.00     0.059 A 
ATOM     90  F   UNL A   1      49.901  26.093  28.374  1.00  0.00    -0.206 F 
ATOM     91  C   UNL A   1      51.941  26.045  25.392  1.00  0.00     0.060 A 
BRANCH  91  92
ATOM     92  S   UNL A   1      53.591  25.546  24.861  1.00  0.00     0.124 S 
ATOM     93  O   UNL A   1      54.437  26.306  25.775  1.00  0.00    -0.237 OA
ATOM     94  O   UNL A   1      53.564  24.103  25.074  1.00  0.00    -0.237 OA
ATOM     95  O   UNL A   1      53.641  25.966  23.464  1.00  0.00    -0.744 OA
ENDBRANCH  91  92
ENDBRANCH  59  84
ENDBRANCH  33  34
ENDBRANCH  25  28
ENDBRANCH  23  24
ENDBRANCH  22  23
ENDBRANCH   1  22
TORSDOF 17
ENDMDL
