MODEL 1
REMARK VINA RESULT:     -13.9      0.000      0.000
REMARK SMILES COc1cccc(-c2nn(-c3cc4c(cc3C(N)=O)OCO4)cc2C(=O)NCCCNC(=O)c2ccc(-c3c4nc(c(-c5c(F)cc(S(=O)(=O)[O-])cc5F)c5ccc([nH]5)c(-c5c(F)cc(S(=O)(=O)[O-])cc5F)c5nc(c(-c6c(F)cc(S(=O)(=O)[O-])cc6F)c6ccc3[nH]6)C=C5)C=C4)cc2)c1
REMARK SMILES IDX 29 1 28 2 27 3 25 4 26 5 24 7 8 8 9 9 10 10 23 11 7 12 3 13
REMARK SMILES IDX 4 14 100 15 5 16 6 17 2 18 1 19 11 20 12 21 16 22 13 23
REMARK SMILES IDX 15 24 14 25 22 26 20 27 21 28 17 29 18 30 19 31 30 34 31 35
REMARK SMILES IDX 32 36 33 38 34 39 35 40 99 41 36 42 98 43 37 44 38 45 39 46
REMARK SMILES IDX 92 47 40 48 97 49 91 50 93 51 41 52 96 53 90 54 89 55 42 57
REMARK SMILES IDX 76 58 55 59 75 60 56 61 59 62 74 63 94 64 57 65 58 66 73 68
REMARK SMILES IDX 95 69 60 70 43 71 44 72 53 73 45 74 46 75 52 76 54 77 47 78
REMARK SMILES IDX 48 79 49 80 50 81 51 82 77 83 78 84 87 85 79 86 80 87 86 88
REMARK SMILES IDX 88 89 81 90 82 91 83 92 84 93 85 94 61 95 62 96 71 97 63 98
REMARK SMILES IDX 64 99 70 100 72 101 65 102 66 103 67 104 68 105 69 106
REMARK H PARENT 27 6 18 32 18 33 31 37 93 56 59 67
REMARK Flexibility Score: inf
ROOT
ATOM      1  C   UNL A   1      33.199  28.908  27.228  1.00  0.00     0.042 C 
ENDROOT
BRANCH   1   2
ATOM      2  C   UNL A   1      32.206  28.840  26.064  1.00  0.00     0.118 C 
BRANCH   2   3
ATOM      3  N   UNL A   1      32.848  29.056  24.781  1.00  0.00    -0.352 N 
ATOM      4  C   UNL A   1      32.803  28.373  23.587  1.00  0.00     0.255 C 
ATOM      5  O   UNL A   1      33.394  28.896  22.650  1.00  0.00    -0.269 OA
ATOM      6  H   UNL A   1      33.432  29.849  24.760  1.00  0.00     0.163 HD
BRANCH   4   7
ATOM      7  C   UNL A   1      32.061  27.126  23.444  1.00  0.00     0.086 A 
ATOM      8  C   UNL A   1      30.647  26.942  23.235  1.00  0.00     0.106 A 
ATOM      9  N   UNL A   1      30.305  25.634  23.279  1.00  0.00    -0.167 NA
ATOM     10  N   UNL A   1      31.445  25.025  23.668  1.00  0.00    -0.239 N 
ATOM     11  C   UNL A   1      32.534  25.833  23.463  1.00  0.00     0.129 A 
BRANCH   8  12
ATOM     12  C   UNL A   1      29.637  27.980  23.003  1.00  0.00     0.007 A 
ATOM     13  C   UNL A   1      28.993  30.135  22.089  1.00  0.00     0.119 A 
ATOM     14  C   UNL A   1      27.672  29.899  22.476  1.00  0.00     0.046 A 
ATOM     15  C   UNL A   1      29.979  29.181  22.362  1.00  0.00     0.056 A 
ATOM     16  C   UNL A   1      27.327  28.715  23.123  1.00  0.00     0.005 A 
ATOM     17  C   UNL A   1      28.309  27.763  23.395  1.00  0.00     0.011 A 
BRANCH  13  18
ATOM     18  O   UNL A   1      29.211  31.352  21.500  1.00  0.00    -0.497 OA
ATOM     19  C   UNL A   1      28.105  32.246  21.509  1.00  0.00     0.278 C 
ENDBRANCH  13  18
ENDBRANCH   8  12
BRANCH  10  20
ATOM     20  C   UNL A   1      31.515  23.670  24.073  1.00  0.00     0.081 A 
ATOM     21  C   UNL A   1      31.790  22.700  23.092  1.00  0.00     0.079 A 
ATOM     22  C   UNL A   1      31.416  23.313  25.452  1.00  0.00     0.069 A 
ATOM     23  C   UNL A   1      32.046  21.418  23.530  1.00  0.00     0.167 A 
ATOM     24  C   UNL A   1      31.787  22.019  25.850  1.00  0.00     0.066 A 
ATOM     25  C   UNL A   1      32.074  21.100  24.868  1.00  0.00     0.166 A 
ATOM     26  O   UNL A   1      32.309  20.334  22.750  1.00  0.00    -0.454 OA
ATOM     27  O   UNL A   1      32.357  19.788  25.092  1.00  0.00    -0.454 OA
ATOM     28  C   UNL A   1      32.315  19.285  23.741  1.00  0.00     0.468 C 
BRANCH  22  29
ATOM     29  C   UNL A   1      30.728  24.198  26.456  1.00  0.00     0.251 C 
ATOM     30  N   UNL A   1      29.537  23.788  26.989  1.00  0.00    -0.366 N 
ATOM     31  O   UNL A   1      31.126  25.315  26.764  1.00  0.00    -0.269 OA
ATOM     32  H   UNL A   1      29.179  22.899  26.767  1.00  0.00     0.159 HD
ATOM     33  H   UNL A   1      29.039  24.384  27.594  1.00  0.00     0.159 HD
ENDBRANCH  22  29
ENDBRANCH  10  20
ENDBRANCH   4   7
ENDBRANCH   2   3
ENDBRANCH   1   2
BRANCH   1  34
ATOM     34  C   UNL A   1      34.352  29.849  26.922  1.00  0.00     0.118 C 
BRANCH  34  35
ATOM     35  N   UNL A   1      34.181  31.150  27.570  1.00  0.00    -0.352 N 
ATOM     36  C   UNL A   1      34.856  31.679  28.649  1.00  0.00     0.251 C 
ATOM     37  H   UNL A   1      33.486  31.728  27.181  1.00  0.00     0.163 HD
ATOM     38  O   UNL A   1      34.376  32.621  29.268  1.00  0.00    -0.269 OA
BRANCH  36  39
ATOM     39  C   UNL A   1      36.147  31.093  29.054  1.00  0.00     0.039 A 
ATOM     40  C   UNL A   1      36.272  29.713  29.243  1.00  0.00     0.014 A 
ATOM     41  C   UNL A   1      37.242  31.934  29.240  1.00  0.00     0.014 A 
ATOM     42  C   UNL A   1      37.528  29.185  29.531  1.00  0.00     0.010 A 
ATOM     43  C   UNL A   1      38.500  31.403  29.387  1.00  0.00     0.010 A 
ATOM     44  C   UNL A   1      38.645  30.034  29.574  1.00  0.00    -0.014 A 
BRANCH  44  45
ATOM     45  C   UNL A   1      39.992  29.481  29.669  1.00  0.00     0.031 A 
ATOM     46  C   UNL A   1      40.466  29.289  31.068  1.00  0.00     0.074 A 
ATOM     47  C   UNL A   1      40.667  28.974  28.615  1.00  0.00     0.049 A 
ATOM     48  N   UNL A   1      41.373  29.966  31.687  1.00  0.00    -0.248 NA
ATOM     49  C   UNL A   1      39.728  28.357  31.936  1.00  0.00     0.031 C 
ATOM     50  C   UNL A   1      40.194  28.797  27.237  1.00  0.00     0.029 A 
ATOM     51  N   UNL A   1      41.900  28.398  28.577  1.00  0.00    -0.354 N 
ATOM     52  C   UNL A   1      41.500  29.375  32.942  1.00  0.00     0.074 A 
ATOM     53  C   UNL A   1      40.330  28.555  33.112  1.00  0.00     0.031 C 
ATOM     54  C   UNL A   1      41.022  27.956  26.578  1.00  0.00     0.029 A 
ATOM     55  C   UNL A   1      42.166  27.666  27.423  1.00  0.00     0.049 A 
ATOM     56  H   UNL A   1      42.553  28.493  29.308  1.00  0.00     0.167 HD
ATOM     57  C   UNL A   1      42.683  29.411  33.618  1.00  0.00     0.037 A 
ATOM     58  C   UNL A   1      43.235  26.859  27.193  1.00  0.00     0.037 A 
ATOM     59  C   UNL A   1      43.585  30.364  33.019  1.00  0.00     0.049 A 
ATOM     60  C   UNL A   1      44.294  27.264  28.154  1.00  0.00     0.074 A 
ATOM     61  C   UNL A   1      43.542  31.721  32.765  1.00  0.00     0.029 A 
ATOM     62  N   UNL A   1      44.585  29.861  32.220  1.00  0.00    -0.354 N 
ATOM     63  N   UNL A   1      44.908  28.415  28.114  1.00  0.00    -0.248 NA
ATOM     64  C   UNL A   1      44.344  26.579  29.436  1.00  0.00     0.031 C 
ATOM     65  C   UNL A   1      44.175  31.878  31.498  1.00  0.00     0.029 A 
ATOM     66  C   UNL A   1      44.642  30.628  31.086  1.00  0.00     0.049 A 
ATOM     67  H   UNL A   1      45.158  29.087  32.426  1.00  0.00     0.167 HD
ATOM     68  C   UNL A   1      45.020  28.801  29.441  1.00  0.00     0.074 A 
ATOM     69  C   UNL A   1      44.748  27.589  30.212  1.00  0.00     0.031 C 
ATOM     70  C   UNL A   1      45.035  30.121  29.790  1.00  0.00     0.037 A 
BRANCH  57  71
ATOM     71  C   UNL A   1      43.186  28.334  34.557  1.00  0.00     0.058 A 
ATOM     72  C   UNL A   1      43.602  28.704  35.856  1.00  0.00     0.135 A 
ATOM     73  C   UNL A   1      43.549  27.031  34.154  1.00  0.00     0.135 A 
ATOM     74  F   UNL A   1      43.312  29.919  36.348  1.00  0.00    -0.206 F 
ATOM     75  C   UNL A   1      44.391  27.877  36.654  1.00  0.00     0.059 A 
ATOM     76  C   UNL A   1      44.289  26.169  34.957  1.00  0.00     0.059 A 
ATOM     77  F   UNL A   1      43.292  26.559  32.930  1.00  0.00    -0.206 F 
ATOM     78  C   UNL A   1      44.742  26.615  36.188  1.00  0.00     0.060 A 
BRANCH  78  79
ATOM     79  S   UNL A   1      45.833  25.580  37.177  1.00  0.00     0.124 S 
ATOM     80  O   UNL A   1      44.873  24.802  37.951  1.00  0.00    -0.237 OA
ATOM     81  O   UNL A   1      46.569  24.850  36.149  1.00  0.00    -0.237 OA
ATOM     82  O   UNL A   1      46.620  26.549  37.933  1.00  0.00    -0.744 OA
ENDBRANCH  78  79
ENDBRANCH  57  71
BRANCH  58  83
ATOM     83  C   UNL A   1      43.306  25.587  26.421  1.00  0.00     0.058 A 
ATOM     84  C   UNL A   1      44.228  25.427  25.369  1.00  0.00     0.135 A 
ATOM     85  C   UNL A   1      42.689  24.408  26.885  1.00  0.00     0.135 A 
ATOM     86  F   UNL A   1      44.875  26.491  24.869  1.00  0.00    -0.206 F 
ATOM     87  C   UNL A   1      44.568  24.169  24.855  1.00  0.00     0.059 A 
ATOM     88  C   UNL A   1      43.003  23.145  26.381  1.00  0.00     0.059 A 
ATOM     89  F   UNL A   1      41.828  24.436  27.914  1.00  0.00    -0.206 F 
ATOM     90  C   UNL A   1      43.967  23.029  25.387  1.00  0.00     0.060 A 
BRANCH  90  91
ATOM     91  S   UNL A   1      44.550  21.395  24.873  1.00  0.00     0.124 S 
ATOM     92  O   UNL A   1      44.640  21.545  23.426  1.00  0.00    -0.237 OA
ATOM     93  O   UNL A   1      45.820  21.282  25.582  1.00  0.00    -0.237 OA
ATOM     94  O   UNL A   1      43.498  20.497  25.344  1.00  0.00    -0.744 OA
ENDBRANCH  90  91
ENDBRANCH  58  83
BRANCH  70  95
ATOM     95  C   UNL A   1      45.279  31.146  28.711  1.00  0.00     0.058 A 
ATOM     96  C   UNL A   1      44.292  31.688  27.869  1.00  0.00     0.135 A 
ATOM     97  C   UNL A   1      46.564  31.705  28.631  1.00  0.00     0.135 A 
ATOM     98  F   UNL A   1      43.015  31.288  27.952  1.00  0.00    -0.206 F 
ATOM     99  C   UNL A   1      44.583  32.704  26.955  1.00  0.00     0.059 A 
ATOM    100  C   UNL A   1      46.868  32.741  27.754  1.00  0.00     0.059 A 
ATOM    101  F   UNL A   1      47.538  31.276  29.451  1.00  0.00    -0.206 F 
ATOM    102  C   UNL A   1      45.877  33.225  26.906  1.00  0.00     0.060 A 
BRANCH 102 103
ATOM    103  S   UNL A   1      46.243  34.575  25.765  1.00  0.00     0.124 S 
ATOM    104  O   UNL A   1      47.652  34.349  25.463  1.00  0.00    -0.237 OA
ATOM    105  O   UNL A   1      45.311  34.328  24.668  1.00  0.00    -0.237 OA
ATOM    106  O   UNL A   1      45.959  35.773  26.552  1.00  0.00    -0.744 OA
ENDBRANCH 102 103
ENDBRANCH  70  95
ENDBRANCH  44  45
ENDBRANCH  36  39
ENDBRANCH  34  35
ENDBRANCH   1  34
TORSDOF 17
ENDMDL
MODEL 2
REMARK VINA RESULT:     -13.4      1.659      2.144
REMARK SMILES COc1cccc(-c2nn(-c3cc4c(cc3C(N)=O)OCO4)cc2C(=O)NCCCNC(=O)c2ccc(-c3c4nc(c(-c5c(F)cc(S(=O)(=O)[O-])cc5F)c5ccc([nH]5)c(-c5c(F)cc(S(=O)(=O)[O-])cc5F)c5nc(c(-c6c(F)cc(S(=O)(=O)[O-])cc6F)c6ccc3[nH]6)C=C5)C=C4)cc2)c1
REMARK SMILES IDX 29 1 28 2 27 3 25 4 26 5 24 7 8 8 9 9 10 10 23 11 7 12 3 13
REMARK SMILES IDX 4 14 100 15 5 16 6 17 2 18 1 19 11 20 12 21 16 22 13 23
REMARK SMILES IDX 15 24 14 25 22 26 20 27 21 28 17 29 18 30 19 31 30 34 31 35
REMARK SMILES IDX 32 36 33 38 34 39 35 40 99 41 36 42 98 43 37 44 38 45 39 46
REMARK SMILES IDX 92 47 40 48 97 49 91 50 93 51 41 52 96 53 90 54 89 55 42 57
REMARK SMILES IDX 76 58 55 59 75 60 56 61 59 62 74 63 94 64 57 65 58 66 73 68
REMARK SMILES IDX 95 69 60 70 43 71 44 72 53 73 45 74 46 75 52 76 54 77 47 78
REMARK SMILES IDX 48 79 49 80 50 81 51 82 77 83 78 84 87 85 79 86 80 87 86 88
REMARK SMILES IDX 88 89 81 90 82 91 83 92 84 93 85 94 61 95 62 96 71 97 63 98
REMARK SMILES IDX 64 99 70 100 72 101 65 102 66 103 67 104 68 105 69 106
REMARK H PARENT 27 6 18 32 18 33 31 37 93 56 59 67
REMARK Flexibility Score: inf
ROOT
ATOM      1  C   UNL A   1      34.760  30.244  27.565  1.00  0.00     0.042 C 
ENDROOT
BRANCH   1   2
ATOM      2  C   UNL A   1      33.539  30.119  26.648  1.00  0.00     0.118 C 
BRANCH   2   3
ATOM      3  N   UNL A   1      32.407  29.507  27.319  1.00  0.00    -0.352 N 
ATOM      4  C   UNL A   1      31.846  28.253  27.246  1.00  0.00     0.255 C 
ATOM      5  O   UNL A   1      30.944  28.025  28.043  1.00  0.00    -0.269 OA
ATOM      6  H   UNL A   1      31.950  30.108  27.951  1.00  0.00     0.163 HD
BRANCH   4   7
ATOM      7  C   UNL A   1      32.329  27.249  26.305  1.00  0.00     0.086 A 
ATOM      8  C   UNL A   1      31.738  26.832  25.058  1.00  0.00     0.106 A 
ATOM      9  N   UNL A   1      32.406  25.785  24.520  1.00  0.00    -0.167 NA
ATOM     10  N   UNL A   1      33.291  25.449  25.481  1.00  0.00    -0.239 N 
ATOM     11  C   UNL A   1      33.465  26.474  26.375  1.00  0.00     0.129 A 
BRANCH   8  12
ATOM     12  C   UNL A   1      30.566  27.405  24.390  1.00  0.00     0.007 A 
ATOM     13  C   UNL A   1      29.524  29.186  23.109  1.00  0.00     0.119 A 
ATOM     14  C   UNL A   1      28.350  28.435  23.029  1.00  0.00     0.046 A 
ATOM     15  C   UNL A   1      30.630  28.677  23.799  1.00  0.00     0.056 A 
ATOM     16  C   UNL A   1      28.275  27.176  23.622  1.00  0.00     0.005 A 
ATOM     17  C   UNL A   1      29.376  26.669  24.310  1.00  0.00     0.011 A 
BRANCH  13  18
ATOM     18  O   UNL A   1      29.458  30.422  22.522  1.00  0.00    -0.497 OA
ATOM     19  C   UNL A   1      28.400  30.602  21.588  1.00  0.00     0.278 C 
ENDBRANCH  13  18
ENDBRANCH   8  12
BRANCH  10  20
ATOM     20  C   UNL A   1      34.057  24.259  25.464  1.00  0.00     0.081 A 
ATOM     21  C   UNL A   1      35.252  24.253  24.721  1.00  0.00     0.079 A 
ATOM     22  C   UNL A   1      33.685  23.137  26.265  1.00  0.00     0.069 A 
ATOM     23  C   UNL A   1      36.080  23.160  24.870  1.00  0.00     0.167 A 
ATOM     24  C   UNL A   1      34.611  22.101  26.460  1.00  0.00     0.066 A 
ATOM     25  C   UNL A   1      35.780  22.136  25.737  1.00  0.00     0.166 A 
ATOM     26  O   UNL A   1      37.261  22.947  24.229  1.00  0.00    -0.454 OA
ATOM     27  O   UNL A   1      36.729  21.161  25.748  1.00  0.00    -0.454 OA
ATOM     28  C   UNL A   1      37.558  21.601  24.653  1.00  0.00     0.468 C 
BRANCH  22  29
ATOM     29  C   UNL A   1      32.268  22.923  26.724  1.00  0.00     0.251 C 
ATOM     30  N   UNL A   1      31.275  22.848  25.787  1.00  0.00    -0.366 N 
ATOM     31  O   UNL A   1      31.931  22.899  27.902  1.00  0.00    -0.269 OA
ATOM     32  H   UNL A   1      31.501  22.865  24.829  1.00  0.00     0.159 HD
ATOM     33  H   UNL A   1      30.335  22.777  26.071  1.00  0.00     0.159 HD
ENDBRANCH  22  29
ENDBRANCH  10  20
ENDBRANCH   4   7
ENDBRANCH   2   3
ENDBRANCH   1   2
BRANCH   1  34
ATOM     34  C   UNL A   1      35.195  31.693  27.717  1.00  0.00     0.118 C 
BRANCH  34  35
ATOM     35  N   UNL A   1      34.719  32.275  28.973  1.00  0.00    -0.352 N 
ATOM     36  C   UNL A   1      35.175  32.063  30.257  1.00  0.00     0.251 C 
ATOM     37  H   UNL A   1      33.969  32.906  28.889  1.00  0.00     0.163 HD
ATOM     38  O   UNL A   1      34.468  32.360  31.213  1.00  0.00    -0.269 OA
BRANCH  36  39
ATOM     39  C   UNL A   1      36.508  31.468  30.463  1.00  0.00     0.039 A 
ATOM     40  C   UNL A   1      36.648  30.091  30.657  1.00  0.00     0.014 A 
ATOM     41  C   UNL A   1      37.627  32.299  30.457  1.00  0.00     0.014 A 
ATOM     42  C   UNL A   1      37.929  29.552  30.752  1.00  0.00     0.010 A 
ATOM     43  C   UNL A   1      38.887  31.754  30.413  1.00  0.00     0.010 A 
ATOM     44  C   UNL A   1      39.047  30.387  30.601  1.00  0.00    -0.014 A 
BRANCH  44  45
ATOM     45  C   UNL A   1      40.386  29.819  30.492  1.00  0.00     0.031 A 
ATOM     46  C   UNL A   1      41.076  29.651  31.801  1.00  0.00     0.074 A 
ATOM     47  C   UNL A   1      40.879  29.280  29.356  1.00  0.00     0.049 A 
ATOM     48  N   UNL A   1      42.078  30.329  32.252  1.00  0.00    -0.248 NA
ATOM     49  C   UNL A   1      40.478  28.747  32.798  1.00  0.00     0.031 C 
ATOM     50  C   UNL A   1      40.190  29.081  28.076  1.00  0.00     0.029 A 
ATOM     51  N   UNL A   1      42.085  28.689  29.135  1.00  0.00    -0.354 N 
ATOM     52  C   UNL A   1      42.398  29.764  33.483  1.00  0.00     0.074 A 
ATOM     53  C   UNL A   1      41.262  28.963  33.858  1.00  0.00     0.031 C 
ATOM     54  C   UNL A   1      40.893  28.215  27.312  1.00  0.00     0.029 A 
ATOM     55  C   UNL A   1      42.155  27.929  27.970  1.00  0.00     0.049 A 
ATOM     56  H   UNL A   1      42.847  28.790  29.750  1.00  0.00     0.167 HD
ATOM     57  C   UNL A   1      43.674  29.799  33.961  1.00  0.00     0.037 A 
ATOM     58  C   UNL A   1      43.166  27.103  27.591  1.00  0.00     0.037 A 
ATOM     59  C   UNL A   1      44.478  30.727  33.203  1.00  0.00     0.049 A 
ATOM     60  C   UNL A   1      44.369  27.515  28.361  1.00  0.00     0.074 A 
ATOM     61  C   UNL A   1      44.407  32.079  32.928  1.00  0.00     0.029 A 
ATOM     62  N   UNL A   1      45.332  30.195  32.267  1.00  0.00    -0.354 N 
ATOM     63  N   UNL A   1      44.980  28.656  28.197  1.00  0.00    -0.248 NA
ATOM     64  C   UNL A   1      44.618  26.857  29.634  1.00  0.00     0.031 C 
ATOM     65  C   UNL A   1      44.831  32.201  31.572  1.00  0.00     0.029 A 
ATOM     66  C   UNL A   1      45.213  30.936  31.121  1.00  0.00     0.049 A 
ATOM     67  H   UNL A   1      45.923  29.418  32.396  1.00  0.00     0.167 HD
ATOM     68  C   UNL A   1      45.306  29.069  29.479  1.00  0.00     0.074 A 
ATOM     69  C   UNL A   1      45.150  27.878  30.312  1.00  0.00     0.031 C 
ATOM     70  C   UNL A   1      45.389  30.397  29.791  1.00  0.00     0.037 A 
BRANCH  57  71
ATOM     71  C   UNL A   1      44.312  28.736  34.832  1.00  0.00     0.058 A 
ATOM     72  C   UNL A   1      44.265  27.390  34.408  1.00  0.00     0.135 A 
ATOM     73  C   UNL A   1      44.700  28.934  36.174  1.00  0.00     0.135 A 
ATOM     74  F   UNL A   1      43.911  27.079  33.150  1.00  0.00    -0.206 F 
ATOM     75  C   UNL A   1      44.498  26.322  35.274  1.00  0.00     0.059 A 
ATOM     76  C   UNL A   1      44.990  27.884  37.041  1.00  0.00     0.059 A 
ATOM     77  F   UNL A   1      44.724  30.142  36.746  1.00  0.00    -0.206 F 
ATOM     78  C   UNL A   1      44.846  26.582  36.594  1.00  0.00     0.060 A 
BRANCH  78  79
ATOM     79  S   UNL A   1      45.060  25.207  37.738  1.00  0.00     0.124 S 
ATOM     80  O   UNL A   1      44.412  24.121  37.012  1.00  0.00    -0.237 OA
ATOM     81  O   UNL A   1      46.514  25.129  37.844  1.00  0.00    -0.237 OA
ATOM     82  O   UNL A   1      44.373  25.663  38.942  1.00  0.00    -0.744 OA
ENDBRANCH  78  79
ENDBRANCH  57  71
BRANCH  58  83
ATOM     83  C   UNL A   1      43.101  25.814  26.848  1.00  0.00     0.058 A 
ATOM     84  C   UNL A   1      43.647  25.692  25.556  1.00  0.00     0.135 A 
ATOM     85  C   UNL A   1      42.774  24.606  27.495  1.00  0.00     0.135 A 
ATOM     86  F   UNL A   1      44.000  26.787  24.866  1.00  0.00    -0.206 F 
ATOM     87  C   UNL A   1      43.916  24.450  24.969  1.00  0.00     0.059 A 
ATOM     88  C   UNL A   1      43.023  23.355  26.926  1.00  0.00     0.059 A 
ATOM     89  F   UNL A   1      42.290  24.600  28.746  1.00  0.00    -0.206 F 
ATOM     90  C   UNL A   1      43.624  23.284  25.675  1.00  0.00     0.060 A 
BRANCH  90  91
ATOM     91  S   UNL A   1      44.157  21.685  25.014  1.00  0.00     0.124 S 
ATOM     92  O   UNL A   1      44.282  21.972  23.590  1.00  0.00    -0.237 OA
ATOM     93  O   UNL A   1      45.407  21.456  25.730  1.00  0.00    -0.237 OA
ATOM     94  O   UNL A   1      43.063  20.787  25.377  1.00  0.00    -0.744 OA
ENDBRANCH  90  91
ENDBRANCH  58  83
BRANCH  70  95
ATOM     95  C   UNL A   1      45.467  31.395  28.663  1.00  0.00     0.058 A 
ATOM     96  C   UNL A   1      44.362  31.979  28.020  1.00  0.00     0.135 A 
ATOM     97  C   UNL A   1      46.737  31.883  28.320  1.00  0.00     0.135 A 
ATOM     98  F   UNL A   1      43.107  31.649  28.361  1.00  0.00    -0.206 F 
ATOM     99  C   UNL A   1      44.517  32.968  27.045  1.00  0.00     0.059 A 
ATOM    100  C   UNL A   1      46.914  32.892  27.378  1.00  0.00     0.059 A 
ATOM    101  F   UNL A   1      47.831  31.412  28.941  1.00  0.00    -0.206 F 
ATOM    102  C   UNL A   1      45.800  33.419  26.731  1.00  0.00     0.060 A 
BRANCH 102 103
ATOM    103  S   UNL A   1      46.002  34.734  25.512  1.00  0.00     0.124 S 
ATOM    104  O   UNL A   1      45.076  34.325  24.462  1.00  0.00    -0.237 OA
ATOM    105  O   UNL A   1      45.621  35.927  26.264  1.00  0.00    -0.237 OA
ATOM    106  O   UNL A   1      47.418  34.658  25.159  1.00  0.00    -0.744 OA
ENDBRANCH 102 103
ENDBRANCH  70  95
ENDBRANCH  44  45
ENDBRANCH  36  39
ENDBRANCH  34  35
ENDBRANCH   1  34
TORSDOF 17
ENDMDL
MODEL 3
REMARK VINA RESULT:     -12.9      3.202      7.698
REMARK SMILES COc1cccc(-c2nn(-c3cc4c(cc3C(N)=O)OCO4)cc2C(=O)NCCCNC(=O)c2ccc(-c3c4nc(c(-c5c(F)cc(S(=O)(=O)[O-])cc5F)c5ccc([nH]5)c(-c5c(F)cc(S(=O)(=O)[O-])cc5F)c5nc(c(-c6c(F)cc(S(=O)(=O)[O-])cc6F)c6ccc3[nH]6)C=C5)C=C4)cc2)c1
REMARK SMILES IDX 29 1 28 2 27 3 25 4 26 5 24 7 8 8 9 9 10 10 23 11 7 12 3 13
REMARK SMILES IDX 4 14 100 15 5 16 6 17 2 18 1 19 11 20 12 21 16 22 13 23
REMARK SMILES IDX 15 24 14 25 22 26 20 27 21 28 17 29 18 30 19 31 30 34 31 35
REMARK SMILES IDX 32 36 33 38 34 39 35 40 99 41 36 42 98 43 37 44 38 45 39 46
REMARK SMILES IDX 92 47 40 48 97 49 91 50 93 51 41 52 96 53 90 54 89 55 42 57
REMARK SMILES IDX 76 58 55 59 75 60 56 61 59 62 74 63 94 64 57 65 58 66 73 68
REMARK SMILES IDX 95 69 60 70 43 71 44 72 53 73 45 74 46 75 52 76 54 77 47 78
REMARK SMILES IDX 48 79 49 80 50 81 51 82 77 83 78 84 87 85 79 86 80 87 86 88
REMARK SMILES IDX 88 89 81 90 82 91 83 92 84 93 85 94 61 95 62 96 71 97 63 98
REMARK SMILES IDX 64 99 70 100 72 101 65 102 66 103 67 104 68 105 69 106
REMARK H PARENT 27 6 18 32 18 33 31 37 93 56 59 67
REMARK Flexibility Score: inf
ROOT
ATOM      1  C   UNL A   1      31.919  29.931  25.695  1.00  0.00     0.042 C 
ENDROOT
BRANCH   1   2
ATOM      2  C   UNL A   1      32.807  28.713  25.423  1.00  0.00     0.118 C 
BRANCH   2   3
ATOM      3  N   UNL A   1      33.340  28.712  24.073  1.00  0.00    -0.352 N 
ATOM      4  C   UNL A   1      33.145  27.883  22.993  1.00  0.00     0.255 C 
ATOM      5  O   UNL A   1      33.678  28.234  21.947  1.00  0.00    -0.269 OA
ATOM      6  H   UNL A   1      33.966  29.451  23.895  1.00  0.00     0.163 HD
BRANCH   4   7
ATOM      7  C   UNL A   1      32.321  26.684  23.085  1.00  0.00     0.086 A 
ATOM      8  C   UNL A   1      30.884  26.584  23.128  1.00  0.00     0.106 A 
ATOM      9  N   UNL A   1      30.481  25.310  23.343  1.00  0.00    -0.167 NA
ATOM     10  N   UNL A   1      31.634  24.655  23.592  1.00  0.00    -0.239 N 
ATOM     11  C   UNL A   1      32.716  25.366  23.141  1.00  0.00     0.129 A 
BRANCH   8  12
ATOM     12  C   UNL A   1      29.909  27.669  22.973  1.00  0.00     0.007 A 
ATOM     13  C   UNL A   1      29.307  29.863  22.126  1.00  0.00     0.119 A 
ATOM     14  C   UNL A   1      28.003  29.682  22.595  1.00  0.00     0.046 A 
ATOM     15  C   UNL A   1      30.263  28.862  22.324  1.00  0.00     0.056 A 
ATOM     16  C   UNL A   1      27.647  28.505  23.251  1.00  0.00     0.005 A 
ATOM     17  C   UNL A   1      28.600  27.507  23.448  1.00  0.00     0.011 A 
BRANCH  13  18
ATOM     18  O   UNL A   1      29.541  31.077  21.536  1.00  0.00    -0.497 OA
ATOM     19  C   UNL A   1      28.733  32.152  21.999  1.00  0.00     0.278 C 
ENDBRANCH  13  18
ENDBRANCH   8  12
BRANCH  10  20
ATOM     20  C   UNL A   1      31.694  23.334  24.099  1.00  0.00     0.081 A 
ATOM     21  C   UNL A   1      31.957  22.290  23.194  1.00  0.00     0.079 A 
ATOM     22  C   UNL A   1      31.600  23.085  25.502  1.00  0.00     0.069 A 
ATOM     23  C   UNL A   1      32.204  21.043  23.728  1.00  0.00     0.167 A 
ATOM     24  C   UNL A   1      31.962  21.822  25.996  1.00  0.00     0.066 A 
ATOM     25  C   UNL A   1      32.237  20.828  25.085  1.00  0.00     0.166 A 
ATOM     26  O   UNL A   1      32.455  19.900  23.032  1.00  0.00    -0.454 OA
ATOM     27  O   UNL A   1      32.510  19.535  25.408  1.00  0.00    -0.454 OA
ATOM     28  C   UNL A   1      32.457  18.930  24.100  1.00  0.00     0.468 C 
BRANCH  22  29
ATOM     29  C   UNL A   1      30.924  24.049  26.438  1.00  0.00     0.251 C 
ATOM     30  N   UNL A   1      31.422  25.317  26.551  1.00  0.00    -0.366 N 
ATOM     31  O   UNL A   1      29.997  23.742  27.179  1.00  0.00    -0.269 OA
ATOM     32  H   UNL A   1      32.166  25.606  25.975  1.00  0.00     0.159 HD
ATOM     33  H   UNL A   1      31.035  25.941  27.208  1.00  0.00     0.159 HD
ENDBRANCH  22  29
ENDBRANCH  10  20
ENDBRANCH   4   7
ENDBRANCH   2   3
ENDBRANCH   1   2
BRANCH   1  34
ATOM     34  C   UNL A   1      32.374  30.684  26.935  1.00  0.00     0.118 C 
BRANCH  34  35
ATOM     35  N   UNL A   1      32.048  32.109  26.856  1.00  0.00    -0.352 N 
ATOM     36  C   UNL A   1      32.616  33.170  27.528  1.00  0.00     0.251 C 
ATOM     37  H   UNL A   1      31.320  32.342  26.236  1.00  0.00     0.163 HD
ATOM     38  O   UNL A   1      32.019  34.237  27.603  1.00  0.00    -0.269 OA
BRANCH  36  39
ATOM     39  C   UNL A   1      33.937  33.001  28.162  1.00  0.00     0.039 A 
ATOM     40  C   UNL A   1      34.082  32.198  29.297  1.00  0.00     0.014 A 
ATOM     41  C   UNL A   1      35.040  33.649  27.609  1.00  0.00     0.014 A 
ATOM     42  C   UNL A   1      35.358  31.984  29.812  1.00  0.00     0.010 A 
ATOM     43  C   UNL A   1      36.307  33.330  28.031  1.00  0.00     0.010 A 
ATOM     44  C   UNL A   1      36.471  32.532  29.156  1.00  0.00    -0.014 A 
BRANCH  44  45
ATOM     45  C   UNL A   1      37.824  32.156  29.553  1.00  0.00     0.031 A 
ATOM     46  C   UNL A   1      38.175  30.745  29.229  1.00  0.00     0.074 A 
ATOM     47  C   UNL A   1      38.757  33.043  29.961  1.00  0.00     0.049 A 
ATOM     48  N   UNL A   1      38.332  29.767  30.056  1.00  0.00    -0.248 NA
ATOM     49  C   UNL A   1      38.181  30.330  27.816  1.00  0.00     0.031 C 
ATOM     50  C   UNL A   1      38.653  34.506  30.015  1.00  0.00     0.029 A 
ATOM     51  N   UNL A   1      40.053  32.829  30.316  1.00  0.00    -0.354 N 
ATOM     52  C   UNL A   1      38.708  28.671  29.285  1.00  0.00     0.074 A 
ATOM     53  C   UNL A   1      38.383  29.014  27.926  1.00  0.00     0.031 C 
ATOM     54  C   UNL A   1      39.886  35.044  30.144  1.00  0.00     0.029 A 
ATOM     55  C   UNL A   1      40.845  33.974  30.349  1.00  0.00     0.049 A 
ATOM     56  H   UNL A   1      40.404  31.935  30.534  1.00  0.00     0.167 HD
ATOM     57  C   UNL A   1      39.493  27.684  29.803  1.00  0.00     0.037 A 
ATOM     58  C   UNL A   1      42.194  34.034  30.503  1.00  0.00     0.037 A 
ATOM     59  C   UNL A   1      39.570  27.795  31.240  1.00  0.00     0.049 A 
ATOM     60  C   UNL A   1      42.613  32.744  31.113  1.00  0.00     0.074 A 
ATOM     61  C   UNL A   1      38.649  27.781  32.269  1.00  0.00     0.029 A 
ATOM     62  N   UNL A   1      40.714  28.347  31.764  1.00  0.00    -0.354 N 
ATOM     63  N   UNL A   1      42.295  32.377  32.324  1.00  0.00    -0.248 NA
ATOM     64  C   UNL A   1      42.995  31.663  30.218  1.00  0.00     0.031 C 
ATOM     65  C   UNL A   1      39.124  28.751  33.200  1.00  0.00     0.029 A 
ATOM     66  C   UNL A   1      40.344  29.242  32.732  1.00  0.00     0.049 A 
ATOM     67  H   UNL A   1      41.637  28.137  31.490  1.00  0.00     0.167 HD
ATOM     68  C   UNL A   1      41.998  31.027  32.217  1.00  0.00     0.074 A 
ATOM     69  C   UNL A   1      42.543  30.621  30.923  1.00  0.00     0.031 C 
ATOM     70  C   UNL A   1      41.090  30.439  33.051  1.00  0.00     0.037 A 
BRANCH  57  71
ATOM     71  C   UNL A   1      40.501  26.867  29.022  1.00  0.00     0.058 A 
ATOM     72  C   UNL A   1      41.667  27.504  28.542  1.00  0.00     0.135 A 
ATOM     73  C   UNL A   1      40.244  25.589  28.483  1.00  0.00     0.135 A 
ATOM     74  F   UNL A   1      42.014  28.723  28.985  1.00  0.00    -0.206 F 
ATOM     75  C   UNL A   1      42.464  26.951  27.540  1.00  0.00     0.059 A 
ATOM     76  C   UNL A   1      41.057  24.995  27.522  1.00  0.00     0.059 A 
ATOM     77  F   UNL A   1      39.145  24.889  28.782  1.00  0.00    -0.206 F 
ATOM     78  C   UNL A   1      42.140  25.701  27.026  1.00  0.00     0.060 A 
BRANCH  78  79
ATOM     79  S   UNL A   1      43.114  25.024  25.671  1.00  0.00     0.124 S 
ATOM     80  O   UNL A   1      42.538  23.691  25.537  1.00  0.00    -0.237 OA
ATOM     81  O   UNL A   1      42.820  25.961  24.591  1.00  0.00    -0.237 OA
ATOM     82  O   UNL A   1      44.480  25.075  26.183  1.00  0.00    -0.744 OA
ENDBRANCH  78  79
ENDBRANCH  57  71
BRANCH  58  83
ATOM     83  C   UNL A   1      43.171  34.982  29.900  1.00  0.00     0.058 A 
ATOM     84  C   UNL A   1      43.313  35.088  28.503  1.00  0.00     0.135 A 
ATOM     85  C   UNL A   1      43.767  36.009  30.660  1.00  0.00     0.135 A 
ATOM     86  F   UNL A   1      42.769  34.164  27.697  1.00  0.00    -0.206 F 
ATOM     87  C   UNL A   1      43.946  36.179  27.895  1.00  0.00     0.059 A 
ATOM     88  C   UNL A   1      44.413  37.100  30.076  1.00  0.00     0.059 A 
ATOM     89  F   UNL A   1      43.655  36.034  31.996  1.00  0.00    -0.206 F 
ATOM     90  C   UNL A   1      44.471  37.195  28.691  1.00  0.00     0.060 A 
BRANCH  90  91
ATOM     91  S   UNL A   1      45.103  38.701  27.911  1.00  0.00     0.124 S 
ATOM     92  O   UNL A   1      44.429  39.745  28.674  1.00  0.00    -0.237 OA
ATOM     93  O   UNL A   1      46.541  38.581  28.127  1.00  0.00    -0.237 OA
ATOM     94  O   UNL A   1      44.674  38.568  26.520  1.00  0.00    -0.744 OA
ENDBRANCH  90  91
ENDBRANCH  58  83
BRANCH  70  95
ATOM     95  C   UNL A   1      40.679  31.177  34.300  1.00  0.00     0.058 A 
ATOM     96  C   UNL A   1      39.586  32.056  34.399  1.00  0.00     0.135 A 
ATOM     97  C   UNL A   1      41.353  30.860  35.489  1.00  0.00     0.135 A 
ATOM     98  F   UNL A   1      38.820  32.332  33.333  1.00  0.00    -0.206 F 
ATOM     99  C   UNL A   1      39.213  32.631  35.617  1.00  0.00     0.059 A 
ATOM    100  C   UNL A   1      40.977  31.392  36.718  1.00  0.00     0.059 A 
ATOM    101  F   UNL A   1      42.368  29.979  35.474  1.00  0.00    -0.206 F 
ATOM    102  C   UNL A   1      39.916  32.290  36.773  1.00  0.00     0.060 A 
BRANCH 102 103
ATOM    103  S   UNL A   1      39.403  32.988  38.357  1.00  0.00     0.124 S 
ATOM    104  O   UNL A   1      40.583  32.769  39.186  1.00  0.00    -0.237 OA
ATOM    105  O   UNL A   1      39.116  34.378  38.016  1.00  0.00    -0.237 OA
ATOM    106  O   UNL A   1      38.233  32.191  38.718  1.00  0.00    -0.744 OA
ENDBRANCH 102 103
ENDBRANCH  70  95
ENDBRANCH  44  45
ENDBRANCH  36  39
ENDBRANCH  34  35
ENDBRANCH   1  34
TORSDOF 17
ENDMDL
