MODEL 1
REMARK VINA RESULT:     -11.4      0.000      0.000
REMARK SMILES C/C(=N/OCc1ccccc1Nc1c(Cl)cccc1Cl)C(=O)NCCCNC(=O)c1ccc(-c2c3nc(c(-c4c(F)cc(S(=O)(=O)[O-])cc4F)c4ccc([nH]4)c(-c4c(F)cc(S(=O)(=O)[O-])cc4F)c4nc(c(-c5c(F)cc(S(=O)(=O)[O-])cc5F)c5ccc2[nH]5)C=C4)C=C3)cc1
REMARK SMILES IDX 24 1 23 2 21 3 22 4 2 6 1 7 3 8 4 9 5 10 6 11 7 12 11 13
REMARK SMILES IDX 8 14 10 15 9 16 12 17 13 19 14 20 19 21 15 22 16 23 18 24
REMARK SMILES IDX 20 25 17 26 25 27 26 28 27 29 28 30 29 32 30 33 31 34 95 35
REMARK SMILES IDX 32 36 94 37 33 38 34 39 35 40 88 41 36 42 93 43 87 44 89 45
REMARK SMILES IDX 37 46 92 47 86 48 85 49 38 51 72 52 51 53 71 54 52 55 55 56
REMARK SMILES IDX 70 57 90 58 53 59 54 60 69 62 91 63 56 64 39 65 40 66 49 67
REMARK SMILES IDX 41 68 42 69 48 70 50 71 43 72 44 73 45 74 46 75 47 76 73 77
REMARK SMILES IDX 74 78 83 79 75 80 76 81 82 82 84 83 77 84 78 85 79 86 80 87
REMARK SMILES IDX 81 88 57 89 58 90 67 91 59 92 60 93 66 94 68 95 61 96 62 97
REMARK SMILES IDX 63 98 64 99 65 100
REMARK H PARENT 23 5 12 18 27 31 89 50 55 61
REMARK Flexibility Score: inf
ROOT
ATOM      1  C   UNL A   1      32.446  26.383  25.486  1.00  0.00     0.118 C 
ENDROOT
BRANCH   1   2
ATOM      2  N   UNL A   1      31.566  26.707  24.382  1.00  0.00    -0.351 N 
ATOM      3  C   UNL A   1      31.834  27.035  23.075  1.00  0.00     0.268 C 
ATOM      4  O   UNL A   1      30.893  27.430  22.382  1.00  0.00    -0.268 OA
ATOM      5  H   UNL A   1      30.609  26.690  24.608  1.00  0.00     0.163 HD
BRANCH   3   6
ATOM      6  C   UNL A   1      33.164  26.819  22.360  1.00  0.00     0.141 C 
ATOM      7  C   UNL A   1      34.049  28.046  22.347  1.00  0.00     0.077 C 
ATOM      8  N   UNL A   1      33.666  25.741  21.830  1.00  0.00    -0.086 NA
BRANCH   8   9
ATOM      9  O   UNL A   1      32.834  24.635  21.907  1.00  0.00    -0.390 OA
BRANCH   9  10
ATOM     10  C   UNL A   1      33.507  23.497  22.464  1.00  0.00     0.302 C 
BRANCH  10  11
ATOM     11  C   UNL A   1      32.938  22.937  23.756  1.00  0.00     0.016 A 
ATOM     12  C   UNL A   1      31.596  23.204  24.087  1.00  0.00     0.009 A 
ATOM     13  C   UNL A   1      33.745  22.204  24.653  1.00  0.00     0.045 A 
ATOM     14  C   UNL A   1      31.071  22.813  25.318  1.00  0.00     0.001 A 
ATOM     15  C   UNL A   1      33.221  21.900  25.920  1.00  0.00     0.026 A 
ATOM     16  C   UNL A   1      31.893  22.185  26.246  1.00  0.00     0.002 A 
BRANCH  13  17
ATOM     17  N   UNL A   1      35.074  21.896  24.308  1.00  0.00    -0.353 N 
ATOM     18  H   UNL A   1      35.170  21.298  23.533  1.00  0.00     0.167 HD
BRANCH  17  19
ATOM     19  C   UNL A   1      36.292  22.304  24.893  1.00  0.00     0.076 A 
ATOM     20  C   UNL A   1      37.272  21.337  25.196  1.00  0.00     0.066 A 
ATOM     21  C   UNL A   1      36.502  23.614  25.362  1.00  0.00     0.066 A 
ATOM     22  Cl  UNL A   1      37.053  19.675  24.759  1.00  0.00    -0.082 Cl
ATOM     23  C   UNL A   1      38.452  21.681  25.861  1.00  0.00     0.023 A 
ATOM     24  C   UNL A   1      37.688  23.959  26.020  1.00  0.00     0.023 A 
ATOM     25  Cl  UNL A   1      35.298  24.851  25.207  1.00  0.00    -0.082 Cl
ATOM     26  C   UNL A   1      38.665  22.996  26.264  1.00  0.00     0.003 A 
ENDBRANCH  17  19
ENDBRANCH  13  17
ENDBRANCH  10  11
ENDBRANCH   9  10
ENDBRANCH   8   9
ENDBRANCH   3   6
ENDBRANCH   1   2
BRANCH   1  27
ATOM     27  C   UNL A   1      32.419  27.499  26.538  1.00  0.00     0.042 C 
BRANCH  27  28
ATOM     28  C   UNL A   1      33.765  28.172  26.760  1.00  0.00     0.118 C 
BRANCH  28  29
ATOM     29  N   UNL A   1      33.595  29.574  27.113  1.00  0.00    -0.352 N 
ATOM     30  C   UNL A   1      34.399  30.395  27.862  1.00  0.00     0.251 C 
ATOM     31  H   UNL A   1      32.779  29.998  26.760  1.00  0.00     0.163 HD
ATOM     32  O   UNL A   1      33.929  31.456  28.286  1.00  0.00    -0.269 OA
BRANCH  30  33
ATOM     33  C   UNL A   1      35.804  30.035  28.169  1.00  0.00     0.039 A 
ATOM     34  C   UNL A   1      36.760  30.104  27.149  1.00  0.00     0.014 A 
ATOM     35  C   UNL A   1      36.178  29.567  29.431  1.00  0.00     0.014 A 
ATOM     36  C   UNL A   1      38.086  29.745  27.406  1.00  0.00     0.010 A 
ATOM     37  C   UNL A   1      37.514  29.288  29.709  1.00  0.00     0.010 A 
ATOM     38  C   UNL A   1      38.481  29.357  28.696  1.00  0.00    -0.014 A 
BRANCH  38  39
ATOM     39  C   UNL A   1      39.889  28.989  29.001  1.00  0.00     0.031 A 
ATOM     40  C   UNL A   1      40.818  30.011  29.604  1.00  0.00     0.074 A 
ATOM     41  C   UNL A   1      40.347  27.763  28.678  1.00  0.00     0.049 A 
ATOM     42  N   UNL A   1      42.101  29.921  29.847  1.00  0.00    -0.248 NA
ATOM     43  C   UNL A   1      40.236  31.317  29.953  1.00  0.00     0.031 C 
ATOM     44  C   UNL A   1      39.555  26.702  28.051  1.00  0.00     0.029 A 
ATOM     45  N   UNL A   1      41.592  27.205  28.819  1.00  0.00    -0.354 N 
ATOM     46  C   UNL A   1      42.479  31.157  30.358  1.00  0.00     0.074 A 
ATOM     47  C   UNL A   1      41.303  31.998  30.343  1.00  0.00     0.031 C 
ATOM     48  C   UNL A   1      40.329  25.618  27.879  1.00  0.00     0.029 A 
ATOM     49  C   UNL A   1      41.679  25.917  28.345  1.00  0.00     0.049 A 
ATOM     50  H   UNL A   1      42.353  27.682  29.222  1.00  0.00     0.167 HD
ATOM     51  C   UNL A   1      43.691  31.549  30.821  1.00  0.00     0.037 A 
ATOM     52  C   UNL A   1      42.729  25.076  28.284  1.00  0.00     0.037 A 
ATOM     53  C   UNL A   1      44.849  30.695  30.868  1.00  0.00     0.049 A 
ATOM     54  C   UNL A   1      44.062  25.532  28.814  1.00  0.00     0.074 A 
ATOM     55  C   UNL A   1      46.109  30.979  31.363  1.00  0.00     0.029 A 
ATOM     56  N   UNL A   1      44.884  29.386  30.410  1.00  0.00    -0.354 N 
ATOM     57  N   UNL A   1      44.389  26.691  29.334  1.00  0.00    -0.248 NA
ATOM     58  C   UNL A   1      45.168  24.567  28.752  1.00  0.00     0.031 C 
ATOM     59  C   UNL A   1      46.917  29.852  31.176  1.00  0.00     0.029 A 
ATOM     60  C   UNL A   1      46.148  28.851  30.603  1.00  0.00     0.049 A 
ATOM     61  H   UNL A   1      44.125  28.906  30.008  1.00  0.00     0.167 HD
ATOM     62  C   UNL A   1      45.729  26.583  29.690  1.00  0.00     0.074 A 
ATOM     63  C   UNL A   1      46.149  25.242  29.335  1.00  0.00     0.031 C 
ATOM     64  C   UNL A   1      46.540  27.509  30.258  1.00  0.00     0.037 A 
BRANCH  51  65
ATOM     65  C   UNL A   1      43.825  32.958  31.331  1.00  0.00     0.058 A 
ATOM     66  C   UNL A   1      44.164  34.019  30.476  1.00  0.00     0.135 A 
ATOM     67  C   UNL A   1      43.565  33.262  32.678  1.00  0.00     0.135 A 
ATOM     68  F   UNL A   1      44.439  33.783  29.183  1.00  0.00    -0.206 F 
ATOM     69  C   UNL A   1      44.262  35.327  30.940  1.00  0.00     0.059 A 
ATOM     70  C   UNL A   1      43.631  34.567  33.159  1.00  0.00     0.059 A 
ATOM     71  F   UNL A   1      43.239  32.286  33.540  1.00  0.00    -0.206 F 
ATOM     72  C   UNL A   1      43.992  35.591  32.284  1.00  0.00     0.060 A 
BRANCH  72  73
ATOM     73  S   UNL A   1      44.103  37.296  32.868  1.00  0.00     0.124 S 
ATOM     74  O   UNL A   1      43.881  38.040  31.630  1.00  0.00    -0.237 OA
ATOM     75  O   UNL A   1      43.017  37.361  33.846  1.00  0.00    -0.237 OA
ATOM     76  O   UNL A   1      45.447  37.381  33.420  1.00  0.00    -0.744 OA
ENDBRANCH  72  73
ENDBRANCH  51  65
BRANCH  52  77
ATOM     77  C   UNL A   1      42.563  23.710  27.718  1.00  0.00     0.058 A 
ATOM     78  C   UNL A   1      42.383  22.600  28.555  1.00  0.00     0.135 A 
ATOM     79  C   UNL A   1      42.586  23.487  26.332  1.00  0.00     0.135 A 
ATOM     80  F   UNL A   1      42.358  22.761  29.887  1.00  0.00    -0.206 F 
ATOM     81  C   UNL A   1      42.259  21.312  28.043  1.00  0.00     0.059 A 
ATOM     82  C   UNL A   1      42.439  22.212  25.795  1.00  0.00     0.059 A 
ATOM     83  F   UNL A   1      42.736  24.518  25.486  1.00  0.00    -0.206 F 
ATOM     84  C   UNL A   1      42.291  21.128  26.660  1.00  0.00     0.060 A 
BRANCH  84  85
ATOM     85  S   UNL A   1      42.105  19.456  26.002  1.00  0.00     0.124 S 
ATOM     86  O   UNL A   1      42.587  18.648  27.117  1.00  0.00    -0.237 OA
ATOM     87  O   UNL A   1      40.670  19.387  25.737  1.00  0.00    -0.237 OA
ATOM     88  O   UNL A   1      42.953  19.467  24.816  1.00  0.00    -0.744 OA
ENDBRANCH  84  85
ENDBRANCH  52  77
BRANCH  64  89
ATOM     89  C   UNL A   1      47.951  27.094  30.569  1.00  0.00     0.058 A 
ATOM     90  C   UNL A   1      49.000  27.314  29.663  1.00  0.00     0.135 A 
ATOM     91  C   UNL A   1      48.262  26.517  31.810  1.00  0.00     0.135 A 
ATOM     92  F   UNL A   1      48.754  27.857  28.461  1.00  0.00    -0.206 F 
ATOM     93  C   UNL A   1      50.309  26.955  29.970  1.00  0.00     0.059 A 
ATOM     94  C   UNL A   1      49.567  26.175  32.148  1.00  0.00     0.059 A 
ATOM     95  F   UNL A   1      47.295  26.296  32.715  1.00  0.00    -0.206 F 
ATOM     96  C   UNL A   1      50.582  26.387  31.216  1.00  0.00     0.060 A 
BRANCH  96  97
ATOM     97  S   UNL A   1      52.289  25.958  31.617  1.00  0.00     0.124 S 
ATOM     98  O   UNL A   1      52.139  24.602  32.131  1.00  0.00    -0.237 OA
ATOM     99  O   UNL A   1      52.953  26.075  30.322  1.00  0.00    -0.237 OA
ATOM    100  O   UNL A   1      52.670  26.966  32.602  1.00  0.00    -0.744 OA
ENDBRANCH  96  97
ENDBRANCH  64  89
ENDBRANCH  38  39
ENDBRANCH  30  33
ENDBRANCH  28  29
ENDBRANCH  27  28
ENDBRANCH   1  27
TORSDOF 18
ENDMDL
MODEL 2
REMARK VINA RESULT:     -11.4      1.469      2.712
REMARK SMILES C/C(=N/OCc1ccccc1Nc1c(Cl)cccc1Cl)C(=O)NCCCNC(=O)c1ccc(-c2c3nc(c(-c4c(F)cc(S(=O)(=O)[O-])cc4F)c4ccc([nH]4)c(-c4c(F)cc(S(=O)(=O)[O-])cc4F)c4nc(c(-c5c(F)cc(S(=O)(=O)[O-])cc5F)c5ccc2[nH]5)C=C4)C=C3)cc1
REMARK SMILES IDX 24 1 23 2 21 3 22 4 2 6 1 7 3 8 4 9 5 10 6 11 7 12 11 13
REMARK SMILES IDX 8 14 10 15 9 16 12 17 13 19 14 20 19 21 15 22 16 23 18 24
REMARK SMILES IDX 20 25 17 26 25 27 26 28 27 29 28 30 29 32 30 33 31 34 95 35
REMARK SMILES IDX 32 36 94 37 33 38 34 39 35 40 88 41 36 42 93 43 87 44 89 45
REMARK SMILES IDX 37 46 92 47 86 48 85 49 38 51 72 52 51 53 71 54 52 55 55 56
REMARK SMILES IDX 70 57 90 58 53 59 54 60 69 62 91 63 56 64 39 65 40 66 49 67
REMARK SMILES IDX 41 68 42 69 48 70 50 71 43 72 44 73 45 74 46 75 47 76 73 77
REMARK SMILES IDX 74 78 83 79 75 80 76 81 82 82 84 83 77 84 78 85 79 86 80 87
REMARK SMILES IDX 81 88 57 89 58 90 67 91 59 92 60 93 66 94 68 95 61 96 62 97
REMARK SMILES IDX 63 98 64 99 65 100
REMARK H PARENT 23 5 12 18 27 31 89 50 55 61
REMARK Flexibility Score: inf
ROOT
ATOM      1  C   UNL A   1      33.948  26.685  24.560  1.00  0.00     0.118 C 
ENDROOT
BRANCH   1   2
ATOM      2  N   UNL A   1      32.851  26.070  23.842  1.00  0.00    -0.351 N 
ATOM      3  C   UNL A   1      31.870  25.200  24.253  1.00  0.00     0.268 C 
ATOM      4  O   UNL A   1      31.152  24.700  23.385  1.00  0.00    -0.268 OA
ATOM      5  H   UNL A   1      32.799  26.320  22.892  1.00  0.00     0.163 HD
BRANCH   3   6
ATOM      6  C   UNL A   1      31.497  24.906  25.702  1.00  0.00     0.141 C 
ATOM      7  C   UNL A   1      30.044  25.185  26.021  1.00  0.00     0.077 C 
ATOM      8  N   UNL A   1      32.211  24.400  26.666  1.00  0.00    -0.086 NA
BRANCH   8   9
ATOM      9  O   UNL A   1      33.521  24.122  26.310  1.00  0.00    -0.390 OA
BRANCH   9  10
ATOM     10  C   UNL A   1      33.859  22.747  26.543  1.00  0.00     0.302 C 
BRANCH  10  11
ATOM     11  C   UNL A   1      35.221  22.290  26.051  1.00  0.00     0.016 A 
ATOM     12  C   UNL A   1      36.282  23.214  26.013  1.00  0.00     0.009 A 
ATOM     13  C   UNL A   1      35.426  20.975  25.580  1.00  0.00     0.045 A 
ATOM     14  C   UNL A   1      37.512  22.869  25.456  1.00  0.00     0.001 A 
ATOM     15  C   UNL A   1      36.642  20.679  24.945  1.00  0.00     0.026 A 
ATOM     16  C   UNL A   1      37.683  21.609  24.896  1.00  0.00     0.002 A 
BRANCH  13  17
ATOM     17  N   UNL A   1      34.382  20.034  25.657  1.00  0.00    -0.353 N 
ATOM     18  H   UNL A   1      34.067  19.840  26.569  1.00  0.00     0.167 HD
BRANCH  17  19
ATOM     19  C   UNL A   1      33.713  19.321  24.639  1.00  0.00     0.076 A 
ATOM     20  C   UNL A   1      34.189  18.051  24.256  1.00  0.00     0.066 A 
ATOM     21  C   UNL A   1      32.699  19.901  23.854  1.00  0.00     0.066 A 
ATOM     22  Cl  UNL A   1      35.510  17.302  25.090  1.00  0.00    -0.082 Cl
ATOM     23  C   UNL A   1      33.617  17.351  23.190  1.00  0.00     0.023 A 
ATOM     24  C   UNL A   1      32.120  19.196  22.793  1.00  0.00     0.023 A 
ATOM     25  Cl  UNL A   1      32.149  21.524  24.114  1.00  0.00    -0.082 Cl
ATOM     26  C   UNL A   1      32.574  17.920  22.464  1.00  0.00     0.003 A 
ENDBRANCH  17  19
ENDBRANCH  13  17
ENDBRANCH  10  11
ENDBRANCH   9  10
ENDBRANCH   8   9
ENDBRANCH   3   6
ENDBRANCH   1   2
BRANCH   1  27
ATOM     27  C   UNL A   1      33.505  28.016  25.179  1.00  0.00     0.042 C 
BRANCH  27  28
ATOM     28  C   UNL A   1      33.876  28.171  26.646  1.00  0.00     0.118 C 
BRANCH  28  29
ATOM     29  N   UNL A   1      33.687  29.544  27.090  1.00  0.00    -0.352 N 
ATOM     30  C   UNL A   1      34.485  30.328  27.883  1.00  0.00     0.251 C 
ATOM     31  H   UNL A   1      32.861  29.976  26.771  1.00  0.00     0.163 HD
ATOM     32  O   UNL A   1      34.002  31.352  28.379  1.00  0.00    -0.269 OA
BRANCH  30  33
ATOM     33  C   UNL A   1      35.898  29.973  28.155  1.00  0.00     0.039 A 
ATOM     34  C   UNL A   1      36.248  29.513  29.430  1.00  0.00     0.014 A 
ATOM     35  C   UNL A   1      36.894  30.151  27.191  1.00  0.00     0.014 A 
ATOM     36  C   UNL A   1      37.578  29.196  29.720  1.00  0.00     0.010 A 
ATOM     37  C   UNL A   1      38.204  29.757  27.454  1.00  0.00     0.010 A 
ATOM     38  C   UNL A   1      38.566  29.292  28.726  1.00  0.00    -0.014 A 
BRANCH  38  39
ATOM     39  C   UNL A   1      39.984  28.942  29.002  1.00  0.00     0.031 A 
ATOM     40  C   UNL A   1      40.915  29.979  29.576  1.00  0.00     0.074 A 
ATOM     41  C   UNL A   1      40.448  27.719  28.679  1.00  0.00     0.049 A 
ATOM     42  N   UNL A   1      42.204  29.905  29.790  1.00  0.00    -0.248 NA
ATOM     43  C   UNL A   1      40.327  31.282  29.927  1.00  0.00     0.031 C 
ATOM     44  C   UNL A   1      39.654  26.644  28.078  1.00  0.00     0.029 A 
ATOM     45  N   UNL A   1      41.702  27.176  28.796  1.00  0.00    -0.354 N 
ATOM     46  C   UNL A   1      42.580  31.150  30.282  1.00  0.00     0.074 A 
ATOM     47  C   UNL A   1      41.395  31.977  30.288  1.00  0.00     0.031 C 
ATOM     48  C   UNL A   1      40.435  25.567  27.897  1.00  0.00     0.029 A 
ATOM     49  C   UNL A   1      41.792  25.884  28.330  1.00  0.00     0.049 A 
ATOM     50  H   UNL A   1      42.467  27.664  29.177  1.00  0.00     0.167 HD
ATOM     51  C   UNL A   1      43.798  31.558  30.714  1.00  0.00     0.037 A 
ATOM     52  C   UNL A   1      42.850  25.055  28.252  1.00  0.00     0.037 A 
ATOM     53  C   UNL A   1      44.966  30.717  30.741  1.00  0.00     0.049 A 
ATOM     54  C   UNL A   1      44.189  25.529  28.747  1.00  0.00     0.074 A 
ATOM     55  C   UNL A   1      46.234  31.019  31.206  1.00  0.00     0.029 A 
ATOM     56  N   UNL A   1      45.005  29.405  30.293  1.00  0.00    -0.354 N 
ATOM     57  N   UNL A   1      44.516  26.696  29.251  1.00  0.00    -0.248 NA
ATOM     58  C   UNL A   1      45.304  24.576  28.669  1.00  0.00     0.031 C 
ATOM     59  C   UNL A   1      47.049  29.899  31.009  1.00  0.00     0.029 A 
ATOM     60  C   UNL A   1      46.279  28.886  30.462  1.00  0.00     0.049 A 
ATOM     61  H   UNL A   1      44.242  28.914  29.913  1.00  0.00     0.167 HD
ATOM     62  C   UNL A   1      45.865  26.605  29.577  1.00  0.00     0.074 A 
ATOM     63  C   UNL A   1      46.291  25.267  29.223  1.00  0.00     0.031 C 
ATOM     64  C   UNL A   1      46.678  27.545  30.118  1.00  0.00     0.037 A 
BRANCH  51  65
ATOM     65  C   UNL A   1      43.928  32.973  31.210  1.00  0.00     0.058 A 
ATOM     66  C   UNL A   1      44.281  34.023  30.347  1.00  0.00     0.135 A 
ATOM     67  C   UNL A   1      43.650  33.293  32.549  1.00  0.00     0.135 A 
ATOM     68  F   UNL A   1      44.574  33.772  29.061  1.00  0.00    -0.206 F 
ATOM     69  C   UNL A   1      44.375  35.336  30.798  1.00  0.00     0.059 A 
ATOM     70  C   UNL A   1      43.712  34.603  33.016  1.00  0.00     0.059 A 
ATOM     71  F   UNL A   1      43.309  32.328  33.418  1.00  0.00    -0.206 F 
ATOM     72  C   UNL A   1      44.088  35.616  32.134  1.00  0.00     0.060 A 
BRANCH  72  73
ATOM     73  S   UNL A   1      44.194  37.328  32.699  1.00  0.00     0.124 S 
ATOM     74  O   UNL A   1      43.910  38.058  31.466  1.00  0.00    -0.237 OA
ATOM     75  O   UNL A   1      43.148  37.384  33.720  1.00  0.00    -0.237 OA
ATOM     76  O   UNL A   1      45.557  37.440  33.196  1.00  0.00    -0.744 OA
ENDBRANCH  72  73
ENDBRANCH  51  65
BRANCH  52  77
ATOM     77  C   UNL A   1      42.686  23.683  27.701  1.00  0.00     0.058 A 
ATOM     78  C   UNL A   1      42.790  23.442  26.323  1.00  0.00     0.135 A 
ATOM     79  C   UNL A   1      42.418  22.587  28.537  1.00  0.00     0.135 A 
ATOM     80  F   UNL A   1      43.041  24.457  25.483  1.00  0.00    -0.206 F 
ATOM     81  C   UNL A   1      42.607  22.171  25.788  1.00  0.00     0.059 A 
ATOM     82  C   UNL A   1      42.256  21.302  28.028  1.00  0.00     0.059 A 
ATOM     83  F   UNL A   1      42.327  22.760  29.865  1.00  0.00    -0.206 F 
ATOM     84  C   UNL A   1      42.338  21.107  26.649  1.00  0.00     0.060 A 
BRANCH  84  85
ATOM     85  S   UNL A   1      42.125  19.455  25.950  1.00  0.00     0.124 S 
ATOM     86  O   UNL A   1      42.958  19.536  24.754  1.00  0.00    -0.237 OA
ATOM     87  O   UNL A   1      42.629  18.600  27.021  1.00  0.00    -0.237 OA
ATOM     88  O   UNL A   1      40.689  19.372  25.715  1.00  0.00    -0.744 OA
ENDBRANCH  84  85
ENDBRANCH  52  77
BRANCH  64  89
ATOM     89  C   UNL A   1      48.100  27.148  30.401  1.00  0.00     0.058 A 
ATOM     90  C   UNL A   1      49.138  27.437  29.502  1.00  0.00     0.135 A 
ATOM     91  C   UNL A   1      48.432  26.517  31.610  1.00  0.00     0.135 A 
ATOM     92  F   UNL A   1      48.871  28.034  28.329  1.00  0.00    -0.206 F 
ATOM     93  C   UNL A   1      50.456  27.094  29.783  1.00  0.00     0.059 A 
ATOM     94  C   UNL A   1      49.747  26.188  31.923  1.00  0.00     0.059 A 
ATOM     95  F   UNL A   1      47.477  26.228  32.507  1.00  0.00    -0.206 F 
ATOM     96  C   UNL A   1      50.750  26.471  30.998  1.00  0.00     0.060 A 
BRANCH  96  97
ATOM     97  S   UNL A   1      52.470  26.063  31.367  1.00  0.00     0.124 S 
ATOM     98  O   UNL A   1      53.051  26.005  30.030  1.00  0.00    -0.237 OA
ATOM     99  O   UNL A   1      52.890  27.191  32.192  1.00  0.00    -0.237 OA
ATOM    100  O   UNL A   1      52.372  24.785  32.066  1.00  0.00    -0.744 OA
ENDBRANCH  96  97
ENDBRANCH  64  89
ENDBRANCH  38  39
ENDBRANCH  30  33
ENDBRANCH  28  29
ENDBRANCH  27  28
ENDBRANCH   1  27
TORSDOF 18
ENDMDL
MODEL 3
REMARK VINA RESULT:     -11.4      1.204      2.035
REMARK SMILES C/C(=N/OCc1ccccc1Nc1c(Cl)cccc1Cl)C(=O)NCCCNC(=O)c1ccc(-c2c3nc(c(-c4c(F)cc(S(=O)(=O)[O-])cc4F)c4ccc([nH]4)c(-c4c(F)cc(S(=O)(=O)[O-])cc4F)c4nc(c(-c5c(F)cc(S(=O)(=O)[O-])cc5F)c5ccc2[nH]5)C=C4)C=C3)cc1
REMARK SMILES IDX 24 1 23 2 21 3 22 4 2 6 1 7 3 8 4 9 5 10 6 11 7 12 11 13
REMARK SMILES IDX 8 14 10 15 9 16 12 17 13 19 14 20 19 21 15 22 16 23 18 24
REMARK SMILES IDX 20 25 17 26 25 27 26 28 27 29 28 30 29 32 30 33 31 34 95 35
REMARK SMILES IDX 32 36 94 37 33 38 34 39 35 40 88 41 36 42 93 43 87 44 89 45
REMARK SMILES IDX 37 46 92 47 86 48 85 49 38 51 72 52 51 53 71 54 52 55 55 56
REMARK SMILES IDX 70 57 90 58 53 59 54 60 69 62 91 63 56 64 39 65 40 66 49 67
REMARK SMILES IDX 41 68 42 69 48 70 50 71 43 72 44 73 45 74 46 75 47 76 73 77
REMARK SMILES IDX 74 78 83 79 75 80 76 81 82 82 84 83 77 84 78 85 79 86 80 87
REMARK SMILES IDX 81 88 57 89 58 90 67 91 59 92 60 93 66 94 68 95 61 96 62 97
REMARK SMILES IDX 63 98 64 99 65 100
REMARK H PARENT 23 5 12 18 27 31 89 50 55 61
REMARK Flexibility Score: inf
ROOT
ATOM      1  C   UNL A   1      33.822  26.347  24.681  1.00  0.00     0.118 C 
ENDROOT
BRANCH   1   2
ATOM      2  N   UNL A   1      33.438  26.133  23.301  1.00  0.00    -0.351 N 
ATOM      3  C   UNL A   1      32.435  25.377  22.745  1.00  0.00     0.268 C 
ATOM      4  O   UNL A   1      32.436  25.242  21.519  1.00  0.00    -0.268 OA
ATOM      5  H   UNL A   1      33.993  26.615  22.648  1.00  0.00     0.163 HD
BRANCH   3   6
ATOM      6  C   UNL A   1      31.235  24.804  23.494  1.00  0.00     0.141 C 
ATOM      7  C   UNL A   1      30.131  25.812  23.726  1.00  0.00     0.077 C 
ATOM      8  N   UNL A   1      31.000  23.589  23.896  1.00  0.00    -0.086 NA
BRANCH   8   9
ATOM      9  O   UNL A   1      32.024  22.696  23.619  1.00  0.00    -0.390 OA
BRANCH   9  10
ATOM     10  C   UNL A   1      32.140  21.685  24.631  1.00  0.00     0.302 C 
BRANCH  10  11
ATOM     11  C   UNL A   1      32.737  20.357  24.198  1.00  0.00     0.016 A 
ATOM     12  C   UNL A   1      32.135  19.647  23.141  1.00  0.00     0.009 A 
ATOM     13  C   UNL A   1      33.846  19.799  24.870  1.00  0.00     0.045 A 
ATOM     14  C   UNL A   1      32.576  18.372  22.794  1.00  0.00     0.001 A 
ATOM     15  C   UNL A   1      34.213  18.480  24.561  1.00  0.00     0.026 A 
ATOM     16  C   UNL A   1      33.599  17.777  23.523  1.00  0.00     0.002 A 
BRANCH  13  17
ATOM     17  N   UNL A   1      34.479  20.524  25.896  1.00  0.00    -0.353 N 
ATOM     18  H   UNL A   1      34.124  20.357  26.799  1.00  0.00     0.167 HD
BRANCH  17  19
ATOM     19  C   UNL A   1      35.542  21.450  25.844  1.00  0.00     0.076 A 
ATOM     20  C   UNL A   1      35.290  22.809  26.124  1.00  0.00     0.066 A 
ATOM     21  C   UNL A   1      36.813  21.114  25.341  1.00  0.00     0.066 A 
ATOM     22  Cl  UNL A   1      33.724  23.339  26.641  1.00  0.00    -0.082 Cl
ATOM     23  C   UNL A   1      36.290  23.776  25.991  1.00  0.00     0.023 A 
ATOM     24  C   UNL A   1      37.816  22.082  25.217  1.00  0.00     0.023 A 
ATOM     25  Cl  UNL A   1      37.192  19.513  24.797  1.00  0.00    -0.082 Cl
ATOM     26  C   UNL A   1      37.558  23.410  25.549  1.00  0.00     0.003 A 
ENDBRANCH  17  19
ENDBRANCH  13  17
ENDBRANCH  10  11
ENDBRANCH   9  10
ENDBRANCH   8   9
ENDBRANCH   3   6
ENDBRANCH   1   2
BRANCH   1  27
ATOM     27  C   UNL A   1      33.379  27.737  25.152  1.00  0.00     0.042 C 
BRANCH  27  28
ATOM     28  C   UNL A   1      33.636  28.002  26.628  1.00  0.00     0.118 C 
BRANCH  28  29
ATOM     29  N   UNL A   1      33.465  29.413  26.942  1.00  0.00    -0.352 N 
ATOM     30  C   UNL A   1      34.267  30.254  27.671  1.00  0.00     0.251 C 
ATOM     31  H   UNL A   1      32.651  29.827  26.574  1.00  0.00     0.163 HD
ATOM     32  O   UNL A   1      33.796  31.325  28.065  1.00  0.00    -0.269 OA
BRANCH  30  33
ATOM     33  C   UNL A   1      35.671  29.902  27.994  1.00  0.00     0.039 A 
ATOM     34  C   UNL A   1      35.984  29.484  29.292  1.00  0.00     0.014 A 
ATOM     35  C   UNL A   1      36.693  30.044  27.052  1.00  0.00     0.014 A 
ATOM     36  C   UNL A   1      37.304  29.171  29.629  1.00  0.00     0.010 A 
ATOM     37  C   UNL A   1      37.993  29.654  27.364  1.00  0.00     0.010 A 
ATOM     38  C   UNL A   1      38.318  29.230  28.660  1.00  0.00    -0.014 A 
BRANCH  38  39
ATOM     39  C   UNL A   1      39.727  28.885  28.986  1.00  0.00     0.031 A 
ATOM     40  C   UNL A   1      40.630  29.919  29.607  1.00  0.00     0.074 A 
ATOM     41  C   UNL A   1      40.210  27.668  28.666  1.00  0.00     0.049 A 
ATOM     42  N   UNL A   1      41.910  29.849  29.870  1.00  0.00    -0.248 NA
ATOM     43  C   UNL A   1      40.021  31.214  29.951  1.00  0.00     0.031 C 
ATOM     44  C   UNL A   1      39.446  26.596  28.022  1.00  0.00     0.029 A 
ATOM     45  N   UNL A   1      41.461  27.129  28.825  1.00  0.00    -0.354 N 
ATOM     46  C   UNL A   1      42.260  31.089  30.392  1.00  0.00     0.074 A 
ATOM     47  C   UNL A   1      41.071  31.911  30.362  1.00  0.00     0.031 C 
ATOM     48  C   UNL A   1      40.240  25.526  27.859  1.00  0.00     0.029 A 
ATOM     49  C   UNL A   1      41.577  25.844  28.347  1.00  0.00     0.049 A 
ATOM     50  H   UNL A   1      42.208  27.617  29.241  1.00  0.00     0.167 HD
ATOM     51  C   UNL A   1      43.457  31.498  30.875  1.00  0.00     0.037 A 
ATOM     52  C   UNL A   1      42.641  25.021  28.300  1.00  0.00     0.037 A 
ATOM     53  C   UNL A   1      44.628  30.663  30.937  1.00  0.00     0.049 A 
ATOM     54  C   UNL A   1      43.958  25.497  28.852  1.00  0.00     0.074 A 
ATOM     55  C   UNL A   1      45.876  30.966  31.454  1.00  0.00     0.029 A 
ATOM     56  N   UNL A   1      44.693  29.357  30.475  1.00  0.00    -0.354 N 
ATOM     57  N   UNL A   1      44.258  26.659  29.382  1.00  0.00    -0.248 NA
ATOM     58  C   UNL A   1      45.081  24.550  28.805  1.00  0.00     0.031 C 
ATOM     59  C   UNL A   1      46.704  29.853  31.275  1.00  0.00     0.029 A 
ATOM     60  C   UNL A   1      45.961  28.842  30.686  1.00  0.00     0.049 A 
ATOM     61  H   UNL A   1      43.947  28.867  30.060  1.00  0.00     0.167 HD
ATOM     62  C   UNL A   1      45.594  26.571  29.759  1.00  0.00     0.074 A 
ATOM     63  C   UNL A   1      46.041  25.239  29.405  1.00  0.00     0.031 C 
ATOM     64  C   UNL A   1      46.381  27.508  30.342  1.00  0.00     0.037 A 
BRANCH  51  65
ATOM     65  C   UNL A   1      43.561  32.908  31.393  1.00  0.00     0.058 A 
ATOM     66  C   UNL A   1      43.378  33.205  32.753  1.00  0.00     0.135 A 
ATOM     67  C   UNL A   1      43.895  33.966  30.532  1.00  0.00     0.135 A 
ATOM     68  F   UNL A   1      43.041  32.235  33.617  1.00  0.00    -0.206 F 
ATOM     69  C   UNL A   1      43.501  34.503  33.238  1.00  0.00     0.059 A 
ATOM     70  C   UNL A   1      44.050  35.268  30.999  1.00  0.00     0.059 A 
ATOM     71  F   UNL A   1      44.080  33.739  29.221  1.00  0.00    -0.206 F 
ATOM     72  C   UNL A   1      43.839  35.528  32.353  1.00  0.00     0.060 A 
BRANCH  72  73
ATOM     73  S   UNL A   1      44.015  37.204  33.001  1.00  0.00     0.124 S 
ATOM     74  O   UNL A   1      42.874  37.285  33.910  1.00  0.00    -0.237 OA
ATOM     75  O   UNL A   1      45.329  37.154  33.641  1.00  0.00    -0.237 OA
ATOM     76  O   UNL A   1      43.932  38.041  31.813  1.00  0.00    -0.744 OA
ENDBRANCH  72  73
ENDBRANCH  51  65
BRANCH  52  77
ATOM     77  C   UNL A   1      42.507  23.655  27.726  1.00  0.00     0.058 A 
ATOM     78  C   UNL A   1      42.359  22.535  28.558  1.00  0.00     0.135 A 
ATOM     79  C   UNL A   1      42.528  23.441  26.339  1.00  0.00     0.135 A 
ATOM     80  F   UNL A   1      42.338  22.688  29.890  1.00  0.00    -0.206 F 
ATOM     81  C   UNL A   1      42.265  21.248  28.038  1.00  0.00     0.059 A 
ATOM     82  C   UNL A   1      42.410  22.165  25.795  1.00  0.00     0.059 A 
ATOM     83  F   UNL A   1      42.647  24.480  25.499  1.00  0.00    -0.206 F 
ATOM     84  C   UNL A   1      42.294  21.073  26.654  1.00  0.00     0.060 A 
BRANCH  84  85
ATOM     85  S   UNL A   1      42.146  19.401  25.987  1.00  0.00     0.124 S 
ATOM     86  O   UNL A   1      42.634  18.597  27.102  1.00  0.00    -0.237 OA
ATOM     87  O   UNL A   1      40.716  19.305  25.709  1.00  0.00    -0.237 OA
ATOM     88  O   UNL A   1      43.004  19.434  24.808  1.00  0.00    -0.744 OA
ENDBRANCH  84  85
ENDBRANCH  52  77
BRANCH  64  89
ATOM     89  C   UNL A   1      47.793  27.115  30.675  1.00  0.00     0.058 A 
ATOM     90  C   UNL A   1      48.841  27.291  29.758  1.00  0.00     0.135 A 
ATOM     91  C   UNL A   1      48.106  26.605  31.944  1.00  0.00     0.135 A 
ATOM     92  F   UNL A   1      48.593  27.769  28.529  1.00  0.00    -0.206 F 
ATOM     93  C   UNL A   1      50.151  26.953  30.083  1.00  0.00     0.059 A 
ATOM     94  C   UNL A   1      49.413  26.285  32.299  1.00  0.00     0.059 A 
ATOM     95  F   UNL A   1      47.140  26.428  32.859  1.00  0.00    -0.206 F 
ATOM     96  C   UNL A   1      50.426  26.452  31.357  1.00  0.00     0.060 A 
BRANCH  96  97
ATOM     97  S   UNL A   1      52.136  26.051  31.779  1.00  0.00     0.124 S 
ATOM     98  O   UNL A   1      52.061  24.606  31.964  1.00  0.00    -0.237 OA
ATOM     99  O   UNL A   1      52.864  26.501  30.596  1.00  0.00    -0.237 OA
ATOM    100  O   UNL A   1      52.378  26.829  32.990  1.00  0.00    -0.744 OA
ENDBRANCH  96  97
ENDBRANCH  64  89
ENDBRANCH  38  39
ENDBRANCH  30  33
ENDBRANCH  28  29
ENDBRANCH  27  28
ENDBRANCH   1  27
TORSDOF 18
ENDMDL
