MODEL 1
REMARK VINA RESULT:     -12.1      0.000      0.000
REMARK SMILES O=C(NCCCNC(=O)[C@@H]1CCC(=O)N(CCCOC2CCCCC2)[C@H]1c1ccco1)c1ccc(-c2c3nc(c(-c4c(F)cc(S(=O)(=O)[O-])cc4F)c4ccc([nH]4)c(-c4c(F)cc(S(=O)(=O)[O-])cc4F)c4nc(c(-c5c(F)cc(S(=O)(=O)[O-])cc5F)c5ccc2[nH]5)C=C4)C=C3)cc1
REMARK SMILES IDX 6 1 5 2 4 3 3 4 1 5 2 6 32 8 33 9 97 10 34 11 96 12 35 13
REMARK SMILES IDX 36 14 37 15 90 16 38 17 95 18 89 19 91 20 39 21 94 22 88 23
REMARK SMILES IDX 87 24 40 26 74 27 53 28 73 29 54 30 57 31 72 32 92 33 55 34
REMARK SMILES IDX 56 35 71 37 93 38 58 39 41 40 42 41 51 42 43 43 44 44 50 45
REMARK SMILES IDX 52 46 45 47 46 48 47 49 48 50 49 51 75 52 76 53 85 54 77 55
REMARK SMILES IDX 78 56 84 57 86 58 79 59 80 60 81 61 82 62 83 63 59 64 60 65
REMARK SMILES IDX 69 66 61 67 62 68 68 69 70 70 63 71 64 72 65 73 66 74 67 75
REMARK SMILES IDX 7 76 8 77 9 79 10 80 11 81 26 82 12 83 15 84 13 85 14 86
REMARK SMILES IDX 27 87 28 88 31 89 29 90 30 91 16 92 17 93 18 94 19 95 20 96
REMARK SMILES IDX 21 97 25 98 22 99 24 100 23 101
REMARK H PARENT 3 7 91 25 57 36 7 78
REMARK Flexibility Score: inf
ROOT
ATOM      1  C   UNL A   1      38.261  23.020  26.180  1.00  0.00     0.117 C 
ENDROOT
BRANCH   1   2
ATOM      2  C   UNL A   1      39.573  22.274  26.407  1.00  0.00     0.042 C 
BRANCH   2   3
ATOM      3  C   UNL A   1      40.662  23.145  27.032  1.00  0.00     0.118 C 
BRANCH   3   4
ATOM      4  N   UNL A   1      41.320  23.966  26.027  1.00  0.00    -0.352 N 
ATOM      5  O   UNL A   1      41.789  25.881  24.946  1.00  0.00    -0.269 OA
ATOM      6  C   UNL A   1      41.519  25.325  26.014  1.00  0.00     0.251 C 
ATOM      7  H   UNL A   1      41.673  23.479  25.247  1.00  0.00     0.163 HD
BRANCH   6   8
ATOM      8  C   UNL A   1      41.415  26.123  27.258  1.00  0.00     0.039 A 
ATOM      9  C   UNL A   1      42.341  27.129  27.539  1.00  0.00     0.014 A 
ATOM     10  C   UNL A   1      40.329  25.924  28.119  1.00  0.00     0.014 A 
ATOM     11  C   UNL A   1      42.250  27.853  28.725  1.00  0.00     0.010 A 
ATOM     12  C   UNL A   1      40.185  26.718  29.263  1.00  0.00     0.010 A 
ATOM     13  C   UNL A   1      41.150  27.687  29.580  1.00  0.00    -0.014 A 
BRANCH  13  14
ATOM     14  C   UNL A   1      40.974  28.623  30.724  1.00  0.00     0.031 A 
ATOM     15  C   UNL A   1      41.849  28.546  31.945  1.00  0.00     0.074 A 
ATOM     16  C   UNL A   1      40.011  29.563  30.637  1.00  0.00     0.049 A 
ATOM     17  N   UNL A   1      41.815  29.285  33.025  1.00  0.00    -0.248 NA
ATOM     18  C   UNL A   1      42.886  27.504  31.966  1.00  0.00     0.031 C 
ATOM     19  C   UNL A   1      39.085  29.718  29.509  1.00  0.00     0.029 A 
ATOM     20  N   UNL A   1      39.652  30.573  31.494  1.00  0.00    -0.354 N 
ATOM     21  C   UNL A   1      42.810  28.791  33.860  1.00  0.00     0.074 A 
ATOM     22  C   UNL A   1      43.419  27.673  33.171  1.00  0.00     0.031 C 
ATOM     23  C   UNL A   1      38.302  30.785  29.722  1.00  0.00     0.029 A 
ATOM     24  C   UNL A   1      38.615  31.348  31.028  1.00  0.00     0.049 A 
ATOM     25  H   UNL A   1      40.095  30.728  32.359  1.00  0.00     0.167 HD
ATOM     26  C   UNL A   1      43.182  29.235  35.086  1.00  0.00     0.037 A 
ATOM     27  C   UNL A   1      37.966  32.381  31.596  1.00  0.00     0.037 A 
ATOM     28  C   UNL A   1      42.580  30.364  35.753  1.00  0.00     0.049 A 
ATOM     29  C   UNL A   1      38.392  32.842  32.960  1.00  0.00     0.074 A 
ATOM     30  C   UNL A   1      42.914  30.915  36.979  1.00  0.00     0.029 A 
ATOM     31  N   UNL A   1      41.523  31.113  35.256  1.00  0.00    -0.354 N 
ATOM     32  N   UNL A   1      39.357  32.380  33.720  1.00  0.00    -0.248 NA
ATOM     33  C   UNL A   1      37.641  33.957  33.550  1.00  0.00     0.031 C 
ATOM     34  C   UNL A   1      42.029  31.966  37.244  1.00  0.00     0.029 A 
ATOM     35  C   UNL A   1      41.177  32.105  36.160  1.00  0.00     0.049 A 
ATOM     36  H   UNL A   1      41.083  30.962  34.388  1.00  0.00     0.167 HD
ATOM     37  C   UNL A   1      39.339  33.159  34.868  1.00  0.00     0.074 A 
ATOM     38  C   UNL A   1      38.282  34.136  34.696  1.00  0.00     0.031 C 
ATOM     39  C   UNL A   1      40.126  33.072  35.970  1.00  0.00     0.037 A 
BRANCH  26  40
ATOM     40  C   UNL A   1      44.282  28.501  35.805  1.00  0.00     0.058 A 
ATOM     41  C   UNL A   1      45.632  28.848  35.646  1.00  0.00     0.135 A 
ATOM     42  C   UNL A   1      43.973  27.486  36.728  1.00  0.00     0.135 A 
ATOM     43  F   UNL A   1      45.986  29.801  34.770  1.00  0.00    -0.206 F 
ATOM     44  C   UNL A   1      46.638  28.210  36.367  1.00  0.00     0.059 A 
ATOM     45  C   UNL A   1      44.961  26.852  37.478  1.00  0.00     0.059 A 
ATOM     46  F   UNL A   1      42.698  27.114  36.920  1.00  0.00    -0.206 F 
ATOM     47  C   UNL A   1      46.291  27.216  37.284  1.00  0.00     0.060 A 
BRANCH  47  48
ATOM     48  S   UNL A   1      47.607  26.418  38.230  1.00  0.00     0.124 S 
ATOM     49  O   UNL A   1      47.342  25.007  37.965  1.00  0.00    -0.237 OA
ATOM     50  O   UNL A   1      48.810  26.964  37.616  1.00  0.00    -0.237 OA
ATOM     51  O   UNL A   1      47.354  26.855  39.601  1.00  0.00    -0.744 OA
ENDBRANCH  47  48
ENDBRANCH  26  40
BRANCH  27  52
ATOM     52  C   UNL A   1      36.833  33.030  30.884  1.00  0.00     0.058 A 
ATOM     53  C   UNL A   1      35.502  32.724  31.201  1.00  0.00     0.135 A 
ATOM     54  C   UNL A   1      37.061  33.979  29.872  1.00  0.00     0.135 A 
ATOM     55  F   UNL A   1      35.231  31.823  32.158  1.00  0.00    -0.206 F 
ATOM     56  C   UNL A   1      34.438  33.317  30.529  1.00  0.00     0.059 A 
ATOM     57  C   UNL A   1      36.015  34.607  29.209  1.00  0.00     0.059 A 
ATOM     58  F   UNL A   1      38.317  34.322  29.543  1.00  0.00    -0.206 F 
ATOM     59  C   UNL A   1      34.705  34.258  29.533  1.00  0.00     0.060 A 
BRANCH  59  60
ATOM     60  S   UNL A   1      33.319  35.044  28.685  1.00  0.00     0.124 S 
ATOM     61  O   UNL A   1      32.771  33.928  27.923  1.00  0.00    -0.237 OA
ATOM     62  O   UNL A   1      32.505  35.519  29.798  1.00  0.00    -0.237 OA
ATOM     63  O   UNL A   1      33.961  36.092  27.896  1.00  0.00    -0.744 OA
ENDBRANCH  59  60
ENDBRANCH  27  52
BRANCH  39  64
ATOM     64  C   UNL A   1      39.891  34.080  37.059  1.00  0.00     0.058 A 
ATOM     65  C   UNL A   1      40.461  35.362  37.014  1.00  0.00     0.135 A 
ATOM     66  C   UNL A   1      39.057  33.770  38.146  1.00  0.00     0.135 A 
ATOM     67  F   UNL A   1      41.275  35.704  36.002  1.00  0.00    -0.206 F 
ATOM     68  C   UNL A   1      40.233  36.294  38.021  1.00  0.00     0.059 A 
ATOM     69  C   UNL A   1      38.792  34.696  39.149  1.00  0.00     0.059 A 
ATOM     70  F   UNL A   1      38.481  32.560  38.232  1.00  0.00    -0.206 F 
ATOM     71  C   UNL A   1      39.395  35.951  39.085  1.00  0.00     0.060 A 
BRANCH  71  72
ATOM     72  S   UNL A   1      39.083  37.179  40.369  1.00  0.00     0.124 S 
ATOM     73  O   UNL A   1      38.174  36.457  41.252  1.00  0.00    -0.237 OA
ATOM     74  O   UNL A   1      40.421  37.424  40.900  1.00  0.00    -0.237 OA
ATOM     75  O   UNL A   1      38.493  38.295  39.637  1.00  0.00    -0.744 OA
ENDBRANCH  71  72
ENDBRANCH  39  64
ENDBRANCH  13  14
ENDBRANCH   6   8
ENDBRANCH   3   4
ENDBRANCH   2   3
ENDBRANCH   1   2
BRANCH   1  76
ATOM     76  N   UNL A   1      37.826  22.975  24.793  1.00  0.00    -0.356 N 
ATOM     77  C   UNL A   1      36.653  23.246  24.168  1.00  0.00     0.225 C 
ATOM     78  H   UNL A   1      38.536  22.684  24.175  1.00  0.00     0.163 HD
ATOM     79  O   UNL A   1      36.719  23.265  22.935  1.00  0.00    -0.275 OA
BRANCH  77  80
ATOM     80  C   UNL A   1      35.362  23.654  24.896  1.00  0.00     0.109 C 
ATOM     81  C   UNL A   1      34.425  22.553  25.359  1.00  0.00     0.026 C 
ATOM     82  C   UNL A   1      34.533  24.629  23.995  1.00  0.00     0.164 C 
ATOM     83  C   UNL A   1      33.908  21.786  24.169  1.00  0.00     0.101 C 
ATOM     84  N   UNL A   1      33.557  23.990  23.075  1.00  0.00    -0.332 N 
ATOM     85  C   UNL A   1      33.195  22.648  23.164  1.00  0.00     0.223 C 
ATOM     86  O   UNL A   1      32.397  22.118  22.389  1.00  0.00    -0.275 OA
BRANCH  82  87
ATOM     87  C   UNL A   1      33.843  25.653  24.857  1.00  0.00     0.127 A 
ATOM     88  C   UNL A   1      32.910  25.539  25.870  1.00  0.00     0.048 A 
ATOM     89  O   UNL A   1      34.177  26.966  24.688  1.00  0.00    -0.467 OA
ATOM     90  C   UNL A   1      32.690  26.847  26.363  1.00  0.00     0.042 A 
ATOM     91  C   UNL A   1      33.493  27.677  25.618  1.00  0.00     0.195 A 
ENDBRANCH  82  87
BRANCH  84  92
ATOM     92  C   UNL A   1      32.904  24.715  21.965  1.00  0.00     0.122 C 
BRANCH  92  93
ATOM     93  C   UNL A   1      31.545  25.411  22.073  1.00  0.00     0.050 C 
BRANCH  93  94
ATOM     94  C   UNL A   1      31.417  26.913  22.326  1.00  0.00     0.162 C 
BRANCH  94  95
ATOM     95  O   UNL A   1      30.734  27.259  23.524  1.00  0.00    -0.378 OA
BRANCH  95  96
ATOM     96  C   UNL A   1      29.958  28.469  23.483  1.00  0.00     0.118 C 
ATOM     97  C   UNL A   1      30.441  29.324  22.313  1.00  0.00     0.032 C 
ATOM     98  C   UNL A   1      28.490  28.055  23.318  1.00  0.00     0.032 C 
ATOM     99  C   UNL A   1      29.494  30.422  21.869  1.00  0.00     0.003 C 
ATOM    100  C   UNL A   1      27.585  29.219  22.926  1.00  0.00     0.003 C 
ATOM    101  C   UNL A   1      28.088  29.896  21.658  1.00  0.00     0.000 C 
ENDBRANCH  95  96
ENDBRANCH  94  95
ENDBRANCH  93  94
ENDBRANCH  92  93
ENDBRANCH  84  92
ENDBRANCH  77  80
ENDBRANCH   1  76
TORSDOF 19
ENDMDL
MODEL 2
REMARK VINA RESULT:     -11.9      6.771     12.084
REMARK SMILES O=C(NCCCNC(=O)[C@@H]1CCC(=O)N(CCCOC2CCCCC2)[C@H]1c1ccco1)c1ccc(-c2c3nc(c(-c4c(F)cc(S(=O)(=O)[O-])cc4F)c4ccc([nH]4)c(-c4c(F)cc(S(=O)(=O)[O-])cc4F)c4nc(c(-c5c(F)cc(S(=O)(=O)[O-])cc5F)c5ccc2[nH]5)C=C4)C=C3)cc1
REMARK SMILES IDX 6 1 5 2 4 3 3 4 1 5 2 6 32 8 33 9 97 10 34 11 96 12 35 13
REMARK SMILES IDX 36 14 37 15 90 16 38 17 95 18 89 19 91 20 39 21 94 22 88 23
REMARK SMILES IDX 87 24 40 26 74 27 53 28 73 29 54 30 57 31 72 32 92 33 55 34
REMARK SMILES IDX 56 35 71 37 93 38 58 39 41 40 42 41 51 42 43 43 44 44 50 45
REMARK SMILES IDX 52 46 45 47 46 48 47 49 48 50 49 51 75 52 76 53 85 54 77 55
REMARK SMILES IDX 78 56 84 57 86 58 79 59 80 60 81 61 82 62 83 63 59 64 60 65
REMARK SMILES IDX 69 66 61 67 62 68 68 69 70 70 63 71 64 72 65 73 66 74 67 75
REMARK SMILES IDX 7 76 8 77 9 79 10 80 11 81 26 82 12 83 15 84 13 85 14 86
REMARK SMILES IDX 27 87 28 88 31 89 29 90 30 91 16 92 17 93 18 94 19 95 20 96
REMARK SMILES IDX 21 97 25 98 22 99 24 100 23 101
REMARK H PARENT 3 7 91 25 57 36 7 78
REMARK Flexibility Score: inf
ROOT
ATOM      1  C   UNL A   1      32.802  28.971  27.487  1.00  0.00     0.117 C 
ENDROOT
BRANCH   1   2
ATOM      2  C   UNL A   1      34.015  29.576  26.784  1.00  0.00     0.042 C 
BRANCH   2   3
ATOM      3  C   UNL A   1      35.328  29.318  27.519  1.00  0.00     0.118 C 
BRANCH   3   4
ATOM      4  N   UNL A   1      35.255  29.765  28.901  1.00  0.00    -0.352 N 
ATOM      5  O   UNL A   1      35.884  29.831  31.059  1.00  0.00    -0.269 OA
ATOM      6  C   UNL A   1      36.222  29.723  29.878  1.00  0.00     0.251 C 
ATOM      7  H   UNL A   1      34.394  30.153  29.176  1.00  0.00     0.163 HD
BRANCH   6   8
ATOM      8  C   UNL A   1      37.651  29.551  29.529  1.00  0.00     0.039 A 
ATOM      9  C   UNL A   1      38.565  29.089  30.478  1.00  0.00     0.014 A 
ATOM     10  C   UNL A   1      38.073  29.771  28.212  1.00  0.00     0.014 A 
ATOM     11  C   UNL A   1      39.911  28.959  30.147  1.00  0.00     0.010 A 
ATOM     12  C   UNL A   1      39.409  29.546  27.857  1.00  0.00     0.010 A 
ATOM     13  C   UNL A   1      40.343  29.144  28.824  1.00  0.00    -0.014 A 
BRANCH  13  14
ATOM     14  C   UNL A   1      41.743  28.790  28.463  1.00  0.00     0.031 A 
ATOM     15  C   UNL A   1      42.842  29.816  28.472  1.00  0.00     0.074 A 
ATOM     16  C   UNL A   1      42.013  27.509  28.136  1.00  0.00     0.049 A 
ATOM     17  N   UNL A   1      44.107  29.663  28.176  1.00  0.00    -0.248 NA
ATOM     18  C   UNL A   1      42.477  31.189  28.851  1.00  0.00     0.031 C 
ATOM     19  C   UNL A   1      41.020  26.430  28.069  1.00  0.00     0.029 A 
ATOM     20  N   UNL A   1      43.191  26.887  27.811  1.00  0.00    -0.354 N 
ATOM     21  C   UNL A   1      44.688  30.919  28.315  1.00  0.00     0.074 A 
ATOM     22  C   UNL A   1      43.632  31.829  28.702  1.00  0.00     0.031 C 
ATOM     23  C   UNL A   1      41.637  25.277  27.775  1.00  0.00     0.029 A 
ATOM     24  C   UNL A   1      43.053  25.542  27.559  1.00  0.00     0.049 A 
ATOM     25  H   UNL A   1      44.054  27.358  27.764  1.00  0.00     0.167 HD
ATOM     26  C   UNL A   1      45.985  31.273  28.139  1.00  0.00     0.037 A 
ATOM     27  C   UNL A   1      43.957  24.623  27.171  1.00  0.00     0.037 A 
ATOM     28  C   UNL A   1      47.033  30.351  27.773  1.00  0.00     0.049 A 
ATOM     29  C   UNL A   1      45.383  25.049  26.971  1.00  0.00     0.074 A 
ATOM     30  C   UNL A   1      48.384  30.607  27.609  1.00  0.00     0.029 A 
ATOM     31  N   UNL A   1      46.851  29.001  27.511  1.00  0.00    -0.354 N 
ATOM     32  N   UNL A   1      45.917  26.235  27.138  1.00  0.00    -0.248 NA
ATOM     33  C   UNL A   1      46.328  24.018  26.526  1.00  0.00     0.031 C 
ATOM     34  C   UNL A   1      49.010  29.423  27.204  1.00  0.00     0.029 A 
ATOM     35  C   UNL A   1      48.059  28.416  27.166  1.00  0.00     0.049 A 
ATOM     36  H   UNL A   1      45.989  28.527  27.564  1.00  0.00     0.167 HD
ATOM     37  C   UNL A   1      47.263  26.089  26.835  1.00  0.00     0.074 A 
ATOM     38  C   UNL A   1      47.467  24.695  26.494  1.00  0.00     0.031 C 
ATOM     39  C   UNL A   1      48.244  27.026  26.834  1.00  0.00     0.037 A 
BRANCH  26  40
ATOM     40  C   UNL A   1      46.358  32.720  28.325  1.00  0.00     0.058 A 
ATOM     41  C   UNL A   1      46.791  33.220  29.562  1.00  0.00     0.135 A 
ATOM     42  C   UNL A   1      46.359  33.599  27.228  1.00  0.00     0.135 A 
ATOM     43  F   UNL A   1      46.799  32.429  30.646  1.00  0.00    -0.206 F 
ATOM     44  C   UNL A   1      47.200  34.544  29.709  1.00  0.00     0.059 A 
ATOM     45  C   UNL A   1      46.787  34.919  27.347  1.00  0.00     0.059 A 
ATOM     46  F   UNL A   1      45.955  33.173  26.021  1.00  0.00    -0.206 F 
ATOM     47  C   UNL A   1      47.198  35.384  28.595  1.00  0.00     0.060 A 
BRANCH  47  48
ATOM     48  S   UNL A   1      47.758  37.089  28.798  1.00  0.00     0.124 S 
ATOM     49  O   UNL A   1      48.912  36.915  29.675  1.00  0.00    -0.237 OA
ATOM     50  O   UNL A   1      48.058  37.486  27.428  1.00  0.00    -0.237 OA
ATOM     51  O   UNL A   1      46.607  37.756  29.403  1.00  0.00    -0.744 OA
ENDBRANCH  47  48
ENDBRANCH  26  40
BRANCH  27  52
ATOM     52  C   UNL A   1      43.531  23.219  26.923  1.00  0.00     0.058 A 
ATOM     53  C   UNL A   1      43.231  22.352  27.983  1.00  0.00     0.135 A 
ATOM     54  C   UNL A   1      43.410  22.719  25.615  1.00  0.00     0.135 A 
ATOM     55  F   UNL A   1      43.334  22.780  29.250  1.00  0.00    -0.206 F 
ATOM     56  C   UNL A   1      42.847  21.033  27.758  1.00  0.00     0.059 A 
ATOM     57  C   UNL A   1      42.997  21.416  25.365  1.00  0.00     0.059 A 
ATOM     58  F   UNL A   1      43.667  23.514  24.565  1.00  0.00    -0.206 F 
ATOM     59  C   UNL A   1      42.733  20.575  26.445  1.00  0.00     0.060 A 
BRANCH  59  60
ATOM     60  S   UNL A   1      42.206  18.871  26.160  1.00  0.00     0.124 S 
ATOM     61  O   UNL A   1      40.817  19.059  25.758  1.00  0.00    -0.237 OA
ATOM     62  O   UNL A   1      43.121  18.436  25.112  1.00  0.00    -0.237 OA
ATOM     63  O   UNL A   1      42.408  18.238  27.460  1.00  0.00    -0.744 OA
ENDBRANCH  59  60
ENDBRANCH  27  52
BRANCH  39  64
ATOM     64  C   UNL A   1      49.631  26.565  26.484  1.00  0.00     0.058 A 
ATOM     65  C   UNL A   1      50.469  25.959  27.433  1.00  0.00     0.135 A 
ATOM     66  C   UNL A   1      50.114  26.701  25.173  1.00  0.00     0.135 A 
ATOM     67  F   UNL A   1      50.058  25.816  28.704  1.00  0.00    -0.206 F 
ATOM     68  C   UNL A   1      51.748  25.526  27.101  1.00  0.00     0.059 A 
ATOM     69  C   UNL A   1      51.379  26.248  24.811  1.00  0.00     0.059 A 
ATOM     70  F   UNL A   1      49.349  27.266  24.226  1.00  0.00    -0.206 F 
ATOM     71  C   UNL A   1      52.194  25.674  25.785  1.00  0.00     0.060 A 
BRANCH  71  72
ATOM     72  S   UNL A   1      53.844  25.082  25.359  1.00  0.00     0.124 S 
ATOM     73  O   UNL A   1      53.638  23.638  25.323  1.00  0.00    -0.237 OA
ATOM     74  O   UNL A   1      54.083  25.721  24.069  1.00  0.00    -0.237 OA
ATOM     75  O   UNL A   1      54.674  25.570  26.457  1.00  0.00    -0.744 OA
ENDBRANCH  71  72
ENDBRANCH  39  64
ENDBRANCH  13  14
ENDBRANCH   6   8
ENDBRANCH   3   4
ENDBRANCH   2   3
ENDBRANCH   1   2
BRANCH   1  76
ATOM     76  N   UNL A   1      31.872  28.348  26.559  1.00  0.00    -0.356 N 
ATOM     77  C   UNL A   1      31.834  27.144  25.935  1.00  0.00     0.225 C 
ATOM     78  H   UNL A   1      31.106  28.924  26.334  1.00  0.00     0.163 HD
ATOM     79  O   UNL A   1      30.774  26.900  25.349  1.00  0.00    -0.275 OA
BRANCH  77  80
ATOM     80  C   UNL A   1      32.934  26.076  26.052  1.00  0.00     0.109 C 
ATOM     81  C   UNL A   1      34.214  26.282  25.262  1.00  0.00     0.026 C 
ATOM     82  C   UNL A   1      32.357  24.676  25.656  1.00  0.00     0.164 C 
ATOM     83  C   UNL A   1      33.910  26.285  23.785  1.00  0.00     0.101 C 
ATOM     84  N   UNL A   1      32.458  24.315  24.219  1.00  0.00    -0.332 N 
ATOM     85  C   UNL A   1      33.234  25.029  23.310  1.00  0.00     0.223 C 
ATOM     86  O   UNL A   1      33.303  24.735  22.114  1.00  0.00    -0.275 OA
BRANCH  82  87
ATOM     87  C   UNL A   1      32.989  23.608  26.509  1.00  0.00     0.127 A 
ATOM     88  C   UNL A   1      34.273  23.099  26.560  1.00  0.00     0.048 A 
ATOM     89  O   UNL A   1      32.219  23.005  27.461  1.00  0.00    -0.467 OA
ATOM     90  C   UNL A   1      34.291  22.160  27.620  1.00  0.00     0.042 A 
ATOM     91  C   UNL A   1      33.019  22.148  28.142  1.00  0.00     0.195 A 
ENDBRANCH  82  87
BRANCH  84  92
ATOM     92  C   UNL A   1      31.722  23.181  23.621  1.00  0.00     0.122 C 
BRANCH  92  93
ATOM     93  C   UNL A   1      31.864  21.726  24.077  1.00  0.00     0.050 C 
BRANCH  93  94
ATOM     94  C   UNL A   1      33.095  20.885  23.742  1.00  0.00     0.162 C 
BRANCH  94  95
ATOM     95  O   UNL A   1      33.475  19.958  24.752  1.00  0.00    -0.378 OA
BRANCH  95  96
ATOM     96  C   UNL A   1      33.325  18.567  24.423  1.00  0.00     0.118 C 
ATOM     97  C   UNL A   1      34.711  17.941  24.284  1.00  0.00     0.032 C 
ATOM     98  C   UNL A   1      32.519  17.923  25.559  1.00  0.00     0.032 C 
ATOM     99  C   UNL A   1      34.754  16.426  24.344  1.00  0.00     0.003 C 
ATOM    100  C   UNL A   1      32.560  16.398  25.524  1.00  0.00     0.003 C 
ATOM    101  C   UNL A   1      33.997  15.892  25.544  1.00  0.00     0.000 C 
ENDBRANCH  95  96
ENDBRANCH  94  95
ENDBRANCH  93  94
ENDBRANCH  92  93
ENDBRANCH  84  92
ENDBRANCH  77  80
ENDBRANCH   1  76
TORSDOF 19
ENDMDL
MODEL 3
REMARK VINA RESULT:     -11.8      6.600     11.894
REMARK SMILES O=C(NCCCNC(=O)[C@@H]1CCC(=O)N(CCCOC2CCCCC2)[C@H]1c1ccco1)c1ccc(-c2c3nc(c(-c4c(F)cc(S(=O)(=O)[O-])cc4F)c4ccc([nH]4)c(-c4c(F)cc(S(=O)(=O)[O-])cc4F)c4nc(c(-c5c(F)cc(S(=O)(=O)[O-])cc5F)c5ccc2[nH]5)C=C4)C=C3)cc1
REMARK SMILES IDX 6 1 5 2 4 3 3 4 1 5 2 6 32 8 33 9 97 10 34 11 96 12 35 13
REMARK SMILES IDX 36 14 37 15 90 16 38 17 95 18 89 19 91 20 39 21 94 22 88 23
REMARK SMILES IDX 87 24 40 26 74 27 53 28 73 29 54 30 57 31 72 32 92 33 55 34
REMARK SMILES IDX 56 35 71 37 93 38 58 39 41 40 42 41 51 42 43 43 44 44 50 45
REMARK SMILES IDX 52 46 45 47 46 48 47 49 48 50 49 51 75 52 76 53 85 54 77 55
REMARK SMILES IDX 78 56 84 57 86 58 79 59 80 60 81 61 82 62 83 63 59 64 60 65
REMARK SMILES IDX 69 66 61 67 62 68 68 69 70 70 63 71 64 72 65 73 66 74 67 75
REMARK SMILES IDX 7 76 8 77 9 79 10 80 11 81 26 82 12 83 15 84 13 85 14 86
REMARK SMILES IDX 27 87 28 88 31 89 29 90 30 91 16 92 17 93 18 94 19 95 20 96
REMARK SMILES IDX 21 97 25 98 22 99 24 100 23 101
REMARK H PARENT 3 7 91 25 57 36 7 78
REMARK Flexibility Score: inf
ROOT
ATOM      1  C   UNL A   1      32.834  29.880  27.298  1.00  0.00     0.117 C 
ENDROOT
BRANCH   1   2
ATOM      2  C   UNL A   1      34.236  30.327  26.891  1.00  0.00     0.042 C 
BRANCH   2   3
ATOM      3  C   UNL A   1      35.343  29.644  27.692  1.00  0.00     0.118 C 
BRANCH   3   4
ATOM      4  N   UNL A   1      35.309  30.050  29.089  1.00  0.00    -0.352 N 
ATOM      5  O   UNL A   1      35.983  30.032  31.234  1.00  0.00    -0.269 OA
ATOM      6  C   UNL A   1      36.294  29.953  30.043  1.00  0.00     0.251 C 
ATOM      7  H   UNL A   1      34.463  30.449  29.393  1.00  0.00     0.163 HD
BRANCH   6   8
ATOM      8  C   UNL A   1      37.711  29.758  29.658  1.00  0.00     0.039 A 
ATOM      9  C   UNL A   1      38.672  29.436  30.620  1.00  0.00     0.014 A 
ATOM     10  C   UNL A   1      38.076  29.811  28.308  1.00  0.00     0.014 A 
ATOM     11  C   UNL A   1      40.006  29.283  30.252  1.00  0.00     0.010 A 
ATOM     12  C   UNL A   1      39.400  29.561  27.928  1.00  0.00     0.010 A 
ATOM     13  C   UNL A   1      40.380  29.300  28.899  1.00  0.00    -0.014 A 
BRANCH  13  14
ATOM     14  C   UNL A   1      41.770  28.923  28.527  1.00  0.00     0.031 A 
ATOM     15  C   UNL A   1      42.888  29.929  28.531  1.00  0.00     0.074 A 
ATOM     16  C   UNL A   1      42.015  27.638  28.195  1.00  0.00     0.049 A 
ATOM     17  N   UNL A   1      44.149  29.755  28.227  1.00  0.00    -0.248 NA
ATOM     18  C   UNL A   1      42.550  31.308  28.916  1.00  0.00     0.031 C 
ATOM     19  C   UNL A   1      41.003  26.577  28.133  1.00  0.00     0.029 A 
ATOM     20  N   UNL A   1      43.180  26.996  27.861  1.00  0.00    -0.354 N 
ATOM     21  C   UNL A   1      44.753  30.999  28.364  1.00  0.00     0.074 A 
ATOM     22  C   UNL A   1      43.716  31.927  28.761  1.00  0.00     0.031 C 
ATOM     23  C   UNL A   1      41.597  25.414  27.831  1.00  0.00     0.029 A 
ATOM     24  C   UNL A   1      43.016  25.654  27.607  1.00  0.00     0.049 A 
ATOM     25  H   UNL A   1      44.051  27.452  27.809  1.00  0.00     0.167 HD
ATOM     26  C   UNL A   1      46.055  31.331  28.181  1.00  0.00     0.037 A 
ATOM     27  C   UNL A   1      43.901  24.720  27.210  1.00  0.00     0.037 A 
ATOM     28  C   UNL A   1      47.083  30.391  27.805  1.00  0.00     0.049 A 
ATOM     29  C   UNL A   1      45.333  25.121  27.001  1.00  0.00     0.074 A 
ATOM     30  C   UNL A   1      48.438  30.623  27.633  1.00  0.00     0.029 A 
ATOM     31  N   UNL A   1      46.875  29.045  27.542  1.00  0.00    -0.354 N 
ATOM     32  N   UNL A   1      45.889  26.297  27.168  1.00  0.00    -0.248 NA
ATOM     33  C   UNL A   1      46.257  24.075  26.547  1.00  0.00     0.031 C 
ATOM     34  C   UNL A   1      49.039  29.429  27.221  1.00  0.00     0.029 A 
ATOM     35  C   UNL A   1      48.070  28.440  27.186  1.00  0.00     0.049 A 
ATOM     36  H   UNL A   1      46.005  28.586  27.599  1.00  0.00     0.167 HD
ATOM     37  C   UNL A   1      47.231  26.128  26.855  1.00  0.00     0.074 A 
ATOM     38  C   UNL A   1      47.408  24.731  26.510  1.00  0.00     0.031 C 
ATOM     39  C   UNL A   1      48.228  27.047  26.850  1.00  0.00     0.037 A 
BRANCH  26  40
ATOM     40  C   UNL A   1      46.455  32.770  28.367  1.00  0.00     0.058 A 
ATOM     41  C   UNL A   1      46.412  33.693  27.312  1.00  0.00     0.135 A 
ATOM     42  C   UNL A   1      46.809  33.250  29.640  1.00  0.00     0.135 A 
ATOM     43  F   UNL A   1      46.092  33.289  26.073  1.00  0.00    -0.206 F 
ATOM     44  C   UNL A   1      46.717  35.038  27.508  1.00  0.00     0.059 A 
ATOM     45  C   UNL A   1      47.094  34.594  29.864  1.00  0.00     0.059 A 
ATOM     46  F   UNL A   1      46.866  32.410  30.686  1.00  0.00    -0.206 F 
ATOM     47  C   UNL A   1      47.053  35.479  28.789  1.00  0.00     0.060 A 
BRANCH  47  48
ATOM     48  S   UNL A   1      47.419  37.232  29.030  1.00  0.00     0.124 S 
ATOM     49  O   UNL A   1      46.153  37.723  29.564  1.00  0.00    -0.237 OA
ATOM     50  O   UNL A   1      48.531  37.192  29.971  1.00  0.00    -0.237 OA
ATOM     51  O   UNL A   1      47.755  37.697  27.687  1.00  0.00    -0.744 OA
ENDBRANCH  47  48
ENDBRANCH  26  40
BRANCH  27  52
ATOM     52  C   UNL A   1      43.449  23.325  26.962  1.00  0.00     0.058 A 
ATOM     53  C   UNL A   1      43.308  22.826  25.659  1.00  0.00     0.135 A 
ATOM     54  C   UNL A   1      43.155  22.458  28.028  1.00  0.00     0.135 A 
ATOM     55  F   UNL A   1      43.574  23.614  24.606  1.00  0.00    -0.206 F 
ATOM     56  C   UNL A   1      42.872  21.526  25.420  1.00  0.00     0.059 A 
ATOM     57  C   UNL A   1      42.748  21.147  27.815  1.00  0.00     0.059 A 
ATOM     58  F   UNL A   1      43.292  22.880  29.295  1.00  0.00    -0.206 F 
ATOM     59  C   UNL A   1      42.594  20.694  26.506  1.00  0.00     0.060 A 
BRANCH  59  60
ATOM     60  S   UNL A   1      42.056  19.000  26.188  1.00  0.00     0.124 S 
ATOM     61  O   UNL A   1      40.648  19.197  25.862  1.00  0.00    -0.237 OA
ATOM     62  O   UNL A   1      42.919  18.604  25.081  1.00  0.00    -0.237 OA
ATOM     63  O   UNL A   1      42.322  18.323  27.454  1.00  0.00    -0.744 OA
ENDBRANCH  59  60
ENDBRANCH  27  52
BRANCH  39  64
ATOM     64  C   UNL A   1      49.604  26.562  26.490  1.00  0.00     0.058 A 
ATOM     65  C   UNL A   1      50.461  25.996  27.446  1.00  0.00     0.135 A 
ATOM     66  C   UNL A   1      50.057  26.635  25.163  1.00  0.00     0.135 A 
ATOM     67  F   UNL A   1      50.080  25.914  28.731  1.00  0.00    -0.206 F 
ATOM     68  C   UNL A   1      51.730  25.540  27.104  1.00  0.00     0.059 A 
ATOM     69  C   UNL A   1      51.310  26.159  24.792  1.00  0.00     0.059 A 
ATOM     70  F   UNL A   1      49.272  27.160  24.208  1.00  0.00    -0.206 F 
ATOM     71  C   UNL A   1      52.146  25.626  25.773  1.00  0.00     0.060 A 
BRANCH  71  72
ATOM     72  S   UNL A   1      53.782  25.004  25.337  1.00  0.00     0.124 S 
ATOM     73  O   UNL A   1      54.541  25.299  26.547  1.00  0.00    -0.237 OA
ATOM     74  O   UNL A   1      53.523  23.591  25.079  1.00  0.00    -0.237 OA
ATOM     75  O   UNL A   1      54.143  25.793  24.162  1.00  0.00    -0.744 OA
ENDBRANCH  71  72
ENDBRANCH  39  64
ENDBRANCH  13  14
ENDBRANCH   6   8
ENDBRANCH   3   4
ENDBRANCH   2   3
ENDBRANCH   1   2
BRANCH   1  76
ATOM     76  N   UNL A   1      31.995  29.564  26.153  1.00  0.00    -0.356 N 
ATOM     77  C   UNL A   1      31.695  28.414  25.499  1.00  0.00     0.225 C 
ATOM     78  H   UNL A   1      31.549  30.355  25.772  1.00  0.00     0.163 HD
ATOM     79  O   UNL A   1      30.787  28.517  24.667  1.00  0.00    -0.275 OA
BRANCH  77  80
ATOM     80  C   UNL A   1      32.302  27.044  25.839  1.00  0.00     0.109 C 
ATOM     81  C   UNL A   1      33.780  26.829  25.564  1.00  0.00     0.026 C 
ATOM     82  C   UNL A   1      31.516  25.917  25.090  1.00  0.00     0.164 C 
ATOM     83  C   UNL A   1      34.049  26.954  24.085  1.00  0.00     0.101 C 
ATOM     84  N   UNL A   1      32.018  25.563  23.738  1.00  0.00    -0.332 N 
ATOM     85  C   UNL A   1      33.247  25.996  23.248  1.00  0.00     0.223 C 
ATOM     86  O   UNL A   1      33.655  25.713  22.119  1.00  0.00    -0.275 OA
BRANCH  82  87
ATOM     87  C   UNL A   1      31.442  24.688  25.959  1.00  0.00     0.127 A 
ATOM     88  C   UNL A   1      32.399  24.008  26.689  1.00  0.00     0.048 A 
ATOM     89  O   UNL A   1      30.226  24.095  26.133  1.00  0.00    -0.467 OA
ATOM     90  C   UNL A   1      31.721  22.967  27.368  1.00  0.00     0.042 A 
ATOM     91  C   UNL A   1      30.399  23.070  27.004  1.00  0.00     0.195 A 
ENDBRANCH  82  87
BRANCH  84  92
ATOM     92  C   UNL A   1      31.246  24.742  22.782  1.00  0.00     0.122 C 
BRANCH  92  93
ATOM     93  C   UNL A   1      31.054  23.228  22.907  1.00  0.00     0.050 C 
BRANCH  93  94
ATOM     94  C   UNL A   1      32.100  22.326  23.562  1.00  0.00     0.162 C 
BRANCH  94  95
ATOM     95  O   UNL A   1      33.417  22.470  23.046  1.00  0.00    -0.378 OA
BRANCH  95  96
ATOM     96  C   UNL A   1      34.470  22.567  24.019  1.00  0.00     0.118 C 
ATOM     97  C   UNL A   1      34.711  21.186  24.623  1.00  0.00     0.032 C 
ATOM     98  C   UNL A   1      35.711  23.092  23.285  1.00  0.00     0.032 C 
ATOM     99  C   UNL A   1      36.029  21.009  25.353  1.00  0.00     0.003 C 
ATOM    100  C   UNL A   1      36.992  22.935  24.099  1.00  0.00     0.003 C 
ATOM    101  C   UNL A   1      37.199  21.484  24.514  1.00  0.00     0.000 C 
ENDBRANCH  95  96
ENDBRANCH  94  95
ENDBRANCH  93  94
ENDBRANCH  92  93
ENDBRANCH  84  92
ENDBRANCH  77  80
ENDBRANCH   1  76
TORSDOF 19
ENDMDL
