MODEL 1
REMARK VINA RESULT:     -14.2      0.000      0.000
REMARK SMILES O=C(NCCCNC(=O)[C@@H]1CC2(CC[NH2+]CC2)C[N@@H+]1Cc1cccc2nonc12)c1ccc(-c2c3nc(c(-c4c(F)cc(S(=O)(=O)[O-])cc4F)c4ccc([nH]4)c(-c4c(F)cc(S(=O)(=O)[O-])cc4F)c4nc(c(-c5c(F)cc(S(=O)(=O)[O-])cc5F)c5ccc2[nH]5)C=C4)C=C3)cc1
REMARK SMILES IDX 4 1 3 2 1 3 2 4 30 6 31 7 95 8 32 9 94 10 33 11 34 12 35 13
REMARK SMILES IDX 88 14 36 15 93 16 87 17 89 18 37 19 92 20 86 21 85 22 38 24
REMARK SMILES IDX 72 25 51 26 71 27 52 28 55 29 70 30 90 31 53 32 54 33 69 35
REMARK SMILES IDX 91 36 56 37 39 38 40 39 49 40 41 41 42 42 48 43 50 44 43 45
REMARK SMILES IDX 44 46 45 47 46 48 47 49 73 50 74 51 83 52 75 53 76 54 82 55
REMARK SMILES IDX 84 56 77 57 78 58 79 59 80 60 81 61 57 62 58 63 67 64 59 65
REMARK SMILES IDX 60 66 66 67 68 68 61 69 62 70 63 71 64 72 65 73 5 74 6 75
REMARK SMILES IDX 7 76 8 77 9 79 10 80 11 81 19 82 12 83 18 84 13 86 17 87
REMARK SMILES IDX 14 88 16 89 15 90 20 93 21 94 22 95 29 96 23 97 25 98 28 99
REMARK SMILES IDX 24 100 26 101 27 102
REMARK H PARENT 3 5 89 23 55 34 7 78 19 85 15 91 15 92
REMARK Flexibility Score: inf
ROOT
ATOM      1  C   UNL A   1      38.289  21.947  25.549  1.00  0.00     0.118 C 
ENDROOT
BRANCH   1   2
ATOM      2  N   UNL A   1      39.387  21.227  26.168  1.00  0.00    -0.352 N 
ATOM      3  O   UNL A   1      41.290  20.734  27.209  1.00  0.00    -0.269 OA
ATOM      4  C   UNL A   1      40.523  21.623  26.831  1.00  0.00     0.251 C 
ATOM      5  H   UNL A   1      39.300  20.249  26.097  1.00  0.00     0.163 HD
BRANCH   4   6
ATOM      6  C   UNL A   1      40.897  23.039  27.089  1.00  0.00     0.039 A 
ATOM      7  C   UNL A   1      42.119  23.489  26.558  1.00  0.00     0.014 A 
ATOM      8  C   UNL A   1      40.182  23.886  27.937  1.00  0.00     0.014 A 
ATOM      9  C   UNL A   1      42.589  24.781  26.820  1.00  0.00     0.010 A 
ATOM     10  C   UNL A   1      40.658  25.184  28.202  1.00  0.00     0.010 A 
ATOM     11  C   UNL A   1      41.852  25.652  27.632  1.00  0.00    -0.014 A 
BRANCH  11  12
ATOM     12  C   UNL A   1      42.307  27.064  27.741  1.00  0.00     0.031 A 
ATOM     13  C   UNL A   1      41.228  28.094  27.638  1.00  0.00     0.074 A 
ATOM     14  C   UNL A   1      43.452  27.430  28.364  1.00  0.00     0.049 A 
ATOM     15  N   UNL A   1      40.432  28.369  28.631  1.00  0.00    -0.248 NA
ATOM     16  C   UNL A   1      40.825  28.709  26.374  1.00  0.00     0.031 C 
ATOM     17  C   UNL A   1      44.018  26.695  29.501  1.00  0.00     0.029 A 
ATOM     18  N   UNL A   1      44.185  28.599  28.320  1.00  0.00    -0.354 N 
ATOM     19  C   UNL A   1      39.410  29.159  28.138  1.00  0.00     0.074 A 
ATOM     20  C   UNL A   1      39.695  29.342  26.732  1.00  0.00     0.031 C 
ATOM     21  C   UNL A   1      44.880  27.504  30.154  1.00  0.00     0.029 A 
ATOM     22  C   UNL A   1      45.057  28.745  29.402  1.00  0.00     0.049 A 
ATOM     23  H   UNL A   1      44.103  29.263  27.598  1.00  0.00     0.167 HD
ATOM     24  C   UNL A   1      38.397  29.620  28.920  1.00  0.00     0.037 A 
ATOM     25  C   UNL A   1      45.431  29.930  29.964  1.00  0.00     0.037 A 
ATOM     26  C   UNL A   1      38.497  29.294  30.313  1.00  0.00     0.049 A 
ATOM     27  C   UNL A   1      44.130  30.369  30.593  1.00  0.00     0.074 A 
ATOM     28  C   UNL A   1      38.029  28.325  31.173  1.00  0.00     0.029 A 
ATOM     29  N   UNL A   1      39.304  30.086  31.096  1.00  0.00    -0.354 N 
ATOM     30  N   UNL A   1      43.624  29.923  31.713  1.00  0.00    -0.248 NA
ATOM     31  C   UNL A   1      43.182  31.082  29.734  1.00  0.00     0.031 C 
ATOM     32  C   UNL A   1      38.949  28.317  32.271  1.00  0.00     0.029 A 
ATOM     33  C   UNL A   1      39.940  29.255  31.982  1.00  0.00     0.049 A 
ATOM     34  H   UNL A   1      39.407  31.064  31.032  1.00  0.00     0.167 HD
ATOM     35  C   UNL A   1      42.240  30.061  31.574  1.00  0.00     0.074 A 
ATOM     36  C   UNL A   1      42.040  30.792  30.340  1.00  0.00     0.031 C 
ATOM     37  C   UNL A   1      41.325  29.427  32.364  1.00  0.00     0.037 A 
BRANCH  24  38
ATOM     38  C   UNL A   1      37.350  30.566  28.481  1.00  0.00     0.058 A 
ATOM     39  C   UNL A   1      37.552  31.933  28.724  1.00  0.00     0.135 A 
ATOM     40  C   UNL A   1      36.082  30.148  28.064  1.00  0.00     0.135 A 
ATOM     41  F   UNL A   1      38.757  32.370  29.135  1.00  0.00    -0.206 F 
ATOM     42  C   UNL A   1      36.520  32.851  28.617  1.00  0.00     0.059 A 
ATOM     43  C   UNL A   1      35.029  31.054  27.941  1.00  0.00     0.059 A 
ATOM     44  F   UNL A   1      35.841  28.847  27.829  1.00  0.00    -0.206 F 
ATOM     45  C   UNL A   1      35.254  32.399  28.248  1.00  0.00     0.060 A 
BRANCH  45  46
ATOM     46  S   UNL A   1      33.903  33.596  28.231  1.00  0.00     0.124 S 
ATOM     47  O   UNL A   1      33.698  33.840  29.653  1.00  0.00    -0.237 OA
ATOM     48  O   UNL A   1      34.488  34.698  27.473  1.00  0.00    -0.237 OA
ATOM     49  O   UNL A   1      32.823  32.881  27.555  1.00  0.00    -0.744 OA
ENDBRANCH  45  46
ENDBRANCH  24  38
BRANCH  25  50
ATOM     50  C   UNL A   1      46.271  30.837  29.107  1.00  0.00     0.058 A 
ATOM     51  C   UNL A   1      47.439  31.400  29.665  1.00  0.00     0.135 A 
ATOM     52  C   UNL A   1      46.004  31.190  27.773  1.00  0.00     0.135 A 
ATOM     53  F   UNL A   1      47.702  31.253  30.974  1.00  0.00    -0.206 F 
ATOM     54  C   UNL A   1      48.369  32.105  28.905  1.00  0.00     0.059 A 
ATOM     55  C   UNL A   1      46.931  31.871  26.980  1.00  0.00     0.059 A 
ATOM     56  F   UNL A   1      44.842  30.862  27.191  1.00  0.00    -0.206 F 
ATOM     57  C   UNL A   1      48.132  32.286  27.547  1.00  0.00     0.060 A 
BRANCH  57  58
ATOM     58  S   UNL A   1      49.442  32.996  26.529  1.00  0.00     0.124 S 
ATOM     59  O   UNL A   1      50.177  31.803  26.105  1.00  0.00    -0.237 OA
ATOM     60  O   UNL A   1      48.671  33.666  25.482  1.00  0.00    -0.237 OA
ATOM     61  O   UNL A   1      50.147  33.879  27.442  1.00  0.00    -0.744 OA
ENDBRANCH  57  58
ENDBRANCH  25  50
BRANCH  37  62
ATOM     62  C   UNL A   1      41.859  28.706  33.558  1.00  0.00     0.058 A 
ATOM     63  C   UNL A   1      41.680  29.240  34.841  1.00  0.00     0.135 A 
ATOM     64  C   UNL A   1      42.461  27.441  33.454  1.00  0.00     0.135 A 
ATOM     65  F   UNL A   1      41.101  30.442  35.001  1.00  0.00    -0.206 F 
ATOM     66  C   UNL A   1      42.044  28.530  35.981  1.00  0.00     0.059 A 
ATOM     67  C   UNL A   1      42.810  26.702  34.582  1.00  0.00     0.059 A 
ATOM     68  F   UNL A   1      42.680  26.883  32.251  1.00  0.00    -0.206 F 
ATOM     69  C   UNL A   1      42.588  27.251  35.842  1.00  0.00     0.060 A 
BRANCH  69  70
ATOM     70  S   UNL A   1      42.918  26.290  37.334  1.00  0.00     0.124 S 
ATOM     71  O   UNL A   1      41.586  26.155  37.913  1.00  0.00    -0.237 OA
ATOM     72  O   UNL A   1      43.499  25.065  36.792  1.00  0.00    -0.237 OA
ATOM     73  O   UNL A   1      43.845  27.130  38.088  1.00  0.00    -0.744 OA
ENDBRANCH  69  70
ENDBRANCH  37  62
ENDBRANCH  11  12
ENDBRANCH   4   6
ENDBRANCH   1   2
BRANCH   1  74
ATOM     74  C   UNL A   1      37.360  21.080  24.659  1.00  0.00     0.042 C 
BRANCH  74  75
ATOM     75  C   UNL A   1      35.978  20.558  25.136  1.00  0.00     0.118 C 
BRANCH  75  76
ATOM     76  N   UNL A   1      35.338  21.295  26.214  1.00  0.00    -0.351 N 
ATOM     77  C   UNL A   1      34.642  22.483  26.224  1.00  0.00     0.278 C 
ATOM     78  H   UNL A   1      35.415  20.865  27.097  1.00  0.00     0.163 HD
ATOM     79  O   UNL A   1      34.237  22.895  27.316  1.00  0.00    -0.268 OA
BRANCH  77  80
ATOM     80  C   UNL A   1      34.445  23.307  24.936  1.00  0.00     0.275 C 
ATOM     81  C   UNL A   1      34.713  24.840  25.122  1.00  0.00     0.089 C 
ATOM     82  N   UNL A   1      33.112  23.287  24.332  1.00  0.00    -0.320 N 
ATOM     83  C   UNL A   1      33.437  25.583  24.634  1.00  0.00     0.036 C 
ATOM     84  C   UNL A   1      32.833  24.546  23.685  1.00  0.00     0.270 C 
ATOM     85  H   UNL A   1      33.219  22.392  23.854  1.00  0.00     0.349 HD
ATOM     86  C   UNL A   1      33.712  26.889  23.856  1.00  0.00     0.074 C 
ATOM     87  C   UNL A   1      32.464  25.868  25.808  1.00  0.00     0.074 C 
ATOM     88  C   UNL A   1      33.958  28.108  24.741  1.00  0.00     0.261 C 
ATOM     89  C   UNL A   1      32.783  27.143  26.586  1.00  0.00     0.261 C 
ATOM     90  N   UNL A   1      32.875  28.304  25.701  1.00  0.00    -0.346 N 
ATOM     91  H   UNL A   1      31.995  28.419  25.200  1.00  0.00     0.346 HD
ATOM     92  H   UNL A   1      33.065  29.138  26.257  1.00  0.00     0.346 HD
BRANCH  82  93
ATOM     93  C   UNL A   1      32.036  22.357  24.570  1.00  0.00     0.302 C 
BRANCH  93  94
ATOM     94  C   UNL A   1      32.100  21.012  23.904  1.00  0.00     0.038 A 
ATOM     95  C   UNL A   1      31.984  20.887  22.496  1.00  0.00     0.012 A 
ATOM     96  C   UNL A   1      32.374  19.771  24.534  1.00  0.00     0.144 A 
ATOM     97  C   UNL A   1      32.096  19.659  21.789  1.00  0.00     0.003 A 
ATOM     98  C   UNL A   1      32.469  18.511  23.810  1.00  0.00     0.135 A 
ATOM     99  N   UNL A   1      32.624  19.495  25.817  1.00  0.00    -0.049 NA
ATOM    100  C   UNL A   1      32.330  18.427  22.419  1.00  0.00     0.034 A 
ATOM    101  N   UNL A   1      32.707  17.527  24.684  1.00  0.00    -0.050 NA
ATOM    102  O   UNL A   1      32.786  18.134  25.917  1.00  0.00    -0.243 OA
ENDBRANCH  93  94
ENDBRANCH  82  93
ENDBRANCH  77  80
ENDBRANCH  75  76
ENDBRANCH  74  75
ENDBRANCH   1  74
TORSDOF 15
ENDMDL
MODEL 2
REMARK VINA RESULT:     -13.3      3.039      8.824
REMARK SMILES O=C(NCCCNC(=O)[C@@H]1CC2(CC[NH2+]CC2)C[N@@H+]1Cc1cccc2nonc12)c1ccc(-c2c3nc(c(-c4c(F)cc(S(=O)(=O)[O-])cc4F)c4ccc([nH]4)c(-c4c(F)cc(S(=O)(=O)[O-])cc4F)c4nc(c(-c5c(F)cc(S(=O)(=O)[O-])cc5F)c5ccc2[nH]5)C=C4)C=C3)cc1
REMARK SMILES IDX 4 1 3 2 1 3 2 4 30 6 31 7 95 8 32 9 94 10 33 11 34 12 35 13
REMARK SMILES IDX 88 14 36 15 93 16 87 17 89 18 37 19 92 20 86 21 85 22 38 24
REMARK SMILES IDX 72 25 51 26 71 27 52 28 55 29 70 30 90 31 53 32 54 33 69 35
REMARK SMILES IDX 91 36 56 37 39 38 40 39 49 40 41 41 42 42 48 43 50 44 43 45
REMARK SMILES IDX 44 46 45 47 46 48 47 49 73 50 74 51 83 52 75 53 76 54 82 55
REMARK SMILES IDX 84 56 77 57 78 58 79 59 80 60 81 61 57 62 58 63 67 64 59 65
REMARK SMILES IDX 60 66 66 67 68 68 61 69 62 70 63 71 64 72 65 73 5 74 6 75
REMARK SMILES IDX 7 76 8 77 9 79 10 80 11 81 19 82 12 83 18 84 13 86 17 87
REMARK SMILES IDX 14 88 16 89 15 90 20 93 21 94 22 95 29 96 23 97 25 98 28 99
REMARK SMILES IDX 24 100 26 101 27 102
REMARK H PARENT 3 5 89 23 55 34 7 78 19 85 15 91 15 92
REMARK Flexibility Score: inf
ROOT
ATOM      1  C   UNL A   1      33.951  31.140  27.387  1.00  0.00     0.118 C 
ENDROOT
BRANCH   1   2
ATOM      2  N   UNL A   1      34.038  32.431  28.045  1.00  0.00    -0.352 N 
ATOM      3  O   UNL A   1      34.690  34.124  29.331  1.00  0.00    -0.269 OA
ATOM      4  C   UNL A   1      34.935  32.986  28.924  1.00  0.00     0.251 C 
ATOM      5  H   UNL A   1      33.298  33.037  27.810  1.00  0.00     0.163 HD
BRANCH   4   6
ATOM      6  C   UNL A   1      36.150  32.297  29.434  1.00  0.00     0.039 A 
ATOM      7  C   UNL A   1      36.159  31.928  30.791  1.00  0.00     0.014 A 
ATOM      8  C   UNL A   1      37.317  32.131  28.687  1.00  0.00     0.014 A 
ATOM      9  C   UNL A   1      37.292  31.350  31.376  1.00  0.00     0.010 A 
ATOM     10  C   UNL A   1      38.457  31.552  29.277  1.00  0.00     0.010 A 
ATOM     11  C   UNL A   1      38.450  31.137  30.618  1.00  0.00    -0.014 A 
BRANCH  11  12
ATOM     12  C   UNL A   1      39.562  30.369  31.237  1.00  0.00     0.031 A 
ATOM     13  C   UNL A   1      39.693  28.951  30.778  1.00  0.00     0.074 A 
ATOM     14  C   UNL A   1      40.664  30.950  31.766  1.00  0.00     0.049 A 
ATOM     15  N   UNL A   1      40.233  28.637  29.636  1.00  0.00    -0.248 NA
ATOM     16  C   UNL A   1      39.037  27.828  31.446  1.00  0.00     0.031 C 
ATOM     17  C   UNL A   1      41.224  32.211  31.266  1.00  0.00     0.029 A 
ATOM     18  N   UNL A   1      41.632  30.468  32.623  1.00  0.00    -0.354 N 
ATOM     19  C   UNL A   1      39.972  27.299  29.406  1.00  0.00     0.074 A 
ATOM     20  C   UNL A   1      39.225  26.839  30.557  1.00  0.00     0.031 C 
ATOM     21  C   UNL A   1      42.505  32.311  31.682  1.00  0.00     0.029 A 
ATOM     22  C   UNL A   1      42.811  31.219  32.604  1.00  0.00     0.049 A 
ATOM     23  H   UNL A   1      41.506  29.675  33.192  1.00  0.00     0.167 HD
ATOM     24  C   UNL A   1      40.393  26.651  28.288  1.00  0.00     0.037 A 
ATOM     25  C   UNL A   1      44.066  30.730  32.819  1.00  0.00     0.037 A 
ATOM     26  C   UNL A   1      41.195  27.429  27.390  1.00  0.00     0.049 A 
ATOM     27  C   UNL A   1      44.255  29.884  31.582  1.00  0.00     0.074 A 
ATOM     28  C   UNL A   1      41.016  28.191  26.255  1.00  0.00     0.029 A 
ATOM     29  N   UNL A   1      42.534  27.556  27.678  1.00  0.00    -0.354 N 
ATOM     30  N   UNL A   1      44.558  30.319  30.386  1.00  0.00    -0.248 NA
ATOM     31  C   UNL A   1      43.724  28.520  31.620  1.00  0.00     0.031 C 
ATOM     32  C   UNL A   1      42.130  29.091  26.223  1.00  0.00     0.029 A 
ATOM     33  C   UNL A   1      42.890  28.843  27.365  1.00  0.00     0.049 A 
ATOM     34  H   UNL A   1      43.125  26.856  28.041  1.00  0.00     0.167 HD
ATOM     35  C   UNL A   1      44.002  29.390  29.503  1.00  0.00     0.074 A 
ATOM     36  C   UNL A   1      43.517  28.304  30.330  1.00  0.00     0.031 C 
ATOM     37  C   UNL A   1      43.802  29.623  28.173  1.00  0.00     0.037 A 
BRANCH  24  38
ATOM     38  C   UNL A   1      40.255  25.200  28.045  1.00  0.00     0.058 A 
ATOM     39  C   UNL A   1      41.318  24.364  28.416  1.00  0.00     0.135 A 
ATOM     40  C   UNL A   1      39.234  24.661  27.254  1.00  0.00     0.135 A 
ATOM     41  F   UNL A   1      42.322  24.850  29.168  1.00  0.00    -0.206 F 
ATOM     42  C   UNL A   1      41.404  23.054  27.971  1.00  0.00     0.059 A 
ATOM     43  C   UNL A   1      39.293  23.343  26.801  1.00  0.00     0.059 A 
ATOM     44  F   UNL A   1      38.200  25.427  26.868  1.00  0.00    -0.206 F 
ATOM     45  C   UNL A   1      40.397  22.559  27.144  1.00  0.00     0.060 A 
BRANCH  45  46
ATOM     46  S   UNL A   1      40.594  20.889  26.484  1.00  0.00     0.124 S 
ATOM     47  O   UNL A   1      41.775  21.034  25.643  1.00  0.00    -0.237 OA
ATOM     48  O   UNL A   1      40.772  20.105  27.702  1.00  0.00    -0.237 OA
ATOM     49  O   UNL A   1      39.341  20.656  25.771  1.00  0.00    -0.744 OA
ENDBRANCH  45  46
ENDBRANCH  24  38
BRANCH  25  50
ATOM     50  C   UNL A   1      44.356  30.226  34.206  1.00  0.00     0.058 A 
ATOM     51  C   UNL A   1      45.605  30.534  34.786  1.00  0.00     0.135 A 
ATOM     52  C   UNL A   1      43.488  29.460  35.002  1.00  0.00     0.135 A 
ATOM     53  F   UNL A   1      46.564  31.126  34.055  1.00  0.00    -0.206 F 
ATOM     54  C   UNL A   1      45.899  30.266  36.121  1.00  0.00     0.059 A 
ATOM     55  C   UNL A   1      43.744  29.202  36.350  1.00  0.00     0.059 A 
ATOM     56  F   UNL A   1      42.350  28.960  34.500  1.00  0.00    -0.206 F 
ATOM     57  C   UNL A   1      44.936  29.648  36.912  1.00  0.00     0.060 A 
BRANCH  57  58
ATOM     58  S   UNL A   1      45.234  29.513  38.687  1.00  0.00     0.124 S 
ATOM     59  O   UNL A   1      44.298  30.499  39.228  1.00  0.00    -0.237 OA
ATOM     60  O   UNL A   1      44.888  28.113  38.937  1.00  0.00    -0.237 OA
ATOM     61  O   UNL A   1      46.643  29.838  38.825  1.00  0.00    -0.744 OA
ENDBRANCH  57  58
ENDBRANCH  25  50
BRANCH  37  62
ATOM     62  C   UNL A   1      44.398  30.875  27.618  1.00  0.00     0.058 A 
ATOM     63  C   UNL A   1      43.800  32.115  27.879  1.00  0.00     0.135 A 
ATOM     64  C   UNL A   1      45.612  30.870  26.910  1.00  0.00     0.135 A 
ATOM     65  F   UNL A   1      42.644  32.181  28.560  1.00  0.00    -0.206 F 
ATOM     66  C   UNL A   1      44.403  33.308  27.492  1.00  0.00     0.059 A 
ATOM     67  C   UNL A   1      46.246  32.052  26.536  1.00  0.00     0.059 A 
ATOM     68  F   UNL A   1      46.226  29.712  26.610  1.00  0.00    -0.206 F 
ATOM     69  C   UNL A   1      45.638  33.268  26.841  1.00  0.00     0.060 A 
BRANCH  69  70
ATOM     70  S   UNL A   1      46.471  34.828  26.478  1.00  0.00     0.124 S 
ATOM     71  O   UNL A   1      47.042  34.572  25.160  1.00  0.00    -0.237 OA
ATOM     72  O   UNL A   1      45.368  35.784  26.514  1.00  0.00    -0.237 OA
ATOM     73  O   UNL A   1      47.440  34.962  27.564  1.00  0.00    -0.744 OA
ENDBRANCH  69  70
ENDBRANCH  37  62
ENDBRANCH  11  12
ENDBRANCH   4   6
ENDBRANCH   1   2
BRANCH   1  74
ATOM     74  C   UNL A   1      32.507  30.632  27.134  1.00  0.00     0.042 C 
BRANCH  74  75
ATOM     75  C   UNL A   1      31.976  30.262  25.723  1.00  0.00     0.118 C 
BRANCH  75  76
ATOM     76  N   UNL A   1      32.943  29.721  24.782  1.00  0.00    -0.351 N 
ATOM     77  C   UNL A   1      33.316  28.426  24.495  1.00  0.00     0.278 C 
ATOM     78  H   UNL A   1      33.416  30.403  24.253  1.00  0.00     0.163 HD
ATOM     79  O   UNL A   1      34.211  28.265  23.659  1.00  0.00    -0.268 OA
BRANCH  77  80
ATOM     80  C   UNL A   1      32.697  27.230  25.245  1.00  0.00     0.275 C 
ATOM     81  C   UNL A   1      33.760  26.262  25.871  1.00  0.00     0.089 C 
ATOM     82  N   UNL A   1      31.856  26.320  24.466  1.00  0.00    -0.320 N 
ATOM     83  C   UNL A   1      33.447  24.838  25.330  1.00  0.00     0.036 C 
ATOM     84  C   UNL A   1      31.964  24.975  24.975  1.00  0.00     0.270 C 
ATOM     85  H   UNL A   1      31.013  26.893  24.497  1.00  0.00     0.349 HD
ATOM     86  C   UNL A   1      33.622  23.705  26.364  1.00  0.00     0.074 C 
ATOM     87  C   UNL A   1      34.276  24.520  24.058  1.00  0.00     0.074 C 
ATOM     88  C   UNL A   1      35.059  23.215  26.522  1.00  0.00     0.261 C 
ATOM     89  C   UNL A   1      35.679  23.988  24.346  1.00  0.00     0.261 C 
ATOM     90  N   UNL A   1      35.641  22.830  25.240  1.00  0.00    -0.346 N 
ATOM     91  H   UNL A   1      35.076  22.095  24.818  1.00  0.00     0.346 HD
ATOM     92  H   UNL A   1      36.591  22.490  25.390  1.00  0.00     0.346 HD
BRANCH  82  93
ATOM     93  C   UNL A   1      31.249  26.546  23.179  1.00  0.00     0.302 C 
BRANCH  93  94
ATOM     94  C   UNL A   1      29.898  27.201  23.137  1.00  0.00     0.038 A 
ATOM     95  C   UNL A   1      28.793  26.645  23.831  1.00  0.00     0.012 A 
ATOM     96  C   UNL A   1      29.580  28.442  22.526  1.00  0.00     0.144 A 
ATOM     97  C   UNL A   1      27.502  27.238  23.890  1.00  0.00     0.003 A 
ATOM     98  C   UNL A   1      28.252  29.038  22.571  1.00  0.00     0.135 A 
ATOM     99  N   UNL A   1      30.362  29.296  21.860  1.00  0.00    -0.049 NA
ATOM    100  C   UNL A   1      27.181  28.447  23.254  1.00  0.00     0.034 A 
ATOM    101  N   UNL A   1      28.270  30.185  21.884  1.00  0.00    -0.050 NA
ATOM    102  O   UNL A   1      29.564  30.332  21.435  1.00  0.00    -0.243 OA
ENDBRANCH  93  94
ENDBRANCH  82  93
ENDBRANCH  77  80
ENDBRANCH  75  76
ENDBRANCH  74  75
ENDBRANCH   1  74
TORSDOF 15
ENDMDL
MODEL 3
REMARK VINA RESULT:     -13.3      1.446      3.707
REMARK SMILES O=C(NCCCNC(=O)[C@@H]1CC2(CC[NH2+]CC2)C[N@@H+]1Cc1cccc2nonc12)c1ccc(-c2c3nc(c(-c4c(F)cc(S(=O)(=O)[O-])cc4F)c4ccc([nH]4)c(-c4c(F)cc(S(=O)(=O)[O-])cc4F)c4nc(c(-c5c(F)cc(S(=O)(=O)[O-])cc5F)c5ccc2[nH]5)C=C4)C=C3)cc1
REMARK SMILES IDX 4 1 3 2 1 3 2 4 30 6 31 7 95 8 32 9 94 10 33 11 34 12 35 13
REMARK SMILES IDX 88 14 36 15 93 16 87 17 89 18 37 19 92 20 86 21 85 22 38 24
REMARK SMILES IDX 72 25 51 26 71 27 52 28 55 29 70 30 90 31 53 32 54 33 69 35
REMARK SMILES IDX 91 36 56 37 39 38 40 39 49 40 41 41 42 42 48 43 50 44 43 45
REMARK SMILES IDX 44 46 45 47 46 48 47 49 73 50 74 51 83 52 75 53 76 54 82 55
REMARK SMILES IDX 84 56 77 57 78 58 79 59 80 60 81 61 57 62 58 63 67 64 59 65
REMARK SMILES IDX 60 66 66 67 68 68 61 69 62 70 63 71 64 72 65 73 5 74 6 75
REMARK SMILES IDX 7 76 8 77 9 79 10 80 11 81 19 82 12 83 18 84 13 86 17 87
REMARK SMILES IDX 14 88 16 89 15 90 20 93 21 94 22 95 29 96 23 97 25 98 28 99
REMARK SMILES IDX 24 100 26 101 27 102
REMARK H PARENT 3 5 89 23 55 34 7 78 19 85 15 91 15 92
REMARK Flexibility Score: inf
ROOT
ATOM      1  C   UNL A   1      38.911  21.799  26.441  1.00  0.00     0.118 C 
ENDROOT
BRANCH   1   2
ATOM      2  N   UNL A   1      40.229  21.256  26.165  1.00  0.00    -0.352 N 
ATOM      3  O   UNL A   1      42.423  21.044  25.863  1.00  0.00    -0.269 OA
ATOM      4  C   UNL A   1      41.496  21.785  26.202  1.00  0.00     0.251 C 
ATOM      5  H   UNL A   1      40.211  20.310  25.895  1.00  0.00     0.163 HD
BRANCH   4   6
ATOM      6  C   UNL A   1      41.813  23.186  26.587  1.00  0.00     0.039 A 
ATOM      7  C   UNL A   1      42.667  23.910  25.735  1.00  0.00     0.014 A 
ATOM      8  C   UNL A   1      41.432  23.760  27.800  1.00  0.00     0.014 A 
ATOM      9  C   UNL A   1      43.084  25.206  26.062  1.00  0.00     0.010 A 
ATOM     10  C   UNL A   1      41.855  25.062  28.129  1.00  0.00     0.010 A 
ATOM     11  C   UNL A   1      42.666  25.805  27.257  1.00  0.00    -0.014 A 
BRANCH  11  12
ATOM     12  C   UNL A   1      42.996  27.238  27.476  1.00  0.00     0.031 A 
ATOM     13  C   UNL A   1      41.833  28.177  27.428  1.00  0.00     0.074 A 
ATOM     14  C   UNL A   1      44.097  27.654  28.145  1.00  0.00     0.049 A 
ATOM     15  N   UNL A   1      41.005  28.310  28.422  1.00  0.00    -0.248 NA
ATOM     16  C   UNL A   1      41.395  28.847  26.204  1.00  0.00     0.031 C 
ATOM     17  C   UNL A   1      44.710  26.888  29.237  1.00  0.00     0.029 A 
ATOM     18  N   UNL A   1      44.728  28.880  28.200  1.00  0.00    -0.354 N 
ATOM     19  C   UNL A   1      39.924  29.045  27.969  1.00  0.00     0.074 A 
ATOM     20  C   UNL A   1      40.211  29.355  26.585  1.00  0.00     0.031 C 
ATOM     21  C   UNL A   1      45.491  27.717  29.963  1.00  0.00     0.029 A 
ATOM     22  C   UNL A   1      45.569  29.020  29.306  1.00  0.00     0.049 A 
ATOM     23  H   UNL A   1      44.598  29.586  27.526  1.00  0.00     0.167 HD
ATOM     24  C   UNL A   1      38.866  29.359  28.762  1.00  0.00     0.037 A 
ATOM     25  C   UNL A   1      45.833  30.188  29.960  1.00  0.00     0.037 A 
ATOM     26  C   UNL A   1      38.975  28.941  30.129  1.00  0.00     0.049 A 
ATOM     27  C   UNL A   1      44.491  30.468  30.593  1.00  0.00     0.074 A 
ATOM     28  C   UNL A   1      38.582  27.876  30.909  1.00  0.00     0.029 A 
ATOM     29  N   UNL A   1      39.702  29.739  30.983  1.00  0.00    -0.354 N 
ATOM     30  N   UNL A   1      44.011  29.899  31.669  1.00  0.00    -0.248 NA
ATOM     31  C   UNL A   1      43.497  31.159  29.771  1.00  0.00     0.031 C 
ATOM     32  C   UNL A   1      39.485  27.865  32.020  1.00  0.00     0.029 A 
ATOM     33  C   UNL A   1      40.395  28.902  31.818  1.00  0.00     0.049 A 
ATOM     34  H   UNL A   1      39.720  30.724  30.992  1.00  0.00     0.167 HD
ATOM     35  C   UNL A   1      42.622  29.928  31.514  1.00  0.00     0.074 A 
ATOM     36  C   UNL A   1      42.376  30.729  30.332  1.00  0.00     0.031 C 
ATOM     37  C   UNL A   1      41.755  29.162  32.239  1.00  0.00     0.037 A 
BRANCH  24  38
ATOM     38  C   UNL A   1      37.747  30.243  28.373  1.00  0.00     0.058 A 
ATOM     39  C   UNL A   1      37.834  31.603  28.706  1.00  0.00     0.135 A 
ATOM     40  C   UNL A   1      36.521  29.749  27.915  1.00  0.00     0.135 A 
ATOM     41  F   UNL A   1      38.995  32.109  29.159  1.00  0.00    -0.206 F 
ATOM     42  C   UNL A   1      36.729  32.438  28.647  1.00  0.00     0.059 A 
ATOM     43  C   UNL A   1      35.397  30.572  27.838  1.00  0.00     0.059 A 
ATOM     44  F   UNL A   1      36.389  28.452  27.593  1.00  0.00    -0.206 F 
ATOM     45  C   UNL A   1      35.508  31.908  28.234  1.00  0.00     0.060 A 
BRANCH  45  46
ATOM     46  S   UNL A   1      34.062  32.989  28.278  1.00  0.00     0.124 S 
ATOM     47  O   UNL A   1      33.057  32.175  27.605  1.00  0.00    -0.237 OA
ATOM     48  O   UNL A   1      33.873  33.178  29.713  1.00  0.00    -0.237 OA
ATOM     49  O   UNL A   1      34.502  34.174  27.547  1.00  0.00    -0.744 OA
ENDBRANCH  45  46
ENDBRANCH  24  38
BRANCH  25  50
ATOM     50  C   UNL A   1      46.603  31.224  29.186  1.00  0.00     0.058 A 
ATOM     51  C   UNL A   1      47.476  30.790  28.166  1.00  0.00     0.135 A 
ATOM     52  C   UNL A   1      46.540  32.614  29.382  1.00  0.00     0.135 A 
ATOM     53  F   UNL A   1      47.729  29.481  28.002  1.00  0.00    -0.206 F 
ATOM     54  C   UNL A   1      48.095  31.672  27.283  1.00  0.00     0.059 A 
ATOM     55  C   UNL A   1      47.126  33.520  28.495  1.00  0.00     0.059 A 
ATOM     56  F   UNL A   1      45.883  33.136  30.428  1.00  0.00    -0.206 F 
ATOM     57  C   UNL A   1      47.867  33.036  27.422  1.00  0.00     0.060 A 
BRANCH  57  58
ATOM     58  S   UNL A   1      48.483  34.150  26.142  1.00  0.00     0.124 S 
ATOM     59  O   UNL A   1      47.295  34.344  25.311  1.00  0.00    -0.237 OA
ATOM     60  O   UNL A   1      48.895  35.309  26.934  1.00  0.00    -0.237 OA
ATOM     61  O   UNL A   1      49.566  33.401  25.528  1.00  0.00    -0.744 OA
ENDBRANCH  57  58
ENDBRANCH  25  50
BRANCH  37  62
ATOM     62  C   UNL A   1      42.334  28.404  33.387  1.00  0.00     0.058 A 
ATOM     63  C   UNL A   1      42.160  28.868  34.698  1.00  0.00     0.135 A 
ATOM     64  C   UNL A   1      42.977  27.167  33.212  1.00  0.00     0.135 A 
ATOM     65  F   UNL A   1      41.543  30.040  34.925  1.00  0.00    -0.206 F 
ATOM     66  C   UNL A   1      42.568  28.117  35.795  1.00  0.00     0.059 A 
ATOM     67  C   UNL A   1      43.370  26.386  34.296  1.00  0.00     0.059 A 
ATOM     68  F   UNL A   1      43.193  26.675  31.979  1.00  0.00    -0.206 F 
ATOM     69  C   UNL A   1      43.152  26.866  35.585  1.00  0.00     0.060 A 
BRANCH  69  70
ATOM     70  S   UNL A   1      43.540  25.845  37.023  1.00  0.00     0.124 S 
ATOM     71  O   UNL A   1      44.688  25.077  36.553  1.00  0.00    -0.237 OA
ATOM     72  O   UNL A   1      43.826  26.847  38.047  1.00  0.00    -0.237 OA
ATOM     73  O   UNL A   1      42.318  25.074  37.239  1.00  0.00    -0.744 OA
ENDBRANCH  69  70
ENDBRANCH  37  62
ENDBRANCH  11  12
ENDBRANCH   4   6
ENDBRANCH   1   2
BRANCH   1  74
ATOM     74  C   UNL A   1      38.015  22.003  25.191  1.00  0.00     0.042 C 
BRANCH  74  75
ATOM     75  C   UNL A   1      37.410  23.378  24.799  1.00  0.00     0.118 C 
BRANCH  75  76
ATOM     76  N   UNL A   1      36.513  23.396  23.655  1.00  0.00    -0.351 N 
ATOM     77  C   UNL A   1      35.201  23.000  23.515  1.00  0.00     0.278 C 
ATOM     78  H   UNL A   1      36.915  23.757  22.832  1.00  0.00     0.163 HD
ATOM     79  O   UNL A   1      34.696  23.097  22.391  1.00  0.00    -0.268 OA
BRANCH  77  80
ATOM     80  C   UNL A   1      34.419  22.386  24.692  1.00  0.00     0.275 C 
ATOM     81  C   UNL A   1      34.365  20.819  24.664  1.00  0.00     0.089 C 
ATOM     82  N   UNL A   1      33.007  22.751  24.815  1.00  0.00    -0.320 N 
ATOM     83  C   UNL A   1      32.864  20.418  24.724  1.00  0.00     0.036 C 
ATOM     84  C   UNL A   1      32.251  21.659  25.378  1.00  0.00     0.270 C 
ATOM     85  H   UNL A   1      33.163  23.651  25.268  1.00  0.00     0.349 HD
ATOM     86  C   UNL A   1      32.564  19.180  25.598  1.00  0.00     0.074 C 
ATOM     87  C   UNL A   1      32.275  20.212  23.304  1.00  0.00     0.074 C 
ATOM     88  C   UNL A   1      32.785  17.845  24.892  1.00  0.00     0.261 C 
ATOM     89  C   UNL A   1      32.516  18.820  22.725  1.00  0.00     0.261 C 
ATOM     90  N   UNL A   1      32.049  17.772  23.633  1.00  0.00    -0.346 N 
ATOM     91  H   UNL A   1      31.054  17.900  23.815  1.00  0.00     0.346 HD
ATOM     92  H   UNL A   1      32.204  16.860  23.203  1.00  0.00     0.346 HD
BRANCH  82  93
ATOM     93  C   UNL A   1      32.311  23.852  24.197  1.00  0.00     0.302 C 
BRANCH  93  94
ATOM     94  C   UNL A   1      32.757  25.248  24.527  1.00  0.00     0.038 A 
ATOM     95  C   UNL A   1      32.834  25.692  25.872  1.00  0.00     0.012 A 
ATOM     96  C   UNL A   1      33.233  26.221  23.612  1.00  0.00     0.144 A 
ATOM     97  C   UNL A   1      33.305  26.974  26.267  1.00  0.00     0.003 A 
ATOM     98  C   UNL A   1      33.696  27.541  24.016  1.00  0.00     0.135 A 
ATOM     99  N   UNL A   1      33.391  26.149  22.287  1.00  0.00    -0.049 NA
ATOM    100  C   UNL A   1      33.740  27.948  25.355  1.00  0.00     0.034 A 
ATOM    101  N   UNL A   1      34.051  28.228  22.924  1.00  0.00    -0.050 NA
ATOM    102  O   UNL A   1      33.847  27.374  21.863  1.00  0.00    -0.243 OA
ENDBRANCH  93  94
ENDBRANCH  82  93
ENDBRANCH  77  80
ENDBRANCH  75  76
ENDBRANCH  74  75
ENDBRANCH   1  74
TORSDOF 15
ENDMDL
