MODEL 1
REMARK VINA RESULT:     -12.0      0.000      0.000
REMARK SMILES Cc1ccc(NC(=O)C[C@H]([NH2+]Cc2cccnc2)C(=O)NCCCNC(=O)c2ccc(-c3c4nc(c(-c5c(F)cc(S(=O)(=O)[O-])cc5F)c5ccc([nH]5)c(-c5c(F)cc(S(=O)(=O)[O-])cc5F)c5nc(c(-c6c(F)cc(S(=O)(=O)[O-])cc6F)c6ccc3[nH]6)C=C5)C=C4)cc2)cc1Cl
REMARK SMILES IDX 23 1 22 2 21 3 19 4 20 5 10 7 9 8 7 9 6 10 8 12 5 13 1 14
REMARK SMILES IDX 2 15 3 16 95 17 4 18 94 19 96 20 11 21 12 24 13 25 14 26
REMARK SMILES IDX 18 27 15 28 17 29 16 30 24 31 25 32 26 33 27 35 28 36 29 37
REMARK SMILES IDX 93 38 30 39 92 40 31 41 32 42 33 43 86 44 34 45 91 46 85 47
REMARK SMILES IDX 87 48 35 49 90 50 84 51 83 52 36 54 70 55 49 56 69 57 50 58
REMARK SMILES IDX 53 59 68 60 88 61 51 62 52 63 67 65 89 66 54 67 37 68 38 69
REMARK SMILES IDX 47 70 39 71 40 72 46 73 48 74 41 75 42 76 43 77 44 78 45 79
REMARK SMILES IDX 71 80 72 81 81 82 73 83 74 84 80 85 82 86 75 87 76 88 77 89
REMARK SMILES IDX 78 90 79 91 55 92 56 93 65 94 57 95 58 96 64 97 66 98 59 99
REMARK SMILES IDX 60 100 61 101 62 102 63 103
REMARK H PARENT 21 6 6 11 11 22 11 23 25 34 87 53 53 64
REMARK Flexibility Score: inf
ROOT
ATOM      1  C   UNL A   1      38.663  22.211  25.906  1.00  0.00     0.042 C 
ENDROOT
BRANCH   1   2
ATOM      2  C   UNL A   1      37.272  22.652  25.442  1.00  0.00     0.118 C 
BRANCH   2   3
ATOM      3  N   UNL A   1      36.194  21.932  26.135  1.00  0.00    -0.351 N 
ATOM      4  C   UNL A   1      34.838  22.003  26.227  1.00  0.00     0.278 C 
ATOM      5  O   UNL A   1      34.326  21.162  26.985  1.00  0.00    -0.268 OA
ATOM      6  H   UNL A   1      36.550  21.194  26.681  1.00  0.00     0.163 HD
BRANCH   4   7
ATOM      7  C   UNL A   1      33.882  23.045  25.546  1.00  0.00     0.282 C 
BRANCH   7   8
ATOM      8  C   UNL A   1      33.826  23.028  24.037  1.00  0.00     0.175 C 
BRANCH   8   9
ATOM      9  C   UNL A   1      32.633  23.050  23.092  1.00  0.00     0.230 C 
ATOM     10  N   UNL A   1      31.751  24.000  22.730  1.00  0.00    -0.326 N 
ATOM     11  H   UNL A   1      31.103  23.623  22.090  1.00  0.00     0.169 HD
ATOM     12  O   UNL A   1      32.425  21.961  22.514  1.00  0.00    -0.274 OA
BRANCH  10  13
ATOM     13  C   UNL A   1      31.451  25.353  22.961  1.00  0.00     0.042 A 
ATOM     14  C   UNL A   1      30.313  29.449  23.878  1.00  0.00     0.046 C 
ATOM     15  C   UNL A   1      30.694  28.043  23.531  1.00  0.00    -0.032 A 
ATOM     16  C   UNL A   1      29.825  26.976  23.791  1.00  0.00     0.007 A 
ATOM     17  C   UNL A   1      31.927  27.747  22.962  1.00  0.00     0.046 A 
ATOM     18  C   UNL A   1      30.202  25.652  23.513  1.00  0.00     0.026 A 
ATOM     19  C   UNL A   1      32.263  26.426  22.660  1.00  0.00     0.047 A 
ATOM     20  Cl  UNL A   1      33.086  28.973  22.579  1.00  0.00    -0.084 Cl
ENDBRANCH  10  13
ENDBRANCH   8   9
ENDBRANCH   7   8
BRANCH   7  21
ATOM     21  N   UNL A   1      33.968  24.334  26.254  1.00  0.00    -0.332 N 
ATOM     22  H   UNL A   1      34.780  24.283  26.869  1.00  0.00     0.347 HD
ATOM     23  H   UNL A   1      33.056  24.426  26.701  1.00  0.00     0.347 HD
BRANCH  21  24
ATOM     24  C   UNL A   1      34.097  25.564  25.487  1.00  0.00     0.299 C 
BRANCH  24  25
ATOM     25  C   UNL A   1      33.339  26.690  26.153  1.00  0.00     0.024 A 
ATOM     26  C   UNL A   1      33.839  27.994  26.222  1.00  0.00     0.013 A 
ATOM     27  C   UNL A   1      32.063  26.483  26.675  1.00  0.00     0.120 A 
ATOM     28  C   UNL A   1      33.053  29.017  26.754  1.00  0.00     0.021 A 
ATOM     29  N   UNL A   1      31.283  27.449  27.215  1.00  0.00    -0.264 NA
ATOM     30  C   UNL A   1      31.790  28.699  27.222  1.00  0.00     0.111 A 
ENDBRANCH  24  25
ENDBRANCH  21  24
ENDBRANCH   7  21
ENDBRANCH   4   7
ENDBRANCH   2   3
ENDBRANCH   1   2
BRANCH   1  31
ATOM     31  C   UNL A   1      39.437  23.154  26.815  1.00  0.00     0.118 C 
BRANCH  31  32
ATOM     32  N   UNL A   1      40.597  23.742  26.174  1.00  0.00    -0.352 N 
ATOM     33  C   UNL A   1      41.264  24.930  26.373  1.00  0.00     0.251 C 
ATOM     34  H   UNL A   1      40.982  23.185  25.459  1.00  0.00     0.163 HD
ATOM     35  O   UNL A   1      42.143  25.220  25.560  1.00  0.00    -0.269 OA
BRANCH  33  36
ATOM     36  C   UNL A   1      40.978  25.874  27.496  1.00  0.00     0.039 A 
ATOM     37  C   UNL A   1      41.849  26.961  27.671  1.00  0.00     0.014 A 
ATOM     38  C   UNL A   1      39.957  25.693  28.430  1.00  0.00     0.014 A 
ATOM     39  C   UNL A   1      41.685  27.851  28.743  1.00  0.00     0.010 A 
ATOM     40  C   UNL A   1      39.728  26.641  29.436  1.00  0.00     0.010 A 
ATOM     41  C   UNL A   1      40.606  27.714  29.630  1.00  0.00    -0.014 A 
BRANCH  41  42
ATOM     42  C   UNL A   1      40.427  28.654  30.776  1.00  0.00     0.031 A 
ATOM     43  C   UNL A   1      41.285  28.533  32.016  1.00  0.00     0.074 A 
ATOM     44  C   UNL A   1      39.478  29.613  30.721  1.00  0.00     0.049 A 
ATOM     45  N   UNL A   1      41.273  29.258  33.107  1.00  0.00    -0.248 NA
ATOM     46  C   UNL A   1      42.267  27.437  32.044  1.00  0.00     0.031 C 
ATOM     47  C   UNL A   1      38.538  29.808  29.614  1.00  0.00     0.029 A 
ATOM     48  N   UNL A   1      39.148  30.605  31.611  1.00  0.00    -0.354 N 
ATOM     49  C   UNL A   1      42.225  28.696  33.953  1.00  0.00     0.074 A 
ATOM     50  C   UNL A   1      42.753  27.534  33.272  1.00  0.00     0.031 C 
ATOM     51  C   UNL A   1      37.767  30.876  29.874  1.00  0.00     0.029 A 
ATOM     52  C   UNL A   1      38.132  31.425  31.177  1.00  0.00     0.049 A 
ATOM     53  H   UNL A   1      39.596  30.718  32.481  1.00  0.00     0.167 HD
ATOM     54  C   UNL A   1      42.646  29.120  35.170  1.00  0.00     0.037 A 
ATOM     55  C   UNL A   1      37.564  32.502  31.753  1.00  0.00     0.037 A 
ATOM     56  C   UNL A   1      42.149  30.300  35.831  1.00  0.00     0.049 A 
ATOM     57  C   UNL A   1      38.076  32.982  33.084  1.00  0.00     0.074 A 
ATOM     58  C   UNL A   1      42.552  30.845  37.039  1.00  0.00     0.029 A 
ATOM     59  N   UNL A   1      41.145  31.120  35.339  1.00  0.00    -0.354 N 
ATOM     60  N   UNL A   1      39.019  32.469  33.839  1.00  0.00    -0.248 NA
ATOM     61  C   UNL A   1      37.458  34.196  33.635  1.00  0.00     0.031 C 
ATOM     62  C   UNL A   1      41.765  31.976  37.294  1.00  0.00     0.029 A 
ATOM     63  C   UNL A   1      40.907  32.161  36.223  1.00  0.00     0.049 A 
ATOM     64  H   UNL A   1      40.670  30.982  34.488  1.00  0.00     0.167 HD
ATOM     65  C   UNL A   1      39.126  33.313  34.939  1.00  0.00     0.074 A 
ATOM     66  C   UNL A   1      38.164  34.378  34.742  1.00  0.00     0.031 C 
ATOM     67  C   UNL A   1      39.947  33.216  36.015  1.00  0.00     0.037 A 
BRANCH  54  68
ATOM     68  C   UNL A   1      43.712  28.310  35.864  1.00  0.00     0.058 A 
ATOM     69  C   UNL A   1      45.079  28.556  35.655  1.00  0.00     0.135 A 
ATOM     70  C   UNL A   1      43.364  27.298  36.774  1.00  0.00     0.135 A 
ATOM     71  F   UNL A   1      45.471  29.501  34.786  1.00  0.00    -0.206 F 
ATOM     72  C   UNL A   1      46.061  27.805  36.294  1.00  0.00     0.059 A 
ATOM     73  C   UNL A   1      44.331  26.555  37.448  1.00  0.00     0.059 A 
ATOM     74  F   UNL A   1      42.073  27.021  37.017  1.00  0.00    -0.206 F 
ATOM     75  C   UNL A   1      45.677  26.805  37.187  1.00  0.00     0.060 A 
BRANCH  75  76
ATOM     76  S   UNL A   1      46.962  25.840  38.011  1.00  0.00     0.124 S 
ATOM     77  O   UNL A   1      47.450  26.796  39.004  1.00  0.00    -0.237 OA
ATOM     78  O   UNL A   1      46.206  24.707  38.545  1.00  0.00    -0.237 OA
ATOM     79  O   UNL A   1      47.891  25.519  36.940  1.00  0.00    -0.744 OA
ENDBRANCH  75  76
ENDBRANCH  54  68
BRANCH  55  80
ATOM     80  C   UNL A   1      36.473  33.233  31.050  1.00  0.00     0.058 A 
ATOM     81  C   UNL A   1      35.145  33.152  31.496  1.00  0.00     0.135 A 
ATOM     82  C   UNL A   1      36.737  34.032  29.927  1.00  0.00     0.135 A 
ATOM     83  F   UNL A   1      34.841  32.397  32.562  1.00  0.00    -0.206 F 
ATOM     84  C   UNL A   1      34.115  33.824  30.846  1.00  0.00     0.059 A 
ATOM     85  C   UNL A   1      35.728  34.734  29.276  1.00  0.00     0.059 A 
ATOM     86  F   UNL A   1      37.993  34.157  29.471  1.00  0.00    -0.206 F 
ATOM     87  C   UNL A   1      34.418  34.614  29.736  1.00  0.00     0.060 A 
BRANCH  87  88
ATOM     88  S   UNL A   1      33.081  35.523  28.929  1.00  0.00     0.124 S 
ATOM     89  O   UNL A   1      33.825  36.492  28.131  1.00  0.00    -0.237 OA
ATOM     90  O   UNL A   1      32.400  34.470  28.184  1.00  0.00    -0.237 OA
ATOM     91  O   UNL A   1      32.327  36.075  30.051  1.00  0.00    -0.744 OA
ENDBRANCH  87  88
ENDBRANCH  55  80
BRANCH  67  92
ATOM     92  C   UNL A   1      39.865  34.312  37.042  1.00  0.00     0.058 A 
ATOM     93  C   UNL A   1      39.125  34.164  38.226  1.00  0.00     0.135 A 
ATOM     94  C   UNL A   1      40.543  35.525  36.842  1.00  0.00     0.135 A 
ATOM     95  F   UNL A   1      38.457  33.025  38.467  1.00  0.00    -0.206 F 
ATOM     96  C   UNL A   1      39.023  35.197  39.153  1.00  0.00     0.059 A 
ATOM     97  C   UNL A   1      40.479  36.561  37.769  1.00  0.00     0.059 A 
ATOM     98  F   UNL A   1      41.278  35.715  35.734  1.00  0.00    -0.206 F 
ATOM     99  C   UNL A   1      39.697  36.395  38.911  1.00  0.00     0.060 A 
BRANCH  99 100
ATOM    100  S   UNL A   1      39.550  37.732  40.114  1.00  0.00     0.124 S 
ATOM    101  O   UNL A   1      39.082  37.012  41.294  1.00  0.00    -0.237 OA
ATOM    102  O   UNL A   1      40.914  38.246  40.185  1.00  0.00    -0.237 OA
ATOM    103  O   UNL A   1      38.578  38.633  39.503  1.00  0.00    -0.744 OA
ENDBRANCH  99 100
ENDBRANCH  67  92
ENDBRANCH  41  42
ENDBRANCH  33  36
ENDBRANCH  31  32
ENDBRANCH   1  31
TORSDOF 19
ENDMDL
MODEL 2
REMARK VINA RESULT:     -11.8      6.592     12.207
REMARK SMILES Cc1ccc(NC(=O)C[C@H]([NH2+]Cc2cccnc2)C(=O)NCCCNC(=O)c2ccc(-c3c4nc(c(-c5c(F)cc(S(=O)(=O)[O-])cc5F)c5ccc([nH]5)c(-c5c(F)cc(S(=O)(=O)[O-])cc5F)c5nc(c(-c6c(F)cc(S(=O)(=O)[O-])cc6F)c6ccc3[nH]6)C=C5)C=C4)cc2)cc1Cl
REMARK SMILES IDX 23 1 22 2 21 3 19 4 20 5 10 7 9 8 7 9 6 10 8 12 5 13 1 14
REMARK SMILES IDX 2 15 3 16 95 17 4 18 94 19 96 20 11 21 12 24 13 25 14 26
REMARK SMILES IDX 18 27 15 28 17 29 16 30 24 31 25 32 26 33 27 35 28 36 29 37
REMARK SMILES IDX 93 38 30 39 92 40 31 41 32 42 33 43 86 44 34 45 91 46 85 47
REMARK SMILES IDX 87 48 35 49 90 50 84 51 83 52 36 54 70 55 49 56 69 57 50 58
REMARK SMILES IDX 53 59 68 60 88 61 51 62 52 63 67 65 89 66 54 67 37 68 38 69
REMARK SMILES IDX 47 70 39 71 40 72 46 73 48 74 41 75 42 76 43 77 44 78 45 79
REMARK SMILES IDX 71 80 72 81 81 82 73 83 74 84 80 85 82 86 75 87 76 88 77 89
REMARK SMILES IDX 78 90 79 91 55 92 56 93 65 94 57 95 58 96 64 97 66 98 59 99
REMARK SMILES IDX 60 100 61 101 62 102 63 103
REMARK H PARENT 21 6 6 11 11 22 11 23 25 34 87 53 53 64
REMARK Flexibility Score: inf
ROOT
ATOM      1  C   UNL A   1      33.742  31.275  27.622  1.00  0.00     0.042 C 
ENDROOT
BRANCH   1   2
ATOM      2  C   UNL A   1      32.813  30.324  26.864  1.00  0.00     0.118 C 
BRANCH   2   3
ATOM      3  N   UNL A   1      33.397  29.857  25.599  1.00  0.00    -0.351 N 
ATOM      4  C   UNL A   1      33.419  28.709  24.867  1.00  0.00     0.278 C 
ATOM      5  O   UNL A   1      34.093  28.773  23.824  1.00  0.00    -0.268 OA
ATOM      6  H   UNL A   1      33.913  30.570  25.159  1.00  0.00     0.163 HD
BRANCH   4   7
ATOM      7  C   UNL A   1      32.754  27.332  25.219  1.00  0.00     0.282 C 
BRANCH   7   8
ATOM      8  C   UNL A   1      33.657  26.120  25.203  1.00  0.00     0.175 C 
BRANCH   8   9
ATOM      9  C   UNL A   1      33.342  24.658  24.926  1.00  0.00     0.230 C 
ATOM     10  N   UNL A   1      34.077  23.530  24.933  1.00  0.00    -0.326 N 
ATOM     11  H   UNL A   1      33.510  22.763  24.687  1.00  0.00     0.169 HD
ATOM     12  O   UNL A   1      32.143  24.443  24.641  1.00  0.00    -0.274 OA
BRANCH  10  13
ATOM     13  C   UNL A   1      35.387  23.086  25.178  1.00  0.00     0.042 A 
ATOM     14  C   UNL A   1      39.473  21.943  26.133  1.00  0.00     0.046 C 
ATOM     15  C   UNL A   1      38.075  22.342  25.773  1.00  0.00    -0.032 A 
ATOM     16  C   UNL A   1      37.618  23.646  26.002  1.00  0.00     0.007 A 
ATOM     17  C   UNL A   1      37.182  21.432  25.223  1.00  0.00     0.046 A 
ATOM     18  C   UNL A   1      36.292  24.009  25.712  1.00  0.00     0.026 A 
ATOM     19  C   UNL A   1      35.880  21.826  24.908  1.00  0.00     0.047 A 
ATOM     20  Cl  UNL A   1      37.624  19.795  24.880  1.00  0.00    -0.084 Cl
ENDBRANCH  10  13
ENDBRANCH   8   9
ENDBRANCH   7   8
BRANCH   7  21
ATOM     21  N   UNL A   1      31.420  27.251  24.599  1.00  0.00    -0.332 N 
ATOM     22  H   UNL A   1      30.870  28.023  24.974  1.00  0.00     0.347 HD
ATOM     23  H   UNL A   1      31.106  26.307  24.826  1.00  0.00     0.347 HD
BRANCH  21  24
ATOM     24  C   UNL A   1      31.301  27.311  23.150  1.00  0.00     0.299 C 
BRANCH  24  25
ATOM     25  C   UNL A   1      30.127  28.175  22.748  1.00  0.00     0.024 A 
ATOM     26  C   UNL A   1      28.826  27.931  23.202  1.00  0.00     0.013 A 
ATOM     27  C   UNL A   1      30.308  29.304  21.951  1.00  0.00     0.120 A 
ATOM     28  C   UNL A   1      27.798  28.821  22.886  1.00  0.00     0.021 A 
ATOM     29  N   UNL A   1      29.329  30.176  21.612  1.00  0.00    -0.264 NA
ATOM     30  C   UNL A   1      28.099  29.923  22.105  1.00  0.00     0.111 A 
ENDBRANCH  24  25
ENDBRANCH  21  24
ENDBRANCH   7  21
ENDBRANCH   4   7
ENDBRANCH   2   3
ENDBRANCH   1   2
BRANCH   1  31
ATOM     31  C   UNL A   1      35.107  30.749  28.036  1.00  0.00     0.118 C 
BRANCH  31  32
ATOM     32  N   UNL A   1      35.294  30.710  29.474  1.00  0.00    -0.352 N 
ATOM     33  C   UNL A   1      36.335  30.276  30.263  1.00  0.00     0.251 C 
ATOM     34  H   UNL A   1      34.529  31.063  29.984  1.00  0.00     0.163 HD
ATOM     35  O   UNL A   1      36.136  30.236  31.478  1.00  0.00    -0.269 OA
BRANCH  33  36
ATOM     36  C   UNL A   1      37.665  29.847  29.734  1.00  0.00     0.039 A 
ATOM     37  C   UNL A   1      38.639  29.449  30.664  1.00  0.00     0.014 A 
ATOM     38  C   UNL A   1      38.028  29.903  28.387  1.00  0.00     0.014 A 
ATOM     39  C   UNL A   1      39.932  29.099  30.249  1.00  0.00     0.010 A 
ATOM     40  C   UNL A   1      39.284  29.450  27.962  1.00  0.00     0.010 A 
ATOM     41  C   UNL A   1      40.266  29.074  28.886  1.00  0.00    -0.014 A 
BRANCH  41  42
ATOM     42  C   UNL A   1      41.641  28.707  28.436  1.00  0.00     0.031 A 
ATOM     43  C   UNL A   1      42.739  29.746  28.380  1.00  0.00     0.074 A 
ATOM     44  C   UNL A   1      41.911  27.440  28.056  1.00  0.00     0.049 A 
ATOM     45  N   UNL A   1      43.991  29.612  28.016  1.00  0.00    -0.248 NA
ATOM     46  C   UNL A   1      42.376  31.123  28.753  1.00  0.00     0.031 C 
ATOM     47  C   UNL A   1      40.936  26.348  28.001  1.00  0.00     0.029 A 
ATOM     48  N   UNL A   1      43.084  26.854  27.646  1.00  0.00    -0.354 N 
ATOM     49  C   UNL A   1      44.554  30.883  28.100  1.00  0.00     0.074 A 
ATOM     50  C   UNL A   1      43.493  31.784  28.490  1.00  0.00     0.031 C 
ATOM     51  C   UNL A   1      41.557  25.220  27.622  1.00  0.00     0.029 A 
ATOM     52  C   UNL A   1      42.967  25.510  27.375  1.00  0.00     0.049 A 
ATOM     53  H   UNL A   1      43.930  27.350  27.554  1.00  0.00     0.167 HD
ATOM     54  C   UNL A   1      45.839  31.264  27.901  1.00  0.00     0.037 A 
ATOM     55  C   UNL A   1      43.888  24.609  26.983  1.00  0.00     0.037 A 
ATOM     56  C   UNL A   1      46.906  30.360  27.550  1.00  0.00     0.049 A 
ATOM     57  C   UNL A   1      45.318  25.044  26.810  1.00  0.00     0.074 A 
ATOM     58  C   UNL A   1      48.252  30.639  27.383  1.00  0.00     0.029 A 
ATOM     59  N   UNL A   1      46.749  29.002  27.320  1.00  0.00    -0.354 N 
ATOM     60  N   UNL A   1      45.840  26.240  26.953  1.00  0.00    -0.248 NA
ATOM     61  C   UNL A   1      46.289  24.005  26.438  1.00  0.00     0.031 C 
ATOM     62  C   UNL A   1      48.903  29.454  27.015  1.00  0.00     0.029 A 
ATOM     63  C   UNL A   1      47.971  28.430  27.002  1.00  0.00     0.049 A 
ATOM     64  H   UNL A   1      45.895  28.515  27.373  1.00  0.00     0.167 HD
ATOM     65  C   UNL A   1      47.202  26.090  26.715  1.00  0.00     0.074 A 
ATOM     66  C   UNL A   1      47.425  24.686  26.438  1.00  0.00     0.031 C 
ATOM     67  C   UNL A   1      48.181  27.031  26.728  1.00  0.00     0.037 A 
BRANCH  54  68
ATOM     68  C   UNL A   1      46.172  32.725  28.072  1.00  0.00     0.058 A 
ATOM     69  C   UNL A   1      46.617  33.241  29.300  1.00  0.00     0.135 A 
ATOM     70  C   UNL A   1      46.075  33.614  26.988  1.00  0.00     0.135 A 
ATOM     71  F   UNL A   1      46.716  32.442  30.374  1.00  0.00    -0.206 F 
ATOM     72  C   UNL A   1      46.920  34.590  29.457  1.00  0.00     0.059 A 
ATOM     73  C   UNL A   1      46.403  34.962  27.116  1.00  0.00     0.059 A 
ATOM     74  F   UNL A   1      45.659  33.177  25.789  1.00  0.00    -0.206 F 
ATOM     75  C   UNL A   1      46.808  35.443  28.359  1.00  0.00     0.060 A 
BRANCH  75  76
ATOM     76  S   UNL A   1      47.206  37.191  28.577  1.00  0.00     0.124 S 
ATOM     77  O   UNL A   1      47.142  37.324  30.031  1.00  0.00    -0.237 OA
ATOM     78  O   UNL A   1      48.545  37.280  27.994  1.00  0.00    -0.237 OA
ATOM     79  O   UNL A   1      46.159  37.876  27.837  1.00  0.00    -0.744 OA
ENDBRANCH  75  76
ENDBRANCH  54  68
BRANCH  55  80
ATOM     80  C   UNL A   1      43.495  23.188  26.770  1.00  0.00     0.058 A 
ATOM     81  C   UNL A   1      43.436  22.640  25.480  1.00  0.00     0.135 A 
ATOM     82  C   UNL A   1      43.181  22.350  27.851  1.00  0.00     0.135 A 
ATOM     83  F   UNL A   1      43.722  23.402  24.414  1.00  0.00    -0.206 F 
ATOM     84  C   UNL A   1      43.065  21.316  25.266  1.00  0.00     0.059 A 
ATOM     85  C   UNL A   1      42.831  21.016  27.664  1.00  0.00     0.059 A 
ATOM     86  F   UNL A   1      43.239  22.820  29.106  1.00  0.00    -0.206 F 
ATOM     87  C   UNL A   1      42.766  20.512  26.366  1.00  0.00     0.060 A 
BRANCH  87  88
ATOM     88  S   UNL A   1      42.333  18.780  26.083  1.00  0.00     0.124 S 
ATOM     89  O   UNL A   1      42.582  18.197  27.395  1.00  0.00    -0.237 OA
ATOM     90  O   UNL A   1      40.934  18.875  25.679  1.00  0.00    -0.237 OA
ATOM     91  O   UNL A   1      43.256  18.375  25.026  1.00  0.00    -0.744 OA
ENDBRANCH  87  88
ENDBRANCH  55  80
BRANCH  67  92
ATOM     92  C   UNL A   1      49.586  26.561  26.470  1.00  0.00     0.058 A 
ATOM     93  C   UNL A   1      50.161  26.613  25.189  1.00  0.00     0.135 A 
ATOM     94  C   UNL A   1      50.372  26.061  27.520  1.00  0.00     0.135 A 
ATOM     95  F   UNL A   1      49.453  27.082  24.149  1.00  0.00    -0.206 F 
ATOM     96  C   UNL A   1      51.448  26.142  24.951  1.00  0.00     0.059 A 
ATOM     97  C   UNL A   1      51.672  25.611  27.311  1.00  0.00     0.059 A 
ATOM     98  F   UNL A   1      49.878  26.003  28.766  1.00  0.00    -0.206 F 
ATOM     99  C   UNL A   1      52.193  25.635  26.018  1.00  0.00     0.060 A 
BRANCH  99 100
ATOM    100  S   UNL A   1      53.858  25.016  25.696  1.00  0.00     0.124 S 
ATOM    101  O   UNL A   1      53.601  23.602  25.448  1.00  0.00    -0.237 OA
ATOM    102  O   UNL A   1      54.268  25.800  24.535  1.00  0.00    -0.237 OA
ATOM    103  O   UNL A   1      54.575  25.316  26.932  1.00  0.00    -0.744 OA
ENDBRANCH  99 100
ENDBRANCH  67  92
ENDBRANCH  41  42
ENDBRANCH  33  36
ENDBRANCH  31  32
ENDBRANCH   1  31
TORSDOF 19
ENDMDL
MODEL 3
REMARK VINA RESULT:     -11.7      6.536     12.011
REMARK SMILES Cc1ccc(NC(=O)C[C@H]([NH2+]Cc2cccnc2)C(=O)NCCCNC(=O)c2ccc(-c3c4nc(c(-c5c(F)cc(S(=O)(=O)[O-])cc5F)c5ccc([nH]5)c(-c5c(F)cc(S(=O)(=O)[O-])cc5F)c5nc(c(-c6c(F)cc(S(=O)(=O)[O-])cc6F)c6ccc3[nH]6)C=C5)C=C4)cc2)cc1Cl
REMARK SMILES IDX 23 1 22 2 21 3 19 4 20 5 10 7 9 8 7 9 6 10 8 12 5 13 1 14
REMARK SMILES IDX 2 15 3 16 95 17 4 18 94 19 96 20 11 21 12 24 13 25 14 26
REMARK SMILES IDX 18 27 15 28 17 29 16 30 24 31 25 32 26 33 27 35 28 36 29 37
REMARK SMILES IDX 93 38 30 39 92 40 31 41 32 42 33 43 86 44 34 45 91 46 85 47
REMARK SMILES IDX 87 48 35 49 90 50 84 51 83 52 36 54 70 55 49 56 69 57 50 58
REMARK SMILES IDX 53 59 68 60 88 61 51 62 52 63 67 65 89 66 54 67 37 68 38 69
REMARK SMILES IDX 47 70 39 71 40 72 46 73 48 74 41 75 42 76 43 77 44 78 45 79
REMARK SMILES IDX 71 80 72 81 81 82 73 83 74 84 80 85 82 86 75 87 76 88 77 89
REMARK SMILES IDX 78 90 79 91 55 92 56 93 65 94 57 95 58 96 64 97 66 98 59 99
REMARK SMILES IDX 60 100 61 101 62 102 63 103
REMARK H PARENT 21 6 6 11 11 22 11 23 25 34 87 53 53 64
REMARK Flexibility Score: inf
ROOT
ATOM      1  C   UNL A   1      34.753  30.054  27.643  1.00  0.00     0.042 C 
ENDROOT
BRANCH   1   2
ATOM      2  C   UNL A   1      33.293  30.161  27.197  1.00  0.00     0.118 C 
BRANCH   2   3
ATOM      3  N   UNL A   1      32.553  28.905  27.386  1.00  0.00    -0.351 N 
ATOM      4  C   UNL A   1      32.078  27.894  26.609  1.00  0.00     0.278 C 
ATOM      5  O   UNL A   1      31.465  27.008  27.229  1.00  0.00    -0.268 OA
ATOM      6  H   UNL A   1      32.346  28.752  28.336  1.00  0.00     0.163 HD
BRANCH   4   7
ATOM      7  C   UNL A   1      32.163  27.760  25.047  1.00  0.00     0.282 C 
BRANCH   7   8
ATOM      8  C   UNL A   1      30.877  27.954  24.280  1.00  0.00     0.175 C 
BRANCH   8   9
ATOM      9  C   UNL A   1      29.752  26.976  23.974  1.00  0.00     0.230 C 
ATOM     10  N   UNL A   1      29.656  25.633  23.993  1.00  0.00    -0.326 N 
ATOM     11  H   UNL A   1      28.750  25.362  23.718  1.00  0.00     0.169 HD
ATOM     12  O   UNL A   1      28.678  27.526  23.645  1.00  0.00    -0.274 OA
BRANCH  10  13
ATOM     13  C   UNL A   1      30.422  24.490  24.279  1.00  0.00     0.042 A 
ATOM     14  C   UNL A   1      32.666  20.951  25.440  1.00  0.00     0.046 C 
ATOM     15  C   UNL A   1      31.922  22.187  25.037  1.00  0.00    -0.032 A 
ATOM     16  C   UNL A   1      31.386  23.050  26.001  1.00  0.00     0.007 A 
ATOM     17  C   UNL A   1      31.720  22.506  23.700  1.00  0.00     0.046 A 
ATOM     18  C   UNL A   1      30.644  24.182  25.625  1.00  0.00     0.026 A 
ATOM     19  C   UNL A   1      31.011  23.657  23.351  1.00  0.00     0.047 A 
ATOM     20  Cl  UNL A   1      32.341  21.530  22.413  1.00  0.00    -0.084 Cl
ENDBRANCH  10  13
ENDBRANCH   8   9
ENDBRANCH   7   8
BRANCH   7  21
ATOM     21  N   UNL A   1      33.058  26.645  24.692  1.00  0.00    -0.332 N 
ATOM     22  H   UNL A   1      33.673  26.980  23.951  1.00  0.00     0.347 HD
ATOM     23  H   UNL A   1      32.417  25.888  24.452  1.00  0.00     0.347 HD
BRANCH  21  24
ATOM     24  C   UNL A   1      33.910  26.059  25.716  1.00  0.00     0.299 C 
BRANCH  24  25
ATOM     25  C   UNL A   1      34.555  24.788  25.209  1.00  0.00     0.024 A 
ATOM     26  C   UNL A   1      34.640  24.482  23.846  1.00  0.00     0.013 A 
ATOM     27  C   UNL A   1      35.157  23.890  26.088  1.00  0.00     0.120 A 
ATOM     28  C   UNL A   1      35.338  23.349  23.427  1.00  0.00     0.021 A 
ATOM     29  N   UNL A   1      35.824  22.773  25.715  1.00  0.00    -0.264 NA
ATOM     30  C   UNL A   1      35.917  22.540  24.389  1.00  0.00     0.111 A 
ENDBRANCH  24  25
ENDBRANCH  21  24
ENDBRANCH   7  21
ENDBRANCH   4   7
ENDBRANCH   2   3
ENDBRANCH   1   2
BRANCH   1  31
ATOM     31  C   UNL A   1      35.330  31.203  28.456  1.00  0.00     0.118 C 
BRANCH  31  32
ATOM     32  N   UNL A   1      35.467  30.894  29.866  1.00  0.00    -0.352 N 
ATOM     33  C   UNL A   1      36.453  30.256  30.585  1.00  0.00     0.251 C 
ATOM     34  H   UNL A   1      34.710  31.201  30.417  1.00  0.00     0.163 HD
ATOM     35  O   UNL A   1      36.213  30.013  31.768  1.00  0.00    -0.269 OA
BRANCH  33  36
ATOM     36  C   UNL A   1      37.770  29.839  30.014  1.00  0.00     0.039 A 
ATOM     37  C   UNL A   1      38.763  29.413  30.910  1.00  0.00     0.014 A 
ATOM     38  C   UNL A   1      38.101  29.932  28.661  1.00  0.00     0.014 A 
ATOM     39  C   UNL A   1      40.045  29.072  30.456  1.00  0.00     0.010 A 
ATOM     40  C   UNL A   1      39.346  29.488  28.195  1.00  0.00     0.010 A 
ATOM     41  C   UNL A   1      40.348  29.085  29.086  1.00  0.00    -0.014 A 
BRANCH  41  42
ATOM     42  C   UNL A   1      41.712  28.727  28.594  1.00  0.00     0.031 A 
ATOM     43  C   UNL A   1      42.806  29.770  28.524  1.00  0.00     0.074 A 
ATOM     44  C   UNL A   1      41.974  27.467  28.189  1.00  0.00     0.049 A 
ATOM     45  N   UNL A   1      44.047  29.644  28.125  1.00  0.00    -0.248 NA
ATOM     46  C   UNL A   1      42.449  31.140  28.926  1.00  0.00     0.031 C 
ATOM     47  C   UNL A   1      41.000  26.373  28.145  1.00  0.00     0.029 A 
ATOM     48  N   UNL A   1      43.137  26.889  27.741  1.00  0.00    -0.354 N 
ATOM     49  C   UNL A   1      44.610  30.915  28.212  1.00  0.00     0.074 A 
ATOM     50  C   UNL A   1      43.557  31.808  28.643  1.00  0.00     0.031 C 
ATOM     51  C   UNL A   1      41.614  25.252  27.734  1.00  0.00     0.029 A 
ATOM     52  C   UNL A   1      43.016  25.549  27.454  1.00  0.00     0.049 A 
ATOM     53  H   UNL A   1      43.979  27.388  27.634  1.00  0.00     0.167 HD
ATOM     54  C   UNL A   1      45.889  31.302  27.984  1.00  0.00     0.037 A 
ATOM     55  C   UNL A   1      43.928  24.655  27.025  1.00  0.00     0.037 A 
ATOM     56  C   UNL A   1      46.947  30.405  27.593  1.00  0.00     0.049 A 
ATOM     57  C   UNL A   1      45.352  25.096  26.821  1.00  0.00     0.074 A 
ATOM     58  C   UNL A   1      48.288  30.690  27.394  1.00  0.00     0.029 A 
ATOM     59  N   UNL A   1      46.787  29.050  27.348  1.00  0.00    -0.354 N 
ATOM     60  N   UNL A   1      45.875  26.291  26.966  1.00  0.00    -0.248 NA
ATOM     61  C   UNL A   1      46.315  24.065  26.409  1.00  0.00     0.031 C 
ATOM     62  C   UNL A   1      48.932  29.512  26.993  1.00  0.00     0.029 A 
ATOM     63  C   UNL A   1      48.002  28.486  26.990  1.00  0.00     0.049 A 
ATOM     64  H   UNL A   1      45.936  28.560  27.417  1.00  0.00     0.167 HD
ATOM     65  C   UNL A   1      47.231  26.149  26.691  1.00  0.00     0.074 A 
ATOM     66  C   UNL A   1      47.450  24.749  26.388  1.00  0.00     0.031 C 
ATOM     67  C   UNL A   1      48.207  27.091  26.691  1.00  0.00     0.037 A 
BRANCH  54  68
ATOM     68  C   UNL A   1      46.222  32.761  28.167  1.00  0.00     0.058 A 
ATOM     69  C   UNL A   1      46.686  33.263  29.394  1.00  0.00     0.135 A 
ATOM     70  C   UNL A   1      46.109  33.662  27.095  1.00  0.00     0.135 A 
ATOM     71  F   UNL A   1      46.802  32.453  30.458  1.00  0.00    -0.206 F 
ATOM     72  C   UNL A   1      46.990  34.611  29.562  1.00  0.00     0.059 A 
ATOM     73  C   UNL A   1      46.437  35.009  27.233  1.00  0.00     0.059 A 
ATOM     74  F   UNL A   1      45.674  33.238  25.898  1.00  0.00    -0.206 F 
ATOM     75  C   UNL A   1      46.861  35.477  28.476  1.00  0.00     0.060 A 
BRANCH  75  76
ATOM     76  S   UNL A   1      47.261  37.222  28.707  1.00  0.00     0.124 S 
ATOM     77  O   UNL A   1      47.837  37.212  30.050  1.00  0.00    -0.237 OA
ATOM     78  O   UNL A   1      48.205  37.472  27.618  1.00  0.00    -0.237 OA
ATOM     79  O   UNL A   1      45.975  37.889  28.581  1.00  0.00    -0.744 OA
ENDBRANCH  75  76
ENDBRANCH  54  68
BRANCH  55  80
ATOM     80  C   UNL A   1      43.533  23.236  26.803  1.00  0.00     0.058 A 
ATOM     81  C   UNL A   1      43.251  22.387  27.884  1.00  0.00     0.135 A 
ATOM     82  C   UNL A   1      43.419  22.706  25.509  1.00  0.00     0.135 A 
ATOM     83  F   UNL A   1      43.352  22.845  29.140  1.00  0.00    -0.206 F 
ATOM     84  C   UNL A   1      42.887  21.058  27.691  1.00  0.00     0.059 A 
ATOM     85  C   UNL A   1      43.031  21.388  25.290  1.00  0.00     0.059 A 
ATOM     86  F   UNL A   1      43.659  23.482  24.440  1.00  0.00    -0.206 F 
ATOM     87  C   UNL A   1      42.777  20.569  26.389  1.00  0.00     0.060 A 
BRANCH  87  88
ATOM     88  S   UNL A   1      42.254  18.856  26.148  1.00  0.00     0.124 S 
ATOM     89  O   UNL A   1      42.454  18.297  27.480  1.00  0.00    -0.237 OA
ATOM     90  O   UNL A   1      40.867  19.016  25.723  1.00  0.00    -0.237 OA
ATOM     91  O   UNL A   1      43.166  18.371  25.116  1.00  0.00    -0.744 OA
ENDBRANCH  87  88
ENDBRANCH  55  80
BRANCH  67  92
ATOM     92  C   UNL A   1      49.606  26.628  26.389  1.00  0.00     0.058 A 
ATOM     93  C   UNL A   1      50.165  26.747  25.106  1.00  0.00     0.135 A 
ATOM     94  C   UNL A   1      50.403  26.067  27.400  1.00  0.00     0.135 A 
ATOM     95  F   UNL A   1      49.447  27.277  24.103  1.00  0.00    -0.206 F 
ATOM     96  C   UNL A   1      51.446  26.283  24.826  1.00  0.00     0.059 A 
ATOM     97  C   UNL A   1      51.697  25.622  27.150  1.00  0.00     0.059 A 
ATOM     98  F   UNL A   1      49.924  25.944  28.648  1.00  0.00    -0.206 F 
ATOM     99  C   UNL A   1      52.201  25.714  25.853  1.00  0.00     0.060 A 
BRANCH  99 100
ATOM    100  S   UNL A   1      53.859  25.105  25.477  1.00  0.00     0.124 S 
ATOM    101  O   UNL A   1      54.098  25.701  24.167  1.00  0.00    -0.237 OA
ATOM    102  O   UNL A   1      54.652  25.648  26.575  1.00  0.00    -0.237 OA
ATOM    103  O   UNL A   1      53.697  23.654  25.486  1.00  0.00    -0.744 OA
ENDBRANCH  99 100
ENDBRANCH  67  92
ENDBRANCH  41  42
ENDBRANCH  33  36
ENDBRANCH  31  32
ENDBRANCH   1  31
TORSDOF 19
ENDMDL
