MODEL 1
REMARK VINA RESULT:     -13.9      0.000      0.000
REMARK SMILES O=C(COc1ccccc1/C=N/N1[C@@H](S)N=N[C@H]1[C@@H]1C=C(c2ccccc2)N=N1)NCCCNC(=O)c1ccc(-c2c3nc(c(-c4c(F)cc(S(=O)(=O)[O-])cc4F)c4ccc([nH]4)c(-c4c(F)cc(S(=O)(=O)[O-])cc4F)c4nc(c(-c5c(F)cc(S(=O)(=O)[O-])cc5F)c5ccc2[nH]5)C=C4)C=C3)cc1
REMARK SMILES IDX 1 1 2 2 30 3 3 5 4 6 5 7 6 8 10 9 7 10 9 11 8 12 11 13 12 14
REMARK SMILES IDX 13 15 14 16 18 17 16 18 17 19 15 20 19 22 20 23 29 24 21 25
REMARK SMILES IDX 28 26 22 27 23 28 27 29 24 30 26 31 25 32 31 33 32 34 33 35
REMARK SMILES IDX 34 36 35 37 36 39 37 40 38 41 102 42 39 43 101 44 40 45
REMARK SMILES IDX 41 46 42 47 95 48 43 49 100 50 94 51 96 52 44 53 99 54 93 55
REMARK SMILES IDX 92 56 45 58 79 59 58 60 78 61 59 62 62 63 77 64 97 65 60 66
REMARK SMILES IDX 61 67 76 69 98 70 63 71 46 72 47 73 56 74 48 75 49 76 55 77
REMARK SMILES IDX 57 78 50 79 51 80 52 81 53 82 54 83 80 84 81 85 90 86 82 87
REMARK SMILES IDX 83 88 89 89 91 90 84 91 85 92 86 93 87 94 88 95 64 96 65 97
REMARK SMILES IDX 74 98 66 99 67 100 73 101 75 102 68 103 69 104 70 105 71 106
REMARK SMILES IDX 72 107
REMARK H PARENT 30 4 15 21 34 38 96 57 62 68
REMARK Flexibility Score: inf
ROOT
ATOM      1  O   UNL A   1      36.852  21.933  24.058  1.00  0.00    -0.271 OA
ATOM      2  C   UNL A   1      37.205  21.111  24.899  1.00  0.00     0.257 C 
ATOM      3  N   UNL A   1      38.362  21.110  25.744  1.00  0.00    -0.353 N 
ATOM      4  H   UNL A   1      38.342  20.270  26.257  1.00  0.00     0.163 HD
ENDROOT
BRANCH   2   5
ATOM      5  C   UNL A   1      36.197  19.947  24.843  1.00  0.00     0.329 C 
BRANCH   5   6
ATOM      6  O   UNL A   1      34.897  20.379  25.287  1.00  0.00    -0.483 OA
BRANCH   6   7
ATOM      7  C   UNL A   1      33.995  19.575  24.638  1.00  0.00     0.128 A 
ATOM      8  C   UNL A   1      34.458  18.273  24.391  1.00  0.00     0.047 A 
ATOM      9  C   UNL A   1      32.827  20.131  24.063  1.00  0.00     0.037 A 
ATOM     10  C   UNL A   1      33.786  17.493  23.476  1.00  0.00     0.004 A 
ATOM     11  C   UNL A   1      32.175  19.331  23.126  1.00  0.00     0.013 A 
ATOM     12  C   UNL A   1      32.653  18.021  22.845  1.00  0.00     0.001 A 
BRANCH   9  13
ATOM     13  C   UNL A   1      32.567  21.614  24.341  1.00  0.00     0.145 C 
ATOM     14  N   UNL A   1      33.486  22.543  24.530  1.00  0.00    -0.180 NA
BRANCH  14  15
ATOM     15  N   UNL A   1      33.009  23.585  25.397  1.00  0.00    -0.233 NA
ATOM     16  C   UNL A   1      32.195  23.203  26.562  1.00  0.00     0.298 C 
ATOM     17  C   UNL A   1      32.108  24.820  24.927  1.00  0.00     0.274 C 
ATOM     18  N   UNL A   1      31.541  24.436  27.081  1.00  0.00    -0.153 NA
ATOM     19  N   UNL A   1      31.540  25.352  26.212  1.00  0.00    -0.161 NA
BRANCH  16  20
ATOM     20  S   UNL A   1      33.140  22.239  27.792  1.00  0.00    -0.128 SA
ATOM     21  H   UNL A   1      32.281  21.686  28.691  1.00  0.00     0.106 HD
ENDBRANCH  16  20
BRANCH  17  22
ATOM     22  C   UNL A   1      32.142  26.266  23.773  1.00  0.00     0.202 C 
ATOM     23  C   UNL A   1      31.570  27.693  23.973  1.00  0.00     0.037 C 
ATOM     24  N   UNL A   1      31.549  26.036  22.384  1.00  0.00    -0.177 NA
ATOM     25  C   UNL A   1      30.716  28.008  22.990  1.00  0.00     0.091 C 
ATOM     26  N   UNL A   1      30.766  27.011  22.033  1.00  0.00    -0.155 NA
BRANCH  25  27
ATOM     27  C   UNL A   1      29.640  29.102  23.105  1.00  0.00     0.002 A 
ATOM     28  C   UNL A   1      29.913  30.369  23.675  1.00  0.00     0.010 A 
ATOM     29  C   UNL A   1      28.315  28.987  22.693  1.00  0.00     0.010 A 
ATOM     30  C   UNL A   1      28.991  31.378  23.991  1.00  0.00     0.001 A 
ATOM     31  C   UNL A   1      27.367  30.036  22.915  1.00  0.00     0.001 A 
ATOM     32  C   UNL A   1      27.692  31.209  23.600  1.00  0.00     0.000 A 
ENDBRANCH  25  27
ENDBRANCH  17  22
ENDBRANCH  14  15
ENDBRANCH   9  13
ENDBRANCH   6   7
ENDBRANCH   5   6
ENDBRANCH   2   5
BRANCH   3  33
ATOM     33  C   UNL A   1      39.683  21.912  26.207  1.00  0.00     0.117 C 
BRANCH  33  34
ATOM     34  C   UNL A   1      40.587  22.022  27.549  1.00  0.00     0.042 C 
BRANCH  34  35
ATOM     35  C   UNL A   1      42.126  21.959  27.728  1.00  0.00     0.118 C 
BRANCH  35  36
ATOM     36  N   UNL A   1      42.968  22.151  26.569  1.00  0.00    -0.352 N 
ATOM     37  C   UNL A   1      42.969  23.292  25.785  1.00  0.00     0.251 C 
ATOM     38  H   UNL A   1      43.580  21.421  26.322  1.00  0.00     0.163 HD
ATOM     39  O   UNL A   1      43.180  23.181  24.565  1.00  0.00    -0.269 OA
BRANCH  37  40
ATOM     40  C   UNL A   1      42.724  24.627  26.378  1.00  0.00     0.039 A 
ATOM     41  C   UNL A   1      41.612  25.391  26.007  1.00  0.00     0.014 A 
ATOM     42  C   UNL A   1      43.636  25.141  27.304  1.00  0.00     0.014 A 
ATOM     43  C   UNL A   1      41.409  26.637  26.602  1.00  0.00     0.010 A 
ATOM     44  C   UNL A   1      43.370  26.317  27.979  1.00  0.00     0.010 A 
ATOM     45  C   UNL A   1      42.285  27.098  27.603  1.00  0.00    -0.014 A 
BRANCH  45  46
ATOM     46  C   UNL A   1      41.983  28.338  28.325  1.00  0.00     0.031 A 
ATOM     47  C   UNL A   1      43.028  29.384  28.169  1.00  0.00     0.074 A 
ATOM     48  C   UNL A   1      40.815  28.620  28.950  1.00  0.00     0.049 A 
ATOM     49  N   UNL A   1      43.934  29.716  29.028  1.00  0.00    -0.248 NA
ATOM     50  C   UNL A   1      43.207  30.014  26.850  1.00  0.00     0.031 C 
ATOM     51  C   UNL A   1      39.570  27.842  28.914  1.00  0.00     0.029 A 
ATOM     52  N   UNL A   1      40.457  29.713  29.693  1.00  0.00    -0.354 N 
ATOM     53  C   UNL A   1      44.592  30.808  28.468  1.00  0.00     0.074 A 
ATOM     54  C   UNL A   1      44.278  30.785  27.065  1.00  0.00     0.031 C 
ATOM     55  C   UNL A   1      38.548  28.589  29.386  1.00  0.00     0.029 A 
ATOM     56  C   UNL A   1      39.089  29.816  29.943  1.00  0.00     0.049 A 
ATOM     57  H   UNL A   1      41.110  30.371  30.025  1.00  0.00     0.167 HD
ATOM     58  C   UNL A   1      45.044  31.815  29.267  1.00  0.00     0.037 A 
ATOM     59  C   UNL A   1      38.437  30.815  30.589  1.00  0.00     0.037 A 
ATOM     60  C   UNL A   1      45.002  31.418  30.653  1.00  0.00     0.049 A 
ATOM     61  C   UNL A   1      39.412  31.473  31.488  1.00  0.00     0.074 A 
ATOM     62  C   UNL A   1      45.738  30.630  31.508  1.00  0.00     0.029 A 
ATOM     63  N   UNL A   1      43.776  31.611  31.231  1.00  0.00    -0.354 N 
ATOM     64  N   UNL A   1      39.967  30.872  32.505  1.00  0.00    -0.248 NA
ATOM     65  C   UNL A   1      40.042  32.721  31.075  1.00  0.00     0.031 C 
ATOM     66  C   UNL A   1      44.860  30.258  32.572  1.00  0.00     0.029 A 
ATOM     67  C   UNL A   1      43.623  30.862  32.365  1.00  0.00     0.049 A 
ATOM     68  H   UNL A   1      43.088  32.216  30.873  1.00  0.00     0.167 HD
ATOM     69  C   UNL A   1      41.231  31.419  32.568  1.00  0.00     0.074 A 
ATOM     70  C   UNL A   1      41.160  32.654  31.799  1.00  0.00     0.031 C 
ATOM     71  C   UNL A   1      42.306  30.663  32.927  1.00  0.00     0.037 A 
BRANCH  58  72
ATOM     72  C   UNL A   1      45.028  33.292  28.906  1.00  0.00     0.058 A 
ATOM     73  C   UNL A   1      46.241  34.016  28.941  1.00  0.00     0.135 A 
ATOM     74  C   UNL A   1      43.858  34.079  28.831  1.00  0.00     0.135 A 
ATOM     75  F   UNL A   1      47.418  33.376  29.028  1.00  0.00    -0.206 F 
ATOM     76  C   UNL A   1      46.283  35.413  28.958  1.00  0.00     0.059 A 
ATOM     77  C   UNL A   1      43.881  35.471  28.796  1.00  0.00     0.059 A 
ATOM     78  F   UNL A   1      42.632  33.550  28.888  1.00  0.00    -0.206 F 
ATOM     79  C   UNL A   1      45.093  36.131  28.894  1.00  0.00     0.060 A 
BRANCH  79  80
ATOM     80  S   UNL A   1      45.135  37.931  28.975  1.00  0.00     0.124 S 
ATOM     81  O   UNL A   1      46.566  38.194  28.871  1.00  0.00    -0.237 OA
ATOM     82  O   UNL A   1      44.329  38.304  27.817  1.00  0.00    -0.237 OA
ATOM     83  O   UNL A   1      44.530  38.222  30.271  1.00  0.00    -0.744 OA
ENDBRANCH  79  80
ENDBRANCH  58  72
BRANCH  59  84
ATOM     84  C   UNL A   1      37.095  31.399  30.321  1.00  0.00     0.058 A 
ATOM     85  C   UNL A   1      36.262  31.822  31.374  1.00  0.00     0.135 A 
ATOM     86  C   UNL A   1      36.748  31.848  29.033  1.00  0.00     0.135 A 
ATOM     87  F   UNL A   1      36.520  31.442  32.635  1.00  0.00    -0.206 F 
ATOM     88  C   UNL A   1      35.194  32.703  31.173  1.00  0.00     0.059 A 
ATOM     89  C   UNL A   1      35.686  32.725  28.808  1.00  0.00     0.059 A 
ATOM     90  F   UNL A   1      37.495  31.520  27.968  1.00  0.00    -0.206 F 
ATOM     91  C   UNL A   1      34.932  33.173  29.888  1.00  0.00     0.060 A 
BRANCH  91  92
ATOM     92  S   UNL A   1      33.687  34.466  29.657  1.00  0.00     0.124 S 
ATOM     93  O   UNL A   1      32.707  33.793  28.812  1.00  0.00    -0.237 OA
ATOM     94  O   UNL A   1      33.265  34.738  31.027  1.00  0.00    -0.237 OA
ATOM     95  O   UNL A   1      34.432  35.543  29.013  1.00  0.00    -0.744 OA
ENDBRANCH  91  92
ENDBRANCH  59  84
BRANCH  71  96
ATOM     96  C   UNL A   1      42.079  29.510  33.854  1.00  0.00     0.058 A 
ATOM     97  C   UNL A   1      41.678  28.219  33.475  1.00  0.00     0.135 A 
ATOM     98  C   UNL A   1      42.347  29.730  35.215  1.00  0.00     0.135 A 
ATOM     99  F   UNL A   1      41.468  27.912  32.186  1.00  0.00    -0.206 F 
ATOM    100  C   UNL A   1      41.524  27.199  34.419  1.00  0.00     0.059 A 
ATOM    101  C   UNL A   1      42.229  28.724  36.165  1.00  0.00     0.059 A 
ATOM    102  F   UNL A   1      42.767  30.936  35.632  1.00  0.00    -0.206 F 
ATOM    103  C   UNL A   1      41.804  27.462  35.762  1.00  0.00     0.060 A 
BRANCH 103 104
ATOM    104  S   UNL A   1      41.660  26.133  36.976  1.00  0.00     0.124 S 
ATOM    105  O   UNL A   1      41.843  24.943  36.153  1.00  0.00    -0.237 OA
ATOM    106  O   UNL A   1      42.744  26.436  37.905  1.00  0.00    -0.237 OA
ATOM    107  O   UNL A   1      40.315  26.313  37.521  1.00  0.00    -0.744 OA
ENDBRANCH 103 104
ENDBRANCH  71  96
ENDBRANCH  45  46
ENDBRANCH  37  40
ENDBRANCH  35  36
ENDBRANCH  34  35
ENDBRANCH  33  34
ENDBRANCH   3  33
TORSDOF 20
ENDMDL
MODEL 2
REMARK VINA RESULT:     -13.7      2.437      3.150
REMARK SMILES O=C(COc1ccccc1/C=N/N1[C@@H](S)N=N[C@H]1[C@@H]1C=C(c2ccccc2)N=N1)NCCCNC(=O)c1ccc(-c2c3nc(c(-c4c(F)cc(S(=O)(=O)[O-])cc4F)c4ccc([nH]4)c(-c4c(F)cc(S(=O)(=O)[O-])cc4F)c4nc(c(-c5c(F)cc(S(=O)(=O)[O-])cc5F)c5ccc2[nH]5)C=C4)C=C3)cc1
REMARK SMILES IDX 1 1 2 2 30 3 3 5 4 6 5 7 6 8 10 9 7 10 9 11 8 12 11 13 12 14
REMARK SMILES IDX 13 15 14 16 18 17 16 18 17 19 15 20 19 22 20 23 29 24 21 25
REMARK SMILES IDX 28 26 22 27 23 28 27 29 24 30 26 31 25 32 31 33 32 34 33 35
REMARK SMILES IDX 34 36 35 37 36 39 37 40 38 41 102 42 39 43 101 44 40 45
REMARK SMILES IDX 41 46 42 47 95 48 43 49 100 50 94 51 96 52 44 53 99 54 93 55
REMARK SMILES IDX 92 56 45 58 79 59 58 60 78 61 59 62 62 63 77 64 97 65 60 66
REMARK SMILES IDX 61 67 76 69 98 70 63 71 46 72 47 73 56 74 48 75 49 76 55 77
REMARK SMILES IDX 57 78 50 79 51 80 52 81 53 82 54 83 80 84 81 85 90 86 82 87
REMARK SMILES IDX 83 88 89 89 91 90 84 91 85 92 86 93 87 94 88 95 64 96 65 97
REMARK SMILES IDX 74 98 66 99 67 100 73 101 75 102 68 103 69 104 70 105 71 106
REMARK SMILES IDX 72 107
REMARK H PARENT 30 4 15 21 34 38 96 57 62 68
REMARK Flexibility Score: inf
ROOT
ATOM      1  O   UNL A   1      37.763  21.089  25.446  1.00  0.00    -0.271 OA
ATOM      2  C   UNL A   1      38.077  19.911  25.301  1.00  0.00     0.257 C 
ATOM      3  N   UNL A   1      39.325  19.260  25.572  1.00  0.00    -0.353 N 
ATOM      4  H   UNL A   1      39.226  18.322  25.291  1.00  0.00     0.163 HD
ENDROOT
BRANCH   2   5
ATOM      5  C   UNL A   1      36.876  19.201  24.649  1.00  0.00     0.329 C 
BRANCH   5   6
ATOM      6  O   UNL A   1      35.644  19.853  25.009  1.00  0.00    -0.483 OA
BRANCH   6   7
ATOM      7  C   UNL A   1      34.644  18.995  24.629  1.00  0.00     0.128 A 
ATOM      8  C   UNL A   1      35.057  17.663  24.471  1.00  0.00     0.047 A 
ATOM      9  C   UNL A   1      33.394  19.500  24.197  1.00  0.00     0.037 A 
ATOM     10  C   UNL A   1      34.237  16.790  23.790  1.00  0.00     0.004 A 
ATOM     11  C   UNL A   1      32.590  18.604  23.494  1.00  0.00     0.013 A 
ATOM     12  C   UNL A   1      33.013  17.260  23.301  1.00  0.00     0.001 A 
BRANCH   9  13
ATOM     13  C   UNL A   1      33.185  21.011  24.329  1.00  0.00     0.145 C 
ATOM     14  N   UNL A   1      33.243  21.892  23.348  1.00  0.00    -0.180 NA
BRANCH  14  15
ATOM     15  N   UNL A   1      33.681  23.176  23.821  1.00  0.00    -0.233 NA
ATOM     16  C   UNL A   1      35.018  23.276  24.428  1.00  0.00     0.298 C 
ATOM     17  C   UNL A   1      32.909  24.059  24.908  1.00  0.00     0.274 C 
ATOM     18  N   UNL A   1      35.096  24.580  25.142  1.00  0.00    -0.153 NA
ATOM     19  N   UNL A   1      33.944  25.050  25.359  1.00  0.00    -0.161 NA
BRANCH  16  20
ATOM     20  S   UNL A   1      36.358  22.958  23.228  1.00  0.00    -0.128 SA
ATOM     21  H   UNL A   1      36.687  21.638  23.255  1.00  0.00     0.106 HD
ENDBRANCH  16  20
BRANCH  17  22
ATOM     22  C   UNL A   1      31.281  24.893  25.189  1.00  0.00     0.202 C 
ATOM     23  C   UNL A   1      30.336  25.568  24.161  1.00  0.00     0.037 C 
ATOM     24  N   UNL A   1      31.271  26.033  26.206  1.00  0.00    -0.177 NA
ATOM     25  C   UNL A   1      30.086  26.839  24.504  1.00  0.00     0.091 C 
ATOM     26  N   UNL A   1      30.624  27.066  25.758  1.00  0.00    -0.155 NA
BRANCH  25  27
ATOM     27  C   UNL A   1      29.600  27.915  23.518  1.00  0.00     0.002 A 
ATOM     28  C   UNL A   1      30.496  28.647  22.701  1.00  0.00     0.010 A 
ATOM     29  C   UNL A   1      28.277  28.302  23.321  1.00  0.00     0.010 A 
ATOM     30  C   UNL A   1      30.203  29.758  21.897  1.00  0.00     0.001 A 
ATOM     31  C   UNL A   1      27.933  29.371  22.436  1.00  0.00     0.001 A 
ATOM     32  C   UNL A   1      28.894  30.126  21.759  1.00  0.00     0.000 A 
ENDBRANCH  25  27
ENDBRANCH  17  22
ENDBRANCH  14  15
ENDBRANCH   9  13
ENDBRANCH   6   7
ENDBRANCH   5   6
ENDBRANCH   2   5
BRANCH   3  33
ATOM     33  C   UNL A   1      40.823  19.423  26.148  1.00  0.00     0.117 C 
BRANCH  33  34
ATOM     34  C   UNL A   1      42.185  18.542  26.160  1.00  0.00     0.042 C 
BRANCH  34  35
ATOM     35  C   UNL A   1      43.638  18.948  26.518  1.00  0.00     0.118 C 
BRANCH  35  36
ATOM     36  N   UNL A   1      44.554  19.265  25.447  1.00  0.00    -0.352 N 
ATOM     37  C   UNL A   1      44.582  20.476  24.776  1.00  0.00     0.251 C 
ATOM     38  H   UNL A   1      45.200  18.574  25.177  1.00  0.00     0.163 HD
ATOM     39  O   UNL A   1      44.880  20.486  23.570  1.00  0.00    -0.269 OA
BRANCH  37  40
ATOM     40  C   UNL A   1      44.263  21.743  25.474  1.00  0.00     0.039 A 
ATOM     41  C   UNL A   1      45.152  22.303  26.398  1.00  0.00     0.014 A 
ATOM     42  C   UNL A   1      43.041  22.372  25.223  1.00  0.00     0.014 A 
ATOM     43  C   UNL A   1      44.820  23.507  27.023  1.00  0.00     0.010 A 
ATOM     44  C   UNL A   1      42.768  23.620  25.749  1.00  0.00     0.010 A 
ATOM     45  C   UNL A   1      43.628  24.176  26.687  1.00  0.00    -0.014 A 
BRANCH  45  46
ATOM     46  C   UNL A   1      43.358  25.509  27.237  1.00  0.00     0.031 A 
ATOM     47  C   UNL A   1      44.392  26.517  26.884  1.00  0.00     0.074 A 
ATOM     48  C   UNL A   1      42.220  25.883  27.870  1.00  0.00     0.049 A 
ATOM     49  N   UNL A   1      45.337  26.965  27.641  1.00  0.00    -0.248 NA
ATOM     50  C   UNL A   1      44.506  26.950  25.481  1.00  0.00     0.031 C 
ATOM     51  C   UNL A   1      40.977  25.114  28.005  1.00  0.00     0.029 A 
ATOM     52  N   UNL A   1      41.896  27.074  28.465  1.00  0.00    -0.354 N 
ATOM     53  C   UNL A   1      45.965  27.962  26.900  1.00  0.00     0.074 A 
ATOM     54  C   UNL A   1      45.585  27.739  25.531  1.00  0.00     0.031 C 
ATOM     55  C   UNL A   1      39.977  25.926  28.413  1.00  0.00     0.029 A 
ATOM     56  C   UNL A   1      40.541  27.218  28.762  1.00  0.00     0.049 A 
ATOM     57  H   UNL A   1      42.563  27.769  28.666  1.00  0.00     0.167 HD
ATOM     58  C   UNL A   1      46.452  29.071  27.523  1.00  0.00     0.037 A 
ATOM     59  C   UNL A   1      39.918  28.302  29.287  1.00  0.00     0.037 A 
ATOM     60  C   UNL A   1      46.477  28.877  28.953  1.00  0.00     0.049 A 
ATOM     61  C   UNL A   1      40.933  29.078  30.036  1.00  0.00     0.074 A 
ATOM     62  C   UNL A   1      47.256  28.217  29.876  1.00  0.00     0.029 A 
ATOM     63  N   UNL A   1      45.280  29.157  29.554  1.00  0.00    -0.354 N 
ATOM     64  N   UNL A   1      41.538  28.627  31.101  1.00  0.00    -0.248 NA
ATOM     65  C   UNL A   1      41.540  30.250  29.417  1.00  0.00     0.031 C 
ATOM     66  C   UNL A   1      46.430  28.006  31.022  1.00  0.00     0.029 A 
ATOM     67  C   UNL A   1      45.183  28.580  30.790  1.00  0.00     0.049 A 
ATOM     68  H   UNL A   1      44.574  29.708  29.146  1.00  0.00     0.167 HD
ATOM     69  C   UNL A   1      42.802  29.171  31.025  1.00  0.00     0.074 A 
ATOM     70  C   UNL A   1      42.692  30.284  30.090  1.00  0.00     0.031 C 
ATOM     71  C   UNL A   1      43.894  28.469  31.436  1.00  0.00     0.037 A 
BRANCH  58  72
ATOM     72  C   UNL A   1      46.417  30.480  26.955  1.00  0.00     0.058 A 
ATOM     73  C   UNL A   1      47.601  31.251  26.964  1.00  0.00     0.135 A 
ATOM     74  C   UNL A   1      45.231  31.202  26.693  1.00  0.00     0.135 A 
ATOM     75  F   UNL A   1      48.788  30.677  27.218  1.00  0.00    -0.206 F 
ATOM     76  C   UNL A   1      47.598  32.637  26.785  1.00  0.00     0.059 A 
ATOM     77  C   UNL A   1      45.212  32.575  26.462  1.00  0.00     0.059 A 
ATOM     78  F   UNL A   1      44.021  30.636  26.746  1.00  0.00    -0.206 F 
ATOM     79  C   UNL A   1      46.394  33.291  26.542  1.00  0.00     0.060 A 
BRANCH  79  80
ATOM     80  S   UNL A   1      46.375  35.084  26.368  1.00  0.00     0.124 S 
ATOM     81  O   UNL A   1      46.599  35.513  27.743  1.00  0.00    -0.237 OA
ATOM     82  O   UNL A   1      47.479  35.308  25.439  1.00  0.00    -0.237 OA
ATOM     83  O   UNL A   1      45.047  35.353  25.827  1.00  0.00    -0.744 OA
ENDBRANCH  79  80
ENDBRANCH  58  72
BRANCH  59  84
ATOM     84  C   UNL A   1      38.564  28.848  29.003  1.00  0.00     0.058 A 
ATOM     85  C   UNL A   1      37.619  29.026  30.031  1.00  0.00     0.135 A 
ATOM     86  C   UNL A   1      38.291  29.502  27.786  1.00  0.00     0.135 A 
ATOM     87  F   UNL A   1      37.801  28.440  31.225  1.00  0.00    -0.206 F 
ATOM     88  C   UNL A   1      36.511  29.867  29.889  1.00  0.00     0.059 A 
ATOM     89  C   UNL A   1      37.190  30.344  27.620  1.00  0.00     0.059 A 
ATOM     90  F   UNL A   1      39.144  29.414  26.755  1.00  0.00    -0.206 F 
ATOM     91  C   UNL A   1      36.321  30.546  28.687  1.00  0.00     0.060 A 
BRANCH  91  92
ATOM     92  S   UNL A   1      35.008  31.787  28.572  1.00  0.00     0.124 S 
ATOM     93  O   UNL A   1      35.615  32.787  27.701  1.00  0.00    -0.237 OA
ATOM     94  O   UNL A   1      33.909  31.022  27.993  1.00  0.00    -0.237 OA
ATOM     95  O   UNL A   1      34.813  32.202  29.958  1.00  0.00    -0.744 OA
ENDBRANCH  91  92
ENDBRANCH  59  84
BRANCH  71  96
ATOM     96  C   UNL A   1      43.715  27.462  32.530  1.00  0.00     0.058 A 
ATOM     97  C   UNL A   1      43.816  26.070  32.387  1.00  0.00     0.135 A 
ATOM     98  C   UNL A   1      43.480  27.965  33.820  1.00  0.00     0.135 A 
ATOM     99  F   UNL A   1      44.106  25.517  31.199  1.00  0.00    -0.206 F 
ATOM    100  C   UNL A   1      43.662  25.213  33.481  1.00  0.00     0.059 A 
ATOM    101  C   UNL A   1      43.352  27.134  34.925  1.00  0.00     0.059 A 
ATOM    102  F   UNL A   1      43.406  29.290  34.023  1.00  0.00    -0.206 F 
ATOM    103  C   UNL A   1      43.431  25.756  34.747  1.00  0.00     0.060 A 
BRANCH 103 104
ATOM    104  S   UNL A   1      43.286  24.656  36.172  1.00  0.00     0.124 S 
ATOM    105  O   UNL A   1      41.882  24.268  36.120  1.00  0.00    -0.237 OA
ATOM    106  O   UNL A   1      44.248  23.604  35.857  1.00  0.00    -0.237 OA
ATOM    107  O   UNL A   1      43.657  25.509  37.301  1.00  0.00    -0.744 OA
ENDBRANCH 103 104
ENDBRANCH  71  96
ENDBRANCH  45  46
ENDBRANCH  37  40
ENDBRANCH  35  36
ENDBRANCH  34  35
ENDBRANCH  33  34
ENDBRANCH   3  33
TORSDOF 20
ENDMDL
MODEL 3
REMARK VINA RESULT:     -12.6      2.860     10.063
REMARK SMILES O=C(COc1ccccc1/C=N/N1[C@@H](S)N=N[C@H]1[C@@H]1C=C(c2ccccc2)N=N1)NCCCNC(=O)c1ccc(-c2c3nc(c(-c4c(F)cc(S(=O)(=O)[O-])cc4F)c4ccc([nH]4)c(-c4c(F)cc(S(=O)(=O)[O-])cc4F)c4nc(c(-c5c(F)cc(S(=O)(=O)[O-])cc5F)c5ccc2[nH]5)C=C4)C=C3)cc1
REMARK SMILES IDX 1 1 2 2 30 3 3 5 4 6 5 7 6 8 10 9 7 10 9 11 8 12 11 13 12 14
REMARK SMILES IDX 13 15 14 16 18 17 16 18 17 19 15 20 19 22 20 23 29 24 21 25
REMARK SMILES IDX 28 26 22 27 23 28 27 29 24 30 26 31 25 32 31 33 32 34 33 35
REMARK SMILES IDX 34 36 35 37 36 39 37 40 38 41 102 42 39 43 101 44 40 45
REMARK SMILES IDX 41 46 42 47 95 48 43 49 100 50 94 51 96 52 44 53 99 54 93 55
REMARK SMILES IDX 92 56 45 58 79 59 58 60 78 61 59 62 62 63 77 64 97 65 60 66
REMARK SMILES IDX 61 67 76 69 98 70 63 71 46 72 47 73 56 74 48 75 49 76 55 77
REMARK SMILES IDX 57 78 50 79 51 80 52 81 53 82 54 83 80 84 81 85 90 86 82 87
REMARK SMILES IDX 83 88 89 89 91 90 84 91 85 92 86 93 87 94 88 95 64 96 65 97
REMARK SMILES IDX 74 98 66 99 67 100 73 101 75 102 68 103 69 104 70 105 71 106
REMARK SMILES IDX 72 107
REMARK H PARENT 30 4 15 21 34 38 96 57 62 68
REMARK Flexibility Score: inf
ROOT
ATOM      1  O   UNL A   1      34.357  28.893  26.673  1.00  0.00    -0.271 OA
ATOM      2  C   UNL A   1      33.274  29.459  26.558  1.00  0.00     0.257 C 
ATOM      3  N   UNL A   1      32.893  30.785  26.947  1.00  0.00    -0.353 N 
ATOM      4  H   UNL A   1      31.934  30.879  26.743  1.00  0.00     0.163 HD
ENDROOT
BRANCH   2   5
ATOM      5  C   UNL A   1      32.286  28.431  25.976  1.00  0.00     0.329 C 
BRANCH   5   6
ATOM      6  O   UNL A   1      32.615  28.127  24.608  1.00  0.00    -0.483 OA
BRANCH   6   7
ATOM      7  C   UNL A   1      31.448  28.270  23.903  1.00  0.00     0.128 A 
ATOM      8  C   UNL A   1      31.086  29.602  23.652  1.00  0.00     0.047 A 
ATOM      9  C   UNL A   1      30.594  27.158  23.701  1.00  0.00     0.037 A 
ATOM     10  C   UNL A   1      29.797  29.875  23.250  1.00  0.00     0.004 A 
ATOM     11  C   UNL A   1      29.290  27.461  23.313  1.00  0.00     0.013 A 
ATOM     12  C   UNL A   1      28.904  28.810  23.086  1.00  0.00     0.001 A 
BRANCH   9  13
ATOM     13  C   UNL A   1      31.120  25.798  24.168  1.00  0.00     0.145 C 
ATOM     14  N   UNL A   1      30.566  24.625  23.926  1.00  0.00    -0.180 NA
BRANCH  14  15
ATOM     15  N   UNL A   1      30.839  23.688  24.981  1.00  0.00    -0.233 NA
ATOM     16  C   UNL A   1      30.771  24.165  26.371  1.00  0.00     0.298 C 
ATOM     17  C   UNL A   1      32.193  22.851  25.128  1.00  0.00     0.274 C 
ATOM     18  N   UNL A   1      31.423  23.142  27.233  1.00  0.00    -0.153 NA
ATOM     19  N   UNL A   1      32.162  22.376  26.553  1.00  0.00    -0.161 NA
BRANCH  16  20
ATOM     20  S   UNL A   1      29.080  24.645  26.866  1.00  0.00    -0.128 SA
ATOM     21  H   UNL A   1      29.126  25.304  28.056  1.00  0.00     0.106 HD
ENDBRANCH  16  20
BRANCH  17  22
ATOM     22  C   UNL A   1      33.219  21.607  24.222  1.00  0.00     0.202 C 
ATOM     23  C   UNL A   1      32.928  20.109  23.947  1.00  0.00     0.037 C 
ATOM     24  N   UNL A   1      34.649  21.414  24.724  1.00  0.00    -0.177 NA
ATOM     25  C   UNL A   1      33.920  19.336  24.408  1.00  0.00     0.091 C 
ATOM     26  N   UNL A   1      34.954  20.155  24.823  1.00  0.00    -0.155 NA
BRANCH  25  27
ATOM     27  C   UNL A   1      33.765  17.839  24.729  1.00  0.00     0.002 A 
ATOM     28  C   UNL A   1      32.534  17.285  25.156  1.00  0.00     0.010 A 
ATOM     29  C   UNL A   1      34.774  16.882  24.657  1.00  0.00     0.010 A 
ATOM     30  C   UNL A   1      32.305  15.988  25.638  1.00  0.00     0.001 A 
ATOM     31  C   UNL A   1      34.549  15.525  25.053  1.00  0.00     0.001 A 
ATOM     32  C   UNL A   1      33.332  15.088  25.583  1.00  0.00     0.000 A 
ENDBRANCH  25  27
ENDBRANCH  17  22
ENDBRANCH  14  15
ENDBRANCH   9  13
ENDBRANCH   6   7
ENDBRANCH   5   6
ENDBRANCH   2   5
BRANCH   3  33
ATOM     33  C   UNL A   1      33.379  32.187  27.578  1.00  0.00     0.117 C 
BRANCH  33  34
ATOM     34  C   UNL A   1      34.789  32.858  28.017  1.00  0.00     0.042 C 
BRANCH  34  35
ATOM     35  C   UNL A   1      35.076  34.126  28.861  1.00  0.00     0.118 C 
BRANCH  35  36
ATOM     36  N   UNL A   1      34.769  34.104  30.273  1.00  0.00    -0.352 N 
ATOM     37  C   UNL A   1      35.066  33.050  31.121  1.00  0.00     0.251 C 
ATOM     38  H   UNL A   1      34.319  34.891  30.657  1.00  0.00     0.163 HD
ATOM     39  O   UNL A   1      34.292  32.799  32.060  1.00  0.00    -0.269 OA
BRANCH  37  40
ATOM     40  C   UNL A   1      36.282  32.228  30.919  1.00  0.00     0.039 A 
ATOM     41  C   UNL A   1      37.555  32.810  30.907  1.00  0.00     0.014 A 
ATOM     42  C   UNL A   1      36.151  30.853  30.711  1.00  0.00     0.014 A 
ATOM     43  C   UNL A   1      38.676  31.998  30.729  1.00  0.00     0.010 A 
ATOM     44  C   UNL A   1      37.264  30.037  30.657  1.00  0.00     0.010 A 
ATOM     45  C   UNL A   1      38.532  30.603  30.617  1.00  0.00    -0.014 A 
BRANCH  45  46
ATOM     46  C   UNL A   1      39.722  29.745  30.579  1.00  0.00     0.031 A 
ATOM     47  C   UNL A   1      40.342  29.532  31.913  1.00  0.00     0.074 A 
ATOM     48  C   UNL A   1      40.162  29.058  29.498  1.00  0.00     0.049 A 
ATOM     49  N   UNL A   1      41.403  30.100  32.380  1.00  0.00    -0.248 NA
ATOM     50  C   UNL A   1      39.610  28.736  32.913  1.00  0.00     0.031 C 
ATOM     51  C   UNL A   1      39.484  28.892  28.206  1.00  0.00     0.029 A 
ATOM     52  N   UNL A   1      41.281  28.283  29.344  1.00  0.00    -0.354 N 
ATOM     53  C   UNL A   1      41.637  29.493  33.611  1.00  0.00     0.074 A 
ATOM     54  C   UNL A   1      40.399  28.864  33.986  1.00  0.00     0.031 C 
ATOM     55  C   UNL A   1      40.069  27.896  27.506  1.00  0.00     0.029 A 
ATOM     56  C   UNL A   1      41.278  27.488  28.199  1.00  0.00     0.049 A 
ATOM     57  H   UNL A   1      42.026  28.289  29.987  1.00  0.00     0.167 HD
ATOM     58  C   UNL A   1      42.914  29.276  34.033  1.00  0.00     0.037 A 
ATOM     59  C   UNL A   1      42.209  26.579  27.818  1.00  0.00     0.037 A 
ATOM     60  C   UNL A   1      43.849  30.002  33.209  1.00  0.00     0.049 A 
ATOM     61  C   UNL A   1      43.489  26.960  28.459  1.00  0.00     0.074 A 
ATOM     62  C   UNL A   1      44.290  31.298  33.071  1.00  0.00     0.029 A 
ATOM     63  N   UNL A   1      44.192  29.331  32.067  1.00  0.00    -0.354 N 
ATOM     64  N   UNL A   1      44.127  28.065  28.184  1.00  0.00    -0.248 NA
ATOM     65  C   UNL A   1      43.920  26.269  29.668  1.00  0.00     0.031 C 
ATOM     66  C   UNL A   1      44.808  31.409  31.744  1.00  0.00     0.029 A 
ATOM     67  C   UNL A   1      44.713  30.169  31.120  1.00  0.00     0.049 A 
ATOM     68  H   UNL A   1      44.078  28.361  31.942  1.00  0.00     0.167 HD
ATOM     69  C   UNL A   1      44.709  28.421  29.381  1.00  0.00     0.074 A 
ATOM     70  C   UNL A   1      44.703  27.212  30.194  1.00  0.00     0.031 C 
ATOM     71  C   UNL A   1      44.820  29.729  29.746  1.00  0.00     0.037 A 
BRANCH  58  72
ATOM     72  C   UNL A   1      43.383  28.055  34.808  1.00  0.00     0.058 A 
ATOM     73  C   UNL A   1      43.997  28.239  36.068  1.00  0.00     0.135 A 
ATOM     74  C   UNL A   1      43.536  26.768  34.246  1.00  0.00     0.135 A 
ATOM     75  F   UNL A   1      43.932  29.426  36.692  1.00  0.00    -0.206 F 
ATOM     76  C   UNL A   1      44.749  27.240  36.691  1.00  0.00     0.059 A 
ATOM     77  C   UNL A   1      44.240  25.743  34.875  1.00  0.00     0.059 A 
ATOM     78  F   UNL A   1      43.099  26.464  33.020  1.00  0.00    -0.206 F 
ATOM     79  C   UNL A   1      44.872  25.997  36.080  1.00  0.00     0.060 A 
BRANCH  79  80
ATOM     80  S   UNL A   1      45.889  24.724  36.849  1.00  0.00     0.124 S 
ATOM     81  O   UNL A   1      45.221  24.555  38.135  1.00  0.00    -0.237 OA
ATOM     82  O   UNL A   1      45.752  23.618  35.906  1.00  0.00    -0.237 OA
ATOM     83  O   UNL A   1      47.212  25.337  36.897  1.00  0.00    -0.744 OA
ENDBRANCH  79  80
ENDBRANCH  58  72
BRANCH  59  84
ATOM     84  C   UNL A   1      42.033  25.272  27.130  1.00  0.00     0.058 A 
ATOM     85  C   UNL A   1      43.023  24.763  26.268  1.00  0.00     0.135 A 
ATOM     86  C   UNL A   1      41.049  24.359  27.556  1.00  0.00     0.135 A 
ATOM     87  F   UNL A   1      44.000  25.563  25.814  1.00  0.00    -0.206 F 
ATOM     88  C   UNL A   1      43.080  23.411  25.913  1.00  0.00     0.059 A 
ATOM     89  C   UNL A   1      41.084  23.008  27.212  1.00  0.00     0.059 A 
ATOM     90  F   UNL A   1      40.078  24.743  28.398  1.00  0.00    -0.206 F 
ATOM     91  C   UNL A   1      42.121  22.534  26.415  1.00  0.00     0.060 A 
BRANCH  91  92
ATOM     92  S   UNL A   1      42.311  20.757  26.125  1.00  0.00     0.124 S 
ATOM     93  O   UNL A   1      41.011  20.403  25.567  1.00  0.00    -0.237 OA
ATOM     94  O   UNL A   1      43.435  20.714  25.196  1.00  0.00    -0.237 OA
ATOM     95  O   UNL A   1      42.585  20.225  27.456  1.00  0.00    -0.744 OA
ENDBRANCH  91  92
ENDBRANCH  59  84
BRANCH  71  96
ATOM     96  C   UNL A   1      44.943  30.756  28.663  1.00  0.00     0.058 A 
ATOM     97  C   UNL A   1      46.108  31.042  27.934  1.00  0.00     0.135 A 
ATOM     98  C   UNL A   1      43.774  31.450  28.312  1.00  0.00     0.135 A 
ATOM     99  F   UNL A   1      47.248  30.374  28.163  1.00  0.00    -0.206 F 
ATOM    100  C   UNL A   1      46.112  32.001  26.917  1.00  0.00     0.059 A 
ATOM    101  C   UNL A   1      43.749  32.385  27.287  1.00  0.00     0.059 A 
ATOM    102  F   UNL A   1      42.621  31.194  28.953  1.00  0.00    -0.206 F 
ATOM    103  C   UNL A   1      44.925  32.666  26.600  1.00  0.00     0.060 A 
BRANCH 103 104
ATOM    104  S   UNL A   1      44.913  33.865  25.250  1.00  0.00     0.124 S 
ATOM    105  O   UNL A   1      44.292  33.107  24.170  1.00  0.00    -0.237 OA
ATOM    106  O   UNL A   1      44.113  34.954  25.803  1.00  0.00    -0.237 OA
ATOM    107  O   UNL A   1      46.328  34.179  25.058  1.00  0.00    -0.744 OA
ENDBRANCH 103 104
ENDBRANCH  71  96
ENDBRANCH  45  46
ENDBRANCH  37  40
ENDBRANCH  35  36
ENDBRANCH  34  35
ENDBRANCH  33  34
ENDBRANCH   3  33
TORSDOF 20
ENDMDL
