MODEL 1
REMARK VINA RESULT:     -12.9      0.000      0.000
REMARK SMILES [NH3+][C@H]1CN(C(=O)OCC2c3ccccc3-c3ccccc32)C[C@@H]1C(=O)NCCCNC(=O)c1ccc(-c2c3nc(c(-c4c(F)cc(S(=O)(=O)[O-])cc4F)c4ccc([nH]4)c(-c4c(F)cc(S(=O)(=O)[O-])cc4F)c4nc(c(-c5c(F)cc(S(=O)(=O)[O-])cc5F)c5ccc2[nH]5)C=C4)C=C3)cc1
REMARK SMILES IDX 27 1 26 2 24 3 25 4 23 6 2 7 3 8 4 9 22 10 1 11 5 15 6 16
REMARK SMILES IDX 7 17 8 18 9 19 10 20 21 21 11 22 15 23 16 24 20 25 12 26
REMARK SMILES IDX 14 27 17 28 19 29 13 30 18 31 28 32 29 33 30 34 31 35 32 37
REMARK SMILES IDX 33 38 34 39 98 40 35 41 97 42 36 43 37 44 38 45 91 46 39 47
REMARK SMILES IDX 96 48 90 49 92 50 40 51 95 52 89 53 88 54 41 56 75 57 54 58
REMARK SMILES IDX 74 59 55 60 58 61 73 62 93 63 56 64 57 65 72 67 94 68 59 69
REMARK SMILES IDX 42 70 43 71 52 72 44 73 45 74 51 75 53 76 46 77 47 78 48 79
REMARK SMILES IDX 49 80 50 81 76 82 77 83 86 84 78 85 79 86 85 87 87 88 80 89
REMARK SMILES IDX 81 90 82 91 83 92 84 93 60 94 61 95 70 96 62 97 63 98 69 99
REMARK SMILES IDX 71 100 64 101 65 102 66 103 67 104 68 105
REMARK H PARENT 26 5 1 12 1 13 1 14 30 36 92 55 58 66
REMARK Flexibility Score: inf
ROOT
ATOM      1  C   UNL A   1      32.741  29.073  27.208  1.00  0.00     0.117 C 
ENDROOT
BRANCH   1   2
ATOM      2  N   UNL A   1      31.898  27.957  26.809  1.00  0.00    -0.356 N 
ATOM      3  C   UNL A   1      31.309  27.700  25.602  1.00  0.00     0.231 C 
ATOM      4  O   UNL A   1      30.493  26.782  25.529  1.00  0.00    -0.274 OA
ATOM      5  H   UNL A   1      31.725  27.289  27.511  1.00  0.00     0.163 HD
BRANCH   3   6
ATOM      6  C   UNL A   1      31.746  28.503  24.391  1.00  0.00     0.158 C 
ATOM      7  C   UNL A   1      30.761  28.411  23.212  1.00  0.00     0.215 C 
ATOM      8  C   UNL A   1      31.177  27.118  22.481  1.00  0.00     0.188 C 
ATOM      9  N   UNL A   1      32.558  26.887  22.865  1.00  0.00    -0.301 N 
ATOM     10  C   UNL A   1      33.017  27.860  23.844  1.00  0.00     0.143 C 
BRANCH   7  11
ATOM     11  N   UNL A   1      30.904  29.599  22.345  1.00  0.00    -0.353 N 
ATOM     12  H   UNL A   1      30.466  29.415  21.443  1.00  0.00     0.344 HD
ATOM     13  H   UNL A   1      31.894  29.802  22.207  1.00  0.00     0.344 HD
ATOM     14  H   UNL A   1      30.451  30.399  22.786  1.00  0.00     0.344 HD
ENDBRANCH   7  11
BRANCH   9  15
ATOM     15  C   UNL A   1      33.248  25.737  22.600  1.00  0.00     0.410 C 
ATOM     16  O   UNL A   1      33.779  25.515  21.514  1.00  0.00    -0.224 OA
BRANCH  15  17
ATOM     17  O   UNL A   1      33.249  24.867  23.643  1.00  0.00    -0.448 OA
BRANCH  17  18
ATOM     18  C   UNL A   1      33.726  23.527  23.369  1.00  0.00     0.248 C 
BRANCH  18  19
ATOM     19  C   UNL A   1      34.005  22.748  24.673  1.00  0.00     0.088 C 
ATOM     20  C   UNL A   1      33.709  21.248  24.582  1.00  0.00    -0.029 A 
ATOM     21  C   UNL A   1      35.497  22.727  25.032  1.00  0.00    -0.029 A 
ATOM     22  C   UNL A   1      32.500  20.607  24.363  1.00  0.00     0.005 A 
ATOM     23  C   UNL A   1      34.883  20.496  24.799  1.00  0.00    -0.014 A 
ATOM     24  C   UNL A   1      35.971  21.399  25.093  1.00  0.00    -0.014 A 
ATOM     25  C   UNL A   1      36.335  23.796  25.317  1.00  0.00     0.005 A 
ATOM     26  C   UNL A   1      32.477  19.214  24.290  1.00  0.00     0.000 A 
ATOM     27  C   UNL A   1      34.861  19.110  24.739  1.00  0.00     0.009 A 
ATOM     28  C   UNL A   1      37.287  21.129  25.435  1.00  0.00     0.009 A 
ATOM     29  C   UNL A   1      37.663  23.523  25.657  1.00  0.00     0.000 A 
ATOM     30  C   UNL A   1      33.650  18.470  24.469  1.00  0.00     0.001 A 
ATOM     31  C   UNL A   1      38.136  22.201  25.718  1.00  0.00     0.001 A 
ENDBRANCH  18  19
ENDBRANCH  17  18
ENDBRANCH  15  17
ENDBRANCH   9  15
ENDBRANCH   3   6
ENDBRANCH   1   2
BRANCH   1  32
ATOM     32  C   UNL A   1      34.209  28.661  27.302  1.00  0.00     0.042 C 
BRANCH  32  33
ATOM     33  C   UNL A   1      35.182  29.839  27.372  1.00  0.00     0.118 C 
BRANCH  33  34
ATOM     34  N   UNL A   1      35.201  30.475  28.685  1.00  0.00    -0.352 N 
ATOM     35  C   UNL A   1      36.167  30.469  29.661  1.00  0.00     0.251 C 
ATOM     36  H   UNL A   1      34.392  30.990  28.906  1.00  0.00     0.163 HD
ATOM     37  O   UNL A   1      35.902  30.928  30.769  1.00  0.00    -0.269 OA
BRANCH  35  38
ATOM     38  C   UNL A   1      37.507  29.896  29.400  1.00  0.00     0.039 A 
ATOM     39  C   UNL A   1      37.988  29.885  28.087  1.00  0.00     0.014 A 
ATOM     40  C   UNL A   1      38.276  29.350  30.430  1.00  0.00     0.014 A 
ATOM     41  C   UNL A   1      39.274  29.407  27.821  1.00  0.00     0.010 A 
ATOM     42  C   UNL A   1      39.580  28.927  30.173  1.00  0.00     0.010 A 
ATOM     43  C   UNL A   1      40.099  28.967  28.869  1.00  0.00    -0.014 A 
BRANCH  43  44
ATOM     44  C   UNL A   1      41.521  28.602  28.636  1.00  0.00     0.031 A 
ATOM     45  C   UNL A   1      42.594  29.653  28.649  1.00  0.00     0.074 A 
ATOM     46  C   UNL A   1      41.828  27.326  28.324  1.00  0.00     0.049 A 
ATOM     47  N   UNL A   1      43.862  29.540  28.346  1.00  0.00    -0.248 NA
ATOM     48  C   UNL A   1      42.186  31.013  29.033  1.00  0.00     0.031 C 
ATOM     49  C   UNL A   1      40.870  26.220  28.247  1.00  0.00     0.029 A 
ATOM     50  N   UNL A   1      43.028  26.747  27.992  1.00  0.00    -0.354 N 
ATOM     51  C   UNL A   1      44.402  30.813  28.490  1.00  0.00     0.074 A 
ATOM     52  C   UNL A   1      43.316  31.689  28.872  1.00  0.00     0.031 C 
ATOM     53  C   UNL A   1      41.519  25.099  27.896  1.00  0.00     0.029 A 
ATOM     54  C   UNL A   1      42.928  25.412  27.677  1.00  0.00     0.049 A 
ATOM     55  H   UNL A   1      43.879  27.241  27.980  1.00  0.00     0.167 HD
ATOM     56  C   UNL A   1      45.688  31.209  28.332  1.00  0.00     0.037 A 
ATOM     57  C   UNL A   1      43.858  24.541  27.240  1.00  0.00     0.037 A 
ATOM     58  C   UNL A   1      46.769  30.327  27.968  1.00  0.00     0.049 A 
ATOM     59  C   UNL A   1      45.271  25.014  27.039  1.00  0.00     0.074 A 
ATOM     60  C   UNL A   1      48.115  30.623  27.847  1.00  0.00     0.029 A 
ATOM     61  N   UNL A   1      46.627  28.983  27.659  1.00  0.00    -0.354 N 
ATOM     62  N   UNL A   1      45.775  26.208  27.235  1.00  0.00    -0.248 NA
ATOM     63  C   UNL A   1      46.241  24.022  26.552  1.00  0.00     0.031 C 
ATOM     64  C   UNL A   1      48.781  29.469  27.420  1.00  0.00     0.029 A 
ATOM     65  C   UNL A   1      47.857  28.441  27.318  1.00  0.00     0.049 A 
ATOM     66  H   UNL A   1      45.778  28.485  27.680  1.00  0.00     0.167 HD
ATOM     67  C   UNL A   1      47.123  26.109  26.909  1.00  0.00     0.074 A 
ATOM     68  C   UNL A   1      47.360  24.733  26.522  1.00  0.00     0.031 C 
ATOM     69  C   UNL A   1      48.077  27.071  26.927  1.00  0.00     0.037 A 
BRANCH  56  70
ATOM     70  C   UNL A   1      46.004  32.662  28.552  1.00  0.00     0.058 A 
ATOM     71  C   UNL A   1      45.950  33.594  27.503  1.00  0.00     0.135 A 
ATOM     72  C   UNL A   1      46.316  33.139  29.836  1.00  0.00     0.135 A 
ATOM     73  F   UNL A   1      45.670  33.190  26.255  1.00  0.00    -0.206 F 
ATOM     74  C   UNL A   1      46.220  34.943  27.714  1.00  0.00     0.059 A 
ATOM     75  C   UNL A   1      46.564  34.489  30.074  1.00  0.00     0.059 A 
ATOM     76  F   UNL A   1      46.379  32.292  30.875  1.00  0.00    -0.206 F 
ATOM     77  C   UNL A   1      46.526  35.381  29.003  1.00  0.00     0.060 A 
BRANCH  77  78
ATOM     78  S   UNL A   1      46.862  37.135  29.260  1.00  0.00     0.124 S 
ATOM     79  O   UNL A   1      46.636  37.267  30.696  1.00  0.00    -0.237 OA
ATOM     80  O   UNL A   1      48.249  37.255  28.824  1.00  0.00    -0.237 OA
ATOM     81  O   UNL A   1      45.881  37.798  28.407  1.00  0.00    -0.744 OA
ENDBRANCH  77  78
ENDBRANCH  56  70
BRANCH  57  82
ATOM     82  C   UNL A   1      43.477  23.134  26.950  1.00  0.00     0.058 A 
ATOM     83  C   UNL A   1      43.201  22.234  27.991  1.00  0.00     0.135 A 
ATOM     84  C   UNL A   1      43.367  22.662  25.634  1.00  0.00     0.135 A 
ATOM     85  F   UNL A   1      43.301  22.636  29.268  1.00  0.00    -0.206 F 
ATOM     86  C   UNL A   1      42.843  20.915  27.738  1.00  0.00     0.059 A 
ATOM     87  C   UNL A   1      42.987  21.354  25.354  1.00  0.00     0.059 A 
ATOM     88  F   UNL A   1      43.605  23.488  24.601  1.00  0.00    -0.206 F 
ATOM     89  C   UNL A   1      42.737  20.484  26.415  1.00  0.00     0.060 A 
BRANCH  89  90
ATOM     90  S   UNL A   1      42.220  18.783  26.094  1.00  0.00     0.124 S 
ATOM     91  O   UNL A   1      43.134  18.396  25.026  1.00  0.00    -0.237 OA
ATOM     92  O   UNL A   1      42.443  18.146  27.389  1.00  0.00    -0.237 OA
ATOM     93  O   UNL A   1      40.820  18.926  25.709  1.00  0.00    -0.744 OA
ENDBRANCH  89  90
ENDBRANCH  57  82
BRANCH  69  94
ATOM     94  C   UNL A   1      49.468  26.672  26.523  1.00  0.00     0.058 A 
ATOM     95  C   UNL A   1      50.351  26.068  27.432  1.00  0.00     0.135 A 
ATOM     96  C   UNL A   1      49.908  26.848  25.201  1.00  0.00     0.135 A 
ATOM     97  F   UNL A   1      49.984  25.887  28.711  1.00  0.00    -0.206 F 
ATOM     98  C   UNL A   1      51.626  25.667  27.050  1.00  0.00     0.059 A 
ATOM     99  C   UNL A   1      51.170  26.431  24.789  1.00  0.00     0.059 A 
ATOM    100  F   UNL A   1      49.100  27.413  24.290  1.00  0.00    -0.206 F 
ATOM    101  C   UNL A   1      52.026  25.849  25.724  1.00  0.00     0.060 A 
BRANCH 101 102
ATOM    102  S   UNL A   1      53.668  25.285  25.230  1.00  0.00     0.124 S 
ATOM    103  O   UNL A   1      53.539  23.840  25.379  1.00  0.00    -0.237 OA
ATOM    104  O   UNL A   1      53.768  25.775  23.859  1.00  0.00    -0.237 OA
ATOM    105  O   UNL A   1      54.555  25.938  26.190  1.00  0.00    -0.744 OA
ENDBRANCH 101 102
ENDBRANCH  69  94
ENDBRANCH  43  44
ENDBRANCH  35  38
ENDBRANCH  33  34
ENDBRANCH  32  33
ENDBRANCH   1  32
TORSDOF 18
ENDMDL
MODEL 2
REMARK VINA RESULT:     -12.8      6.334     11.962
REMARK SMILES [NH3+][C@H]1CN(C(=O)OCC2c3ccccc3-c3ccccc32)C[C@@H]1C(=O)NCCCNC(=O)c1ccc(-c2c3nc(c(-c4c(F)cc(S(=O)(=O)[O-])cc4F)c4ccc([nH]4)c(-c4c(F)cc(S(=O)(=O)[O-])cc4F)c4nc(c(-c5c(F)cc(S(=O)(=O)[O-])cc5F)c5ccc2[nH]5)C=C4)C=C3)cc1
REMARK SMILES IDX 27 1 26 2 24 3 25 4 23 6 2 7 3 8 4 9 22 10 1 11 5 15 6 16
REMARK SMILES IDX 7 17 8 18 9 19 10 20 21 21 11 22 15 23 16 24 20 25 12 26
REMARK SMILES IDX 14 27 17 28 19 29 13 30 18 31 28 32 29 33 30 34 31 35 32 37
REMARK SMILES IDX 33 38 34 39 98 40 35 41 97 42 36 43 37 44 38 45 91 46 39 47
REMARK SMILES IDX 96 48 90 49 92 50 40 51 95 52 89 53 88 54 41 56 75 57 54 58
REMARK SMILES IDX 74 59 55 60 58 61 73 62 93 63 56 64 57 65 72 67 94 68 59 69
REMARK SMILES IDX 42 70 43 71 52 72 44 73 45 74 51 75 53 76 46 77 47 78 48 79
REMARK SMILES IDX 49 80 50 81 76 82 77 83 86 84 78 85 79 86 85 87 87 88 80 89
REMARK SMILES IDX 81 90 82 91 83 92 84 93 60 94 61 95 70 96 62 97 63 98 69 99
REMARK SMILES IDX 71 100 64 101 65 102 66 103 67 104 68 105
REMARK H PARENT 26 5 1 12 1 13 1 14 30 36 92 55 58 66
REMARK Flexibility Score: inf
ROOT
ATOM      1  C   UNL A   1      37.193  22.428  24.492  1.00  0.00     0.117 C 
ENDROOT
BRANCH   1   2
ATOM      2  N   UNL A   1      36.221  23.242  23.779  1.00  0.00    -0.356 N 
ATOM      3  C   UNL A   1      34.892  23.013  23.552  1.00  0.00     0.231 C 
ATOM      4  O   UNL A   1      34.291  23.754  22.777  1.00  0.00    -0.274 OA
ATOM      5  H   UNL A   1      36.571  24.083  23.404  1.00  0.00     0.163 HD
BRANCH   3   6
ATOM      6  C   UNL A   1      34.200  21.905  24.327  1.00  0.00     0.158 C 
ATOM      7  C   UNL A   1      32.848  21.492  23.721  1.00  0.00     0.215 C 
ATOM      8  C   UNL A   1      31.849  22.507  24.316  1.00  0.00     0.188 C 
ATOM      9  N   UNL A   1      32.481  23.002  25.527  1.00  0.00    -0.301 N 
ATOM     10  C   UNL A   1      33.822  22.466  25.694  1.00  0.00     0.143 C 
BRANCH   7  11
ATOM     11  N   UNL A   1      32.521  20.107  24.119  1.00  0.00    -0.353 N 
ATOM     12  H   UNL A   1      32.585  20.021  25.132  1.00  0.00     0.344 HD
ATOM     13  H   UNL A   1      33.179  19.463  23.680  1.00  0.00     0.344 HD
ATOM     14  H   UNL A   1      31.572  19.882  23.818  1.00  0.00     0.344 HD
ENDBRANCH   7  11
BRANCH   9  15
ATOM     15  C   UNL A   1      32.024  24.067  26.252  1.00  0.00     0.410 C 
ATOM     16  O   UNL A   1      31.299  23.940  27.236  1.00  0.00    -0.224 OA
BRANCH  15  17
ATOM     17  O   UNL A   1      32.426  25.262  25.748  1.00  0.00    -0.448 OA
BRANCH  17  18
ATOM     18  C   UNL A   1      31.406  26.074  25.115  1.00  0.00     0.248 C 
BRANCH  18  19
ATOM     19  C   UNL A   1      32.004  27.367  24.517  1.00  0.00     0.088 C 
ATOM     20  C   UNL A   1      30.965  28.315  23.911  1.00  0.00    -0.029 A 
ATOM     21  C   UNL A   1      32.629  28.270  25.588  1.00  0.00    -0.029 A 
ATOM     22  C   UNL A   1      30.119  28.111  22.832  1.00  0.00     0.005 A 
ATOM     23  C   UNL A   1      30.967  29.553  24.588  1.00  0.00    -0.014 A 
ATOM     24  C   UNL A   1      31.997  29.532  25.600  1.00  0.00    -0.014 A 
ATOM     25  C   UNL A   1      33.691  27.997  26.440  1.00  0.00     0.005 A 
ATOM     26  C   UNL A   1      29.223  29.120  22.475  1.00  0.00     0.000 A 
ATOM     27  C   UNL A   1      30.086  30.563  24.227  1.00  0.00     0.009 A 
ATOM     28  C   UNL A   1      32.417  30.530  26.465  1.00  0.00     0.009 A 
ATOM     29  C   UNL A   1      34.112  29.003  27.315  1.00  0.00     0.000 A 
ATOM     30  C   UNL A   1      29.201  30.335  23.172  1.00  0.00     0.001 A 
ATOM     31  C   UNL A   1      33.483  30.259  27.328  1.00  0.00     0.001 A 
ENDBRANCH  18  19
ENDBRANCH  17  18
ENDBRANCH  15  17
ENDBRANCH   9  15
ENDBRANCH   3   6
ENDBRANCH   1   2
BRANCH   1  32
ATOM     32  C   UNL A   1      37.296  22.835  25.961  1.00  0.00     0.042 C 
BRANCH  32  33
ATOM     33  C   UNL A   1      38.200  24.044  26.208  1.00  0.00     0.118 C 
BRANCH  33  34
ATOM     34  N   UNL A   1      39.617  23.721  26.085  1.00  0.00    -0.352 N 
ATOM     35  C   UNL A   1      40.724  24.381  26.561  1.00  0.00     0.251 C 
ATOM     36  H   UNL A   1      39.811  22.899  25.580  1.00  0.00     0.163 HD
ATOM     37  O   UNL A   1      41.839  24.026  26.189  1.00  0.00    -0.269 OA
BRANCH  35  38
ATOM     38  C   UNL A   1      40.584  25.524  27.492  1.00  0.00     0.039 A 
ATOM     39  C   UNL A   1      39.630  25.447  28.512  1.00  0.00     0.014 A 
ATOM     40  C   UNL A   1      41.364  26.674  27.351  1.00  0.00     0.014 A 
ATOM     41  C   UNL A   1      39.520  26.484  29.441  1.00  0.00     0.010 A 
ATOM     42  C   UNL A   1      41.293  27.682  28.312  1.00  0.00     0.010 A 
ATOM     43  C   UNL A   1      40.383  27.590  29.377  1.00  0.00    -0.014 A 
BRANCH  43  44
ATOM     44  C   UNL A   1      40.393  28.629  30.440  1.00  0.00     0.031 A 
ATOM     45  C   UNL A   1      41.302  28.500  31.630  1.00  0.00     0.074 A 
ATOM     46  C   UNL A   1      39.511  29.647  30.371  1.00  0.00     0.049 A 
ATOM     47  N   UNL A   1      41.358  29.239  32.708  1.00  0.00    -0.248 NA
ATOM     48  C   UNL A   1      42.259  27.383  31.615  1.00  0.00     0.031 C 
ATOM     49  C   UNL A   1      38.553  29.864  29.283  1.00  0.00     0.029 A 
ATOM     50  N   UNL A   1      39.260  30.678  31.242  1.00  0.00    -0.354 N 
ATOM     51  C   UNL A   1      42.346  28.672  33.506  1.00  0.00     0.074 A 
ATOM     52  C   UNL A   1      42.836  27.506  32.803  1.00  0.00     0.031 C 
ATOM     53  C   UNL A   1      37.825  30.960  29.549  1.00  0.00     0.029 A 
ATOM     54  C   UNL A   1      38.229  31.497  30.845  1.00  0.00     0.049 A 
ATOM     55  H   UNL A   1      39.770  30.818  32.072  1.00  0.00     0.167 HD
ATOM     56  C   UNL A   1      42.809  29.096  34.706  1.00  0.00     0.037 A 
ATOM     57  C   UNL A   1      37.655  32.548  31.462  1.00  0.00     0.037 A 
ATOM     58  C   UNL A   1      42.328  30.268  35.393  1.00  0.00     0.049 A 
ATOM     59  C   UNL A   1      38.164  32.977  32.811  1.00  0.00     0.074 A 
ATOM     60  C   UNL A   1      42.780  30.813  36.583  1.00  0.00     0.029 A 
ATOM     61  N   UNL A   1      41.284  31.071  34.959  1.00  0.00    -0.354 N 
ATOM     62  N   UNL A   1      39.137  32.464  33.524  1.00  0.00    -0.248 NA
ATOM     63  C   UNL A   1      37.495  34.125  33.440  1.00  0.00     0.031 C 
ATOM     64  C   UNL A   1      41.979  31.919  36.890  1.00  0.00     0.029 A 
ATOM     65  C   UNL A   1      41.056  32.090  35.870  1.00  0.00     0.049 A 
ATOM     66  H   UNL A   1      40.779  30.938  34.124  1.00  0.00     0.167 HD
ATOM     67  C   UNL A   1      39.207  33.233  34.680  1.00  0.00     0.074 A 
ATOM     68  C   UNL A   1      38.190  34.258  34.562  1.00  0.00     0.031 C 
ATOM     69  C   UNL A   1      40.036  33.100  35.744  1.00  0.00     0.037 A 
BRANCH  56  70
ATOM     70  C   UNL A   1      43.895  28.288  35.361  1.00  0.00     0.058 A 
ATOM     71  C   UNL A   1      43.601  27.257  36.266  1.00  0.00     0.135 A 
ATOM     72  C   UNL A   1      45.244  28.514  35.041  1.00  0.00     0.135 A 
ATOM     73  F   UNL A   1      42.329  27.007  36.616  1.00  0.00    -0.206 F 
ATOM     74  C   UNL A   1      44.606  26.494  36.852  1.00  0.00     0.059 A 
ATOM     75  C   UNL A   1      46.265  27.746  35.596  1.00  0.00     0.059 A 
ATOM     76  F   UNL A   1      45.582  29.486  34.180  1.00  0.00    -0.206 F 
ATOM     77  C   UNL A   1      45.936  26.747  36.511  1.00  0.00     0.060 A 
BRANCH  77  78
ATOM     78  S   UNL A   1      47.227  25.741  37.274  1.00  0.00     0.124 S 
ATOM     79  O   UNL A   1      48.382  26.629  37.175  1.00  0.00    -0.237 OA
ATOM     80  O   UNL A   1      46.705  25.529  38.619  1.00  0.00    -0.237 OA
ATOM     81  O   UNL A   1      47.276  24.553  36.428  1.00  0.00    -0.744 OA
ENDBRANCH  77  78
ENDBRANCH  56  70
BRANCH  57  82
ATOM     82  C   UNL A   1      36.523  33.261  30.814  1.00  0.00     0.058 A 
ATOM     83  C   UNL A   1      35.215  33.130  31.303  1.00  0.00     0.135 A 
ATOM     84  C   UNL A   1      36.725  34.094  29.704  1.00  0.00     0.135 A 
ATOM     85  F   UNL A   1      34.970  32.336  32.358  1.00  0.00    -0.206 F 
ATOM     86  C   UNL A   1      34.145  33.789  30.708  1.00  0.00     0.059 A 
ATOM     87  C   UNL A   1      35.675  34.784  29.106  1.00  0.00     0.059 A 
ATOM     88  F   UNL A   1      37.961  34.266  29.206  1.00  0.00    -0.206 F 
ATOM     89  C   UNL A   1      34.386  34.617  29.611  1.00  0.00     0.060 A 
BRANCH  89  90
ATOM     90  S   UNL A   1      32.999  35.511  28.877  1.00  0.00     0.124 S 
ATOM     91  O   UNL A   1      32.402  34.484  28.032  1.00  0.00    -0.237 OA
ATOM     92  O   UNL A   1      32.227  35.899  30.054  1.00  0.00    -0.237 OA
ATOM     93  O   UNL A   1      33.646  36.613  28.173  1.00  0.00    -0.744 OA
ENDBRANCH  89  90
ENDBRANCH  57  82
BRANCH  69  94
ATOM     94  C   UNL A   1      39.885  34.090  36.865  1.00  0.00     0.058 A 
ATOM     95  C   UNL A   1      40.468  35.365  36.799  1.00  0.00     0.135 A 
ATOM     96  C   UNL A   1      39.108  33.781  37.993  1.00  0.00     0.135 A 
ATOM     97  F   UNL A   1      41.230  35.706  35.748  1.00  0.00    -0.206 F 
ATOM     98  C   UNL A   1      40.301  36.294  37.821  1.00  0.00     0.059 A 
ATOM     99  C   UNL A   1      38.906  34.703  39.015  1.00  0.00     0.059 A 
ATOM    100  F   UNL A   1      38.521  32.578  38.101  1.00  0.00    -0.206 F 
ATOM    101  C   UNL A   1      39.515  35.955  38.924  1.00  0.00     0.060 A 
BRANCH 101 102
ATOM    102  S   UNL A   1      39.270  37.185  40.222  1.00  0.00     0.124 S 
ATOM    103  O   UNL A   1      38.590  38.250  39.493  1.00  0.00    -0.237 OA
ATOM    104  O   UNL A   1      38.455  36.459  41.192  1.00  0.00    -0.237 OA
ATOM    105  O   UNL A   1      40.629  37.492  40.660  1.00  0.00    -0.744 OA
ENDBRANCH 101 102
ENDBRANCH  69  94
ENDBRANCH  43  44
ENDBRANCH  35  38
ENDBRANCH  33  34
ENDBRANCH  32  33
ENDBRANCH   1  32
TORSDOF 18
ENDMDL
MODEL 3
REMARK VINA RESULT:     -12.8      4.841     10.764
REMARK SMILES [NH3+][C@H]1CN(C(=O)OCC2c3ccccc3-c3ccccc32)C[C@@H]1C(=O)NCCCNC(=O)c1ccc(-c2c3nc(c(-c4c(F)cc(S(=O)(=O)[O-])cc4F)c4ccc([nH]4)c(-c4c(F)cc(S(=O)(=O)[O-])cc4F)c4nc(c(-c5c(F)cc(S(=O)(=O)[O-])cc5F)c5ccc2[nH]5)C=C4)C=C3)cc1
REMARK SMILES IDX 27 1 26 2 24 3 25 4 23 6 2 7 3 8 4 9 22 10 1 11 5 15 6 16
REMARK SMILES IDX 7 17 8 18 9 19 10 20 21 21 11 22 15 23 16 24 20 25 12 26
REMARK SMILES IDX 14 27 17 28 19 29 13 30 18 31 28 32 29 33 30 34 31 35 32 37
REMARK SMILES IDX 33 38 34 39 98 40 35 41 97 42 36 43 37 44 38 45 91 46 39 47
REMARK SMILES IDX 96 48 90 49 92 50 40 51 95 52 89 53 88 54 41 56 75 57 54 58
REMARK SMILES IDX 74 59 55 60 58 61 73 62 93 63 56 64 57 65 72 67 94 68 59 69
REMARK SMILES IDX 42 70 43 71 52 72 44 73 45 74 51 75 53 76 46 77 47 78 48 79
REMARK SMILES IDX 49 80 50 81 76 82 77 83 86 84 78 85 79 86 85 87 87 88 80 89
REMARK SMILES IDX 81 90 82 91 83 92 84 93 60 94 61 95 70 96 62 97 63 98 69 99
REMARK SMILES IDX 71 100 64 101 65 102 66 103 67 104 68 105
REMARK H PARENT 26 5 1 12 1 13 1 14 30 36 92 55 58 66
REMARK Flexibility Score: inf
ROOT
ATOM      1  C   UNL A   1      35.188  22.285  26.139  1.00  0.00     0.117 C 
ENDROOT
BRANCH   1   2
ATOM      2  N   UNL A   1      34.657  21.987  24.818  1.00  0.00    -0.356 N 
ATOM      3  C   UNL A   1      33.454  22.332  24.266  1.00  0.00     0.231 C 
ATOM      4  O   UNL A   1      33.136  21.830  23.189  1.00  0.00    -0.274 OA
ATOM      5  H   UNL A   1      35.250  21.460  24.235  1.00  0.00     0.163 HD
BRANCH   3   6
ATOM      6  C   UNL A   1      32.603  23.377  24.964  1.00  0.00     0.158 C 
ATOM      7  C   UNL A   1      31.104  23.253  24.644  1.00  0.00     0.215 C 
ATOM      8  C   UNL A   1      30.941  24.031  23.322  1.00  0.00     0.188 C 
ATOM      9  N   UNL A   1      32.072  24.941  23.271  1.00  0.00    -0.301 N 
ATOM     10  C   UNL A   1      32.979  24.739  24.388  1.00  0.00     0.143 C 
BRANCH   7  11
ATOM     11  N   UNL A   1      30.306  23.854  25.733  1.00  0.00    -0.353 N 
ATOM     12  H   UNL A   1      30.038  24.803  25.474  1.00  0.00     0.344 HD
ATOM     13  H   UNL A   1      30.862  23.879  26.588  1.00  0.00     0.344 HD
ATOM     14  H   UNL A   1      29.467  23.295  25.890  1.00  0.00     0.344 HD
ENDBRANCH   7  11
BRANCH   9  15
ATOM     15  C   UNL A   1      32.420  25.673  22.170  1.00  0.00     0.410 C 
ATOM     16  O   UNL A   1      33.483  25.512  21.573  1.00  0.00    -0.224 OA
BRANCH  15  17
ATOM     17  O   UNL A   1      31.491  26.605  21.838  1.00  0.00    -0.448 OA
BRANCH  17  18
ATOM     18  C   UNL A   1      31.706  27.945  22.345  1.00  0.00     0.248 C 
BRANCH  18  19
ATOM     19  C   UNL A   1      30.783  28.250  23.545  1.00  0.00     0.088 C 
ATOM     20  C   UNL A   1      31.503  28.868  24.748  1.00  0.00    -0.029 A 
ATOM     21  C   UNL A   1      29.758  29.348  23.228  1.00  0.00    -0.029 A 
ATOM     22  C   UNL A   1      32.495  28.322  25.548  1.00  0.00     0.005 A 
ATOM     23  C   UNL A   1      30.994  30.153  25.026  1.00  0.00    -0.014 A 
ATOM     24  C   UNL A   1      29.915  30.439  24.110  1.00  0.00    -0.014 A 
ATOM     25  C   UNL A   1      28.756  29.346  22.268  1.00  0.00     0.005 A 
ATOM     26  C   UNL A   1      33.030  29.092  26.582  1.00  0.00     0.000 A 
ATOM     27  C   UNL A   1      31.515  30.916  26.062  1.00  0.00     0.009 A 
ATOM     28  C   UNL A   1      29.075  31.539  24.036  1.00  0.00     0.009 A 
ATOM     29  C   UNL A   1      27.911  30.457  22.191  1.00  0.00     0.000 A 
ATOM     30  C   UNL A   1      32.549  30.383  26.833  1.00  0.00     0.001 A 
ATOM     31  C   UNL A   1      28.067  31.544  23.068  1.00  0.00     0.001 A 
ENDBRANCH  18  19
ENDBRANCH  17  18
ENDBRANCH  15  17
ENDBRANCH   9  15
ENDBRANCH   3   6
ENDBRANCH   1   2
BRANCH   1  32
ATOM     32  C   UNL A   1      35.942  23.614  26.153  1.00  0.00     0.042 C 
BRANCH  32  33
ATOM     33  C   UNL A   1      37.051  23.712  25.104  1.00  0.00     0.118 C 
BRANCH  33  34
ATOM     34  N   UNL A   1      38.158  22.801  25.370  1.00  0.00    -0.352 N 
ATOM     35  C   UNL A   1      39.342  23.012  26.033  1.00  0.00     0.251 C 
ATOM     36  H   UNL A   1      38.037  21.890  25.018  1.00  0.00     0.163 HD
ATOM     37  O   UNL A   1      40.216  22.150  25.988  1.00  0.00    -0.269 OA
BRANCH  35  38
ATOM     38  C   UNL A   1      39.584  24.271  26.774  1.00  0.00     0.039 A 
ATOM     39  C   UNL A   1      38.981  24.439  28.025  1.00  0.00     0.014 A 
ATOM     40  C   UNL A   1      40.374  25.289  26.237  1.00  0.00     0.014 A 
ATOM     41  C   UNL A   1      39.242  25.590  28.773  1.00  0.00     0.010 A 
ATOM     42  C   UNL A   1      40.680  26.410  27.008  1.00  0.00     0.010 A 
ATOM     43  C   UNL A   1      40.131  26.564  28.291  1.00  0.00    -0.014 A 
BRANCH  43  44
ATOM     44  C   UNL A   1      40.546  27.719  29.130  1.00  0.00     0.031 A 
ATOM     45  C   UNL A   1      41.809  27.661  29.942  1.00  0.00     0.074 A 
ATOM     46  C   UNL A   1      39.730  28.788  29.226  1.00  0.00     0.049 A 
ATOM     47  N   UNL A   1      42.264  28.517  30.821  1.00  0.00    -0.248 NA
ATOM     48  C   UNL A   1      42.664  26.478  29.756  1.00  0.00     0.031 C 
ATOM     49  C   UNL A   1      38.460  28.949  28.513  1.00  0.00     0.029 A 
ATOM     50  N   UNL A   1      39.833  29.933  29.977  1.00  0.00    -0.354 N 
ATOM     51  C   UNL A   1      43.449  27.973  31.304  1.00  0.00     0.074 A 
ATOM     52  C   UNL A   1      43.624  26.696  30.645  1.00  0.00     0.031 C 
ATOM     53  C   UNL A   1      37.907  30.123  28.857  1.00  0.00     0.029 A 
ATOM     54  C   UNL A   1      38.756  30.777  29.847  1.00  0.00     0.049 A 
ATOM     55  H   UNL A   1      40.606  30.130  30.554  1.00  0.00     0.167 HD
ATOM     56  C   UNL A   1      44.316  28.499  32.201  1.00  0.00     0.037 A 
ATOM     57  C   UNL A   1      38.469  31.937  30.471  1.00  0.00     0.037 A 
ATOM     58  C   UNL A   1      44.146  29.779  32.841  1.00  0.00     0.049 A 
ATOM     59  C   UNL A   1      39.432  32.481  31.490  1.00  0.00     0.074 A 
ATOM     60  C   UNL A   1      45.002  30.424  33.715  1.00  0.00     0.029 A 
ATOM     61  N   UNL A   1      43.042  30.604  32.683  1.00  0.00    -0.354 N 
ATOM     62  N   UNL A   1      40.576  31.982  31.891  1.00  0.00    -0.248 NA
ATOM     63  C   UNL A   1      39.063  33.745  32.143  1.00  0.00     0.031 C 
ATOM     64  C   UNL A   1      44.397  31.618  34.121  1.00  0.00     0.029 A 
ATOM     65  C   UNL A   1      43.182  31.739  33.466  1.00  0.00     0.049 A 
ATOM     66  H   UNL A   1      42.273  30.413  32.099  1.00  0.00     0.167 HD
ATOM     67  C   UNL A   1      41.071  32.875  32.834  1.00  0.00     0.074 A 
ATOM     68  C   UNL A   1      40.111  33.957  32.929  1.00  0.00     0.031 C 
ATOM     69  C   UNL A   1      42.215  32.804  33.557  1.00  0.00     0.037 A 
BRANCH  56  70
ATOM     70  C   UNL A   1      45.536  27.691  32.550  1.00  0.00     0.058 A 
ATOM     71  C   UNL A   1      45.577  26.876  33.692  1.00  0.00     0.135 A 
ATOM     72  C   UNL A   1      46.659  27.693  31.707  1.00  0.00     0.135 A 
ATOM     73  F   UNL A   1      44.536  26.846  34.538  1.00  0.00    -0.206 F 
ATOM     74  C   UNL A   1      46.697  26.111  34.000  1.00  0.00     0.059 A 
ATOM     75  C   UNL A   1      47.782  26.915  31.982  1.00  0.00     0.059 A 
ATOM     76  F   UNL A   1      46.673  28.453  30.601  1.00  0.00    -0.206 F 
ATOM     77  C   UNL A   1      47.795  26.137  33.139  1.00  0.00     0.060 A 
BRANCH  77  78
ATOM     78  S   UNL A   1      49.236  25.131  33.549  1.00  0.00     0.124 S 
ATOM     79  O   UNL A   1      50.045  25.277  32.342  1.00  0.00    -0.237 OA
ATOM     80  O   UNL A   1      49.753  25.794  34.741  1.00  0.00    -0.237 OA
ATOM     81  O   UNL A   1      48.673  23.803  33.768  1.00  0.00    -0.744 OA
ENDBRANCH  77  78
ENDBRANCH  56  70
BRANCH  57  82
ATOM     82  C   UNL A   1      37.206  32.654  30.157  1.00  0.00     0.058 A 
ATOM     83  C   UNL A   1      37.147  33.578  29.103  1.00  0.00     0.135 A 
ATOM     84  C   UNL A   1      36.033  32.424  30.891  1.00  0.00     0.135 A 
ATOM     85  F   UNL A   1      38.245  33.839  28.377  1.00  0.00    -0.206 F 
ATOM     86  C   UNL A   1      35.973  34.258  28.795  1.00  0.00     0.059 A 
ATOM     87  C   UNL A   1      34.841  33.073  30.587  1.00  0.00     0.059 A 
ATOM     88  F   UNL A   1      36.033  31.538  31.900  1.00  0.00    -0.206 F 
ATOM     89  C   UNL A   1      34.824  33.997  29.542  1.00  0.00     0.060 A 
BRANCH  89  90
ATOM     90  S   UNL A   1      33.291  34.845  29.103  1.00  0.00     0.124 S 
ATOM     91  O   UNL A   1      32.610  34.905  30.390  1.00  0.00    -0.237 OA
ATOM     92  O   UNL A   1      33.783  36.115  28.579  1.00  0.00    -0.237 OA
ATOM     93  O   UNL A   1      32.691  33.958  28.110  1.00  0.00    -0.744 OA
ENDBRANCH  89  90
ENDBRANCH  57  82
BRANCH  69  94
ATOM     94  C   UNL A   1      42.498  33.930  34.512  1.00  0.00     0.058 A 
ATOM     95  C   UNL A   1      42.168  33.838  35.873  1.00  0.00     0.135 A 
ATOM     96  C   UNL A   1      43.153  35.093  34.073  1.00  0.00     0.135 A 
ATOM     97  F   UNL A   1      41.530  32.752  36.340  1.00  0.00    -0.206 F 
ATOM     98  C   UNL A   1      42.460  34.865  36.763  1.00  0.00     0.059 A 
ATOM     99  C   UNL A   1      43.479  36.122  34.951  1.00  0.00     0.059 A 
ATOM    100  F   UNL A   1      43.499  35.228  32.783  1.00  0.00    -0.206 F 
ATOM    101  C   UNL A   1      43.120  36.003  36.294  1.00  0.00     0.060 A 
BRANCH 101 102
ATOM    102  S   UNL A   1      43.533  37.310  37.468  1.00  0.00     0.124 S 
ATOM    103  O   UNL A   1      42.258  37.508  38.147  1.00  0.00    -0.237 OA
ATOM    104  O   UNL A   1      44.587  36.692  38.267  1.00  0.00    -0.237 OA
ATOM    105  O   UNL A   1      43.967  38.411  36.612  1.00  0.00    -0.744 OA
ENDBRANCH 101 102
ENDBRANCH  69  94
ENDBRANCH  43  44
ENDBRANCH  35  38
ENDBRANCH  33  34
ENDBRANCH  32  33
ENDBRANCH   1  32
TORSDOF 18
ENDMDL
