MODEL 1
REMARK VINA RESULT:     -11.0      0.000      0.000
REMARK SMILES COc1nc(Cl)nc(N(CC(=O)NCCCNC(=O)c2ccc(-c3c4nc(c(-c5c(F)cc(S(=O)(=O)[O-])cc5F)c5ccc([nH]5)c(-c5c(F)cc(S(=O)(=O)[O-])cc5F)c5nc(c(-c6c(F)cc(S(=O)(=O)[O-])cc6F)c6ccc3[nH]6)C=C5)C=C4)cc2)C(C)(C)C)n1
REMARK SMILES IDX 15 1 14 2 13 3 11 4 12 5 10 7 9 8 8 9 3 10 4 11 90 12 5 13
REMARK SMILES IDX 6 14 7 15 2 16 1 17 86 18 87 19 88 20 89 21 16 22 17 23
REMARK SMILES IDX 18 24 19 26 20 27 21 28 85 29 22 30 84 31 23 32 24 33 25 34
REMARK SMILES IDX 78 35 26 36 83 37 77 38 79 39 27 40 82 41 76 42 75 43 28 45
REMARK SMILES IDX 62 46 41 47 61 48 42 49 45 50 60 51 80 52 43 53 44 54 59 56
REMARK SMILES IDX 81 57 46 58 29 59 30 60 39 61 31 62 32 63 38 64 40 65 33 66
REMARK SMILES IDX 34 67 35 68 36 69 37 70 63 71 64 72 73 73 65 74 66 75 72 76
REMARK SMILES IDX 74 77 67 78 68 79 69 80 70 81 71 82 47 83 48 84 57 85 49 86
REMARK SMILES IDX 50 87 56 88 58 89 51 90 52 91 53 92 54 93 55 94
REMARK H PARENT 13 6 17 25 79 44 45 55
REMARK Flexibility Score: inf
ROOT
ATOM      1  C   UNL A   1      32.929  27.739  25.863  1.00  0.00     0.042 C 
ENDROOT
BRANCH   1   2
ATOM      2  C   UNL A   1      31.556  27.075  25.900  1.00  0.00     0.117 C 
BRANCH   2   3
ATOM      3  N   UNL A   1      31.497  25.931  26.787  1.00  0.00    -0.354 N 
ATOM      4  C   UNL A   1      31.341  24.610  26.487  1.00  0.00     0.239 C 
ATOM      5  O   UNL A   1      31.488  23.797  27.406  1.00  0.00    -0.273 OA
ATOM      6  H   UNL A   1      31.584  26.138  27.746  1.00  0.00     0.163 HD
BRANCH   4   7
ATOM      7  C   UNL A   1      31.062  24.142  25.053  1.00  0.00     0.220 C 
BRANCH   7   8
ATOM      8  N   UNL A   1      32.271  23.766  24.292  1.00  0.00    -0.326 N 
BRANCH   8   9
ATOM      9  C   UNL A   1      32.874  22.561  24.650  1.00  0.00     0.233 A 
ATOM     10  C   UNL A   1      32.775  20.322  25.010  1.00  0.00     0.322 A 
ATOM     11  N   UNL A   1      34.038  20.208  25.372  1.00  0.00    -0.164 NA
ATOM     12  N   UNL A   1      32.169  21.439  24.627  1.00  0.00    -0.158 NA
ATOM     13  C   UNL A   1      34.655  21.370  25.325  1.00  0.00     0.230 A 
ATOM     14  Cl  UNL A   1      36.315  21.357  25.738  1.00  0.00    -0.041 Cl
ATOM     15  N   UNL A   1      34.153  22.555  25.000  1.00  0.00    -0.182 NA
BRANCH  10  16
ATOM     16  O   UNL A   1      31.982  19.197  24.974  1.00  0.00    -0.467 OA
ATOM     17  C   UNL A   1      32.748  18.019  24.755  1.00  0.00     0.282 C 
ENDBRANCH  10  16
ENDBRANCH   8   9
BRANCH   8  18
ATOM     18  C   UNL A   1      32.673  24.483  23.038  1.00  0.00     0.035 C 
ATOM     19  C   UNL A   1      33.107  23.482  21.949  1.00  0.00     0.034 C 
ATOM     20  C   UNL A   1      31.527  25.388  22.526  1.00  0.00     0.034 C 
ATOM     21  C   UNL A   1      33.879  25.433  23.239  1.00  0.00     0.034 C 
ENDBRANCH   8  18
ENDBRANCH   7   8
ENDBRANCH   4   7
ENDBRANCH   2   3
ENDBRANCH   1   2
BRANCH   1  22
ATOM     22  C   UNL A   1      33.466  28.144  27.233  1.00  0.00     0.118 C 
BRANCH  22  23
ATOM     23  N   UNL A   1      33.364  29.578  27.464  1.00  0.00    -0.352 N 
ATOM     24  C   UNL A   1      34.275  30.448  28.001  1.00  0.00     0.251 C 
ATOM     25  H   UNL A   1      32.509  29.984  27.194  1.00  0.00     0.163 HD
ATOM     26  O   UNL A   1      33.907  31.590  28.298  1.00  0.00    -0.269 OA
BRANCH  24  27
ATOM     27  C   UNL A   1      35.681  30.049  28.230  1.00  0.00     0.039 A 
ATOM     28  C   UNL A   1      36.069  29.665  29.518  1.00  0.00     0.014 A 
ATOM     29  C   UNL A   1      36.635  30.118  27.210  1.00  0.00     0.014 A 
ATOM     30  C   UNL A   1      37.399  29.322  29.776  1.00  0.00     0.010 A 
ATOM     31  C   UNL A   1      37.950  29.721  27.455  1.00  0.00     0.010 A 
ATOM     32  C   UNL A   1      38.350  29.336  28.744  1.00  0.00    -0.014 A 
BRANCH  32  33
ATOM     33  C   UNL A   1      39.772  28.990  29.002  1.00  0.00     0.031 A 
ATOM     34  C   UNL A   1      40.704  30.026  29.574  1.00  0.00     0.074 A 
ATOM     35  C   UNL A   1      40.238  27.768  28.679  1.00  0.00     0.049 A 
ATOM     36  N   UNL A   1      41.992  29.950  29.794  1.00  0.00    -0.248 NA
ATOM     37  C   UNL A   1      40.114  31.329  29.922  1.00  0.00     0.031 C 
ATOM     38  C   UNL A   1      39.445  26.690  28.085  1.00  0.00     0.029 A 
ATOM     39  N   UNL A   1      41.496  27.231  28.793  1.00  0.00    -0.354 N 
ATOM     40  C   UNL A   1      42.370  31.196  30.281  1.00  0.00     0.074 A 
ATOM     41  C   UNL A   1      41.182  32.023  30.289  1.00  0.00     0.031 C 
ATOM     42  C   UNL A   1      40.232  25.618  27.897  1.00  0.00     0.029 A 
ATOM     43  C   UNL A   1      41.589  25.940  28.329  1.00  0.00     0.049 A 
ATOM     44  H   UNL A   1      42.260  27.724  29.171  1.00  0.00     0.167 HD
ATOM     45  C   UNL A   1      43.590  31.608  30.701  1.00  0.00     0.037 A 
ATOM     46  C   UNL A   1      42.650  25.113  28.254  1.00  0.00     0.037 A 
ATOM     47  C   UNL A   1      44.759  30.771  30.730  1.00  0.00     0.049 A 
ATOM     48  C   UNL A   1      43.988  25.583  28.756  1.00  0.00     0.074 A 
ATOM     49  C   UNL A   1      46.030  31.081  31.185  1.00  0.00     0.029 A 
ATOM     50  N   UNL A   1      44.801  29.454  30.297  1.00  0.00    -0.354 N 
ATOM     51  N   UNL A   1      44.316  26.752  29.253  1.00  0.00    -0.248 NA
ATOM     52  C   UNL A   1      45.097  24.621  28.698  1.00  0.00     0.031 C 
ATOM     53  C   UNL A   1      46.846  29.958  31.004  1.00  0.00     0.029 A 
ATOM     54  C   UNL A   1      46.075  28.939  30.469  1.00  0.00     0.049 A 
ATOM     55  H   UNL A   1      44.038  28.959  29.921  1.00  0.00     0.167 HD
ATOM     56  C   UNL A   1      45.661  26.655  29.595  1.00  0.00     0.074 A 
ATOM     57  C   UNL A   1      46.083  25.312  29.254  1.00  0.00     0.031 C 
ATOM     58  C   UNL A   1      46.473  27.592  30.143  1.00  0.00     0.037 A 
BRANCH  45  59
ATOM     59  C   UNL A   1      43.721  33.030  31.172  1.00  0.00     0.058 A 
ATOM     60  C   UNL A   1      43.467  33.388  32.506  1.00  0.00     0.135 A 
ATOM     61  C   UNL A   1      44.140  34.040  30.291  1.00  0.00     0.135 A 
ATOM     62  F   UNL A   1      43.050  32.465  33.386  1.00  0.00    -0.206 F 
ATOM     63  C   UNL A   1      43.599  34.703  32.943  1.00  0.00     0.059 A 
ATOM     64  C   UNL A   1      44.302  35.356  30.712  1.00  0.00     0.059 A 
ATOM     65  F   UNL A   1      44.395  33.751  29.005  1.00  0.00    -0.206 F 
ATOM     66  C   UNL A   1      44.015  35.680  32.038  1.00  0.00     0.060 A 
BRANCH  66  67
ATOM     67  S   UNL A   1      44.188  37.380  32.621  1.00  0.00     0.124 S 
ATOM     68  O   UNL A   1      43.867  38.135  31.414  1.00  0.00    -0.237 OA
ATOM     69  O   UNL A   1      43.198  37.448  33.691  1.00  0.00    -0.237 OA
ATOM     70  O   UNL A   1      45.579  37.451  33.054  1.00  0.00    -0.744 OA
ENDBRANCH  66  67
ENDBRANCH  45  59
BRANCH  46  71
ATOM     71  C   UNL A   1      42.486  23.741  27.704  1.00  0.00     0.058 A 
ATOM     72  C   UNL A   1      42.392  22.631  28.556  1.00  0.00     0.135 A 
ATOM     73  C   UNL A   1      42.415  23.514  26.321  1.00  0.00     0.135 A 
ATOM     74  F   UNL A   1      42.460  22.798  29.885  1.00  0.00    -0.206 F 
ATOM     75  C   UNL A   1      42.254  21.340  28.056  1.00  0.00     0.059 A 
ATOM     76  C   UNL A   1      42.255  22.235  25.799  1.00  0.00     0.059 A 
ATOM     77  F   UNL A   1      42.483  24.546  25.466  1.00  0.00    -0.206 F 
ATOM     78  C   UNL A   1      42.187  21.152  26.675  1.00  0.00     0.060 A 
BRANCH  78  79
ATOM     79  S   UNL A   1      41.968  19.477  26.036  1.00  0.00     0.124 S 
ATOM     80  O   UNL A   1      42.420  18.671  27.163  1.00  0.00    -0.237 OA
ATOM     81  O   UNL A   1      40.535  19.438  25.756  1.00  0.00    -0.237 OA
ATOM     82  O   UNL A   1      42.828  19.455  24.856  1.00  0.00    -0.744 OA
ENDBRANCH  78  79
ENDBRANCH  46  71
BRANCH  58  83
ATOM     83  C   UNL A   1      47.885  27.188  30.454  1.00  0.00     0.058 A 
ATOM     84  C   UNL A   1      48.921  27.352  29.523  1.00  0.00     0.135 A 
ATOM     85  C   UNL A   1      48.213  26.678  31.720  1.00  0.00     0.135 A 
ATOM     86  F   UNL A   1      48.659  27.831  28.297  1.00  0.00    -0.206 F 
ATOM     87  C   UNL A   1      50.233  27.003  29.829  1.00  0.00     0.059 A 
ATOM     88  C   UNL A   1      49.520  26.343  32.056  1.00  0.00     0.059 A 
ATOM     89  F   UNL A   1      47.258  26.511  32.650  1.00  0.00    -0.206 F 
ATOM     90  C   UNL A   1      50.523  26.499  31.099  1.00  0.00     0.060 A 
BRANCH  90  91
ATOM     91  S   UNL A   1      52.233  26.080  31.498  1.00  0.00     0.124 S 
ATOM     92  O   UNL A   1      52.554  27.083  32.507  1.00  0.00    -0.237 OA
ATOM     93  O   UNL A   1      52.116  24.708  31.983  1.00  0.00    -0.237 OA
ATOM     94  O   UNL A   1      52.925  26.228  30.221  1.00  0.00    -0.744 OA
ENDBRANCH  90  91
ENDBRANCH  58  83
ENDBRANCH  32  33
ENDBRANCH  24  27
ENDBRANCH  22  23
ENDBRANCH   1  22
TORSDOF 17
ENDMDL
MODEL 2
REMARK VINA RESULT:     -10.6      1.182      1.983
REMARK SMILES COc1nc(Cl)nc(N(CC(=O)NCCCNC(=O)c2ccc(-c3c4nc(c(-c5c(F)cc(S(=O)(=O)[O-])cc5F)c5ccc([nH]5)c(-c5c(F)cc(S(=O)(=O)[O-])cc5F)c5nc(c(-c6c(F)cc(S(=O)(=O)[O-])cc6F)c6ccc3[nH]6)C=C5)C=C4)cc2)C(C)(C)C)n1
REMARK SMILES IDX 15 1 14 2 13 3 11 4 12 5 10 7 9 8 8 9 3 10 4 11 90 12 5 13
REMARK SMILES IDX 6 14 7 15 2 16 1 17 86 18 87 19 88 20 89 21 16 22 17 23
REMARK SMILES IDX 18 24 19 26 20 27 21 28 85 29 22 30 84 31 23 32 24 33 25 34
REMARK SMILES IDX 78 35 26 36 83 37 77 38 79 39 27 40 82 41 76 42 75 43 28 45
REMARK SMILES IDX 62 46 41 47 61 48 42 49 45 50 60 51 80 52 43 53 44 54 59 56
REMARK SMILES IDX 81 57 46 58 29 59 30 60 39 61 31 62 32 63 38 64 40 65 33 66
REMARK SMILES IDX 34 67 35 68 36 69 37 70 63 71 64 72 73 73 65 74 66 75 72 76
REMARK SMILES IDX 74 77 67 78 68 79 69 80 70 81 71 82 47 83 48 84 57 85 49 86
REMARK SMILES IDX 50 87 56 88 58 89 51 90 52 91 53 92 54 93 55 94
REMARK H PARENT 13 6 17 25 79 44 45 55
REMARK Flexibility Score: inf
ROOT
ATOM      1  C   UNL A   1      33.515  28.274  25.121  1.00  0.00     0.042 C 
ENDROOT
BRANCH   1   2
ATOM      2  C   UNL A   1      32.592  27.132  24.707  1.00  0.00     0.117 C 
BRANCH   2   3
ATOM      3  N   UNL A   1      33.113  26.347  23.606  1.00  0.00    -0.354 N 
ATOM      4  C   UNL A   1      34.057  25.362  23.614  1.00  0.00     0.239 C 
ATOM      5  O   UNL A   1      34.217  24.720  22.571  1.00  0.00    -0.273 OA
ATOM      6  H   UNL A   1      32.729  26.554  22.722  1.00  0.00     0.163 HD
BRANCH   4   7
ATOM      7  C   UNL A   1      34.841  25.016  24.886  1.00  0.00     0.220 C 
BRANCH   7   8
ATOM      8  N   UNL A   1      35.020  23.568  25.114  1.00  0.00    -0.326 N 
BRANCH   8   9
ATOM      9  C   UNL A   1      33.853  22.817  25.251  1.00  0.00     0.233 A 
ATOM     10  C   UNL A   1      31.920  22.334  26.339  1.00  0.00     0.322 A 
ATOM     11  N   UNL A   1      31.584  21.341  25.538  1.00  0.00    -0.164 NA
ATOM     12  N   UNL A   1      33.001  23.097  26.225  1.00  0.00    -0.158 NA
ATOM     13  C   UNL A   1      32.477  21.171  24.587  1.00  0.00     0.230 A 
ATOM     14  Cl  UNL A   1      32.143  19.933  23.454  1.00  0.00    -0.041 Cl
ATOM     15  N   UNL A   1      33.608  21.837  24.392  1.00  0.00    -0.182 NA
BRANCH  10  16
ATOM     16  O   UNL A   1      31.084  22.671  27.379  1.00  0.00    -0.467 OA
ATOM     17  C   UNL A   1      29.814  23.112  26.914  1.00  0.00     0.282 C 
ENDBRANCH  10  16
ENDBRANCH   8   9
BRANCH   8  18
ATOM     18  C   UNL A   1      36.350  22.897  24.938  1.00  0.00     0.035 C 
ATOM     19  C   UNL A   1      37.479  23.753  25.548  1.00  0.00     0.034 C 
ATOM     20  C   UNL A   1      36.342  21.479  25.555  1.00  0.00     0.034 C 
ATOM     21  C   UNL A   1      36.736  22.691  23.453  1.00  0.00     0.034 C 
ENDBRANCH   8  18
ENDBRANCH   7   8
ENDBRANCH   4   7
ENDBRANCH   2   3
ENDBRANCH   1   2
BRANCH   1  22
ATOM     22  C   UNL A   1      33.800  28.337  26.619  1.00  0.00     0.118 C 
BRANCH  22  23
ATOM     23  N   UNL A   1      33.623  29.679  27.158  1.00  0.00    -0.352 N 
ATOM     24  C   UNL A   1      34.458  30.426  27.945  1.00  0.00     0.251 C 
ATOM     25  H   UNL A   1      32.773  30.115  26.920  1.00  0.00     0.163 HD
ATOM     26  O   UNL A   1      34.022  31.461  28.462  1.00  0.00    -0.269 OA
BRANCH  24  27
ATOM     27  C   UNL A   1      35.859  30.019  28.187  1.00  0.00     0.039 A 
ATOM     28  C   UNL A   1      36.222  29.588  29.468  1.00  0.00     0.014 A 
ATOM     29  C   UNL A   1      36.833  30.127  27.190  1.00  0.00     0.014 A 
ATOM     30  C   UNL A   1      37.547  29.237  29.740  1.00  0.00     0.010 A 
ATOM     31  C   UNL A   1      38.143  29.721  27.446  1.00  0.00     0.010 A 
ATOM     32  C   UNL A   1      38.518  29.289  28.727  1.00  0.00    -0.014 A 
BRANCH  32  33
ATOM     33  C   UNL A   1      39.935  28.935  29.000  1.00  0.00     0.031 A 
ATOM     34  C   UNL A   1      40.864  29.961  29.594  1.00  0.00     0.074 A 
ATOM     35  C   UNL A   1      40.400  27.714  28.672  1.00  0.00     0.049 A 
ATOM     36  N   UNL A   1      42.148  29.877  29.830  1.00  0.00    -0.248 NA
ATOM     37  C   UNL A   1      40.275  31.263  29.947  1.00  0.00     0.031 C 
ATOM     38  C   UNL A   1      39.610  26.645  28.057  1.00  0.00     0.029 A 
ATOM     39  N   UNL A   1      41.654  27.170  28.797  1.00  0.00    -0.354 N 
ATOM     40  C   UNL A   1      42.525  31.116  30.334  1.00  0.00     0.074 A 
ATOM     41  C   UNL A   1      41.341  31.949  30.334  1.00  0.00     0.031 C 
ATOM     42  C   UNL A   1      40.395  25.571  27.869  1.00  0.00     0.029 A 
ATOM     43  C   UNL A   1      41.748  25.883  28.321  1.00  0.00     0.049 A 
ATOM     44  H   UNL A   1      42.415  27.656  29.190  1.00  0.00     0.167 HD
ATOM     45  C   UNL A   1      43.742  31.520  30.774  1.00  0.00     0.037 A 
ATOM     46  C   UNL A   1      42.806  25.052  28.253  1.00  0.00     0.037 A 
ATOM     47  C   UNL A   1      44.907  30.677  30.810  1.00  0.00     0.049 A 
ATOM     48  C   UNL A   1      44.139  25.512  28.777  1.00  0.00     0.074 A 
ATOM     49  C   UNL A   1      46.173  30.977  31.284  1.00  0.00     0.029 A 
ATOM     50  N   UNL A   1      44.949  29.364  30.365  1.00  0.00    -0.354 N 
ATOM     51  N   UNL A   1      44.466  26.675  29.289  1.00  0.00    -0.248 NA
ATOM     52  C   UNL A   1      45.245  24.545  28.724  1.00  0.00     0.031 C 
ATOM     53  C   UNL A   1      46.986  29.853  31.103  1.00  0.00     0.029 A 
ATOM     54  C   UNL A   1      46.218  28.842  30.549  1.00  0.00     0.049 A 
ATOM     55  H   UNL A   1      44.189  28.876  29.975  1.00  0.00     0.167 HD
ATOM     56  C   UNL A   1      45.806  26.568  29.647  1.00  0.00     0.074 A 
ATOM     57  C   UNL A   1      46.227  25.226  29.299  1.00  0.00     0.031 C 
ATOM     58  C   UNL A   1      46.614  27.497  30.214  1.00  0.00     0.037 A 
BRANCH  45  59
ATOM     59  C   UNL A   1      43.873  32.936  31.259  1.00  0.00     0.058 A 
ATOM     60  C   UNL A   1      43.630  33.278  32.600  1.00  0.00     0.135 A 
ATOM     61  C   UNL A   1      44.280  33.958  30.386  1.00  0.00     0.135 A 
ATOM     62  F   UNL A   1      43.224  32.344  33.473  1.00  0.00    -0.206 F 
ATOM     63  C   UNL A   1      43.762  34.588  33.051  1.00  0.00     0.059 A 
ATOM     64  C   UNL A   1      44.442  35.270  30.822  1.00  0.00     0.059 A 
ATOM     65  F   UNL A   1      44.525  33.685  29.095  1.00  0.00    -0.206 F 
ATOM     66  C   UNL A   1      44.167  35.577  32.153  1.00  0.00     0.060 A 
BRANCH  66  67
ATOM     67  S   UNL A   1      44.339  37.271  32.754  1.00  0.00     0.124 S 
ATOM     68  O   UNL A   1      43.471  37.254  33.927  1.00  0.00    -0.237 OA
ATOM     69  O   UNL A   1      45.770  37.363  33.028  1.00  0.00    -0.237 OA
ATOM     70  O   UNL A   1      43.867  38.079  31.635  1.00  0.00    -0.744 OA
ENDBRANCH  66  67
ENDBRANCH  45  59
BRANCH  46  71
ATOM     71  C   UNL A   1      42.643  23.686  27.688  1.00  0.00     0.058 A 
ATOM     72  C   UNL A   1      42.494  22.573  28.528  1.00  0.00     0.135 A 
ATOM     73  C   UNL A   1      42.628  23.468  26.302  1.00  0.00     0.135 A 
ATOM     74  F   UNL A   1      42.509  22.732  29.860  1.00  0.00    -0.206 F 
ATOM     75  C   UNL A   1      42.357  21.287  28.015  1.00  0.00     0.059 A 
ATOM     76  C   UNL A   1      42.470  22.195  25.765  1.00  0.00     0.059 A 
ATOM     77  F   UNL A   1      42.749  24.503  25.457  1.00  0.00    -0.206 F 
ATOM     78  C   UNL A   1      42.347  21.108  26.631  1.00  0.00     0.060 A 
BRANCH  78  79
ATOM     79  S   UNL A   1      42.128  19.440  25.972  1.00  0.00     0.124 S 
ATOM     80  O   UNL A   1      40.691  19.407  25.730  1.00  0.00    -0.237 OA
ATOM     81  O   UNL A   1      42.976  19.463  24.784  1.00  0.00    -0.237 OA
ATOM     82  O   UNL A   1      42.607  18.588  27.056  1.00  0.00    -0.744 OA
ENDBRANCH  78  79
ENDBRANCH  46  71
BRANCH  58  83
ATOM     83  C   UNL A   1      48.021  27.084  30.540  1.00  0.00     0.058 A 
ATOM     84  C   UNL A   1      49.078  27.295  29.643  1.00  0.00     0.135 A 
ATOM     85  C   UNL A   1      48.321  26.514  31.788  1.00  0.00     0.135 A 
ATOM     86  F   UNL A   1      48.843  27.832  28.436  1.00  0.00    -0.206 F 
ATOM     87  C   UNL A   1      50.384  26.937  29.964  1.00  0.00     0.059 A 
ATOM     88  C   UNL A   1      49.622  26.169  32.139  1.00  0.00     0.059 A 
ATOM     89  F   UNL A   1      47.345  26.300  32.685  1.00  0.00    -0.206 F 
ATOM     90  C   UNL A   1      50.646  26.374  31.215  1.00  0.00     0.060 A 
BRANCH  90  91
ATOM     91  S   UNL A   1      52.347  25.943  31.635  1.00  0.00     0.124 S 
ATOM     92  O   UNL A   1      52.661  26.939  32.653  1.00  0.00    -0.237 OA
ATOM     93  O   UNL A   1      52.216  24.569  32.111  1.00  0.00    -0.237 OA
ATOM     94  O   UNL A   1      53.058  26.093  30.368  1.00  0.00    -0.744 OA
ENDBRANCH  90  91
ENDBRANCH  58  83
ENDBRANCH  32  33
ENDBRANCH  24  27
ENDBRANCH  22  23
ENDBRANCH   1  22
TORSDOF 17
ENDMDL
MODEL 3
REMARK VINA RESULT:     -10.5      2.695      3.590
REMARK SMILES COc1nc(Cl)nc(N(CC(=O)NCCCNC(=O)c2ccc(-c3c4nc(c(-c5c(F)cc(S(=O)(=O)[O-])cc5F)c5ccc([nH]5)c(-c5c(F)cc(S(=O)(=O)[O-])cc5F)c5nc(c(-c6c(F)cc(S(=O)(=O)[O-])cc6F)c6ccc3[nH]6)C=C5)C=C4)cc2)C(C)(C)C)n1
REMARK SMILES IDX 15 1 14 2 13 3 11 4 12 5 10 7 9 8 8 9 3 10 4 11 90 12 5 13
REMARK SMILES IDX 6 14 7 15 2 16 1 17 86 18 87 19 88 20 89 21 16 22 17 23
REMARK SMILES IDX 18 24 19 26 20 27 21 28 85 29 22 30 84 31 23 32 24 33 25 34
REMARK SMILES IDX 78 35 26 36 83 37 77 38 79 39 27 40 82 41 76 42 75 43 28 45
REMARK SMILES IDX 62 46 41 47 61 48 42 49 45 50 60 51 80 52 43 53 44 54 59 56
REMARK SMILES IDX 81 57 46 58 29 59 30 60 39 61 31 62 32 63 38 64 40 65 33 66
REMARK SMILES IDX 34 67 35 68 36 69 37 70 63 71 64 72 73 73 65 74 66 75 72 76
REMARK SMILES IDX 74 77 67 78 68 79 69 80 70 81 71 82 47 83 48 84 57 85 49 86
REMARK SMILES IDX 50 87 56 88 58 89 51 90 52 91 53 92 54 93 55 94
REMARK H PARENT 13 6 17 25 79 44 45 55
REMARK Flexibility Score: inf
ROOT
ATOM      1  C   UNL A   1      33.630  27.407  25.427  1.00  0.00     0.042 C 
ENDROOT
BRANCH   1   2
ATOM      2  C   UNL A   1      34.030  25.935  25.398  1.00  0.00     0.117 C 
BRANCH   2   3
ATOM      3  N   UNL A   1      32.946  25.041  25.751  1.00  0.00    -0.354 N 
ATOM      4  C   UNL A   1      32.991  23.832  26.382  1.00  0.00     0.239 C 
ATOM      5  O   UNL A   1      31.915  23.329  26.723  1.00  0.00    -0.273 OA
ATOM      6  H   UNL A   1      32.046  25.351  25.500  1.00  0.00     0.163 HD
BRANCH   4   7
ATOM      7  C   UNL A   1      34.324  23.154  26.718  1.00  0.00     0.220 C 
BRANCH   7   8
ATOM      8  N   UNL A   1      34.837  22.264  25.656  1.00  0.00    -0.326 N 
BRANCH   8   9
ATOM      9  C   UNL A   1      33.934  21.335  25.142  1.00  0.00     0.233 A 
ATOM     10  C   UNL A   1      32.770  19.393  25.311  1.00  0.00     0.322 A 
ATOM     11  N   UNL A   1      32.187  19.506  24.134  1.00  0.00    -0.164 NA
ATOM     12  N   UNL A   1      33.607  20.268  25.855  1.00  0.00    -0.158 NA
ATOM     13  C   UNL A   1      32.550  20.615  23.525  1.00  0.00     0.230 A 
ATOM     14  Cl  UNL A   1      31.836  20.903  21.997  1.00  0.00    -0.041 Cl
ATOM     15  N   UNL A   1      33.403  21.542  23.944  1.00  0.00    -0.182 NA
BRANCH  10  16
ATOM     16  O   UNL A   1      32.485  18.303  26.100  1.00  0.00    -0.467 OA
ATOM     17  C   UNL A   1      32.962  17.094  25.522  1.00  0.00     0.282 C 
ENDBRANCH  10  16
ENDBRANCH   8   9
BRANCH   8  18
ATOM     18  C   UNL A   1      36.152  22.515  24.979  1.00  0.00     0.035 C 
ATOM     19  C   UNL A   1      36.999  23.520  25.785  1.00  0.00     0.034 C 
ATOM     20  C   UNL A   1      36.926  21.193  24.764  1.00  0.00     0.034 C 
ATOM     21  C   UNL A   1      36.002  23.131  23.567  1.00  0.00     0.034 C 
ENDBRANCH   8  18
ENDBRANCH   7   8
ENDBRANCH   4   7
ENDBRANCH   2   3
ENDBRANCH   1   2
BRANCH   1  22
ATOM     22  C   UNL A   1      33.575  28.015  26.825  1.00  0.00     0.118 C 
BRANCH  22  23
ATOM     23  N   UNL A   1      33.495  29.469  26.792  1.00  0.00    -0.352 N 
ATOM     24  C   UNL A   1      34.301  30.406  27.382  1.00  0.00     0.251 C 
ATOM     25  H   UNL A   1      32.748  29.833  26.266  1.00  0.00     0.163 HD
ATOM     26  O   UNL A   1      33.931  31.585  27.397  1.00  0.00    -0.269 OA
BRANCH  24  27
ATOM     27  C   UNL A   1      35.593  30.035  27.997  1.00  0.00     0.039 A 
ATOM     28  C   UNL A   1      35.610  29.639  29.339  1.00  0.00     0.014 A 
ATOM     29  C   UNL A   1      36.795  30.143  27.291  1.00  0.00     0.014 A 
ATOM     30  C   UNL A   1      36.821  29.322  29.962  1.00  0.00     0.010 A 
ATOM     31  C   UNL A   1      37.997  29.771  27.897  1.00  0.00     0.010 A 
ATOM     32  C   UNL A   1      38.024  29.374  29.242  1.00  0.00    -0.014 A 
BRANCH  32  33
ATOM     33  C   UNL A   1      39.323  29.057  29.891  1.00  0.00     0.031 A 
ATOM     34  C   UNL A   1      39.794  29.873  31.066  1.00  0.00     0.074 A 
ATOM     35  C   UNL A   1      40.100  28.074  29.397  1.00  0.00     0.049 A 
ATOM     36  N   UNL A   1      40.928  29.810  31.716  1.00  0.00    -0.248 NA
ATOM     37  C   UNL A   1      38.878  30.914  31.561  1.00  0.00     0.031 C 
ATOM     38  C   UNL A   1      39.773  27.236  28.242  1.00  0.00     0.029 A 
ATOM     39  N   UNL A   1      41.332  27.620  29.798  1.00  0.00    -0.354 N 
ATOM     40  C   UNL A   1      40.873  30.814  32.676  1.00  0.00     0.074 A 
ATOM     41  C   UNL A   1      39.609  31.498  32.500  1.00  0.00     0.031 C 
ATOM     42  C   UNL A   1      40.774  26.364  28.033  1.00  0.00     0.029 A 
ATOM     43  C   UNL A   1      41.825  26.598  29.020  1.00  0.00     0.049 A 
ATOM     44  H   UNL A   1      41.818  27.991  30.570  1.00  0.00     0.167 HD
ATOM     45  C   UNL A   1      41.783  31.127  33.630  1.00  0.00     0.037 A 
ATOM     46  C   UNL A   1      42.993  25.931  29.091  1.00  0.00     0.037 A 
ATOM     47  C   UNL A   1      43.020  30.420  33.828  1.00  0.00     0.049 A 
ATOM     48  C   UNL A   1      43.974  26.276  30.178  1.00  0.00     0.074 A 
ATOM     49  C   UNL A   1      43.986  30.628  34.799  1.00  0.00     0.029 A 
ATOM     50  N   UNL A   1      43.460  29.359  33.050  1.00  0.00    -0.354 N 
ATOM     51  N   UNL A   1      43.885  27.201  31.105  1.00  0.00    -0.248 NA
ATOM     52  C   UNL A   1      45.207  25.480  30.239  1.00  0.00     0.031 C 
ATOM     53  C   UNL A   1      45.021  29.709  34.591  1.00  0.00     0.029 A 
ATOM     54  C   UNL A   1      44.683  28.906  33.515  1.00  0.00     0.049 A 
ATOM     55  H   UNL A   1      42.974  28.985  32.280  1.00  0.00     0.167 HD
ATOM     56  C   UNL A   1      45.036  27.078  31.875  1.00  0.00     0.074 A 
ATOM     57  C   UNL A   1      45.802  25.986  31.312  1.00  0.00     0.031 C 
ATOM     58  C   UNL A   1      45.423  27.804  32.953  1.00  0.00     0.037 A 
BRANCH  45  59
ATOM     59  C   UNL A   1      41.471  32.283  34.539  1.00  0.00     0.058 A 
ATOM     60  C   UNL A   1      41.805  33.602  34.191  1.00  0.00     0.135 A 
ATOM     61  C   UNL A   1      40.798  32.077  35.754  1.00  0.00     0.135 A 
ATOM     62  F   UNL A   1      42.461  33.854  33.048  1.00  0.00    -0.206 F 
ATOM     63  C   UNL A   1      41.506  34.673  35.028  1.00  0.00     0.059 A 
ATOM     64  C   UNL A   1      40.468  33.135  36.595  1.00  0.00     0.059 A 
ATOM     65  F   UNL A   1      40.457  30.835  36.135  1.00  0.00    -0.206 F 
ATOM     66  C   UNL A   1      40.839  34.428  36.230  1.00  0.00     0.060 A 
BRANCH  66  67
ATOM     67  S   UNL A   1      40.452  35.827  37.303  1.00  0.00     0.124 S 
ATOM     68  O   UNL A   1      41.777  36.194  37.791  1.00  0.00    -0.237 OA
ATOM     69  O   UNL A   1      39.834  36.772  36.378  1.00  0.00    -0.237 OA
ATOM     70  O   UNL A   1      39.553  35.253  38.298  1.00  0.00    -0.744 OA
ENDBRANCH  66  67
ENDBRANCH  45  59
BRANCH  46  71
ATOM     71  C   UNL A   1      43.291  24.848  28.116  1.00  0.00     0.058 A 
ATOM     72  C   UNL A   1      43.964  25.125  26.917  1.00  0.00     0.135 A 
ATOM     73  C   UNL A   1      42.913  23.520  28.364  1.00  0.00     0.135 A 
ATOM     74  F   UNL A   1      44.340  26.381  26.634  1.00  0.00    -0.206 F 
ATOM     75  C   UNL A   1      44.236  24.126  25.988  1.00  0.00     0.059 A 
ATOM     76  C   UNL A   1      43.193  22.500  27.461  1.00  0.00     0.059 A 
ATOM     77  F   UNL A   1      42.281  23.203  29.505  1.00  0.00    -0.206 F 
ATOM     78  C   UNL A   1      43.845  22.816  26.269  1.00  0.00     0.060 A 
BRANCH  78  79
ATOM     79  S   UNL A   1      44.237  21.518  25.075  1.00  0.00     0.124 S 
ATOM     80  O   UNL A   1      45.603  21.176  25.451  1.00  0.00    -0.237 OA
ATOM     81  O   UNL A   1      43.222  20.511  25.369  1.00  0.00    -0.237 OA
ATOM     82  O   UNL A   1      44.084  22.191  23.788  1.00  0.00    -0.744 OA
ENDBRANCH  78  79
ENDBRANCH  46  71
BRANCH  58  83
ATOM     83  C   UNL A   1      46.707  27.412  33.626  1.00  0.00     0.058 A 
ATOM     84  C   UNL A   1      46.742  26.449  34.645  1.00  0.00     0.135 A 
ATOM     85  C   UNL A   1      47.925  27.972  33.208  1.00  0.00     0.135 A 
ATOM     86  F   UNL A   1      45.604  25.888  35.084  1.00  0.00    -0.206 F 
ATOM     87  C   UNL A   1      47.940  26.069  35.243  1.00  0.00     0.059 A 
ATOM     88  C   UNL A   1      49.136  27.591  33.775  1.00  0.00     0.059 A 
ATOM     89  F   UNL A   1      47.946  28.890  32.228  1.00  0.00    -0.206 F 
ATOM     90  C   UNL A   1      49.132  26.646  34.801  1.00  0.00     0.060 A 
BRANCH  90  91
ATOM     91  S   UNL A   1      50.684  26.123  35.560  1.00  0.00     0.124 S 
ATOM     92  O   UNL A   1      50.372  26.242  36.979  1.00  0.00    -0.237 OA
ATOM     93  O   UNL A   1      50.838  24.762  35.056  1.00  0.00    -0.237 OA
ATOM     94  O   UNL A   1      51.654  27.086  35.046  1.00  0.00    -0.744 OA
ENDBRANCH  90  91
ENDBRANCH  58  83
ENDBRANCH  32  33
ENDBRANCH  24  27
ENDBRANCH  22  23
ENDBRANCH   1  22
TORSDOF 17
ENDMDL
