MODEL 1
REMARK VINA RESULT:     -11.9      0.000      0.000
REMARK SMILES O=C(COCC(=O)/[NH+]=C1\S[C@@H]2CS(=O)(=O)C[C@H]2N1c1ccc(Cl)cc1)NCCCNC(=O)c1ccc(-c2c3nc(c(-c4c(F)cc(S(=O)(=O)[O-])cc4F)c4ccc([nH]4)c(-c4c(F)cc(S(=O)(=O)[O-])cc4F)c4nc(c(-c5c(F)cc(S(=O)(=O)[O-])cc5F)c5ccc2[nH]5)C=C4)C=C3)cc1
REMARK SMILES IDX 27 1 26 2 2 3 1 4 3 6 4 7 5 8 6 9 7 10 8 11 9 12 10 14 18 15
REMARK SMILES IDX 11 16 17 17 12 18 16 19 13 20 14 21 15 22 19 23 20 24 25 25
REMARK SMILES IDX 21 26 24 27 22 28 23 29 28 30 29 31 30 32 31 33 32 35 33 36
REMARK SMILES IDX 34 37 98 38 35 39 97 40 36 41 37 42 38 43 91 44 39 45 96 46
REMARK SMILES IDX 90 47 92 48 40 49 95 50 89 51 88 52 41 54 75 55 54 56 74 57
REMARK SMILES IDX 55 58 58 59 73 60 93 61 56 62 57 63 72 65 94 66 59 67 42 68
REMARK SMILES IDX 43 69 52 70 44 71 45 72 51 73 53 74 46 75 47 76 48 77 49 78
REMARK SMILES IDX 50 79 76 80 77 81 86 82 78 83 79 84 85 85 87 86 80 87 81 88
REMARK SMILES IDX 82 89 83 90 84 91 60 92 61 93 70 94 62 95 63 96 69 97 71 98
REMARK SMILES IDX 64 99 65 100 66 101 67 102 68 103
REMARK H PARENT 26 5 8 13 30 34 92 53 58 64
REMARK Flexibility Score: inf
ROOT
ATOM      1  C   UNL A   1      33.929  22.303  26.307  1.00  0.00     0.117 C 
ENDROOT
BRANCH   1   2
ATOM      2  N   UNL A   1      32.899  23.119  26.924  1.00  0.00    -0.354 N 
ATOM      3  C   UNL A   1      31.662  23.436  26.437  1.00  0.00     0.246 C 
ATOM      4  O   UNL A   1      30.891  24.096  27.134  1.00  0.00    -0.272 OA
ATOM      5  H   UNL A   1      33.120  23.492  27.808  1.00  0.00     0.163 HD
BRANCH   3   6
ATOM      6  C   UNL A   1      31.270  22.967  25.034  1.00  0.00     0.260 C 
BRANCH   6   7
ATOM      7  O   UNL A   1      30.517  23.930  24.314  1.00  0.00    -0.359 OA
BRANCH   7   8
ATOM      8  C   UNL A   1      31.272  24.560  23.286  1.00  0.00     0.288 C 
BRANCH   8   9
ATOM      9  C   UNL A   1      32.485  25.415  23.711  1.00  0.00     0.333 C 
ATOM     10  O   UNL A   1      33.623  25.008  23.476  1.00  0.00    -0.244 OA
ATOM     11  N   UNL A   1      32.285  26.588  24.398  1.00  0.00    -0.202 N 
ATOM     12  C   UNL A   1      31.581  27.563  23.929  1.00  0.00     0.319 C 
ATOM     13  H   UNL A   1      32.696  26.690  25.287  1.00  0.00     0.316 HD
ATOM     14  S   UNL A   1      30.627  27.515  22.409  1.00  0.00    -0.029 SA
ATOM     15  N   UNL A   1      31.393  28.818  24.533  1.00  0.00    -0.217 N 
ATOM     16  C   UNL A   1      29.514  28.752  23.105  1.00  0.00     0.120 C 
ATOM     17  C   UNL A   1      30.541  29.709  23.720  1.00  0.00     0.212 C 
ATOM     18  C   UNL A   1      28.592  29.551  22.223  1.00  0.00     0.156 C 
ATOM     19  C   UNL A   1      29.698  30.780  24.365  1.00  0.00     0.188 C 
ATOM     20  S   UNL A   1      28.452  31.103  23.118  1.00  0.00     0.155 S 
ATOM     21  O   UNL A   1      27.167  31.157  23.784  1.00  0.00    -0.229 OA
ATOM     22  O   UNL A   1      28.934  32.167  22.269  1.00  0.00    -0.229 OA
BRANCH  15  23
ATOM     23  C   UNL A   1      32.301  29.389  25.443  1.00  0.00     0.128 A 
ATOM     24  C   UNL A   1      33.629  28.938  25.526  1.00  0.00     0.053 A 
ATOM     25  C   UNL A   1      31.927  30.437  26.300  1.00  0.00     0.053 A 
ATOM     26  C   UNL A   1      34.531  29.471  26.455  1.00  0.00     0.025 A 
ATOM     27  C   UNL A   1      32.826  30.983  27.227  1.00  0.00     0.025 A 
ATOM     28  C   UNL A   1      34.122  30.489  27.309  1.00  0.00     0.041 A 
ATOM     29  Cl  UNL A   1      35.228  31.142  28.452  1.00  0.00    -0.084 Cl
ENDBRANCH  15  23
ENDBRANCH   8   9
ENDBRANCH   7   8
ENDBRANCH   6   7
ENDBRANCH   3   6
ENDBRANCH   1   2
BRANCH   1  30
ATOM     30  C   UNL A   1      34.893  23.108  25.440  1.00  0.00     0.042 C 
BRANCH  30  31
ATOM     31  C   UNL A   1      36.171  23.556  26.146  1.00  0.00     0.118 C 
BRANCH  31  32
ATOM     32  N   UNL A   1      37.211  22.540  26.143  1.00  0.00    -0.352 N 
ATOM     33  C   UNL A   1      38.568  22.643  26.322  1.00  0.00     0.251 C 
ATOM     34  H   UNL A   1      36.888  21.623  25.984  1.00  0.00     0.163 HD
ATOM     35  O   UNL A   1      39.267  21.655  26.110  1.00  0.00    -0.269 OA
BRANCH  33  36
ATOM     36  C   UNL A   1      39.199  23.914  26.747  1.00  0.00     0.039 A 
ATOM     37  C   UNL A   1      39.182  24.243  28.106  1.00  0.00     0.014 A 
ATOM     38  C   UNL A   1      39.758  24.806  25.829  1.00  0.00     0.014 A 
ATOM     39  C   UNL A   1      39.766  25.434  28.545  1.00  0.00     0.010 A 
ATOM     40  C   UNL A   1      40.414  25.954  26.276  1.00  0.00     0.010 A 
ATOM     41  C   UNL A   1      40.416  26.287  27.638  1.00  0.00    -0.014 A 
BRANCH  41  42
ATOM     42  C   UNL A   1      41.099  27.523  28.110  1.00  0.00     0.031 A 
ATOM     43  C   UNL A   1      42.596  27.658  28.016  1.00  0.00     0.074 A 
ATOM     44  C   UNL A   1      40.366  28.514  28.659  1.00  0.00     0.049 A 
ATOM     45  N   UNL A   1      43.359  28.658  28.381  1.00  0.00    -0.248 NA
ATOM     46  C   UNL A   1      43.338  26.515  27.461  1.00  0.00     0.031 C 
ATOM     47  C   UNL A   1      38.916  28.480  28.859  1.00  0.00     0.029 A 
ATOM     48  N   UNL A   1      40.739  29.741  29.149  1.00  0.00    -0.354 N 
ATOM     49  C   UNL A   1      44.664  28.262  28.109  1.00  0.00     0.074 A 
ATOM     50  C   UNL A   1      44.595  26.909  27.603  1.00  0.00     0.031 C 
ATOM     51  C   UNL A   1      38.518  29.644  29.398  1.00  0.00     0.029 A 
ATOM     52  C   UNL A   1      39.685  30.490  29.620  1.00  0.00     0.049 A 
ATOM     53  H   UNL A   1      41.671  30.056  29.162  1.00  0.00     0.167 HD
ATOM     54  C   UNL A   1      45.812  28.970  28.246  1.00  0.00     0.037 A 
ATOM     55  C   UNL A   1      39.660  31.719  30.173  1.00  0.00     0.037 A 
ATOM     56  C   UNL A   1      45.871  30.324  28.735  1.00  0.00     0.049 A 
ATOM     57  C   UNL A   1      40.947  32.486  30.309  1.00  0.00     0.074 A 
ATOM     58  C   UNL A   1      46.978  31.146  28.858  1.00  0.00     0.029 A 
ATOM     59  N   UNL A   1      44.782  31.054  29.188  1.00  0.00    -0.354 N 
ATOM     60  N   UNL A   1      42.165  32.121  29.980  1.00  0.00    -0.248 NA
ATOM     61  C   UNL A   1      40.858  33.838  30.877  1.00  0.00     0.031 C 
ATOM     62  C   UNL A   1      46.567  32.351  29.438  1.00  0.00     0.029 A 
ATOM     63  C   UNL A   1      45.193  32.308  29.612  1.00  0.00     0.049 A 
ATOM     64  H   UNL A   1      43.852  30.730  29.205  1.00  0.00     0.167 HD
ATOM     65  C   UNL A   1      42.979  33.211  30.270  1.00  0.00     0.074 A 
ATOM     66  C   UNL A   1      42.114  34.251  30.786  1.00  0.00     0.031 C 
ATOM     67  C   UNL A   1      44.322  33.338  30.121  1.00  0.00     0.037 A 
BRANCH  54  68
ATOM     68  C   UNL A   1      47.103  28.296  27.860  1.00  0.00     0.058 A 
ATOM     69  C   UNL A   1      47.840  27.525  28.775  1.00  0.00     0.135 A 
ATOM     70  C   UNL A   1      47.586  28.380  26.543  1.00  0.00     0.135 A 
ATOM     71  F   UNL A   1      47.435  27.420  30.050  1.00  0.00    -0.206 F 
ATOM     72  C   UNL A   1      49.019  26.885  28.407  1.00  0.00     0.059 A 
ATOM     73  C   UNL A   1      48.746  27.722  26.144  1.00  0.00     0.059 A 
ATOM     74  F   UNL A   1      46.926  29.103  25.625  1.00  0.00    -0.206 F 
ATOM     75  C   UNL A   1      49.463  26.987  27.086  1.00  0.00     0.060 A 
BRANCH  75  76
ATOM     76  S   UNL A   1      50.987  26.136  26.623  1.00  0.00     0.124 S 
ATOM     77  O   UNL A   1      51.999  27.031  27.177  1.00  0.00    -0.237 OA
ATOM     78  O   UNL A   1      50.841  24.850  27.297  1.00  0.00    -0.237 OA
ATOM     79  O   UNL A   1      50.921  26.090  25.166  1.00  0.00    -0.744 OA
ENDBRANCH  75  76
ENDBRANCH  54  68
BRANCH  55  80
ATOM     80  C   UNL A   1      38.368  32.309  30.618  1.00  0.00     0.058 A 
ATOM     81  C   UNL A   1      37.813  31.988  31.866  1.00  0.00     0.135 A 
ATOM     82  C   UNL A   1      37.664  33.211  29.805  1.00  0.00     0.135 A 
ATOM     83  F   UNL A   1      38.444  31.127  32.679  1.00  0.00    -0.206 F 
ATOM     84  C   UNL A   1      36.598  32.521  32.283  1.00  0.00     0.059 A 
ATOM     85  C   UNL A   1      36.463  33.782  30.213  1.00  0.00     0.059 A 
ATOM     86  F   UNL A   1      38.160  33.568  28.609  1.00  0.00    -0.206 F 
ATOM     87  C   UNL A   1      35.931  33.420  31.449  1.00  0.00     0.060 A 
BRANCH  87  88
ATOM     88  S   UNL A   1      34.376  34.140  32.018  1.00  0.00     0.124 S 
ATOM     89  O   UNL A   1      33.716  34.449  30.755  1.00  0.00    -0.237 OA
ATOM     90  O   UNL A   1      33.798  33.046  32.791  1.00  0.00    -0.237 OA
ATOM     91  O   UNL A   1      34.808  35.293  32.803  1.00  0.00    -0.744 OA
ENDBRANCH  87  88
ENDBRANCH  55  80
BRANCH  67  92
ATOM     92  C   UNL A   1      44.932  34.670  30.473  1.00  0.00     0.058 A 
ATOM     93  C   UNL A   1      45.426  34.948  31.759  1.00  0.00     0.135 A 
ATOM     94  C   UNL A   1      45.042  35.676  29.500  1.00  0.00     0.135 A 
ATOM     95  F   UNL A   1      45.344  34.023  32.729  1.00  0.00    -0.206 F 
ATOM     96  C   UNL A   1      45.962  36.191  32.078  1.00  0.00     0.059 A 
ATOM     97  C   UNL A   1      45.609  36.914  29.787  1.00  0.00     0.059 A 
ATOM     98  F   UNL A   1      44.602  35.462  28.250  1.00  0.00    -0.206 F 
ATOM     99  C   UNL A   1      46.046  37.169  31.086  1.00  0.00     0.060 A 
BRANCH  99 100
ATOM    100  S   UNL A   1      46.743  38.779  31.513  1.00  0.00     0.124 S 
ATOM    101  O   UNL A   1      48.158  38.456  31.660  1.00  0.00    -0.237 OA
ATOM    102  O   UNL A   1      46.394  39.588  30.348  1.00  0.00    -0.237 OA
ATOM    103  O   UNL A   1      46.048  39.135  32.747  1.00  0.00    -0.744 OA
ENDBRANCH  99 100
ENDBRANCH  67  92
ENDBRANCH  41  42
ENDBRANCH  33  36
ENDBRANCH  31  32
ENDBRANCH  30  31
ENDBRANCH   1  30
TORSDOF 17
ENDMDL
MODEL 2
REMARK VINA RESULT:     -11.8      5.110      6.732
REMARK SMILES O=C(COCC(=O)/[NH+]=C1\S[C@@H]2CS(=O)(=O)C[C@H]2N1c1ccc(Cl)cc1)NCCCNC(=O)c1ccc(-c2c3nc(c(-c4c(F)cc(S(=O)(=O)[O-])cc4F)c4ccc([nH]4)c(-c4c(F)cc(S(=O)(=O)[O-])cc4F)c4nc(c(-c5c(F)cc(S(=O)(=O)[O-])cc5F)c5ccc2[nH]5)C=C4)C=C3)cc1
REMARK SMILES IDX 27 1 26 2 2 3 1 4 3 6 4 7 5 8 6 9 7 10 8 11 9 12 10 14 18 15
REMARK SMILES IDX 11 16 17 17 12 18 16 19 13 20 14 21 15 22 19 23 20 24 25 25
REMARK SMILES IDX 21 26 24 27 22 28 23 29 28 30 29 31 30 32 31 33 32 35 33 36
REMARK SMILES IDX 34 37 98 38 35 39 97 40 36 41 37 42 38 43 91 44 39 45 96 46
REMARK SMILES IDX 90 47 92 48 40 49 95 50 89 51 88 52 41 54 75 55 54 56 74 57
REMARK SMILES IDX 55 58 58 59 73 60 93 61 56 62 57 63 72 65 94 66 59 67 42 68
REMARK SMILES IDX 43 69 52 70 44 71 45 72 51 73 53 74 46 75 47 76 48 77 49 78
REMARK SMILES IDX 50 79 76 80 77 81 86 82 78 83 79 84 85 85 87 86 80 87 81 88
REMARK SMILES IDX 82 89 83 90 84 91 60 92 61 93 70 94 62 95 63 96 69 97 71 98
REMARK SMILES IDX 64 99 65 100 66 101 67 102 68 103
REMARK H PARENT 26 5 8 13 30 34 92 53 58 64
REMARK Flexibility Score: inf
ROOT
ATOM      1  C   UNL A   1      37.737  23.355  25.784  1.00  0.00     0.117 C 
ENDROOT
BRANCH   1   2
ATOM      2  N   UNL A   1      37.470  22.976  24.408  1.00  0.00    -0.354 N 
ATOM      3  C   UNL A   1      36.377  23.273  23.643  1.00  0.00     0.246 C 
ATOM      4  O   UNL A   1      36.350  22.914  22.466  1.00  0.00    -0.272 OA
ATOM      5  H   UNL A   1      38.166  22.435  23.969  1.00  0.00     0.163 HD
BRANCH   3   6
ATOM      6  C   UNL A   1      35.211  24.038  24.273  1.00  0.00     0.260 C 
BRANCH   6   7
ATOM      7  O   UNL A   1      34.090  24.157  23.411  1.00  0.00    -0.359 OA
BRANCH   7   8
ATOM      8  C   UNL A   1      32.910  23.585  23.963  1.00  0.00     0.288 C 
BRANCH   8   9
ATOM      9  C   UNL A   1      31.559  24.230  23.588  1.00  0.00     0.333 C 
ATOM     10  O   UNL A   1      30.577  23.511  23.405  1.00  0.00    -0.244 OA
ATOM     11  N   UNL A   1      31.481  25.590  23.404  1.00  0.00    -0.202 N 
ATOM     12  C   UNL A   1      31.794  26.439  24.323  1.00  0.00     0.319 C 
ATOM     13  H   UNL A   1      31.172  25.931  22.533  1.00  0.00     0.316 HD
ATOM     14  S   UNL A   1      32.521  26.028  25.913  1.00  0.00    -0.029 SA
ATOM     15  N   UNL A   1      31.669  27.837  24.241  1.00  0.00    -0.217 N 
ATOM     16  C   UNL A   1      33.287  27.659  25.950  1.00  0.00     0.120 C 
ATOM     17  C   UNL A   1      32.104  28.513  25.479  1.00  0.00     0.212 C 
ATOM     18  C   UNL A   1      33.808  28.243  27.237  1.00  0.00     0.156 C 
ATOM     19  C   UNL A   1      32.659  29.915  25.446  1.00  0.00     0.188 C 
ATOM     20  S   UNL A   1      33.584  30.007  26.978  1.00  0.00     0.155 S 
ATOM     21  O   UNL A   1      34.866  30.613  26.682  1.00  0.00    -0.229 OA
ATOM     22  O   UNL A   1      32.702  30.513  28.004  1.00  0.00    -0.229 OA
BRANCH  15  23
ATOM     23  C   UNL A   1      30.752  28.488  23.396  1.00  0.00     0.128 A 
ATOM     24  C   UNL A   1      31.184  29.384  22.404  1.00  0.00     0.053 A 
ATOM     25  C   UNL A   1      29.369  28.266  23.497  1.00  0.00     0.053 A 
ATOM     26  C   UNL A   1      30.278  30.067  21.584  1.00  0.00     0.025 A 
ATOM     27  C   UNL A   1      28.454  28.939  22.675  1.00  0.00     0.025 A 
ATOM     28  C   UNL A   1      28.913  29.846  21.728  1.00  0.00     0.041 A 
ATOM     29  Cl  UNL A   1      27.800  30.688  20.723  1.00  0.00    -0.084 Cl
ENDBRANCH  15  23
ENDBRANCH   8   9
ENDBRANCH   7   8
ENDBRANCH   6   7
ENDBRANCH   3   6
ENDBRANCH   1   2
BRANCH   1  30
ATOM     30  C   UNL A   1      38.807  22.491  26.447  1.00  0.00     0.042 C 
BRANCH  30  31
ATOM     31  C   UNL A   1      39.951  23.269  27.094  1.00  0.00     0.118 C 
BRANCH  31  32
ATOM     32  N   UNL A   1      40.749  24.014  26.133  1.00  0.00    -0.352 N 
ATOM     33  C   UNL A   1      41.186  25.315  26.145  1.00  0.00     0.251 C 
ATOM     34  H   UNL A   1      41.021  23.499  25.339  1.00  0.00     0.163 HD
ATOM     35  O   UNL A   1      41.713  25.770  25.132  1.00  0.00    -0.269 OA
BRANCH  33  36
ATOM     36  C   UNL A   1      41.020  26.177  27.339  1.00  0.00     0.039 A 
ATOM     37  C   UNL A   1      41.960  27.187  27.566  1.00  0.00     0.014 A 
ATOM     38  C   UNL A   1      39.989  25.975  28.260  1.00  0.00     0.014 A 
ATOM     39  C   UNL A   1      41.838  28.018  28.682  1.00  0.00     0.010 A 
ATOM     40  C   UNL A   1      39.819  26.858  29.327  1.00  0.00     0.010 A 
ATOM     41  C   UNL A   1      40.747  27.884  29.557  1.00  0.00    -0.014 A 
BRANCH  41  42
ATOM     42  C   UNL A   1      40.576  28.812  30.708  1.00  0.00     0.031 A 
ATOM     43  C   UNL A   1      41.426  28.670  31.944  1.00  0.00     0.074 A 
ATOM     44  C   UNL A   1      39.625  29.767  30.651  1.00  0.00     0.049 A 
ATOM     45  N   UNL A   1      41.412  29.383  33.041  1.00  0.00    -0.248 NA
ATOM     46  C   UNL A   1      42.403  27.570  31.961  1.00  0.00     0.031 C 
ATOM     47  C   UNL A   1      38.700  29.972  29.534  1.00  0.00     0.029 A 
ATOM     48  N   UNL A   1      39.277  30.744  31.551  1.00  0.00    -0.354 N 
ATOM     49  C   UNL A   1      42.367  28.816  33.879  1.00  0.00     0.074 A 
ATOM     50  C   UNL A   1      42.900  27.663  33.186  1.00  0.00     0.031 C 
ATOM     51  C   UNL A   1      37.914  31.027  29.800  1.00  0.00     0.029 A 
ATOM     52  C   UNL A   1      38.249  31.550  31.120  1.00  0.00     0.049 A 
ATOM     53  H   UNL A   1      39.722  30.857  32.422  1.00  0.00     0.167 HD
ATOM     54  C   UNL A   1      42.778  29.232  35.101  1.00  0.00     0.037 A 
ATOM     55  C   UNL A   1      37.640  32.591  31.721  1.00  0.00     0.037 A 
ATOM     56  C   UNL A   1      42.254  30.391  35.778  1.00  0.00     0.049 A 
ATOM     57  C   UNL A   1      38.119  33.036  33.076  1.00  0.00     0.074 A 
ATOM     58  C   UNL A   1      42.643  30.926  36.994  1.00  0.00     0.029 A 
ATOM     59  N   UNL A   1      41.224  31.191  35.304  1.00  0.00    -0.354 N 
ATOM     60  N   UNL A   1      39.073  32.529  33.823  1.00  0.00    -0.248 NA
ATOM     61  C   UNL A   1      37.451  34.203  33.667  1.00  0.00     0.031 C 
ATOM     62  C   UNL A   1      41.812  32.014  37.281  1.00  0.00     0.029 A 
ATOM     63  C   UNL A   1      40.950  32.200  36.212  1.00  0.00     0.049 A 
ATOM     64  H   UNL A   1      40.757  31.060  34.446  1.00  0.00     0.167 HD
ATOM     65  C   UNL A   1      39.139  33.336  34.953  1.00  0.00     0.074 A 
ATOM     66  C   UNL A   1      38.142  34.372  34.784  1.00  0.00     0.031 C 
ATOM     67  C   UNL A   1      39.955  33.230  36.032  1.00  0.00     0.037 A 
BRANCH  54  68
ATOM     68  C   UNL A   1      43.851  28.430  35.792  1.00  0.00     0.058 A 
ATOM     69  C   UNL A   1      45.217  28.700  35.601  1.00  0.00     0.135 A 
ATOM     70  C   UNL A   1      43.510  27.410  36.695  1.00  0.00     0.135 A 
ATOM     71  F   UNL A   1      45.604  29.652  34.739  1.00  0.00    -0.206 F 
ATOM     72  C   UNL A   1      46.203  27.972  36.259  1.00  0.00     0.059 A 
ATOM     73  C   UNL A   1      44.479  26.691  37.390  1.00  0.00     0.059 A 
ATOM     74  F   UNL A   1      42.221  27.107  36.918  1.00  0.00    -0.206 F 
ATOM     75  C   UNL A   1      45.824  26.970  37.155  1.00  0.00     0.060 A 
BRANCH  75  76
ATOM     76  S   UNL A   1      47.117  26.048  38.013  1.00  0.00     0.124 S 
ATOM     77  O   UNL A   1      46.528  25.886  39.339  1.00  0.00    -0.237 OA
ATOM     78  O   UNL A   1      47.216  24.833  37.212  1.00  0.00    -0.237 OA
ATOM     79  O   UNL A   1      48.272  26.938  37.945  1.00  0.00    -0.744 OA
ENDBRANCH  75  76
ENDBRANCH  54  68
BRANCH  55  80
ATOM     80  C   UNL A   1      36.526  33.300  31.034  1.00  0.00     0.058 A 
ATOM     81  C   UNL A   1      36.767  34.152  29.945  1.00  0.00     0.135 A 
ATOM     82  C   UNL A   1      35.195  33.135  31.448  1.00  0.00     0.135 A 
ATOM     83  F   UNL A   1      38.023  34.348  29.512  1.00  0.00    -0.206 F 
ATOM     84  C   UNL A   1      35.735  34.832  29.308  1.00  0.00     0.059 A 
ATOM     85  C   UNL A   1      34.142  33.779  30.807  1.00  0.00     0.059 A 
ATOM     86  F   UNL A   1      34.906  32.315  32.472  1.00  0.00    -0.206 F 
ATOM     87  C   UNL A   1      34.424  34.637  29.745  1.00  0.00     0.060 A 
BRANCH  87  88
ATOM     88  S   UNL A   1      33.086  35.490  28.883  1.00  0.00     0.124 S 
ATOM     89  O   UNL A   1      33.824  36.468  28.092  1.00  0.00    -0.237 OA
ATOM     90  O   UNL A   1      32.462  34.402  28.136  1.00  0.00    -0.237 OA
ATOM     91  O   UNL A   1      32.281  36.036  29.971  1.00  0.00    -0.744 OA
ENDBRANCH  87  88
ENDBRANCH  55  80
BRANCH  67  92
ATOM     92  C   UNL A   1      39.838  34.292  37.094  1.00  0.00     0.058 A 
ATOM     93  C   UNL A   1      39.004  34.139  38.214  1.00  0.00     0.135 A 
ATOM     94  C   UNL A   1      40.590  35.475  36.996  1.00  0.00     0.135 A 
ATOM     95  F   UNL A   1      38.261  33.030  38.357  1.00  0.00    -0.206 F 
ATOM     96  C   UNL A   1      38.885  35.139  39.173  1.00  0.00     0.059 A 
ATOM     97  C   UNL A   1      40.513  36.472  37.963  1.00  0.00     0.059 A 
ATOM     98  F   UNL A   1      41.415  35.669  35.956  1.00  0.00    -0.206 F 
ATOM     99  C   UNL A   1      39.641  36.305  39.037  1.00  0.00     0.060 A 
BRANCH  99 100
ATOM    100  S   UNL A   1      39.476  37.596  40.287  1.00  0.00     0.124 S 
ATOM    101  O   UNL A   1      38.204  38.206  39.913  1.00  0.00    -0.237 OA
ATOM    102  O   UNL A   1      39.471  36.829  41.529  1.00  0.00    -0.237 OA
ATOM    103  O   UNL A   1      40.657  38.428  40.076  1.00  0.00    -0.744 OA
ENDBRANCH  99 100
ENDBRANCH  67  92
ENDBRANCH  41  42
ENDBRANCH  33  36
ENDBRANCH  31  32
ENDBRANCH  30  31
ENDBRANCH   1  30
TORSDOF 17
ENDMDL
MODEL 3
REMARK VINA RESULT:     -11.5      5.237      9.543
REMARK SMILES O=C(COCC(=O)/[NH+]=C1\S[C@@H]2CS(=O)(=O)C[C@H]2N1c1ccc(Cl)cc1)NCCCNC(=O)c1ccc(-c2c3nc(c(-c4c(F)cc(S(=O)(=O)[O-])cc4F)c4ccc([nH]4)c(-c4c(F)cc(S(=O)(=O)[O-])cc4F)c4nc(c(-c5c(F)cc(S(=O)(=O)[O-])cc5F)c5ccc2[nH]5)C=C4)C=C3)cc1
REMARK SMILES IDX 27 1 26 2 2 3 1 4 3 6 4 7 5 8 6 9 7 10 8 11 9 12 10 14 18 15
REMARK SMILES IDX 11 16 17 17 12 18 16 19 13 20 14 21 15 22 19 23 20 24 25 25
REMARK SMILES IDX 21 26 24 27 22 28 23 29 28 30 29 31 30 32 31 33 32 35 33 36
REMARK SMILES IDX 34 37 98 38 35 39 97 40 36 41 37 42 38 43 91 44 39 45 96 46
REMARK SMILES IDX 90 47 92 48 40 49 95 50 89 51 88 52 41 54 75 55 54 56 74 57
REMARK SMILES IDX 55 58 58 59 73 60 93 61 56 62 57 63 72 65 94 66 59 67 42 68
REMARK SMILES IDX 43 69 52 70 44 71 45 72 51 73 53 74 46 75 47 76 48 77 49 78
REMARK SMILES IDX 50 79 76 80 77 81 86 82 78 83 79 84 85 85 87 86 80 87 81 88
REMARK SMILES IDX 82 89 83 90 84 91 60 92 61 93 70 94 62 95 63 96 69 97 71 98
REMARK SMILES IDX 64 99 65 100 66 101 67 102 68 103
REMARK H PARENT 26 5 8 13 30 34 92 53 58 64
REMARK Flexibility Score: inf
ROOT
ATOM      1  C   UNL A   1      37.651  23.370  25.754  1.00  0.00     0.117 C 
ENDROOT
BRANCH   1   2
ATOM      2  N   UNL A   1      37.444  22.998  24.366  1.00  0.00    -0.354 N 
ATOM      3  C   UNL A   1      36.375  23.278  23.562  1.00  0.00     0.246 C 
ATOM      4  O   UNL A   1      36.400  22.930  22.382  1.00  0.00    -0.272 OA
ATOM      5  H   UNL A   1      38.168  22.476  23.949  1.00  0.00     0.163 HD
BRANCH   3   6
ATOM      6  C   UNL A   1      35.170  24.013  24.154  1.00  0.00     0.260 C 
BRANCH   6   7
ATOM      7  O   UNL A   1      34.027  23.980  23.313  1.00  0.00    -0.359 OA
BRANCH   7   8
ATOM      8  C   UNL A   1      32.862  23.521  23.988  1.00  0.00     0.288 C 
BRANCH   8   9
ATOM      9  C   UNL A   1      31.517  24.184  23.623  1.00  0.00     0.333 C 
ATOM     10  O   UNL A   1      30.521  23.479  23.455  1.00  0.00    -0.244 OA
ATOM     11  N   UNL A   1      31.456  25.544  23.432  1.00  0.00    -0.202 N 
ATOM     12  C   UNL A   1      31.792  26.394  24.342  1.00  0.00     0.319 C 
ATOM     13  H   UNL A   1      31.143  25.884  22.562  1.00  0.00     0.316 HD
ATOM     14  S   UNL A   1      32.529  25.982  25.926  1.00  0.00    -0.029 SA
ATOM     15  N   UNL A   1      31.686  27.794  24.252  1.00  0.00    -0.217 N 
ATOM     16  C   UNL A   1      33.319  27.602  25.945  1.00  0.00     0.120 C 
ATOM     17  C   UNL A   1      32.144  28.470  25.481  1.00  0.00     0.212 C 
ATOM     18  C   UNL A   1      33.863  28.187  27.223  1.00  0.00     0.156 C 
ATOM     19  C   UNL A   1      32.719  29.864  25.433  1.00  0.00     0.188 C 
ATOM     20  S   UNL A   1      33.662  29.952  26.955  1.00  0.00     0.155 S 
ATOM     21  O   UNL A   1      34.949  30.537  26.641  1.00  0.00    -0.229 OA
ATOM     22  O   UNL A   1      32.798  30.477  27.987  1.00  0.00    -0.229 OA
BRANCH  15  23
ATOM     23  C   UNL A   1      30.769  28.453  23.412  1.00  0.00     0.128 A 
ATOM     24  C   UNL A   1      31.204  29.334  22.408  1.00  0.00     0.053 A 
ATOM     25  C   UNL A   1      29.384  28.254  23.532  1.00  0.00     0.053 A 
ATOM     26  C   UNL A   1      30.299  30.024  21.593  1.00  0.00     0.025 A 
ATOM     27  C   UNL A   1      28.471  28.935  22.715  1.00  0.00     0.025 A 
ATOM     28  C   UNL A   1      28.933  29.827  21.755  1.00  0.00     0.041 A 
ATOM     29  Cl  UNL A   1      27.822  30.678  20.757  1.00  0.00    -0.084 Cl
ENDBRANCH  15  23
ENDBRANCH   8   9
ENDBRANCH   7   8
ENDBRANCH   6   7
ENDBRANCH   3   6
ENDBRANCH   1   2
BRANCH   1  30
ATOM     30  C   UNL A   1      38.743  22.551  26.437  1.00  0.00     0.042 C 
BRANCH  30  31
ATOM     31  C   UNL A   1      39.881  23.373  27.040  1.00  0.00     0.118 C 
BRANCH  31  32
ATOM     32  N   UNL A   1      40.606  24.155  26.050  1.00  0.00    -0.352 N 
ATOM     33  C   UNL A   1      41.015  25.465  26.064  1.00  0.00     0.251 C 
ATOM     34  H   UNL A   1      40.842  23.661  25.231  1.00  0.00     0.163 HD
ATOM     35  O   UNL A   1      41.472  25.951  25.032  1.00  0.00    -0.269 OA
BRANCH  33  36
ATOM     36  C   UNL A   1      40.901  26.299  27.284  1.00  0.00     0.039 A 
ATOM     37  C   UNL A   1      41.817  27.340  27.465  1.00  0.00     0.014 A 
ATOM     38  C   UNL A   1      39.944  26.042  28.269  1.00  0.00     0.014 A 
ATOM     39  C   UNL A   1      41.741  28.147  28.603  1.00  0.00     0.010 A 
ATOM     40  C   UNL A   1      39.816  26.900  29.363  1.00  0.00     0.010 A 
ATOM     41  C   UNL A   1      40.720  27.956  29.549  1.00  0.00    -0.014 A 
BRANCH  41  42
ATOM     42  C   UNL A   1      40.595  28.856  30.727  1.00  0.00     0.031 A 
ATOM     43  C   UNL A   1      39.548  29.939  30.760  1.00  0.00     0.074 A 
ATOM     44  C   UNL A   1      41.453  28.718  31.759  1.00  0.00     0.049 A 
ATOM     45  N   UNL A   1      39.298  30.816  31.699  1.00  0.00    -0.248 NA
ATOM     46  C   UNL A   1      38.684  30.070  29.576  1.00  0.00     0.031 C 
ATOM     47  C   UNL A   1      42.546  27.745  31.823  1.00  0.00     0.029 A 
ATOM     48  N   UNL A   1      41.543  29.395  32.950  1.00  0.00    -0.354 N 
ATOM     49  C   UNL A   1      38.258  31.605  31.217  1.00  0.00     0.074 A 
ATOM     50  C   UNL A   1      37.964  31.141  29.879  1.00  0.00     0.031 C 
ATOM     51  C   UNL A   1      43.175  27.865  33.004  1.00  0.00     0.029 A 
ATOM     52  C   UNL A   1      42.558  28.948  33.763  1.00  0.00     0.049 A 
ATOM     53  H   UNL A   1      40.938  30.130  33.199  1.00  0.00     0.167 HD
ATOM     54  C   UNL A   1      37.594  32.608  31.842  1.00  0.00     0.037 A 
ATOM     55  C   UNL A   1      42.953  29.363  34.983  1.00  0.00     0.037 A 
ATOM     56  C   UNL A   1      37.881  33.054  33.181  1.00  0.00     0.049 A 
ATOM     57  C   UNL A   1      42.196  30.475  35.657  1.00  0.00     0.074 A 
ATOM     58  C   UNL A   1      37.230  34.025  33.923  1.00  0.00     0.029 A 
ATOM     59  N   UNL A   1      38.907  32.568  33.979  1.00  0.00    -0.354 N 
ATOM     60  N   UNL A   1      41.169  31.163  35.214  1.00  0.00    -0.248 NA
ATOM     61  C   UNL A   1      42.639  30.860  37.004  1.00  0.00     0.031 C 
ATOM     62  C   UNL A   1      37.895  34.164  35.146  1.00  0.00     0.029 A 
ATOM     63  C   UNL A   1      38.920  33.232  35.195  1.00  0.00     0.049 A 
ATOM     64  H   UNL A   1      39.533  31.853  33.720  1.00  0.00     0.167 HD
ATOM     65  C   UNL A   1      40.825  32.036  36.240  1.00  0.00     0.074 A 
ATOM     66  C   UNL A   1      41.742  31.778  37.330  1.00  0.00     0.031 C 
ATOM     67  C   UNL A   1      39.837  32.965  36.276  1.00  0.00     0.037 A 
BRANCH  54  68
ATOM     68  C   UNL A   1      36.486  33.295  31.085  1.00  0.00     0.058 A 
ATOM     69  C   UNL A   1      35.134  33.108  31.418  1.00  0.00     0.135 A 
ATOM     70  C   UNL A   1      36.782  34.193  30.046  1.00  0.00     0.135 A 
ATOM     71  F   UNL A   1      34.790  32.252  32.392  1.00  0.00    -0.206 F 
ATOM     72  C   UNL A   1      34.117  33.764  30.732  1.00  0.00     0.059 A 
ATOM     73  C   UNL A   1      35.783  34.885  29.368  1.00  0.00     0.059 A 
ATOM     74  F   UNL A   1      38.056  34.412  29.683  1.00  0.00    -0.206 F 
ATOM     75  C   UNL A   1      34.452  34.654  29.709  1.00  0.00     0.060 A 
BRANCH  75  76
ATOM     76  S   UNL A   1      33.118  35.508  28.842  1.00  0.00     0.124 S 
ATOM     77  O   UNL A   1      32.343  36.044  29.957  1.00  0.00    -0.237 OA
ATOM     78  O   UNL A   1      33.846  36.492  28.046  1.00  0.00    -0.237 OA
ATOM     79  O   UNL A   1      32.470  34.445  28.081  1.00  0.00    -0.744 OA
ENDBRANCH  75  76
ENDBRANCH  54  68
BRANCH  55  80
ATOM     80  C   UNL A   1      44.108  28.708  35.655  1.00  0.00     0.058 A 
ATOM     81  C   UNL A   1      43.921  27.644  36.550  1.00  0.00     0.135 A 
ATOM     82  C   UNL A   1      45.425  29.130  35.412  1.00  0.00     0.135 A 
ATOM     83  F   UNL A   1      42.682  27.205  36.821  1.00  0.00    -0.206 F 
ATOM     84  C   UNL A   1      44.993  27.036  37.197  1.00  0.00     0.059 A 
ATOM     85  C   UNL A   1      46.515  28.519  36.022  1.00  0.00     0.059 A 
ATOM     86  F   UNL A   1      45.661  30.132  34.549  1.00  0.00    -0.206 F 
ATOM     87  C   UNL A   1      46.288  27.481  36.924  1.00  0.00     0.060 A 
BRANCH  87  88
ATOM     88  S   UNL A   1      47.675  26.657  37.734  1.00  0.00     0.124 S 
ATOM     89  O   UNL A   1      47.753  27.386  38.995  1.00  0.00    -0.237 OA
ATOM     90  O   UNL A   1      47.204  25.279  37.820  1.00  0.00    -0.237 OA
ATOM     91  O   UNL A   1      48.782  26.878  36.809  1.00  0.00    -0.744 OA
ENDBRANCH  87  88
ENDBRANCH  55  80
BRANCH  67  92
ATOM     92  C   UNL A   1      39.663  33.739  37.557  1.00  0.00     0.058 A 
ATOM     93  C   UNL A   1      38.800  33.309  38.578  1.00  0.00     0.135 A 
ATOM     94  C   UNL A   1      40.391  34.921  37.772  1.00  0.00     0.135 A 
ATOM     95  F   UNL A   1      38.078  32.187  38.425  1.00  0.00    -0.206 F 
ATOM     96  C   UNL A   1      38.629  34.047  39.744  1.00  0.00     0.059 A 
ATOM     97  C   UNL A   1      40.263  35.656  38.946  1.00  0.00     0.059 A 
ATOM     98  F   UNL A   1      41.243  35.373  36.838  1.00  0.00    -0.206 F 
ATOM     99  C   UNL A   1      39.362  35.222  39.918  1.00  0.00     0.060 A 
BRANCH  99 100
ATOM    100  S   UNL A   1      39.130  36.173  41.435  1.00  0.00     0.124 S 
ATOM    101  O   UNL A   1      40.371  35.893  42.149  1.00  0.00    -0.237 OA
ATOM    102  O   UNL A   1      38.982  37.534  40.929  1.00  0.00    -0.237 OA
ATOM    103  O   UNL A   1      37.924  35.593  42.020  1.00  0.00    -0.744 OA
ENDBRANCH  99 100
ENDBRANCH  67  92
ENDBRANCH  41  42
ENDBRANCH  33  36
ENDBRANCH  31  32
ENDBRANCH  30  31
ENDBRANCH   1  30
TORSDOF 17
ENDMDL
