MODEL 1
REMARK VINA RESULT:      -9.9      0.000      0.000
REMARK SMILES C[C@@H](CCCO)[NH2+][C@@H](C)CC(=O)NCCCNC(=O)c1ccc(-c2c3nc(c(-c4c(F)cc(S(=O)(=O)[O-])cc4F)c4ccc([nH]4)c(-c4c(F)cc(S(=O)(=O)[O-])cc4F)c4nc(c(-c5c(F)cc(S(=O)(=O)[O-])cc5F)c5ccc2[nH]5)C=C4)C=C3)cc1
REMARK SMILES IDX 11 1 12 2 13 3 10 5 8 6 9 7 7 8 2 11 1 12 3 13 4 14 5 15
REMARK SMILES IDX 6 16 14 18 15 19 16 20 17 21 18 22 19 24 20 25 21 26 85 27
REMARK SMILES IDX 22 28 84 29 23 30 24 31 25 32 78 33 26 34 83 35 77 36 79 37
REMARK SMILES IDX 27 38 82 39 76 40 75 41 28 43 62 44 41 45 61 46 42 47 45 48
REMARK SMILES IDX 60 49 80 50 43 51 44 52 59 54 81 55 46 56 29 57 30 58 39 59
REMARK SMILES IDX 31 60 32 61 38 62 40 63 33 64 34 65 35 66 36 67 37 68 63 69
REMARK SMILES IDX 64 70 73 71 65 72 66 73 72 74 74 75 67 76 68 77 69 78 70 79
REMARK SMILES IDX 71 80 47 81 48 82 57 83 49 84 50 85 56 86 58 87 51 88 52 89
REMARK SMILES IDX 53 90 54 91 55 92
REMARK H PARENT 13 4 7 9 7 10 6 17 17 23 79 42 45 53
REMARK Flexibility Score: inf
ROOT
ATOM      1  C   UNL A   1      32.767  28.010  26.840  1.00  0.00     0.225 C 
ATOM      2  O   UNL A   1      31.578  27.707  26.964  1.00  0.00    -0.275 OA
ATOM      3  N   UNL A   1      33.214  29.141  27.455  1.00  0.00    -0.356 N 
ATOM      4  H   UNL A   1      32.560  29.585  28.041  1.00  0.00     0.163 HD
ENDROOT
BRANCH   1   5
ATOM      5  C   UNL A   1      33.714  27.121  26.058  1.00  0.00     0.164 C 
BRANCH   5   6
ATOM      6  C   UNL A   1      33.454  27.132  24.537  1.00  0.00     0.188 C 
ATOM      7  C   UNL A   1      33.790  28.521  23.978  1.00  0.00     0.075 C 
BRANCH   6   8
ATOM      8  N   UNL A   1      32.073  26.718  24.283  1.00  0.00    -0.341 N 
ATOM      9  H   UNL A   1      32.001  25.742  24.570  1.00  0.00     0.346 HD
ATOM     10  H   UNL A   1      31.523  27.401  24.804  1.00  0.00     0.346 HD
BRANCH   8  11
ATOM     11  C   UNL A   1      31.524  26.802  22.937  1.00  0.00     0.179 C 
ATOM     12  C   UNL A   1      31.402  25.382  22.371  1.00  0.00     0.075 C 
BRANCH  11  13
ATOM     13  C   UNL A   1      30.165  27.533  22.874  1.00  0.00     0.067 C 
BRANCH  13  14
ATOM     14  C   UNL A   1      30.054  28.952  23.460  1.00  0.00     0.034 C 
BRANCH  14  15
ATOM     15  C   UNL A   1      29.619  30.084  22.535  1.00  0.00     0.156 C 
BRANCH  15  16
ATOM     16  O   UNL A   1      30.216  30.001  21.250  1.00  0.00    -0.396 OA
ATOM     17  H   UNL A   1      30.946  30.636  21.191  1.00  0.00     0.210 HD
ENDBRANCH  15  16
ENDBRANCH  14  15
ENDBRANCH  13  14
ENDBRANCH  11  13
ENDBRANCH   8  11
ENDBRANCH   6   8
ENDBRANCH   5   6
ENDBRANCH   1   5
BRANCH   3  18
ATOM     18  C   UNL A   1      34.512  29.789  27.372  1.00  0.00     0.117 C 
BRANCH  18  19
ATOM     19  C   UNL A   1      34.428  31.261  27.759  1.00  0.00     0.042 C 
BRANCH  19  20
ATOM     20  C   UNL A   1      35.596  31.764  28.597  1.00  0.00     0.118 C 
BRANCH  20  21
ATOM     21  N   UNL A   1      35.517  31.321  29.979  1.00  0.00    -0.352 N 
ATOM     22  C   UNL A   1      36.370  30.531  30.712  1.00  0.00     0.251 C 
ATOM     23  H   UNL A   1      34.726  31.638  30.470  1.00  0.00     0.163 HD
ATOM     24  O   UNL A   1      35.993  30.122  31.809  1.00  0.00    -0.269 OA
BRANCH  22  25
ATOM     25  C   UNL A   1      37.715  30.149  30.207  1.00  0.00     0.039 A 
ATOM     26  C   UNL A   1      38.730  29.899  31.139  1.00  0.00     0.014 A 
ATOM     27  C   UNL A   1      38.012  30.095  28.844  1.00  0.00     0.014 A 
ATOM     28  C   UNL A   1      40.015  29.552  30.706  1.00  0.00     0.010 A 
ATOM     29  C   UNL A   1      39.270  29.669  28.413  1.00  0.00     0.010 A 
ATOM     30  C   UNL A   1      40.291  29.406  29.337  1.00  0.00    -0.014 A 
BRANCH  30  31
ATOM     31  C   UNL A   1      41.642  29.002  28.860  1.00  0.00     0.031 A 
ATOM     32  C   UNL A   1      42.748  30.021  28.760  1.00  0.00     0.074 A 
ATOM     33  C   UNL A   1      41.863  27.732  28.467  1.00  0.00     0.049 A 
ATOM     34  N   UNL A   1      43.967  29.877  28.304  1.00  0.00    -0.248 NA
ATOM     35  C   UNL A   1      42.438  31.387  29.211  1.00  0.00     0.031 C 
ATOM     36  C   UNL A   1      40.869  26.657  28.477  1.00  0.00     0.029 A 
ATOM     37  N   UNL A   1      42.996  27.129  27.974  1.00  0.00    -0.354 N 
ATOM     38  C   UNL A   1      44.560  31.131  28.396  1.00  0.00     0.074 A 
ATOM     39  C   UNL A   1      43.553  32.036  28.906  1.00  0.00     0.031 C 
ATOM     40  C   UNL A   1      41.438  25.525  28.033  1.00  0.00     0.029 A 
ATOM     41  C   UNL A   1      42.826  25.798  27.669  1.00  0.00     0.049 A 
ATOM     42  H   UNL A   1      43.848  27.605  27.851  1.00  0.00     0.167 HD
ATOM     43  C   UNL A   1      45.833  31.494  28.106  1.00  0.00     0.037 A 
ATOM     44  C   UNL A   1      43.686  24.901  27.150  1.00  0.00     0.037 A 
ATOM     45  C   UNL A   1      46.843  30.587  27.626  1.00  0.00     0.049 A 
ATOM     46  C   UNL A   1      45.094  25.326  26.832  1.00  0.00     0.074 A 
ATOM     47  C   UNL A   1      48.175  30.847  27.352  1.00  0.00     0.029 A 
ATOM     48  N   UNL A   1      46.634  29.243  27.347  1.00  0.00    -0.354 N 
ATOM     49  N   UNL A   1      45.649  26.506  26.976  1.00  0.00    -0.248 NA
ATOM     50  C   UNL A   1      45.993  24.299  26.287  1.00  0.00     0.031 C 
ATOM     51  C   UNL A   1      48.763  29.672  26.872  1.00  0.00     0.029 A 
ATOM     52  C   UNL A   1      47.809  28.667  26.889  1.00  0.00     0.049 A 
ATOM     53  H   UNL A   1      45.779  28.769  27.458  1.00  0.00     0.167 HD
ATOM     54  C   UNL A   1      46.970  26.356  26.565  1.00  0.00     0.074 A 
ATOM     55  C   UNL A   1      47.132  24.970  26.178  1.00  0.00     0.031 C 
ATOM     56  C   UNL A   1      47.959  27.283  26.515  1.00  0.00     0.037 A 
BRANCH  43  57
ATOM     57  C   UNL A   1      46.210  32.937  28.305  1.00  0.00     0.058 A 
ATOM     58  C   UNL A   1      46.718  33.404  29.529  1.00  0.00     0.135 A 
ATOM     59  C   UNL A   1      46.098  33.859  27.251  1.00  0.00     0.135 A 
ATOM     60  F   UNL A   1      46.835  32.569  30.575  1.00  0.00    -0.206 F 
ATOM     61  C   UNL A   1      47.071  34.737  29.710  1.00  0.00     0.059 A 
ATOM     62  C   UNL A   1      46.471  35.192  27.402  1.00  0.00     0.059 A 
ATOM     63  F   UNL A   1      45.621  33.468  26.059  1.00  0.00    -0.206 F 
ATOM     64  C   UNL A   1      46.941  35.625  28.642  1.00  0.00     0.060 A 
BRANCH  64  65
ATOM     65  S   UNL A   1      47.402  37.353  28.892  1.00  0.00     0.124 S 
ATOM     66  O   UNL A   1      48.767  37.217  29.394  1.00  0.00    -0.237 OA
ATOM     67  O   UNL A   1      47.278  37.907  27.545  1.00  0.00    -0.237 OA
ATOM     68  O   UNL A   1      46.423  37.832  29.857  1.00  0.00    -0.744 OA
ENDBRANCH  64  65
ENDBRANCH  43  57
BRANCH  44  69
ATOM     69  C   UNL A   1      43.243  23.500  26.915  1.00  0.00     0.058 A 
ATOM     70  C   UNL A   1      43.003  23.029  25.616  1.00  0.00     0.135 A 
ATOM     71  C   UNL A   1      43.065  22.603  27.980  1.00  0.00     0.135 A 
ATOM     72  F   UNL A   1      43.151  23.852  24.566  1.00  0.00    -0.206 F 
ATOM     73  C   UNL A   1      42.588  21.723  25.379  1.00  0.00     0.059 A 
ATOM     74  C   UNL A   1      42.676  21.283  27.766  1.00  0.00     0.059 A 
ATOM     75  F   UNL A   1      43.299  22.999  29.240  1.00  0.00    -0.206 F 
ATOM     76  C   UNL A   1      42.431  20.855  26.462  1.00  0.00     0.060 A 
BRANCH  76  77
ATOM     77  S   UNL A   1      41.947  19.146  26.141  1.00  0.00     0.124 S 
ATOM     78  O   UNL A   1      42.275  18.504  27.409  1.00  0.00    -0.237 OA
ATOM     79  O   UNL A   1      40.525  19.280  25.842  1.00  0.00    -0.237 OA
ATOM     80  O   UNL A   1      42.785  18.768  25.006  1.00  0.00    -0.744 OA
ENDBRANCH  76  77
ENDBRANCH  44  69
BRANCH  56  81
ATOM     81  C   UNL A   1      49.317  26.824  26.059  1.00  0.00     0.058 A 
ATOM     82  C   UNL A   1      49.743  26.986  24.732  1.00  0.00     0.135 A 
ATOM     83  C   UNL A   1      50.221  26.264  26.975  1.00  0.00     0.135 A 
ATOM     84  F   UNL A   1      48.914  27.509  23.815  1.00  0.00    -0.206 F 
ATOM     85  C   UNL A   1      51.011  26.587  24.324  1.00  0.00     0.059 A 
ATOM     86  C   UNL A   1      51.504  25.883  26.595  1.00  0.00     0.059 A 
ATOM     87  F   UNL A   1      49.867  26.097  28.260  1.00  0.00    -0.206 F 
ATOM     88  C   UNL A   1      51.886  26.038  25.264  1.00  0.00     0.060 A 
BRANCH  88  89
ATOM     89  S   UNL A   1      53.542  25.556  24.729  1.00  0.00     0.124 S 
ATOM     90  O   UNL A   1      53.527  24.120  24.980  1.00  0.00    -0.237 OA
ATOM     91  O   UNL A   1      53.545  25.954  23.324  1.00  0.00    -0.237 OA
ATOM     92  O   UNL A   1      54.419  26.338  25.596  1.00  0.00    -0.744 OA
ENDBRANCH  88  89
ENDBRANCH  56  81
ENDBRANCH  30  31
ENDBRANCH  22  25
ENDBRANCH  20  21
ENDBRANCH  19  20
ENDBRANCH  18  19
ENDBRANCH   3  18
TORSDOF 20
ENDMDL
MODEL 2
REMARK VINA RESULT:      -9.5      5.320      7.710
REMARK SMILES C[C@@H](CCCO)[NH2+][C@@H](C)CC(=O)NCCCNC(=O)c1ccc(-c2c3nc(c(-c4c(F)cc(S(=O)(=O)[O-])cc4F)c4ccc([nH]4)c(-c4c(F)cc(S(=O)(=O)[O-])cc4F)c4nc(c(-c5c(F)cc(S(=O)(=O)[O-])cc5F)c5ccc2[nH]5)C=C4)C=C3)cc1
REMARK SMILES IDX 11 1 12 2 13 3 10 5 8 6 9 7 7 8 2 11 1 12 3 13 4 14 5 15
REMARK SMILES IDX 6 16 14 18 15 19 16 20 17 21 18 22 19 24 20 25 21 26 85 27
REMARK SMILES IDX 22 28 84 29 23 30 24 31 25 32 78 33 26 34 83 35 77 36 79 37
REMARK SMILES IDX 27 38 82 39 76 40 75 41 28 43 62 44 41 45 61 46 42 47 45 48
REMARK SMILES IDX 60 49 80 50 43 51 44 52 59 54 81 55 46 56 29 57 30 58 39 59
REMARK SMILES IDX 31 60 32 61 38 62 40 63 33 64 34 65 35 66 36 67 37 68 63 69
REMARK SMILES IDX 64 70 73 71 65 72 66 73 72 74 74 75 67 76 68 77 69 78 70 79
REMARK SMILES IDX 71 80 47 81 48 82 57 83 49 84 50 85 56 86 58 87 51 88 52 89
REMARK SMILES IDX 53 90 54 91 55 92
REMARK H PARENT 13 4 7 9 7 10 6 17 17 23 79 42 45 53
REMARK Flexibility Score: inf
ROOT
ATOM      1  C   UNL A   1      32.899  35.958  30.629  1.00  0.00     0.225 C 
ATOM      2  O   UNL A   1      31.875  36.471  31.086  1.00  0.00    -0.275 OA
ATOM      3  N   UNL A   1      32.974  35.751  29.284  1.00  0.00    -0.356 N 
ATOM      4  H   UNL A   1      32.227  36.122  28.761  1.00  0.00     0.163 HD
ENDROOT
BRANCH   1   5
ATOM      5  C   UNL A   1      34.061  35.610  31.537  1.00  0.00     0.164 C 
BRANCH   5   6
ATOM      6  C   UNL A   1      33.682  35.567  33.033  1.00  0.00     0.188 C 
ATOM      7  C   UNL A   1      34.028  36.914  33.680  1.00  0.00     0.075 C 
BRANCH   6   8
ATOM      8  N   UNL A   1      34.348  34.427  33.665  1.00  0.00    -0.341 N 
ATOM      9  H   UNL A   1      33.837  34.226  34.524  1.00  0.00     0.346 HD
ATOM     10  H   UNL A   1      34.336  33.714  32.935  1.00  0.00     0.346 HD
BRANCH   8  11
ATOM     11  C   UNL A   1      35.757  34.515  34.025  1.00  0.00     0.179 C 
ATOM     12  C   UNL A   1      35.901  34.170  35.512  1.00  0.00     0.075 C 
BRANCH  11  13
ATOM     13  C   UNL A   1      36.667  33.612  33.164  1.00  0.00     0.067 C 
BRANCH  13  14
ATOM     14  C   UNL A   1      36.171  32.206  32.778  1.00  0.00     0.034 C 
BRANCH  14  15
ATOM     15  C   UNL A   1      35.508  32.023  31.417  1.00  0.00     0.156 C 
BRANCH  15  16
ATOM     16  O   UNL A   1      34.110  32.262  31.452  1.00  0.00    -0.396 OA
ATOM     17  H   UNL A   1      33.947  33.195  31.661  1.00  0.00     0.210 HD
ENDBRANCH  15  16
ENDBRANCH  14  15
ENDBRANCH  13  14
ENDBRANCH  11  13
ENDBRANCH   8  11
ENDBRANCH   6   8
ENDBRANCH   5   6
ENDBRANCH   1   5
BRANCH   3  18
ATOM     18  C   UNL A   1      33.991  35.063  28.508  1.00  0.00     0.117 C 
BRANCH  18  19
ATOM     19  C   UNL A   1      33.491  33.716  27.997  1.00  0.00     0.042 C 
BRANCH  19  20
ATOM     20  C   UNL A   1      34.531  32.605  28.014  1.00  0.00     0.118 C 
BRANCH  20  21
ATOM     21  N   UNL A   1      34.039  31.376  27.417  1.00  0.00    -0.352 N 
ATOM     22  C   UNL A   1      34.651  30.156  27.253  1.00  0.00     0.251 C 
ATOM     23  H   UNL A   1      33.117  31.423  27.076  1.00  0.00     0.163 HD
ATOM     24  O   UNL A   1      34.107  29.318  26.536  1.00  0.00    -0.269 OA
BRANCH  22  25
ATOM     25  C   UNL A   1      35.950  29.837  27.901  1.00  0.00     0.039 A 
ATOM     26  C   UNL A   1      35.935  29.307  29.197  1.00  0.00     0.014 A 
ATOM     27  C   UNL A   1      37.175  30.107  27.289  1.00  0.00     0.014 A 
ATOM     28  C   UNL A   1      37.136  29.006  29.850  1.00  0.00     0.010 A 
ATOM     29  C   UNL A   1      38.370  29.731  27.906  1.00  0.00     0.010 A 
ATOM     30  C   UNL A   1      38.366  29.190  29.199  1.00  0.00    -0.014 A 
BRANCH  30  31
ATOM     31  C   UNL A   1      39.653  28.842  29.865  1.00  0.00     0.031 A 
ATOM     32  C   UNL A   1      40.104  29.597  31.088  1.00  0.00     0.074 A 
ATOM     33  C   UNL A   1      40.440  27.881  29.342  1.00  0.00     0.049 A 
ATOM     34  N   UNL A   1      41.220  29.488  31.764  1.00  0.00    -0.248 NA
ATOM     35  C   UNL A   1      39.191  30.629  31.607  1.00  0.00     0.031 C 
ATOM     36  C   UNL A   1      40.139  27.100  28.140  1.00  0.00     0.029 A 
ATOM     37  N   UNL A   1      41.662  27.403  29.749  1.00  0.00    -0.354 N 
ATOM     38  C   UNL A   1      41.152  30.443  32.772  1.00  0.00     0.074 A 
ATOM     39  C   UNL A   1      39.906  31.156  32.591  1.00  0.00     0.031 C 
ATOM     40  C   UNL A   1      41.136  26.228  27.919  1.00  0.00     0.029 A 
ATOM     41  C   UNL A   1      42.166  26.412  28.939  1.00  0.00     0.049 A 
ATOM     42  H   UNL A   1      42.133  27.737  30.546  1.00  0.00     0.167 HD
ATOM     43  C   UNL A   1      42.033  30.689  33.772  1.00  0.00     0.037 A 
ATOM     44  C   UNL A   1      43.327  25.732  29.002  1.00  0.00     0.037 A 
ATOM     45  C   UNL A   1      43.258  29.958  33.968  1.00  0.00     0.049 A 
ATOM     46  C   UNL A   1      44.293  26.024  30.119  1.00  0.00     0.074 A 
ATOM     47  C   UNL A   1      44.191  30.097  34.981  1.00  0.00     0.029 A 
ATOM     48  N   UNL A   1      43.722  28.950  33.135  1.00  0.00    -0.354 N 
ATOM     49  N   UNL A   1      44.185  26.896  31.094  1.00  0.00    -0.248 NA
ATOM     50  C   UNL A   1      45.533  25.237  30.150  1.00  0.00     0.031 C 
ATOM     51  C   UNL A   1      45.238  29.202  34.740  1.00  0.00     0.029 A 
ATOM     52  C   UNL A   1      44.936  28.471  33.602  1.00  0.00     0.049 A 
ATOM     53  H   UNL A   1      43.259  28.624  32.330  1.00  0.00     0.167 HD
ATOM     54  C   UNL A   1      45.330  26.742  31.868  1.00  0.00     0.074 A 
ATOM     55  C   UNL A   1      46.111  25.688  31.255  1.00  0.00     0.031 C 
ATOM     56  C   UNL A   1      45.700  27.415  32.987  1.00  0.00     0.037 A 
BRANCH  43  57
ATOM     57  C   UNL A   1      41.700  31.793  34.739  1.00  0.00     0.058 A 
ATOM     58  C   UNL A   1      40.893  31.567  35.867  1.00  0.00     0.135 A 
ATOM     59  C   UNL A   1      42.223  33.084  34.558  1.00  0.00     0.135 A 
ATOM     60  F   UNL A   1      40.356  30.356  36.082  1.00  0.00    -0.206 F 
ATOM     61  C   UNL A   1      40.591  32.588  36.761  1.00  0.00     0.059 A 
ATOM     62  C   UNL A   1      41.956  34.114  35.457  1.00  0.00     0.059 A 
ATOM     63  F   UNL A   1      43.001  33.356  33.499  1.00  0.00    -0.206 F 
ATOM     64  C   UNL A   1      41.124  33.860  36.547  1.00  0.00     0.060 A 
BRANCH  64  65
ATOM     65  S   UNL A   1      40.723  35.175  37.717  1.00  0.00     0.124 S 
ATOM     66  O   UNL A   1      41.531  36.277  37.201  1.00  0.00    -0.237 OA
ATOM     67  O   UNL A   1      39.279  35.317  37.544  1.00  0.00    -0.237 OA
ATOM     68  O   UNL A   1      41.147  34.632  39.000  1.00  0.00    -0.744 OA
ENDBRANCH  64  65
ENDBRANCH  43  57
BRANCH  44  69
ATOM     69  C   UNL A   1      43.634  24.691  27.984  1.00  0.00     0.058 A 
ATOM     70  C   UNL A   1      43.180  23.373  28.143  1.00  0.00     0.135 A 
ATOM     71  C   UNL A   1      44.372  24.995  26.830  1.00  0.00     0.135 A 
ATOM     72  F   UNL A   1      42.478  23.033  29.235  1.00  0.00    -0.206 F 
ATOM     73  C   UNL A   1      43.458  22.388  27.201  1.00  0.00     0.059 A 
ATOM     74  C   UNL A   1      44.641  24.032  25.860  1.00  0.00     0.059 A 
ATOM     75  F   UNL A   1      44.814  26.244  26.623  1.00  0.00    -0.206 F 
ATOM     76  C   UNL A   1      44.187  22.729  26.060  1.00  0.00     0.060 A 
BRANCH  76  77
ATOM     77  S   UNL A   1      44.495  21.457  24.816  1.00  0.00     0.124 S 
ATOM     78  O   UNL A   1      45.792  20.940  25.239  1.00  0.00    -0.237 OA
ATOM     79  O   UNL A   1      43.358  20.562  25.004  1.00  0.00    -0.237 OA
ATOM     80  O   UNL A   1      44.492  22.207  23.563  1.00  0.00    -0.744 OA
ENDBRANCH  76  77
ENDBRANCH  44  69
BRANCH  56  81
ATOM     81  C   UNL A   1      46.989  27.008  33.646  1.00  0.00     0.058 A 
ATOM     82  C   UNL A   1      48.222  27.547  33.249  1.00  0.00     0.135 A 
ATOM     83  C   UNL A   1      46.983  26.107  34.723  1.00  0.00     0.135 A 
ATOM     84  F   UNL A   1      48.285  28.407  32.220  1.00  0.00    -0.206 F 
ATOM     85  C   UNL A   1      49.408  27.189  33.883  1.00  0.00     0.059 A 
ATOM     86  C   UNL A   1      48.153  25.756  35.388  1.00  0.00     0.059 A 
ATOM     87  F   UNL A   1      45.828  25.570  35.148  1.00  0.00    -0.206 F 
ATOM     88  C   UNL A   1      49.362  26.294  34.953  1.00  0.00     0.060 A 
BRANCH  88  89
ATOM     89  S   UNL A   1      50.904  25.864  35.790  1.00  0.00     0.124 S 
ATOM     90  O   UNL A   1      50.443  24.898  36.779  1.00  0.00    -0.237 OA
ATOM     91  O   UNL A   1      51.710  25.321  34.700  1.00  0.00    -0.237 OA
ATOM     92  O   UNL A   1      51.367  27.141  36.325  1.00  0.00    -0.744 OA
ENDBRANCH  88  89
ENDBRANCH  56  81
ENDBRANCH  30  31
ENDBRANCH  22  25
ENDBRANCH  20  21
ENDBRANCH  19  20
ENDBRANCH  18  19
ENDBRANCH   3  18
TORSDOF 20
ENDMDL
MODEL 3
REMARK VINA RESULT:      -9.2      5.164      7.647
REMARK SMILES C[C@@H](CCCO)[NH2+][C@@H](C)CC(=O)NCCCNC(=O)c1ccc(-c2c3nc(c(-c4c(F)cc(S(=O)(=O)[O-])cc4F)c4ccc([nH]4)c(-c4c(F)cc(S(=O)(=O)[O-])cc4F)c4nc(c(-c5c(F)cc(S(=O)(=O)[O-])cc5F)c5ccc2[nH]5)C=C4)C=C3)cc1
REMARK SMILES IDX 11 1 12 2 13 3 10 5 8 6 9 7 7 8 2 11 1 12 3 13 4 14 5 15
REMARK SMILES IDX 6 16 14 18 15 19 16 20 17 21 18 22 19 24 20 25 21 26 85 27
REMARK SMILES IDX 22 28 84 29 23 30 24 31 25 32 78 33 26 34 83 35 77 36 79 37
REMARK SMILES IDX 27 38 82 39 76 40 75 41 28 43 62 44 41 45 61 46 42 47 45 48
REMARK SMILES IDX 60 49 80 50 43 51 44 52 59 54 81 55 46 56 29 57 30 58 39 59
REMARK SMILES IDX 31 60 32 61 38 62 40 63 33 64 34 65 35 66 36 67 37 68 63 69
REMARK SMILES IDX 64 70 73 71 65 72 66 73 72 74 74 75 67 76 68 77 69 78 70 79
REMARK SMILES IDX 71 80 47 81 48 82 57 83 49 84 50 85 56 86 58 87 51 88 52 89
REMARK SMILES IDX 53 90 54 91 55 92
REMARK H PARENT 13 4 7 9 7 10 6 17 17 23 79 42 45 53
REMARK Flexibility Score: inf
ROOT
ATOM      1  C   UNL A   1      33.001  36.176  31.507  1.00  0.00     0.225 C 
ATOM      2  O   UNL A   1      31.989  36.665  32.013  1.00  0.00    -0.275 OA
ATOM      3  N   UNL A   1      32.991  35.905  30.172  1.00  0.00    -0.356 N 
ATOM      4  H   UNL A   1      32.192  36.215  29.687  1.00  0.00     0.163 HD
ENDROOT
BRANCH   1   5
ATOM      5  C   UNL A   1      34.240  35.925  32.344  1.00  0.00     0.164 C 
BRANCH   5   6
ATOM      6  C   UNL A   1      34.612  34.432  32.461  1.00  0.00     0.188 C 
ATOM      7  C   UNL A   1      33.476  33.683  33.169  1.00  0.00     0.075 C 
BRANCH   6   8
ATOM      8  N   UNL A   1      35.903  34.310  33.138  1.00  0.00    -0.341 N 
ATOM      9  H   UNL A   1      36.616  34.605  32.470  1.00  0.00     0.346 HD
ATOM     10  H   UNL A   1      35.784  34.879  33.976  1.00  0.00     0.346 HD
BRANCH   8  11
ATOM     11  C   UNL A   1      36.330  33.022  33.667  1.00  0.00     0.179 C 
ATOM     12  C   UNL A   1      36.375  32.013  32.512  1.00  0.00     0.075 C 
BRANCH  11  13
ATOM     13  C   UNL A   1      37.690  33.078  34.395  1.00  0.00     0.067 C 
BRANCH  13  14
ATOM     14  C   UNL A   1      37.839  32.367  35.752  1.00  0.00     0.034 C 
BRANCH  14  15
ATOM     15  C   UNL A   1      38.113  30.867  35.756  1.00  0.00     0.156 C 
BRANCH  15  16
ATOM     16  O   UNL A   1      37.637  30.227  36.930  1.00  0.00    -0.396 OA
ATOM     17  H   UNL A   1      36.712  30.476  37.082  1.00  0.00     0.210 HD
ENDBRANCH  15  16
ENDBRANCH  14  15
ENDBRANCH  13  14
ENDBRANCH  11  13
ENDBRANCH   8  11
ENDBRANCH   6   8
ENDBRANCH   5   6
ENDBRANCH   1   5
BRANCH   3  18
ATOM     18  C   UNL A   1      33.982  35.223  29.356  1.00  0.00     0.117 C 
BRANCH  18  19
ATOM     19  C   UNL A   1      33.431  33.928  28.771  1.00  0.00     0.042 C 
BRANCH  19  20
ATOM     20  C   UNL A   1      34.334  32.716  28.951  1.00  0.00     0.118 C 
BRANCH  20  21
ATOM     21  N   UNL A   1      33.920  31.589  28.132  1.00  0.00    -0.352 N 
ATOM     22  C   UNL A   1      34.608  30.461  27.754  1.00  0.00     0.251 C 
ATOM     23  H   UNL A   1      32.998  31.642  27.794  1.00  0.00     0.163 HD
ATOM     24  O   UNL A   1      34.117  29.738  26.888  1.00  0.00    -0.269 OA
BRANCH  22  25
ATOM     25  C   UNL A   1      35.924  30.108  28.349  1.00  0.00     0.039 A 
ATOM     26  C   UNL A   1      37.084  30.425  27.633  1.00  0.00     0.014 A 
ATOM     27  C   UNL A   1      36.035  29.417  29.557  1.00  0.00     0.014 A 
ATOM     28  C   UNL A   1      38.343  30.096  28.149  1.00  0.00     0.010 A 
ATOM     29  C   UNL A   1      37.291  29.163  30.111  1.00  0.00     0.010 A 
ATOM     30  C   UNL A   1      38.460  29.486  29.407  1.00  0.00    -0.014 A 
BRANCH  30  31
ATOM     31  C   UNL A   1      39.792  29.161  29.989  1.00  0.00     0.031 A 
ATOM     32  C   UNL A   1      40.347  29.981  31.124  1.00  0.00     0.074 A 
ATOM     33  C   UNL A   1      40.527  28.160  29.464  1.00  0.00     0.049 A 
ATOM     34  N   UNL A   1      41.512  29.897  31.715  1.00  0.00    -0.248 NA
ATOM     35  C   UNL A   1      39.488  31.054  31.651  1.00  0.00     0.031 C 
ATOM     36  C   UNL A   1      40.124  27.313  28.339  1.00  0.00     0.029 A 
ATOM     37  N   UNL A   1      41.773  27.689  29.801  1.00  0.00    -0.354 N 
ATOM     38  C   UNL A   1      41.533  30.910  32.666  1.00  0.00     0.074 A 
ATOM     39  C   UNL A   1      40.284  31.629  32.542  1.00  0.00     0.031 C 
ATOM     40  C   UNL A   1      41.092  26.415  28.093  1.00  0.00     0.029 A 
ATOM     41  C   UNL A   1      42.202  26.645  29.014  1.00  0.00     0.049 A 
ATOM     42  H   UNL A   1      42.309  28.064  30.536  1.00  0.00     0.167 HD
ATOM     43  C   UNL A   1      42.493  31.203  33.577  1.00  0.00     0.037 A 
ATOM     44  C   UNL A   1      43.358  25.954  29.027  1.00  0.00     0.037 A 
ATOM     45  C   UNL A   1      43.724  30.468  33.719  1.00  0.00     0.049 A 
ATOM     46  C   UNL A   1      44.412  26.299  30.044  1.00  0.00     0.074 A 
ATOM     47  C   UNL A   1      44.736  30.654  34.645  1.00  0.00     0.029 A 
ATOM     48  N   UNL A   1      44.111  29.406  32.914  1.00  0.00    -0.354 N 
ATOM     49  N   UNL A   1      44.390  27.228  30.970  1.00  0.00    -0.248 NA
ATOM     50  C   UNL A   1      45.644  25.498  30.024  1.00  0.00     0.031 C 
ATOM     51  C   UNL A   1      45.753  29.732  34.376  1.00  0.00     0.029 A 
ATOM     52  C   UNL A   1      45.353  28.939  33.311  1.00  0.00     0.049 A 
ATOM     53  H   UNL A   1      43.582  29.039  32.170  1.00  0.00     0.167 HD
ATOM     54  C   UNL A   1      45.593  27.105  31.659  1.00  0.00     0.074 A 
ATOM     55  C   UNL A   1      46.312  26.006  31.051  1.00  0.00     0.031 C 
ATOM     56  C   UNL A   1      46.056  27.837  32.703  1.00  0.00     0.037 A 
BRANCH  43  57
ATOM     57  C   UNL A   1      42.250  32.367  34.498  1.00  0.00     0.058 A 
ATOM     58  C   UNL A   1      42.578  33.682  34.127  1.00  0.00     0.135 A 
ATOM     59  C   UNL A   1      41.647  32.175  35.752  1.00  0.00     0.135 A 
ATOM     60  F   UNL A   1      43.168  33.923  32.945  1.00  0.00    -0.206 F 
ATOM     61  C   UNL A   1      42.348  34.758  34.978  1.00  0.00     0.059 A 
ATOM     62  C   UNL A   1      41.382  33.241  36.608  1.00  0.00     0.059 A 
ATOM     63  F   UNL A   1      41.310  30.940  36.158  1.00  0.00    -0.206 F 
ATOM     64  C   UNL A   1      41.752  34.527  36.218  1.00  0.00     0.060 A 
BRANCH  64  65
ATOM     65  S   UNL A   1      41.459  35.934  37.311  1.00  0.00     0.124 S 
ATOM     66  O   UNL A   1      42.739  36.634  37.231  1.00  0.00    -0.237 OA
ATOM     67  O   UNL A   1      40.332  36.604  36.664  1.00  0.00    -0.237 OA
ATOM     68  O   UNL A   1      41.162  35.314  38.595  1.00  0.00    -0.744 OA
ENDBRANCH  64  65
ENDBRANCH  43  57
BRANCH  44  69
ATOM     69  C   UNL A   1      43.573  24.851  28.052  1.00  0.00     0.058 A 
ATOM     70  C   UNL A   1      44.314  25.061  26.879  1.00  0.00     0.135 A 
ATOM     71  C   UNL A   1      43.057  23.566  28.279  1.00  0.00     0.135 A 
ATOM     72  F   UNL A   1      44.821  26.275  26.615  1.00  0.00    -0.206 F 
ATOM     73  C   UNL A   1      44.524  24.040  25.958  1.00  0.00     0.059 A 
ATOM     74  C   UNL A   1      43.276  22.522  27.384  1.00  0.00     0.059 A 
ATOM     75  F   UNL A   1      42.356  23.309  29.394  1.00  0.00    -0.206 F 
ATOM     76  C   UNL A   1      44.003  22.772  26.222  1.00  0.00     0.060 A 
BRANCH  76  77
ATOM     77  S   UNL A   1      44.329  21.440  25.047  1.00  0.00     0.124 S 
ATOM     78  O   UNL A   1      45.674  21.028  25.436  1.00  0.00    -0.237 OA
ATOM     79  O   UNL A   1      43.259  20.494  25.351  1.00  0.00    -0.237 OA
ATOM     80  O   UNL A   1      44.220  22.102  23.750  1.00  0.00    -0.744 OA
ENDBRANCH  76  77
ENDBRANCH  44  69
BRANCH  56  81
ATOM     81  C   UNL A   1      47.390  27.453  33.280  1.00  0.00     0.058 A 
ATOM     82  C   UNL A   1      47.505  26.491  34.295  1.00  0.00     0.135 A 
ATOM     83  C   UNL A   1      48.572  28.018  32.775  1.00  0.00     0.135 A 
ATOM     84  F   UNL A   1      46.406  25.925  34.819  1.00  0.00    -0.206 F 
ATOM     85  C   UNL A   1      48.744  26.118  34.804  1.00  0.00     0.059 A 
ATOM     86  C   UNL A   1      49.823  27.640  33.251  1.00  0.00     0.059 A 
ATOM     87  F   UNL A   1      48.518  28.936  31.797  1.00  0.00    -0.206 F 
ATOM     88  C   UNL A   1      49.899  26.697  34.274  1.00  0.00     0.060 A 
BRANCH  88  89
ATOM     89  S   UNL A   1      51.504  26.179  34.919  1.00  0.00     0.124 S 
ATOM     90  O   UNL A   1      51.193  25.939  36.324  1.00  0.00    -0.237 OA
ATOM     91  O   UNL A   1      51.793  24.990  34.122  1.00  0.00    -0.237 OA
ATOM     92  O   UNL A   1      52.364  27.327  34.652  1.00  0.00    -0.744 OA
ENDBRANCH  88  89
ENDBRANCH  56  81
ENDBRANCH  30  31
ENDBRANCH  22  25
ENDBRANCH  20  21
ENDBRANCH  19  20
ENDBRANCH  18  19
ENDBRANCH   3  18
TORSDOF 20
ENDMDL
