MODEL 1
REMARK VINA RESULT:     -12.6      0.000      0.000
REMARK SMILES COc1cc(C(=O)N[C@H]2CCCC[C@H]2C(=O)NCCCNC(=O)c2ccc(-c3c4nc(c(-c5c(F)cc(S(=O)(=O)[O-])cc5F)c5ccc([nH]5)c(-c5c(F)cc(S(=O)(=O)[O-])cc5F)c5nc(c(-c6c(F)cc(S(=O)(=O)[O-])cc6F)c6ccc3[nH]6)C=C5)C=C4)cc2)cc(Cl)c1OC
REMARK SMILES IDX 19 1 18 2 17 3 15 4 16 5 14 7 9 8 10 9 11 10 13 11 12 12
REMARK SMILES IDX 8 13 6 14 7 15 5 17 3 18 4 19 93 20 91 21 90 22 92 23 2 24
REMARK SMILES IDX 1 25 94 26 95 27 20 28 21 29 22 30 23 32 24 33 25 34 89 35
REMARK SMILES IDX 26 36 88 37 27 38 28 39 29 40 82 41 30 42 87 43 81 44 83 45
REMARK SMILES IDX 31 46 86 47 80 48 79 49 32 51 66 52 45 53 65 54 46 55 49 56
REMARK SMILES IDX 64 57 84 58 47 59 48 60 63 62 85 63 50 64 33 65 34 66 43 67
REMARK SMILES IDX 35 68 36 69 42 70 44 71 37 72 38 73 39 74 40 75 41 76 67 77
REMARK SMILES IDX 68 78 77 79 69 80 70 81 76 82 78 83 71 84 72 85 73 86 74 87
REMARK SMILES IDX 75 88 51 89 52 90 61 91 53 92 54 93 60 94 62 95 55 96 56 97
REMARK SMILES IDX 57 98 58 99 59 100
REMARK H PARENT 17 6 8 16 21 31 83 50 49 61
REMARK Flexibility Score: inf
ROOT
ATOM      1  C   UNL A   1      34.572  30.795  27.302  1.00  0.00     0.042 C 
ENDROOT
BRANCH   1   2
ATOM      2  C   UNL A   1      34.298  29.293  27.331  1.00  0.00     0.117 C 
BRANCH   2   3
ATOM      3  N   UNL A   1      32.992  28.891  27.821  1.00  0.00    -0.356 N 
ATOM      4  C   UNL A   1      31.943  28.278  27.210  1.00  0.00     0.225 C 
ATOM      5  O   UNL A   1      31.065  27.807  27.942  1.00  0.00    -0.275 OA
ATOM      6  H   UNL A   1      32.836  29.100  28.770  1.00  0.00     0.163 HD
BRANCH   4   7
ATOM      7  C   UNL A   1      31.815  28.129  25.699  1.00  0.00     0.101 C 
ATOM      8  C   UNL A   1      31.295  26.763  25.159  1.00  0.00     0.094 C 
ATOM      9  C   UNL A   1      30.412  26.837  23.893  1.00  0.00     0.026 C 
ATOM     10  C   UNL A   1      29.686  28.155  23.685  1.00  0.00     0.002 C 
ATOM     11  C   UNL A   1      31.278  29.439  25.096  1.00  0.00     0.015 C 
ATOM     12  C   UNL A   1      30.684  29.295  23.710  1.00  0.00     0.001 C 
BRANCH   8  13
ATOM     13  N   UNL A   1      30.694  25.829  26.117  1.00  0.00    -0.349 N 
ATOM     14  C   UNL A   1      30.954  24.517  26.431  1.00  0.00     0.251 C 
ATOM     15  O   UNL A   1      30.276  23.967  27.298  1.00  0.00    -0.269 OA
ATOM     16  H   UNL A   1      29.956  26.221  26.640  1.00  0.00     0.164 HD
BRANCH  14  17
ATOM     17  C   UNL A   1      32.083  23.769  25.838  1.00  0.00     0.045 A 
ATOM     18  C   UNL A   1      32.785  21.852  24.513  1.00  0.00     0.163 A 
ATOM     19  C   UNL A   1      31.772  22.656  25.045  1.00  0.00     0.064 A 
ATOM     20  C   UNL A   1      34.131  22.179  24.766  1.00  0.00     0.179 A 
ATOM     21  C   UNL A   1      34.432  23.350  25.484  1.00  0.00     0.087 A 
ATOM     22  C   UNL A   1      33.411  24.144  26.015  1.00  0.00     0.038 A 
ATOM     23  Cl  UNL A   1      36.049  23.929  25.706  1.00  0.00    -0.080 Cl
BRANCH  18  24
ATOM     24  O   UNL A   1      32.550  20.714  23.780  1.00  0.00    -0.493 OA
ATOM     25  C   UNL A   1      32.155  20.889  22.423  1.00  0.00     0.278 C 
ENDBRANCH  18  24
BRANCH  20  26
ATOM     26  O   UNL A   1      35.080  21.381  24.172  1.00  0.00    -0.491 OA
ATOM     27  C   UNL A   1      35.749  20.493  25.065  1.00  0.00     0.278 C 
ENDBRANCH  20  26
ENDBRANCH  14  17
ENDBRANCH   8  13
ENDBRANCH   4   7
ENDBRANCH   2   3
ENDBRANCH   1   2
BRANCH   1  28
ATOM     28  C   UNL A   1      35.645  31.323  28.244  1.00  0.00     0.118 C 
BRANCH  28  29
ATOM     29  N   UNL A   1      35.496  30.868  29.616  1.00  0.00    -0.352 N 
ATOM     30  C   UNL A   1      36.440  30.324  30.456  1.00  0.00     0.251 C 
ATOM     31  H   UNL A   1      34.594  30.963  29.997  1.00  0.00     0.163 HD
ATOM     32  O   UNL A   1      36.113  29.945  31.576  1.00  0.00    -0.269 OA
BRANCH  30  33
ATOM     33  C   UNL A   1      37.833  30.150  29.991  1.00  0.00     0.039 A 
ATOM     34  C   UNL A   1      38.857  30.185  30.942  1.00  0.00     0.014 A 
ATOM     35  C   UNL A   1      38.132  29.929  28.643  1.00  0.00     0.014 A 
ATOM     36  C   UNL A   1      40.172  29.916  30.555  1.00  0.00     0.010 A 
ATOM     37  C   UNL A   1      39.440  29.622  28.265  1.00  0.00     0.010 A 
ATOM     38  C   UNL A   1      40.468  29.593  29.221  1.00  0.00    -0.014 A 
BRANCH  38  39
ATOM     39  C   UNL A   1      41.833  29.159  28.830  1.00  0.00     0.031 A 
ATOM     40  C   UNL A   1      42.961  30.147  28.756  1.00  0.00     0.074 A 
ATOM     41  C   UNL A   1      42.038  27.873  28.481  1.00  0.00     0.049 A 
ATOM     42  N   UNL A   1      44.200  29.953  28.383  1.00  0.00    -0.248 NA
ATOM     43  C   UNL A   1      42.654  31.532  29.140  1.00  0.00     0.031 C 
ATOM     44  C   UNL A   1      41.014  26.826  28.477  1.00  0.00     0.029 A 
ATOM     45  N   UNL A   1      43.171  27.231  28.048  1.00  0.00    -0.354 N 
ATOM     46  C   UNL A   1      44.823  31.191  28.479  1.00  0.00     0.074 A 
ATOM     47  C   UNL A   1      43.816  32.135  28.917  1.00  0.00     0.031 C 
ATOM     48  C   UNL A   1      41.566  25.673  28.065  1.00  0.00     0.029 A 
ATOM     49  C   UNL A   1      42.971  25.904  27.747  1.00  0.00     0.049 A 
ATOM     50  H   UNL A   1      44.043  27.678  27.960  1.00  0.00     0.167 HD
ATOM     51  C   UNL A   1      46.118  31.507  28.237  1.00  0.00     0.037 A 
ATOM     52  C   UNL A   1      43.819  24.981  27.255  1.00  0.00     0.037 A 
ATOM     53  C   UNL A   1      47.120  30.564  27.814  1.00  0.00     0.049 A 
ATOM     54  C   UNL A   1      45.244  25.363  26.967  1.00  0.00     0.074 A 
ATOM     55  C   UNL A   1      48.473  30.777  27.615  1.00  0.00     0.029 A 
ATOM     56  N   UNL A   1      46.879  29.232  27.510  1.00  0.00    -0.354 N 
ATOM     57  N   UNL A   1      45.834  26.523  27.132  1.00  0.00    -0.248 NA
ATOM     58  C   UNL A   1      46.119  24.313  26.427  1.00  0.00     0.031 C 
ATOM     59  C   UNL A   1      49.043  29.584  27.155  1.00  0.00     0.029 A 
ATOM     60  C   UNL A   1      48.052  28.619  27.098  1.00  0.00     0.049 A 
ATOM     61  H   UNL A   1      46.003  28.787  27.579  1.00  0.00     0.167 HD
ATOM     62  C   UNL A   1      47.149  26.341  26.724  1.00  0.00     0.074 A 
ATOM     63  C   UNL A   1      47.275  24.955  26.320  1.00  0.00     0.031 C 
ATOM     64  C   UNL A   1      48.161  27.241  26.688  1.00  0.00     0.037 A 
BRANCH  51  65
ATOM     65  C   UNL A   1      46.528  32.939  28.426  1.00  0.00     0.058 A 
ATOM     66  C   UNL A   1      47.022  33.403  29.655  1.00  0.00     0.135 A 
ATOM     67  C   UNL A   1      46.464  33.848  27.358  1.00  0.00     0.135 A 
ATOM     68  F   UNL A   1      47.092  32.577  30.710  1.00  0.00    -0.206 F 
ATOM     69  C   UNL A   1      47.417  34.727  29.826  1.00  0.00     0.059 A 
ATOM     70  C   UNL A   1      46.871  35.171  27.500  1.00  0.00     0.059 A 
ATOM     71  F   UNL A   1      45.999  33.453  26.162  1.00  0.00    -0.206 F 
ATOM     72  C   UNL A   1      47.333  35.604  28.744  1.00  0.00     0.060 A 
BRANCH  72  73
ATOM     73  S   UNL A   1      47.850  37.318  28.978  1.00  0.00     0.124 S 
ATOM     74  O   UNL A   1      49.185  37.301  28.389  1.00  0.00    -0.237 OA
ATOM     75  O   UNL A   1      46.838  38.058  28.228  1.00  0.00    -0.237 OA
ATOM     76  O   UNL A   1      47.803  37.492  30.425  1.00  0.00    -0.744 OA
ENDBRANCH  72  73
ENDBRANCH  51  65
BRANCH  52  77
ATOM     77  C   UNL A   1      43.338  23.598  27.001  1.00  0.00     0.058 A 
ATOM     78  C   UNL A   1      42.964  23.190  25.713  1.00  0.00     0.135 A 
ATOM     79  C   UNL A   1      43.262  22.654  28.037  1.00  0.00     0.135 A 
ATOM     80  F   UNL A   1      43.012  24.062  24.694  1.00  0.00    -0.206 F 
ATOM     81  C   UNL A   1      42.527  21.895  25.459  1.00  0.00     0.059 A 
ATOM     82  C   UNL A   1      42.845  21.348  27.804  1.00  0.00     0.059 A 
ATOM     83  F   UNL A   1      43.622  22.993  29.285  1.00  0.00    -0.206 F 
ATOM     84  C   UNL A   1      42.473  20.980  26.511  1.00  0.00     0.060 A 
BRANCH  84  85
ATOM     85  S   UNL A   1      41.968  19.280  26.163  1.00  0.00     0.124 S 
ATOM     86  O   UNL A   1      42.318  18.610  27.409  1.00  0.00    -0.237 OA
ATOM     87  O   UNL A   1      40.540  19.430  25.895  1.00  0.00    -0.237 OA
ATOM     88  O   UNL A   1      42.779  18.924  25.001  1.00  0.00    -0.744 OA
ENDBRANCH  84  85
ENDBRANCH  52  77
BRANCH  64  89
ATOM     89  C   UNL A   1      49.496  26.758  26.197  1.00  0.00     0.058 A 
ATOM     90  C   UNL A   1      49.900  26.957  24.868  1.00  0.00     0.135 A 
ATOM     91  C   UNL A   1      50.398  26.135  27.073  1.00  0.00     0.135 A 
ATOM     92  F   UNL A   1      49.069  27.540  23.989  1.00  0.00    -0.206 F 
ATOM     93  C   UNL A   1      51.149  26.541  24.420  1.00  0.00     0.059 A 
ATOM     94  C   UNL A   1      51.661  25.728  26.650  1.00  0.00     0.059 A 
ATOM     95  F   UNL A   1      50.061  25.926  28.355  1.00  0.00    -0.206 F 
ATOM     96  C   UNL A   1      52.024  25.928  25.319  1.00  0.00     0.060 A 
BRANCH  96  97
ATOM     97  S   UNL A   1      53.658  25.426  24.737  1.00  0.00     0.124 S 
ATOM     98  O   UNL A   1      53.559  23.972  24.799  1.00  0.00    -0.237 OA
ATOM     99  O   UNL A   1      53.706  26.002  23.396  1.00  0.00    -0.237 OA
ATOM    100  O   UNL A   1      54.564  26.036  25.706  1.00  0.00    -0.744 OA
ENDBRANCH  96  97
ENDBRANCH  64  89
ENDBRANCH  38  39
ENDBRANCH  30  33
ENDBRANCH  28  29
ENDBRANCH   1  28
TORSDOF 17
ENDMDL
MODEL 2
REMARK VINA RESULT:     -12.5      0.481      8.124
REMARK SMILES COc1cc(C(=O)N[C@H]2CCCC[C@H]2C(=O)NCCCNC(=O)c2ccc(-c3c4nc(c(-c5c(F)cc(S(=O)(=O)[O-])cc5F)c5ccc([nH]5)c(-c5c(F)cc(S(=O)(=O)[O-])cc5F)c5nc(c(-c6c(F)cc(S(=O)(=O)[O-])cc6F)c6ccc3[nH]6)C=C5)C=C4)cc2)cc(Cl)c1OC
REMARK SMILES IDX 19 1 18 2 17 3 15 4 16 5 14 7 9 8 10 9 11 10 13 11 12 12
REMARK SMILES IDX 8 13 6 14 7 15 5 17 3 18 4 19 93 20 91 21 90 22 92 23 2 24
REMARK SMILES IDX 1 25 94 26 95 27 20 28 21 29 22 30 23 32 24 33 25 34 89 35
REMARK SMILES IDX 26 36 88 37 27 38 28 39 29 40 82 41 30 42 87 43 81 44 83 45
REMARK SMILES IDX 31 46 86 47 80 48 79 49 32 51 66 52 45 53 65 54 46 55 49 56
REMARK SMILES IDX 64 57 84 58 47 59 48 60 63 62 85 63 50 64 33 65 34 66 43 67
REMARK SMILES IDX 35 68 36 69 42 70 44 71 37 72 38 73 39 74 40 75 41 76 67 77
REMARK SMILES IDX 68 78 77 79 69 80 70 81 76 82 78 83 71 84 72 85 73 86 74 87
REMARK SMILES IDX 75 88 51 89 52 90 61 91 53 92 54 93 60 94 62 95 55 96 56 97
REMARK SMILES IDX 57 98 58 99 59 100
REMARK H PARENT 17 6 8 16 21 31 83 50 49 61
REMARK Flexibility Score: inf
ROOT
ATOM      1  C   UNL A   1      34.762  30.531  27.277  1.00  0.00     0.042 C 
ENDROOT
BRANCH   1   2
ATOM      2  C   UNL A   1      34.398  29.054  27.413  1.00  0.00     0.117 C 
BRANCH   2   3
ATOM      3  N   UNL A   1      33.049  28.767  27.867  1.00  0.00    -0.356 N 
ATOM      4  C   UNL A   1      31.976  28.223  27.236  1.00  0.00     0.225 C 
ATOM      5  O   UNL A   1      31.041  27.839  27.947  1.00  0.00    -0.275 OA
ATOM      6  H   UNL A   1      32.881  29.011  28.806  1.00  0.00     0.163 HD
BRANCH   4   7
ATOM      7  C   UNL A   1      31.885  28.047  25.725  1.00  0.00     0.101 C 
ATOM      8  C   UNL A   1      31.470  26.642  25.194  1.00  0.00     0.094 C 
ATOM      9  C   UNL A   1      30.606  26.640  23.913  1.00  0.00     0.026 C 
ATOM     10  C   UNL A   1      29.794  27.901  23.675  1.00  0.00     0.002 C 
ATOM     11  C   UNL A   1      31.269  29.309  25.096  1.00  0.00     0.015 C 
ATOM     12  C   UNL A   1      30.710  29.109  23.702  1.00  0.00     0.001 C 
BRANCH   8  13
ATOM     13  N   UNL A   1      30.918  25.680  26.154  1.00  0.00    -0.349 N 
ATOM     14  C   UNL A   1      31.252  24.387  26.477  1.00  0.00     0.251 C 
ATOM     15  O   UNL A   1      30.602  23.804  27.343  1.00  0.00    -0.269 OA
ATOM     16  H   UNL A   1      30.156  26.032  26.670  1.00  0.00     0.164 HD
BRANCH  14  17
ATOM     17  C   UNL A   1      32.426  23.703  25.894  1.00  0.00     0.045 A 
ATOM     18  C   UNL A   1      33.244  21.825  24.580  1.00  0.00     0.163 A 
ATOM     19  C   UNL A   1      32.184  22.572  25.102  1.00  0.00     0.064 A 
ATOM     20  C   UNL A   1      34.568  22.228  24.842  1.00  0.00     0.179 A 
ATOM     21  C   UNL A   1      34.798  23.416  25.559  1.00  0.00     0.087 A 
ATOM     22  C   UNL A   1      33.729  24.152  26.081  1.00  0.00     0.038 A 
ATOM     23  Cl  UNL A   1      36.377  24.086  25.792  1.00  0.00    -0.080 Cl
BRANCH  18  24
ATOM     24  O   UNL A   1      33.079  20.674  23.848  1.00  0.00    -0.493 OA
ATOM     25  C   UNL A   1      32.522  19.552  24.525  1.00  0.00     0.278 C 
ENDBRANCH  18  24
BRANCH  20  26
ATOM     26  O   UNL A   1      35.565  21.484  24.258  1.00  0.00    -0.491 OA
ATOM     27  C   UNL A   1      36.314  20.680  25.167  1.00  0.00     0.278 C 
ENDBRANCH  20  26
ENDBRANCH  14  17
ENDBRANCH   8  13
ENDBRANCH   4   7
ENDBRANCH   2   3
ENDBRANCH   1   2
BRANCH   1  28
ATOM     28  C   UNL A   1      35.716  31.109  28.311  1.00  0.00     0.118 C 
BRANCH  28  29
ATOM     29  N   UNL A   1      35.624  30.473  29.615  1.00  0.00    -0.352 N 
ATOM     30  C   UNL A   1      36.604  29.835  30.339  1.00  0.00     0.251 C 
ATOM     31  H   UNL A   1      34.737  30.503  30.038  1.00  0.00     0.163 HD
ATOM     32  O   UNL A   1      36.324  29.304  31.409  1.00  0.00    -0.269 OA
BRANCH  30  33
ATOM     33  C   UNL A   1      37.980  29.743  29.804  1.00  0.00     0.039 A 
ATOM     34  C   UNL A   1      39.043  29.729  30.711  1.00  0.00     0.014 A 
ATOM     35  C   UNL A   1      38.225  29.646  28.431  1.00  0.00     0.014 A 
ATOM     36  C   UNL A   1      40.347  29.534  30.250  1.00  0.00     0.010 A 
ATOM     37  C   UNL A   1      39.524  29.412  27.975  1.00  0.00     0.010 A 
ATOM     38  C   UNL A   1      40.593  29.334  28.882  1.00  0.00    -0.014 A 
BRANCH  38  39
ATOM     39  C   UNL A   1      41.951  28.978  28.399  1.00  0.00     0.031 A 
ATOM     40  C   UNL A   1      42.280  27.567  28.006  1.00  0.00     0.074 A 
ATOM     41  C   UNL A   1      42.908  29.926  28.372  1.00  0.00     0.049 A 
ATOM     42  N   UNL A   1      43.424  27.068  27.614  1.00  0.00    -0.248 NA
ATOM     43  C   UNL A   1      41.186  26.587  28.074  1.00  0.00     0.031 C 
ATOM     44  C   UNL A   1      42.721  31.325  28.763  1.00  0.00     0.029 A 
ATOM     45  N   UNL A   1      44.231  29.855  28.016  1.00  0.00    -0.354 N 
ATOM     46  C   UNL A   1      43.194  25.716  27.394  1.00  0.00     0.074 A 
ATOM     47  C   UNL A   1      41.806  25.467  27.726  1.00  0.00     0.031 C 
ATOM     48  C   UNL A   1      43.885  31.980  28.622  1.00  0.00     0.029 A 
ATOM     49  C   UNL A   1      44.906  31.045  28.162  1.00  0.00     0.049 A 
ATOM     50  H   UNL A   1      44.657  29.032  27.687  1.00  0.00     0.167 HD
ATOM     51  C   UNL A   1      44.057  24.774  26.944  1.00  0.00     0.037 A 
ATOM     52  C   UNL A   1      46.204  31.345  27.963  1.00  0.00     0.037 A 
ATOM     53  C   UNL A   1      45.432  25.026  26.602  1.00  0.00     0.049 A 
ATOM     54  C   UNL A   1      47.147  30.275  27.491  1.00  0.00     0.074 A 
ATOM     55  C   UNL A   1      46.362  24.150  26.069  1.00  0.00     0.029 A 
ATOM     56  N   UNL A   1      46.082  26.240  26.772  1.00  0.00    -0.354 N 
ATOM     57  N   UNL A   1      46.895  29.017  27.221  1.00  0.00    -0.248 NA
ATOM     58  C   UNL A   1      48.552  30.664  27.299  1.00  0.00     0.031 C 
ATOM     59  C   UNL A   1      47.583  24.823  25.952  1.00  0.00     0.029 A 
ATOM     60  C   UNL A   1      47.407  26.128  26.381  1.00  0.00     0.049 A 
ATOM     61  H   UNL A   1      45.663  27.061  27.118  1.00  0.00     0.167 HD
ATOM     62  C   UNL A   1      48.105  28.466  26.817  1.00  0.00     0.074 A 
ATOM     63  C   UNL A   1      49.087  29.530  26.863  1.00  0.00     0.031 C 
ATOM     64  C   UNL A   1      48.377  27.192  26.442  1.00  0.00     0.037 A 
BRANCH  51  65
ATOM     65  C   UNL A   1      43.535  23.374  26.792  1.00  0.00     0.058 A 
ATOM     66  C   UNL A   1      43.261  22.826  25.530  1.00  0.00     0.135 A 
ATOM     67  C   UNL A   1      43.344  22.556  27.919  1.00  0.00     0.135 A 
ATOM     68  F   UNL A   1      43.416  23.569  24.423  1.00  0.00    -0.206 F 
ATOM     69  C   UNL A   1      42.792  21.524  25.388  1.00  0.00     0.059 A 
ATOM     70  C   UNL A   1      42.895  21.245  27.800  1.00  0.00     0.059 A 
ATOM     71  F   UNL A   1      43.592  23.033  29.148  1.00  0.00    -0.206 F 
ATOM     72  C   UNL A   1      42.609  20.742  26.530  1.00  0.00     0.060 A 
BRANCH  72  73
ATOM     73  S   UNL A   1      42.001  19.053  26.334  1.00  0.00     0.124 S 
ATOM     74  O   UNL A   1      42.109  18.547  27.698  1.00  0.00    -0.237 OA
ATOM     75  O   UNL A   1      40.642  19.262  25.842  1.00  0.00    -0.237 OA
ATOM     76  O   UNL A   1      42.929  18.468  25.372  1.00  0.00    -0.744 OA
ENDBRANCH  72  73
ENDBRANCH  51  65
BRANCH  52  77
ATOM     77  C   UNL A   1      46.687  32.728  28.214  1.00  0.00     0.058 A 
ATOM     78  C   UNL A   1      46.611  33.710  27.217  1.00  0.00     0.135 A 
ATOM     79  C   UNL A   1      47.217  33.097  29.461  1.00  0.00     0.135 A 
ATOM     80  F   UNL A   1      46.119  33.399  26.007  1.00  0.00    -0.206 F 
ATOM     81  C   UNL A   1      47.045  35.011  27.443  1.00  0.00     0.059 A 
ATOM     82  C   UNL A   1      47.641  34.397  29.716  1.00  0.00     0.059 A 
ATOM     83  F   UNL A   1      47.299  32.195  30.451  1.00  0.00    -0.206 F 
ATOM     84  C   UNL A   1      47.557  35.345  28.697  1.00  0.00     0.060 A 
BRANCH  84  85
ATOM     85  S   UNL A   1      48.058  37.054  29.007  1.00  0.00     0.124 S 
ATOM     86  O   UNL A   1      47.873  37.156  30.450  1.00  0.00    -0.237 OA
ATOM     87  O   UNL A   1      49.440  37.061  28.536  1.00  0.00    -0.237 OA
ATOM     88  O   UNL A   1      47.124  37.827  28.192  1.00  0.00    -0.744 OA
ENDBRANCH  84  85
ENDBRANCH  52  77
BRANCH  64  89
ATOM     89  C   UNL A   1      49.792  26.877  26.050  1.00  0.00     0.058 A 
ATOM     90  C   UNL A   1      50.698  26.324  26.968  1.00  0.00     0.135 A 
ATOM     91  C   UNL A   1      50.233  27.085  24.734  1.00  0.00     0.135 A 
ATOM     92  F   UNL A   1      50.327  26.115  28.241  1.00  0.00    -0.206 F 
ATOM     93  C   UNL A   1      51.998  25.999  26.597  1.00  0.00     0.059 A 
ATOM     94  C   UNL A   1      51.525  26.749  24.336  1.00  0.00     0.059 A 
ATOM     95  F   UNL A   1      49.404  27.607  23.817  1.00  0.00    -0.206 F 
ATOM     96  C   UNL A   1      52.403  26.215  25.278  1.00  0.00     0.060 A 
BRANCH  96  97
ATOM     97  S   UNL A   1      54.082  25.754  24.798  1.00  0.00     0.124 S 
ATOM     98  O   UNL A   1      54.066  24.313  25.022  1.00  0.00    -0.237 OA
ATOM     99  O   UNL A   1      54.139  26.178  23.402  1.00  0.00    -0.237 OA
ATOM    100  O   UNL A   1      54.919  26.524  25.714  1.00  0.00    -0.744 OA
ENDBRANCH  96  97
ENDBRANCH  64  89
ENDBRANCH  38  39
ENDBRANCH  30  33
ENDBRANCH  28  29
ENDBRANCH   1  28
TORSDOF 17
ENDMDL
MODEL 3
REMARK VINA RESULT:     -12.1      6.342     11.763
REMARK SMILES COc1cc(C(=O)N[C@H]2CCCC[C@H]2C(=O)NCCCNC(=O)c2ccc(-c3c4nc(c(-c5c(F)cc(S(=O)(=O)[O-])cc5F)c5ccc([nH]5)c(-c5c(F)cc(S(=O)(=O)[O-])cc5F)c5nc(c(-c6c(F)cc(S(=O)(=O)[O-])cc6F)c6ccc3[nH]6)C=C5)C=C4)cc2)cc(Cl)c1OC
REMARK SMILES IDX 19 1 18 2 17 3 15 4 16 5 14 7 9 8 10 9 11 10 13 11 12 12
REMARK SMILES IDX 8 13 6 14 7 15 5 17 3 18 4 19 93 20 91 21 90 22 92 23 2 24
REMARK SMILES IDX 1 25 94 26 95 27 20 28 21 29 22 30 23 32 24 33 25 34 89 35
REMARK SMILES IDX 26 36 88 37 27 38 28 39 29 40 82 41 30 42 87 43 81 44 83 45
REMARK SMILES IDX 31 46 86 47 80 48 79 49 32 51 66 52 45 53 65 54 46 55 49 56
REMARK SMILES IDX 64 57 84 58 47 59 48 60 63 62 85 63 50 64 33 65 34 66 43 67
REMARK SMILES IDX 35 68 36 69 42 70 44 71 37 72 38 73 39 74 40 75 41 76 67 77
REMARK SMILES IDX 68 78 77 79 69 80 70 81 76 82 78 83 71 84 72 85 73 86 74 87
REMARK SMILES IDX 75 88 51 89 52 90 61 91 53 92 54 93 60 94 62 95 55 96 56 97
REMARK SMILES IDX 57 98 58 99 59 100
REMARK H PARENT 17 6 8 16 21 31 83 50 49 61
REMARK Flexibility Score: inf
ROOT
ATOM      1  C   UNL A   1      38.771  24.283  26.373  1.00  0.00     0.042 C 
ENDROOT
BRANCH   1   2
ATOM      2  C   UNL A   1      37.441  23.655  25.961  1.00  0.00     0.117 C 
BRANCH   2   3
ATOM      3  N   UNL A   1      37.291  23.340  24.551  1.00  0.00    -0.356 N 
ATOM      4  C   UNL A   1      36.202  23.021  23.804  1.00  0.00     0.225 C 
ATOM      5  O   UNL A   1      36.328  23.077  22.576  1.00  0.00    -0.275 OA
ATOM      6  H   UNL A   1      38.134  23.362  24.043  1.00  0.00     0.163 HD
BRANCH   4   7
ATOM      7  C   UNL A   1      34.855  22.628  24.399  1.00  0.00     0.101 C 
ATOM      8  C   UNL A   1      33.597  23.387  23.879  1.00  0.00     0.094 C 
ATOM      9  C   UNL A   1      32.303  22.549  23.782  1.00  0.00     0.026 C 
ATOM     10  C   UNL A   1      32.510  21.053  23.617  1.00  0.00     0.002 C 
ATOM     11  C   UNL A   1      34.799  21.101  24.582  1.00  0.00     0.015 C 
ATOM     12  C   UNL A   1      33.401  20.536  24.728  1.00  0.00     0.001 C 
BRANCH   8  13
ATOM     13  N   UNL A   1      33.739  24.205  22.670  1.00  0.00    -0.349 N 
ATOM     14  C   UNL A   1      33.454  25.520  22.393  1.00  0.00     0.251 C 
ATOM     15  O   UNL A   1      33.679  25.953  21.264  1.00  0.00    -0.269 OA
ATOM     16  H   UNL A   1      34.114  23.712  21.903  1.00  0.00     0.164 HD
BRANCH  14  17
ATOM     17  C   UNL A   1      32.979  26.463  23.429  1.00  0.00     0.045 A 
ATOM     18  C   UNL A   1      31.182  27.917  24.189  1.00  0.00     0.163 A 
ATOM     19  C   UNL A   1      31.676  26.963  23.295  1.00  0.00     0.064 A 
ATOM     20  C   UNL A   1      32.001  28.365  25.244  1.00  0.00     0.179 A 
ATOM     21  C   UNL A   1      33.271  27.788  25.423  1.00  0.00     0.087 A 
ATOM     22  C   UNL A   1      33.757  26.837  24.520  1.00  0.00     0.038 A 
ATOM     23  Cl  UNL A   1      34.286  28.145  26.780  1.00  0.00    -0.080 Cl
BRANCH  18  24
ATOM     24  O   UNL A   1      29.940  28.493  24.081  1.00  0.00    -0.493 OA
ATOM     25  C   UNL A   1      29.028  27.895  23.165  1.00  0.00     0.278 C 
ENDBRANCH  18  24
BRANCH  20  26
ATOM     26  O   UNL A   1      31.440  29.263  26.120  1.00  0.00    -0.491 OA
ATOM     27  C   UNL A   1      31.936  30.595  26.000  1.00  0.00     0.278 C 
ENDBRANCH  20  26
ENDBRANCH  14  17
ENDBRANCH   8  13
ENDBRANCH   4   7
ENDBRANCH   2   3
ENDBRANCH   1   2
BRANCH   1  28
ATOM     28  C   UNL A   1      39.883  23.336  26.800  1.00  0.00     0.118 C 
BRANCH  28  29
ATOM     29  N   UNL A   1      41.155  23.594  26.148  1.00  0.00    -0.352 N 
ATOM     30  C   UNL A   1      42.011  24.659  26.306  1.00  0.00     0.251 C 
ATOM     31  H   UNL A   1      41.445  22.910  25.502  1.00  0.00     0.163 HD
ATOM     32  O   UNL A   1      43.026  24.733  25.621  1.00  0.00    -0.269 OA
BRANCH  30  33
ATOM     33  C   UNL A   1      41.682  25.738  27.262  1.00  0.00     0.039 A 
ATOM     34  C   UNL A   1      40.888  25.425  28.368  1.00  0.00     0.014 A 
ATOM     35  C   UNL A   1      42.167  27.039  27.090  1.00  0.00     0.014 A 
ATOM     36  C   UNL A   1      40.648  26.391  29.347  1.00  0.00     0.010 A 
ATOM     37  C   UNL A   1      41.960  27.992  28.088  1.00  0.00     0.010 A 
ATOM     38  C   UNL A   1      41.215  27.671  29.234  1.00  0.00    -0.014 A 
BRANCH  38  39
ATOM     39  C   UNL A   1      41.092  28.656  30.339  1.00  0.00     0.031 A 
ATOM     40  C   UNL A   1      41.993  28.582  31.538  1.00  0.00     0.074 A 
ATOM     41  C   UNL A   1      40.118  29.586  30.282  1.00  0.00     0.049 A 
ATOM     42  N   UNL A   1      41.991  29.325  32.615  1.00  0.00    -0.248 NA
ATOM     43  C   UNL A   1      43.021  27.532  31.530  1.00  0.00     0.031 C 
ATOM     44  C   UNL A   1      39.157  29.737  29.188  1.00  0.00     0.029 A 
ATOM     45  N   UNL A   1      39.765  30.570  31.172  1.00  0.00    -0.354 N 
ATOM     46  C   UNL A   1      43.009  28.831  33.419  1.00  0.00     0.074 A 
ATOM     47  C   UNL A   1      43.589  27.704  32.717  1.00  0.00     0.031 C 
ATOM     48  C   UNL A   1      38.327  30.755  29.469  1.00  0.00     0.029 A 
ATOM     49  C   UNL A   1      38.675  31.308  30.774  1.00  0.00     0.049 A 
ATOM     50  H   UNL A   1      40.246  30.732  32.014  1.00  0.00     0.167 HD
ATOM     51  C   UNL A   1      43.430  29.284  34.624  1.00  0.00     0.037 A 
ATOM     52  C   UNL A   1      38.019  32.306  31.396  1.00  0.00     0.037 A 
ATOM     53  C   UNL A   1      42.860  30.412  35.314  1.00  0.00     0.049 A 
ATOM     54  C   UNL A   1      38.488  32.771  32.746  1.00  0.00     0.074 A 
ATOM     55  C   UNL A   1      43.268  30.988  36.505  1.00  0.00     0.029 A 
ATOM     56  N   UNL A   1      41.752  31.127  34.885  1.00  0.00    -0.354 N 
ATOM     57  N   UNL A   1      39.498  32.338  33.460  1.00  0.00    -0.248 NA
ATOM     58  C   UNL A   1      37.727  33.860  33.375  1.00  0.00     0.031 C 
ATOM     59  C   UNL A   1      42.384  32.028  36.814  1.00  0.00     0.029 A 
ATOM     60  C   UNL A   1      41.445  32.121  35.800  1.00  0.00     0.049 A 
ATOM     61  H   UNL A   1      41.257  30.955  34.051  1.00  0.00     0.167 HD
ATOM     62  C   UNL A   1      39.502  33.105  34.618  1.00  0.00     0.074 A 
ATOM     63  C   UNL A   1      38.402  34.042  34.504  1.00  0.00     0.031 C 
ATOM     64  C   UNL A   1      40.341  33.039  35.680  1.00  0.00     0.037 A 
BRANCH  51  65
ATOM     65  C   UNL A   1      44.569  28.556  35.278  1.00  0.00     0.058 A 
ATOM     66  C   UNL A   1      44.346  27.491  36.165  1.00  0.00     0.135 A 
ATOM     67  C   UNL A   1      45.899  28.900  34.987  1.00  0.00     0.135 A 
ATOM     68  F   UNL A   1      43.094  27.131  36.486  1.00  0.00    -0.206 F 
ATOM     69  C   UNL A   1      45.401  26.807  36.760  1.00  0.00     0.059 A 
ATOM     70  C   UNL A   1      46.970  28.217  35.554  1.00  0.00     0.059 A 
ATOM     71  F   UNL A   1      46.166  29.910  34.145  1.00  0.00    -0.206 F 
ATOM     72  C   UNL A   1      46.710  27.180  36.451  1.00  0.00     0.060 A 
BRANCH  72  73
ATOM     73  S   UNL A   1      48.072  26.284  37.228  1.00  0.00     0.124 S 
ATOM     74  O   UNL A   1      47.432  25.781  38.440  1.00  0.00    -0.237 OA
ATOM     75  O   UNL A   1      48.401  25.277  36.222  1.00  0.00    -0.237 OA
ATOM     76  O   UNL A   1      49.084  27.314  37.433  1.00  0.00    -0.744 OA
ENDBRANCH  72  73
ENDBRANCH  51  65
BRANCH  52  77
ATOM     77  C   UNL A   1      36.841  32.933  30.743  1.00  0.00     0.058 A 
ATOM     78  C   UNL A   1      35.537  32.583  31.118  1.00  0.00     0.135 A 
ATOM     79  C   UNL A   1      36.997  33.909  29.746  1.00  0.00     0.135 A 
ATOM     80  F   UNL A   1      35.340  31.648  32.061  1.00  0.00    -0.206 F 
ATOM     81  C   UNL A   1      34.426  33.173  30.527  1.00  0.00     0.059 A 
ATOM     82  C   UNL A   1      35.902  34.527  29.153  1.00  0.00     0.059 A 
ATOM     83  F   UNL A   1      38.227  34.288  29.362  1.00  0.00    -0.206 F 
ATOM     84  C   UNL A   1      34.619  34.147  29.546  1.00  0.00     0.060 A 
BRANCH  84  85
ATOM     85  S   UNL A   1      33.173  34.959  28.828  1.00  0.00     0.124 S 
ATOM     86  O   UNL A   1      32.343  35.175  30.007  1.00  0.00    -0.237 OA
ATOM     87  O   UNL A   1      33.757  36.155  28.228  1.00  0.00    -0.237 OA
ATOM     88  O   UNL A   1      32.676  33.970  27.875  1.00  0.00    -0.744 OA
ENDBRANCH  84  85
ENDBRANCH  52  77
BRANCH  64  89
ATOM     89  C   UNL A   1      40.105  34.008  36.805  1.00  0.00     0.058 A 
ATOM     90  C   UNL A   1      40.664  35.295  36.788  1.00  0.00     0.135 A 
ATOM     91  C   UNL A   1      39.276  33.664  37.883  1.00  0.00     0.135 A 
ATOM     92  F   UNL A   1      41.472  35.668  35.783  1.00  0.00    -0.206 F 
ATOM     93  C   UNL A   1      40.420  36.204  37.811  1.00  0.00     0.059 A 
ATOM     94  C   UNL A   1      39.002  34.566  38.908  1.00  0.00     0.059 A 
ATOM     95  F   UNL A   1      38.713  32.447  37.943  1.00  0.00    -0.206 F 
ATOM     96  C   UNL A   1      39.587  35.831  38.868  1.00  0.00     0.060 A 
BRANCH  96  97
ATOM     97  S   UNL A   1      39.245  37.033  40.171  1.00  0.00     0.124 S 
ATOM     98  O   UNL A   1      40.589  37.344  40.644  1.00  0.00    -0.237 OA
ATOM     99  O   UNL A   1      38.564  38.102  39.445  1.00  0.00    -0.237 OA
ATOM    100  O   UNL A   1      38.407  36.288  41.106  1.00  0.00    -0.744 OA
ENDBRANCH  96  97
ENDBRANCH  64  89
ENDBRANCH  38  39
ENDBRANCH  30  33
ENDBRANCH  28  29
ENDBRANCH   1  28
TORSDOF 17
ENDMDL
