MODEL 1
REMARK VINA RESULT:      -9.8      0.000      0.000
REMARK SMILES CS(=O)(=O)c1ccc(/C=C(/C(=O)NCCCNC(=O)c2ccc(-c3c4nc(c(-c5c(F)cc(S(=O)(=O)[O-])cc5F)c5ccc([nH]5)c(-c5c(F)cc(S(=O)(=O)[O-])cc5F)c5nc(c(-c6c(F)cc(S(=O)(=O)[O-])cc6F)c6ccc3[nH]6)C=C5)C=C4)cc2)c2cccc(-c3ccc(S(C)(=O)=O)cc3)c2)cc1
REMARK SMILES IDX 15 1 14 2 13 3 11 4 12 5 10 7 9 8 8 9 5 10 6 11 103 12 7 13
REMARK SMILES IDX 102 14 2 15 1 16 3 17 4 18 86 19 87 20 101 21 88 22 90 23
REMARK SMILES IDX 89 24 91 25 92 26 100 27 93 28 99 29 94 30 95 31 96 32 97 33
REMARK SMILES IDX 98 34 16 35 17 36 18 37 19 39 20 40 21 41 85 42 22 43 84 44
REMARK SMILES IDX 23 45 24 46 25 47 78 48 26 49 83 50 77 51 79 52 27 53 82 54
REMARK SMILES IDX 76 55 75 56 28 58 62 59 41 60 61 61 42 62 45 63 60 64 80 65
REMARK SMILES IDX 43 66 44 67 59 69 81 70 46 71 29 72 30 73 39 74 31 75 32 76
REMARK SMILES IDX 38 77 40 78 33 79 34 80 35 81 36 82 37 83 63 84 64 85 73 86
REMARK SMILES IDX 65 87 66 88 72 89 74 90 67 91 68 92 69 93 70 94 71 95 47 96
REMARK SMILES IDX 48 97 57 98 49 99 50 100 56 101 58 102 51 103 52 104 53 105
REMARK SMILES IDX 54 106 55 107
REMARK H PARENT 13 6 17 38 79 57 45 68
REMARK Flexibility Score: inf
ROOT
ATOM      1  C   UNL A   1      34.793  32.704  30.554  1.00  0.00     0.042 C 
ENDROOT
BRANCH   1   2
ATOM      2  C   UNL A   1      35.384  34.029  31.039  1.00  0.00     0.118 C 
BRANCH   2   3
ATOM      3  N   UNL A   1      36.776  34.138  30.646  1.00  0.00    -0.352 N 
ATOM      4  C   UNL A   1      37.958  34.054  31.307  1.00  0.00     0.251 C 
ATOM      5  O   UNL A   1      38.964  34.240  30.617  1.00  0.00    -0.269 OA
ATOM      6  H   UNL A   1      36.888  34.313  29.685  1.00  0.00     0.163 HD
BRANCH   4   7
ATOM      7  C   UNL A   1      38.091  33.658  32.762  1.00  0.00     0.047 C 
ATOM      8  C   UNL A   1      38.266  34.561  33.758  1.00  0.00     0.022 C 
BRANCH   8   9
ATOM      9  C   UNL A   1      38.293  34.371  35.233  1.00  0.00    -0.025 A 
ATOM     10  C   UNL A   1      38.316  33.754  37.982  1.00  0.00     0.067 A 
ATOM     11  C   UNL A   1      39.343  34.516  37.430  1.00  0.00     0.021 A 
ATOM     12  C   UNL A   1      37.235  33.358  37.194  1.00  0.00     0.021 A 
ATOM     13  C   UNL A   1      39.306  34.851  36.072  1.00  0.00     0.009 A 
ATOM     14  C   UNL A   1      37.235  33.658  35.825  1.00  0.00     0.009 A 
BRANCH  10  15
ATOM     15  S   UNL A   1      38.345  33.361  39.716  1.00  0.00     0.175 S 
ATOM     16  C   UNL A   1      38.905  34.856  40.488  1.00  0.00     0.163 C 
ATOM     17  O   UNL A   1      39.357  32.344  39.916  1.00  0.00    -0.224 OA
ATOM     18  O   UNL A   1      36.972  33.138  40.136  1.00  0.00    -0.224 OA
ENDBRANCH  10  15
ENDBRANCH   8   9
BRANCH   7  19
ATOM     19  C   UNL A   1      38.189  32.200  33.037  1.00  0.00    -0.012 A 
ATOM     20  C   UNL A   1      37.025  31.417  32.961  1.00  0.00     0.009 A 
ATOM     21  C   UNL A   1      39.422  31.563  33.229  1.00  0.00     0.017 A 
ATOM     22  C   UNL A   1      37.094  30.029  33.033  1.00  0.00     0.001 A 
ATOM     23  C   UNL A   1      39.517  30.159  33.223  1.00  0.00    -0.018 A 
ATOM     24  C   UNL A   1      38.333  29.405  33.142  1.00  0.00     0.009 A 
BRANCH  23  25
ATOM     25  C   UNL A   1      40.834  29.508  33.180  1.00  0.00    -0.018 A 
ATOM     26  C   UNL A   1      41.891  29.995  33.973  1.00  0.00     0.010 A 
ATOM     27  C   UNL A   1      41.053  28.357  32.409  1.00  0.00     0.010 A 
ATOM     28  C   UNL A   1      43.129  29.350  33.999  1.00  0.00     0.021 A 
ATOM     29  C   UNL A   1      42.289  27.707  32.422  1.00  0.00     0.021 A 
ATOM     30  C   UNL A   1      43.321  28.213  33.213  1.00  0.00     0.067 A 
BRANCH  30  31
ATOM     31  S   UNL A   1      44.893  27.392  33.254  1.00  0.00     0.175 S 
ATOM     32  C   UNL A   1      44.846  26.470  34.768  1.00  0.00     0.163 C 
ATOM     33  O   UNL A   1      44.909  26.458  32.143  1.00  0.00    -0.224 OA
ATOM     34  O   UNL A   1      45.921  28.405  33.388  1.00  0.00    -0.224 OA
ENDBRANCH  30  31
ENDBRANCH  23  25
ENDBRANCH   7  19
ENDBRANCH   4   7
ENDBRANCH   2   3
ENDBRANCH   1   2
BRANCH   1  35
ATOM     35  C   UNL A   1      34.951  32.486  29.049  1.00  0.00     0.118 C 
BRANCH  35  36
ATOM     36  N   UNL A   1      34.291  31.267  28.602  1.00  0.00    -0.352 N 
ATOM     37  C   UNL A   1      34.825  30.088  28.145  1.00  0.00     0.251 C 
ATOM     38  H   UNL A   1      33.308  31.293  28.631  1.00  0.00     0.163 HD
ATOM     39  O   UNL A   1      34.095  29.285  27.571  1.00  0.00    -0.269 OA
BRANCH  37  40
ATOM     40  C   UNL A   1      36.260  29.784  28.337  1.00  0.00     0.039 A 
ATOM     41  C   UNL A   1      37.135  29.954  27.261  1.00  0.00     0.014 A 
ATOM     42  C   UNL A   1      36.736  29.281  29.551  1.00  0.00     0.014 A 
ATOM     43  C   UNL A   1      38.492  29.665  27.417  1.00  0.00     0.010 A 
ATOM     44  C   UNL A   1      38.101  29.070  29.730  1.00  0.00     0.010 A 
ATOM     45  C   UNL A   1      38.992  29.248  28.662  1.00  0.00    -0.014 A 
BRANCH  45  46
ATOM     46  C   UNL A   1      40.443  28.991  28.857  1.00  0.00     0.031 A 
ATOM     47  C   UNL A   1      41.032  27.647  28.516  1.00  0.00     0.074 A 
ATOM     48  C   UNL A   1      41.220  29.956  29.389  1.00  0.00     0.049 A 
ATOM     49  N   UNL A   1      42.263  27.227  28.654  1.00  0.00    -0.248 NA
ATOM     50  C   UNL A   1      40.112  26.635  27.973  1.00  0.00     0.031 C 
ATOM     51  C   UNL A   1      40.754  31.281  29.807  1.00  0.00     0.029 A 
ATOM     52  N   UNL A   1      42.562  29.973  29.674  1.00  0.00    -0.354 N 
ATOM     53  C   UNL A   1      42.263  25.903  28.229  1.00  0.00     0.074 A 
ATOM     54  C   UNL A   1      40.898  25.572  27.883  1.00  0.00     0.031 C 
ATOM     55  C   UNL A   1      41.797  31.990  30.267  1.00  0.00     0.029 A 
ATOM     56  C   UNL A   1      42.997  31.159  30.218  1.00  0.00     0.049 A 
ATOM     57  H   UNL A   1      43.158  29.208  29.506  1.00  0.00     0.167 HD
ATOM     58  C   UNL A   1      43.309  25.049  28.114  1.00  0.00     0.037 A 
ATOM     59  C   UNL A   1      44.220  31.534  30.637  1.00  0.00     0.037 A 
ATOM     60  C   UNL A   1      44.668  25.395  28.444  1.00  0.00     0.049 A 
ATOM     61  C   UNL A   1      45.365  30.568  30.502  1.00  0.00     0.074 A 
ATOM     62  C   UNL A   1      45.809  24.623  28.311  1.00  0.00     0.029 A 
ATOM     63  N   UNL A   1      45.070  26.611  28.978  1.00  0.00    -0.354 N 
ATOM     64  N   UNL A   1      45.359  29.343  30.032  1.00  0.00    -0.248 NA
ATOM     65  C   UNL A   1      46.686  31.038  30.942  1.00  0.00     0.031 C 
ATOM     66  C   UNL A   1      46.891  25.350  28.815  1.00  0.00     0.029 A 
ATOM     67  C   UNL A   1      46.438  26.601  29.203  1.00  0.00     0.049 A 
ATOM     68  H   UNL A   1      44.472  27.369  29.169  1.00  0.00     0.167 HD
ATOM     69  C   UNL A   1      46.678  28.905  30.094  1.00  0.00     0.074 A 
ATOM     70  C   UNL A   1      47.455  30.004  30.630  1.00  0.00     0.031 C 
ATOM     71  C   UNL A   1      47.199  27.704  29.737  1.00  0.00     0.037 A 
BRANCH  58  72
ATOM     72  C   UNL A   1      43.027  23.657  27.611  1.00  0.00     0.058 A 
ATOM     73  C   UNL A   1      42.620  22.626  28.475  1.00  0.00     0.135 A 
ATOM     74  C   UNL A   1      43.125  23.360  26.242  1.00  0.00     0.135 A 
ATOM     75  F   UNL A   1      42.523  22.847  29.795  1.00  0.00    -0.206 F 
ATOM     76  C   UNL A   1      42.353  21.344  28.004  1.00  0.00     0.059 A 
ATOM     77  C   UNL A   1      42.830  22.093  25.744  1.00  0.00     0.059 A 
ATOM     78  F   UNL A   1      43.508  24.305  25.370  1.00  0.00    -0.206 F 
ATOM     79  C   UNL A   1      42.460  21.087  26.636  1.00  0.00     0.060 A 
BRANCH  79  80
ATOM     80  S   UNL A   1      42.100  19.421  26.043  1.00  0.00     0.124 S 
ATOM     81  O   UNL A   1      42.557  18.607  27.166  1.00  0.00    -0.237 OA
ATOM     82  O   UNL A   1      40.655  19.467  25.843  1.00  0.00    -0.237 OA
ATOM     83  O   UNL A   1      42.897  19.312  24.826  1.00  0.00    -0.744 OA
ENDBRANCH  79  80
ENDBRANCH  58  72
BRANCH  59  84
ATOM     84  C   UNL A   1      44.429  32.896  31.201  1.00  0.00     0.058 A 
ATOM     85  C   UNL A   1      44.452  33.111  32.587  1.00  0.00     0.135 A 
ATOM     86  C   UNL A   1      44.624  34.007  30.366  1.00  0.00     0.135 A 
ATOM     87  F   UNL A   1      44.267  32.081  33.428  1.00  0.00    -0.206 F 
ATOM     88  C   UNL A   1      44.641  34.378  33.126  1.00  0.00     0.059 A 
ATOM     89  C   UNL A   1      44.845  35.281  30.881  1.00  0.00     0.059 A 
ATOM     90  F   UNL A   1      44.630  33.855  29.033  1.00  0.00    -0.206 F 
ATOM     91  C   UNL A   1      44.841  35.458  32.263  1.00  0.00     0.060 A 
BRANCH  91  92
ATOM     92  S   UNL A   1      45.133  37.091  32.976  1.00  0.00     0.124 S 
ATOM     93  O   UNL A   1      45.961  37.715  31.951  1.00  0.00    -0.237 OA
ATOM     94  O   UNL A   1      43.776  37.614  33.107  1.00  0.00    -0.237 OA
ATOM     95  O   UNL A   1      45.805  36.792  34.236  1.00  0.00    -0.744 OA
ENDBRANCH  91  92
ENDBRANCH  59  84
BRANCH  71  96
ATOM     96  C   UNL A   1      48.688  27.527  29.878  1.00  0.00     0.058 A 
ATOM     97  C   UNL A   1      49.266  27.020  31.052  1.00  0.00     0.135 A 
ATOM     98  C   UNL A   1      49.542  27.835  28.807  1.00  0.00     0.135 A 
ATOM     99  F   UNL A   1      48.497  26.714  32.109  1.00  0.00    -0.206 F 
ATOM    100  C   UNL A   1      50.643  26.859  31.171  1.00  0.00     0.059 A 
ATOM    101  C   UNL A   1      50.918  27.649  28.892  1.00  0.00     0.059 A 
ATOM    102  F   UNL A   1      49.040  28.311  27.656  1.00  0.00    -0.206 F 
ATOM    103  C   UNL A   1      51.461  27.176  30.084  1.00  0.00     0.060 A 
BRANCH 103 104
ATOM    104  S   UNL A   1      53.244  26.944  30.247  1.00  0.00     0.124 S 
ATOM    105  O   UNL A   1      53.636  26.699  28.864  1.00  0.00    -0.237 OA
ATOM    106  O   UNL A   1      53.674  28.219  30.812  1.00  0.00    -0.237 OA
ATOM    107  O   UNL A   1      53.357  25.798  31.143  1.00  0.00    -0.744 OA
ENDBRANCH 103 104
ENDBRANCH  71  96
ENDBRANCH  45  46
ENDBRANCH  37  40
ENDBRANCH  35  36
ENDBRANCH   1  35
TORSDOF 18
ENDMDL
MODEL 2
REMARK VINA RESULT:      -9.5      0.623      7.884
REMARK SMILES CS(=O)(=O)c1ccc(/C=C(/C(=O)NCCCNC(=O)c2ccc(-c3c4nc(c(-c5c(F)cc(S(=O)(=O)[O-])cc5F)c5ccc([nH]5)c(-c5c(F)cc(S(=O)(=O)[O-])cc5F)c5nc(c(-c6c(F)cc(S(=O)(=O)[O-])cc6F)c6ccc3[nH]6)C=C5)C=C4)cc2)c2cccc(-c3ccc(S(C)(=O)=O)cc3)c2)cc1
REMARK SMILES IDX 15 1 14 2 13 3 11 4 12 5 10 7 9 8 8 9 5 10 6 11 103 12 7 13
REMARK SMILES IDX 102 14 2 15 1 16 3 17 4 18 86 19 87 20 101 21 88 22 90 23
REMARK SMILES IDX 89 24 91 25 92 26 100 27 93 28 99 29 94 30 95 31 96 32 97 33
REMARK SMILES IDX 98 34 16 35 17 36 18 37 19 39 20 40 21 41 85 42 22 43 84 44
REMARK SMILES IDX 23 45 24 46 25 47 78 48 26 49 83 50 77 51 79 52 27 53 82 54
REMARK SMILES IDX 76 55 75 56 28 58 62 59 41 60 61 61 42 62 45 63 60 64 80 65
REMARK SMILES IDX 43 66 44 67 59 69 81 70 46 71 29 72 30 73 39 74 31 75 32 76
REMARK SMILES IDX 38 77 40 78 33 79 34 80 35 81 36 82 37 83 63 84 64 85 73 86
REMARK SMILES IDX 65 87 66 88 72 89 74 90 67 91 68 92 69 93 70 94 71 95 47 96
REMARK SMILES IDX 48 97 57 98 49 99 50 100 56 101 58 102 51 103 52 104 53 105
REMARK SMILES IDX 54 106 55 107
REMARK H PARENT 13 6 17 38 79 57 45 68
REMARK Flexibility Score: inf
ROOT
ATOM      1  C   UNL A   1      34.747  32.846  30.619  1.00  0.00     0.042 C 
ENDROOT
BRANCH   1   2
ATOM      2  C   UNL A   1      35.372  34.116  31.197  1.00  0.00     0.118 C 
BRANCH   2   3
ATOM      3  N   UNL A   1      36.762  34.226  30.797  1.00  0.00    -0.352 N 
ATOM      4  C   UNL A   1      37.947  34.137  31.451  1.00  0.00     0.251 C 
ATOM      5  O   UNL A   1      38.950  34.325  30.757  1.00  0.00    -0.269 OA
ATOM      6  H   UNL A   1      36.869  34.406  29.836  1.00  0.00     0.163 HD
BRANCH   4   7
ATOM      7  C   UNL A   1      38.088  33.732  32.904  1.00  0.00     0.047 C 
ATOM      8  C   UNL A   1      38.323  34.625  33.897  1.00  0.00     0.022 C 
BRANCH   8   9
ATOM      9  C   UNL A   1      38.367  34.432  35.371  1.00  0.00    -0.025 A 
ATOM     10  C   UNL A   1      38.440  33.807  38.117  1.00  0.00     0.067 A 
ATOM     11  C   UNL A   1      39.410  34.643  37.567  1.00  0.00     0.021 A 
ATOM     12  C   UNL A   1      37.389  33.338  37.330  1.00  0.00     0.021 A 
ATOM     13  C   UNL A   1      39.345  34.979  36.210  1.00  0.00     0.009 A 
ATOM     14  C   UNL A   1      37.364  33.643  35.962  1.00  0.00     0.009 A 
BRANCH  10  15
ATOM     15  S   UNL A   1      38.502  33.410  39.850  1.00  0.00     0.175 S 
ATOM     16  C   UNL A   1      39.337  34.795  40.580  1.00  0.00     0.163 C 
ATOM     17  O   UNL A   1      39.347  32.243  40.001  1.00  0.00    -0.224 OA
ATOM     18  O   UNL A   1      37.136  33.411  40.347  1.00  0.00    -0.224 OA
ENDBRANCH  10  15
ENDBRANCH   8   9
BRANCH   7  19
ATOM     19  C   UNL A   1      38.121  32.271  33.176  1.00  0.00    -0.012 A 
ATOM     20  C   UNL A   1      36.947  31.522  32.992  1.00  0.00     0.009 A 
ATOM     21  C   UNL A   1      39.314  31.600  33.471  1.00  0.00     0.017 A 
ATOM     22  C   UNL A   1      36.972  30.132  33.061  1.00  0.00     0.001 A 
ATOM     23  C   UNL A   1      39.371  30.194  33.464  1.00  0.00    -0.018 A 
ATOM     24  C   UNL A   1      38.179  29.473  33.273  1.00  0.00     0.009 A 
BRANCH  23  25
ATOM     25  C   UNL A   1      40.669  29.507  33.532  1.00  0.00    -0.018 A 
ATOM     26  C   UNL A   1      41.616  29.876  34.508  1.00  0.00     0.010 A 
ATOM     27  C   UNL A   1      40.969  28.431  32.682  1.00  0.00     0.010 A 
ATOM     28  C   UNL A   1      42.825  29.190  34.633  1.00  0.00     0.021 A 
ATOM     29  C   UNL A   1      42.179  27.742  32.796  1.00  0.00     0.021 A 
ATOM     30  C   UNL A   1      43.101  28.132  33.767  1.00  0.00     0.067 A 
BRANCH  30  31
ATOM     31  S   UNL A   1      44.636  27.259  33.935  1.00  0.00     0.175 S 
ATOM     32  C   UNL A   1      44.502  26.474  35.520  1.00  0.00     0.163 C 
ATOM     33  O   UNL A   1      44.651  26.232  32.910  1.00  0.00    -0.224 OA
ATOM     34  O   UNL A   1      45.700  28.241  34.020  1.00  0.00    -0.224 OA
ENDBRANCH  30  31
ENDBRANCH  23  25
ENDBRANCH   7  19
ENDBRANCH   4   7
ENDBRANCH   2   3
ENDBRANCH   1   2
BRANCH   1  35
ATOM     35  C   UNL A   1      34.916  32.723  29.104  1.00  0.00     0.118 C 
BRANCH  35  36
ATOM     36  N   UNL A   1      34.221  31.560  28.570  1.00  0.00    -0.352 N 
ATOM     37  C   UNL A   1      34.717  30.373  28.093  1.00  0.00     0.251 C 
ATOM     38  H   UNL A   1      33.240  31.637  28.548  1.00  0.00     0.163 HD
ATOM     39  O   UNL A   1      33.981  29.634  27.446  1.00  0.00    -0.269 OA
BRANCH  37  40
ATOM     40  C   UNL A   1      36.122  29.985  28.348  1.00  0.00     0.039 A 
ATOM     41  C   UNL A   1      37.057  30.122  27.319  1.00  0.00     0.014 A 
ATOM     42  C   UNL A   1      36.509  29.437  29.575  1.00  0.00     0.014 A 
ATOM     43  C   UNL A   1      38.387  29.753  27.535  1.00  0.00     0.010 A 
ATOM     44  C   UNL A   1      37.849  29.145  29.815  1.00  0.00     0.010 A 
ATOM     45  C   UNL A   1      38.801  29.289  28.795  1.00  0.00    -0.014 A 
BRANCH  45  46
ATOM     46  C   UNL A   1      40.223  28.947  29.056  1.00  0.00     0.031 A 
ATOM     47  C   UNL A   1      41.153  29.966  29.661  1.00  0.00     0.074 A 
ATOM     48  C   UNL A   1      40.688  27.732  28.702  1.00  0.00     0.049 A 
ATOM     49  N   UNL A   1      42.431  29.863  29.925  1.00  0.00    -0.248 NA
ATOM     50  C   UNL A   1      40.579  31.281  29.988  1.00  0.00     0.031 C 
ATOM     51  C   UNL A   1      39.895  26.679  28.061  1.00  0.00     0.029 A 
ATOM     52  N   UNL A   1      41.937  27.177  28.824  1.00  0.00    -0.354 N 
ATOM     53  C   UNL A   1      42.814  31.098  30.436  1.00  0.00     0.074 A 
ATOM     54  C   UNL A   1      41.649  31.953  30.390  1.00  0.00     0.031 C 
ATOM     55  C   UNL A   1      40.668  25.598  27.873  1.00  0.00     0.029 A 
ATOM     56  C   UNL A   1      42.020  25.892  28.339  1.00  0.00     0.049 A 
ATOM     57  H   UNL A   1      42.701  27.653  29.220  1.00  0.00     0.167 HD
ATOM     58  C   UNL A   1      44.021  31.477  30.920  1.00  0.00     0.037 A 
ATOM     59  C   UNL A   1      43.068  25.049  28.270  1.00  0.00     0.037 A 
ATOM     60  C   UNL A   1      45.171  30.612  30.979  1.00  0.00     0.049 A 
ATOM     61  C   UNL A   1      44.398  25.493  28.813  1.00  0.00     0.074 A 
ATOM     62  C   UNL A   1      46.424  30.878  31.503  1.00  0.00     0.029 A 
ATOM     63  N   UNL A   1      45.213  29.312  30.492  1.00  0.00    -0.354 N 
ATOM     64  N   UNL A   1      44.725  26.642  29.356  1.00  0.00    -0.248 NA
ATOM     65  C   UNL A   1      45.501  24.524  28.745  1.00  0.00     0.031 C 
ATOM     66  C   UNL A   1      47.238  29.763  31.284  1.00  0.00     0.029 A 
ATOM     67  C   UNL A   1      46.476  28.775  30.681  1.00  0.00     0.049 A 
ATOM     68  H   UNL A   1      44.456  28.842  30.074  1.00  0.00     0.167 HD
ATOM     69  C   UNL A   1      46.063  26.524  29.720  1.00  0.00     0.074 A 
ATOM     70  C   UNL A   1      46.477  25.186  29.350  1.00  0.00     0.031 C 
ATOM     71  C   UNL A   1      46.874  27.439  30.309  1.00  0.00     0.037 A 
BRANCH  58  72
ATOM     72  C   UNL A   1      44.162  32.889  31.428  1.00  0.00     0.058 A 
ATOM     73  C   UNL A   1      44.569  33.940  30.588  1.00  0.00     0.135 A 
ATOM     74  C   UNL A   1      43.849  33.203  32.760  1.00  0.00     0.135 A 
ATOM     75  F   UNL A   1      44.896  33.697  29.309  1.00  0.00    -0.206 F 
ATOM     76  C   UNL A   1      44.690  35.244  31.059  1.00  0.00     0.059 A 
ATOM     77  C   UNL A   1      43.930  34.507  33.244  1.00  0.00     0.059 A 
ATOM     78  F   UNL A   1      43.454  32.241  33.607  1.00  0.00    -0.206 F 
ATOM     79  C   UNL A   1      44.366  35.518  32.389  1.00  0.00     0.060 A 
BRANCH  79  80
ATOM     80  S   UNL A   1      44.520  37.216  32.979  1.00  0.00     0.124 S 
ATOM     81  O   UNL A   1      45.862  37.564  32.520  1.00  0.00    -0.237 OA
ATOM     82  O   UNL A   1      43.423  37.886  32.289  1.00  0.00    -0.237 OA
ATOM     83  O   UNL A   1      44.366  37.091  34.425  1.00  0.00    -0.744 OA
ENDBRANCH  79  80
ENDBRANCH  58  72
BRANCH  59  84
ATOM     84  C   UNL A   1      42.893  23.691  27.686  1.00  0.00     0.058 A 
ATOM     85  C   UNL A   1      43.058  23.467  26.311  1.00  0.00     0.135 A 
ATOM     86  C   UNL A   1      42.572  22.588  28.493  1.00  0.00     0.135 A 
ATOM     87  F   UNL A   1      43.361  24.489  25.497  1.00  0.00    -0.206 F 
ATOM     88  C   UNL A   1      42.892  22.204  25.753  1.00  0.00     0.059 A 
ATOM     89  C   UNL A   1      42.431  21.309  27.962  1.00  0.00     0.059 A 
ATOM     90  F   UNL A   1      42.421  22.744  29.817  1.00  0.00    -0.206 F 
ATOM     91  C   UNL A   1      42.582  21.130  26.589  1.00  0.00     0.060 A 
BRANCH  91  92
ATOM     92  S   UNL A   1      42.417  19.487  25.859  1.00  0.00     0.124 S 
ATOM     93  O   UNL A   1      42.730  18.627  26.994  1.00  0.00    -0.237 OA
ATOM     94  O   UNL A   1      41.024  19.485  25.422  1.00  0.00    -0.237 OA
ATOM     95  O   UNL A   1      43.403  19.497  24.782  1.00  0.00    -0.744 OA
ENDBRANCH  91  92
ENDBRANCH  59  84
BRANCH  71  96
ATOM     96  C   UNL A   1      48.282  27.011  30.626  1.00  0.00     0.058 A 
ATOM     97  C   UNL A   1      49.349  27.263  29.751  1.00  0.00     0.135 A 
ATOM     98  C   UNL A   1      48.570  26.373  31.844  1.00  0.00     0.135 A 
ATOM     99  F   UNL A   1      49.130  27.866  28.571  1.00  0.00    -0.206 F 
ATOM    100  C   UNL A   1      50.647  26.865  30.055  1.00  0.00     0.059 A 
ATOM    101  C   UNL A   1      49.866  25.997  32.184  1.00  0.00     0.059 A 
ATOM    102  F   UNL A   1      47.589  26.119  32.725  1.00  0.00    -0.206 F 
ATOM    103  C   UNL A   1      50.896  26.233  31.276  1.00  0.00     0.060 A 
BRANCH 103 104
ATOM    104  S   UNL A   1      52.587  25.739  31.665  1.00  0.00     0.124 S 
ATOM    105  O   UNL A   1      52.403  24.349  32.068  1.00  0.00    -0.237 OA
ATOM    106  O   UNL A   1      53.273  25.944  30.393  1.00  0.00    -0.237 OA
ATOM    107  O   UNL A   1      52.972  26.656  32.733  1.00  0.00    -0.744 OA
ENDBRANCH 103 104
ENDBRANCH  71  96
ENDBRANCH  45  46
ENDBRANCH  37  40
ENDBRANCH  35  36
ENDBRANCH   1  35
TORSDOF 18
ENDMDL
MODEL 3
REMARK VINA RESULT:      -9.4      1.455      9.069
REMARK SMILES CS(=O)(=O)c1ccc(/C=C(/C(=O)NCCCNC(=O)c2ccc(-c3c4nc(c(-c5c(F)cc(S(=O)(=O)[O-])cc5F)c5ccc([nH]5)c(-c5c(F)cc(S(=O)(=O)[O-])cc5F)c5nc(c(-c6c(F)cc(S(=O)(=O)[O-])cc6F)c6ccc3[nH]6)C=C5)C=C4)cc2)c2cccc(-c3ccc(S(C)(=O)=O)cc3)c2)cc1
REMARK SMILES IDX 15 1 14 2 13 3 11 4 12 5 10 7 9 8 8 9 5 10 6 11 103 12 7 13
REMARK SMILES IDX 102 14 2 15 1 16 3 17 4 18 86 19 87 20 101 21 88 22 90 23
REMARK SMILES IDX 89 24 91 25 92 26 100 27 93 28 99 29 94 30 95 31 96 32 97 33
REMARK SMILES IDX 98 34 16 35 17 36 18 37 19 39 20 40 21 41 85 42 22 43 84 44
REMARK SMILES IDX 23 45 24 46 25 47 78 48 26 49 83 50 77 51 79 52 27 53 82 54
REMARK SMILES IDX 76 55 75 56 28 58 62 59 41 60 61 61 42 62 45 63 60 64 80 65
REMARK SMILES IDX 43 66 44 67 59 69 81 70 46 71 29 72 30 73 39 74 31 75 32 76
REMARK SMILES IDX 38 77 40 78 33 79 34 80 35 81 36 82 37 83 63 84 64 85 73 86
REMARK SMILES IDX 65 87 66 88 72 89 74 90 67 91 68 92 69 93 70 94 71 95 47 96
REMARK SMILES IDX 48 97 57 98 49 99 50 100 56 101 58 102 51 103 52 104 53 105
REMARK SMILES IDX 54 106 55 107
REMARK H PARENT 13 6 17 38 79 57 45 68
REMARK Flexibility Score: inf
ROOT
ATOM      1  C   UNL A   1      34.413  32.818  30.156  1.00  0.00     0.042 C 
ENDROOT
BRANCH   1   2
ATOM      2  C   UNL A   1      35.701  32.684  30.968  1.00  0.00     0.118 C 
BRANCH   2   3
ATOM      3  N   UNL A   1      35.442  32.922  32.375  1.00  0.00    -0.352 N 
ATOM      4  C   UNL A   1      36.116  32.657  33.523  1.00  0.00     0.251 C 
ATOM      5  O   UNL A   1      35.542  32.993  34.563  1.00  0.00    -0.269 OA
ATOM      6  H   UNL A   1      34.585  33.378  32.533  1.00  0.00     0.163 HD
BRANCH   4   7
ATOM      7  C   UNL A   1      37.519  32.089  33.572  1.00  0.00     0.047 C 
ATOM      8  C   UNL A   1      37.780  30.763  33.460  1.00  0.00     0.022 C 
BRANCH   8   9
ATOM      9  C   UNL A   1      39.079  30.045  33.364  1.00  0.00    -0.025 A 
ATOM     10  C   UNL A   1      41.562  28.717  33.442  1.00  0.00     0.067 A 
ATOM     11  C   UNL A   1      40.465  28.107  32.837  1.00  0.00     0.021 A 
ATOM     12  C   UNL A   1      41.457  30.014  33.942  1.00  0.00     0.021 A 
ATOM     13  C   UNL A   1      39.245  28.788  32.769  1.00  0.00     0.009 A 
ATOM     14  C   UNL A   1      40.217  30.666  33.911  1.00  0.00     0.009 A 
BRANCH  10  15
ATOM     15  S   UNL A   1      43.122  27.864  33.495  1.00  0.00     0.175 S 
ATOM     16  C   UNL A   1      42.914  26.663  34.784  1.00  0.00     0.163 C 
ATOM     17  O   UNL A   1      44.126  28.816  33.924  1.00  0.00    -0.224 OA
ATOM     18  O   UNL A   1      43.268  27.142  32.243  1.00  0.00    -0.224 OA
ENDBRANCH  10  15
ENDBRANCH   8   9
BRANCH   7  19
ATOM     19  C   UNL A   1      38.601  33.047  33.920  1.00  0.00    -0.012 A 
ATOM     20  C   UNL A   1      39.336  33.643  32.882  1.00  0.00     0.009 A 
ATOM     21  C   UNL A   1      38.813  33.479  35.235  1.00  0.00     0.017 A 
ATOM     22  C   UNL A   1      40.234  34.674  33.145  1.00  0.00     0.001 A 
ATOM     23  C   UNL A   1      39.655  34.573  35.508  1.00  0.00    -0.018 A 
ATOM     24  C   UNL A   1      40.375  35.149  34.446  1.00  0.00     0.009 A 
BRANCH  23  25
ATOM     25  C   UNL A   1      39.680  35.169  36.851  1.00  0.00    -0.018 A 
ATOM     26  C   UNL A   1      38.979  34.560  37.910  1.00  0.00     0.010 A 
ATOM     27  C   UNL A   1      40.451  36.309  37.128  1.00  0.00     0.010 A 
ATOM     28  C   UNL A   1      39.046  35.071  39.206  1.00  0.00     0.021 A 
ATOM     29  C   UNL A   1      40.520  36.832  38.421  1.00  0.00     0.021 A 
ATOM     30  C   UNL A   1      39.811  36.212  39.450  1.00  0.00     0.067 A 
BRANCH  30  31
ATOM     31  S   UNL A   1      39.899  36.854  41.102  1.00  0.00     0.175 S 
ATOM     32  C   UNL A   1      39.171  35.574  42.089  1.00  0.00     0.163 C 
ATOM     33  O   UNL A   1      41.307  36.955  41.440  1.00  0.00    -0.224 OA
ATOM     34  O   UNL A   1      39.032  38.013  41.175  1.00  0.00    -0.224 OA
ENDBRANCH  30  31
ENDBRANCH  23  25
ENDBRANCH   7  19
ENDBRANCH   4   7
ENDBRANCH   2   3
ENDBRANCH   1   2
BRANCH   1  35
ATOM     35  C   UNL A   1      34.605  32.541  28.664  1.00  0.00     0.118 C 
BRANCH  35  36
ATOM     36  N   UNL A   1      33.981  31.290  28.257  1.00  0.00    -0.352 N 
ATOM     37  C   UNL A   1      34.548  30.090  27.910  1.00  0.00     0.251 C 
ATOM     38  H   UNL A   1      32.998  31.308  28.225  1.00  0.00     0.163 HD
ATOM     39  O   UNL A   1      33.860  29.245  27.345  1.00  0.00    -0.269 OA
BRANCH  37  40
ATOM     40  C   UNL A   1      35.970  29.812  28.208  1.00  0.00     0.039 A 
ATOM     41  C   UNL A   1      36.316  29.357  29.483  1.00  0.00     0.014 A 
ATOM     42  C   UNL A   1      36.968  30.051  27.259  1.00  0.00     0.014 A 
ATOM     43  C   UNL A   1      37.653  29.097  29.790  1.00  0.00     0.010 A 
ATOM     44  C   UNL A   1      38.291  29.716  27.539  1.00  0.00     0.010 A 
ATOM     45  C   UNL A   1      38.649  29.246  28.811  1.00  0.00    -0.014 A 
BRANCH  45  46
ATOM     46  C   UNL A   1      40.069  28.919  29.106  1.00  0.00     0.031 A 
ATOM     47  C   UNL A   1      40.967  29.940  29.753  1.00  0.00     0.074 A 
ATOM     48  C   UNL A   1      40.560  27.717  28.745  1.00  0.00     0.049 A 
ATOM     49  N   UNL A   1      42.238  29.851  30.051  1.00  0.00    -0.248 NA
ATOM     50  C   UNL A   1      40.366  31.242  30.085  1.00  0.00     0.031 C 
ATOM     51  C   UNL A   1      39.800  26.664  28.066  1.00  0.00     0.029 A 
ATOM     52  N   UNL A   1      41.813  27.177  28.893  1.00  0.00    -0.354 N 
ATOM     53  C   UNL A   1      42.590  31.082  30.592  1.00  0.00     0.074 A 
ATOM     54  C   UNL A   1      41.414  31.922  30.527  1.00  0.00     0.031 C 
ATOM     55  C   UNL A   1      40.593  25.597  27.882  1.00  0.00     0.029 A 
ATOM     56  C   UNL A   1      41.928  25.902  28.390  1.00  0.00     0.049 A 
ATOM     57  H   UNL A   1      42.559  27.657  29.318  1.00  0.00     0.167 HD
ATOM     58  C   UNL A   1      43.778  31.469  31.116  1.00  0.00     0.037 A 
ATOM     59  C   UNL A   1      42.989  25.074  28.337  1.00  0.00     0.037 A 
ATOM     60  C   UNL A   1      44.938  30.619  31.192  1.00  0.00     0.049 A 
ATOM     61  C   UNL A   1      44.297  25.527  28.924  1.00  0.00     0.074 A 
ATOM     62  C   UNL A   1      46.172  30.894  31.756  1.00  0.00     0.029 A 
ATOM     63  N   UNL A   1      45.011  29.329  30.687  1.00  0.00    -0.354 N 
ATOM     64  N   UNL A   1      44.593  26.672  29.494  1.00  0.00    -0.248 NA
ATOM     65  C   UNL A   1      45.415  24.574  28.871  1.00  0.00     0.031 C 
ATOM     66  C   UNL A   1      47.007  29.794  31.542  1.00  0.00     0.029 A 
ATOM     67  C   UNL A   1      46.276  28.806  30.902  1.00  0.00     0.049 A 
ATOM     68  H   UNL A   1      44.273  28.855  30.240  1.00  0.00     0.167 HD
ATOM     69  C   UNL A   1      45.921  26.566  29.894  1.00  0.00     0.074 A 
ATOM     70  C   UNL A   1      46.364  25.239  29.514  1.00  0.00     0.031 C 
ATOM     71  C   UNL A   1      46.703  27.481  30.520  1.00  0.00     0.037 A 
BRANCH  58  72
ATOM     72  C   UNL A   1      43.885  32.875  31.650  1.00  0.00     0.058 A 
ATOM     73  C   UNL A   1      44.008  33.984  30.796  1.00  0.00     0.135 A 
ATOM     74  C   UNL A   1      43.823  33.120  33.031  1.00  0.00     0.135 A 
ATOM     75  F   UNL A   1      44.088  33.809  29.467  1.00  0.00    -0.206 F 
ATOM     76  C   UNL A   1      44.099  35.280  31.293  1.00  0.00     0.059 A 
ATOM     77  C   UNL A   1      43.877  34.412  33.549  1.00  0.00     0.059 A 
ATOM     78  F   UNL A   1      43.704  32.100  33.895  1.00  0.00    -0.206 F 
ATOM     79  C   UNL A   1      44.031  35.484  32.672  1.00  0.00     0.060 A 
BRANCH  79  80
ATOM     80  S   UNL A   1      44.140  37.174  33.297  1.00  0.00     0.124 S 
ATOM     81  O   UNL A   1      44.382  37.925  32.068  1.00  0.00    -0.237 OA
ATOM     82  O   UNL A   1      42.829  37.366  33.907  1.00  0.00    -0.237 OA
ATOM     83  O   UNL A   1      45.261  37.121  34.230  1.00  0.00    -0.744 OA
ENDBRANCH  79  80
ENDBRANCH  58  72
BRANCH  59  84
ATOM     84  C   UNL A   1      42.849  23.724  27.727  1.00  0.00     0.058 A 
ATOM     85  C   UNL A   1      42.563  22.599  28.515  1.00  0.00     0.135 A 
ATOM     86  C   UNL A   1      42.982  23.533  26.343  1.00  0.00     0.135 A 
ATOM     87  F   UNL A   1      42.429  22.728  29.844  1.00  0.00    -0.206 F 
ATOM     88  C   UNL A   1      42.434  21.331  27.958  1.00  0.00     0.059 A 
ATOM     89  C   UNL A   1      42.829  22.279  25.758  1.00  0.00     0.059 A 
ATOM     90  F   UNL A   1      43.238  24.578  25.541  1.00  0.00    -0.206 F 
ATOM     91  C   UNL A   1      42.566  21.183  26.576  1.00  0.00     0.060 A 
BRANCH  91  92
ATOM     92  S   UNL A   1      42.349  19.540  25.859  1.00  0.00     0.124 S 
ATOM     93  O   UNL A   1      42.653  18.680  26.997  1.00  0.00    -0.237 OA
ATOM     94  O   UNL A   1      40.952  19.572  25.438  1.00  0.00    -0.237 OA
ATOM     95  O   UNL A   1      43.323  19.517  24.772  1.00  0.00    -0.744 OA
ENDBRANCH  91  92
ENDBRANCH  59  84
BRANCH  71  96
ATOM     96  C   UNL A   1      48.107  27.067  30.869  1.00  0.00     0.058 A 
ATOM     97  C   UNL A   1      49.202  27.392  30.053  1.00  0.00     0.135 A 
ATOM     98  C   UNL A   1      48.363  26.368  32.060  1.00  0.00     0.135 A 
ATOM     99  F   UNL A   1      49.014  28.055  28.900  1.00  0.00    -0.206 F 
ATOM    100  C   UNL A   1      50.496  27.006  30.386  1.00  0.00     0.059 A 
ATOM    101  C   UNL A   1      49.653  26.003  32.431  1.00  0.00     0.059 A 
ATOM    102  F   UNL A   1      47.355  26.044  32.886  1.00  0.00    -0.206 F 
ATOM    103  C   UNL A   1      50.712  26.312  31.579  1.00  0.00     0.060 A 
BRANCH 103 104
ATOM    104  S   UNL A   1      52.399  25.834  32.008  1.00  0.00     0.124 S 
ATOM    105  O   UNL A   1      52.698  26.757  33.097  1.00  0.00    -0.237 OA
ATOM    106  O   UNL A   1      52.239  24.434  32.390  1.00  0.00    -0.237 OA
ATOM    107  O   UNL A   1      53.141  26.059  30.772  1.00  0.00    -0.744 OA
ENDBRANCH 103 104
ENDBRANCH  71  96
ENDBRANCH  45  46
ENDBRANCH  37  40
ENDBRANCH  35  36
ENDBRANCH   1  35
TORSDOF 18
ENDMDL
