MODEL 1
REMARK VINA RESULT:     -10.9      0.000      0.000
REMARK SMILES CS(=O)(=O)CCSCc1cc(F)cc(/C=C/C(=O)NCCCNC(=O)c2ccc(-c3c4nc(c(-c5c(F)cc(S(=O)(=O)[O-])cc5F)c5ccc([nH]5)c(-c5c(F)cc(S(=O)(=O)[O-])cc5F)c5nc(c(-c6c(F)cc(S(=O)(=O)[O-])cc6F)c6ccc3[nH]6)C=C5)C=C4)cc2)c1
REMARK SMILES IDX 17 1 18 2 19 3 16 5 15 6 14 7 9 8 10 9 92 10 11 11 12 12
REMARK SMILES IDX 13 13 8 14 7 15 6 16 5 17 2 18 1 19 3 20 4 21 20 22 21 23
REMARK SMILES IDX 22 24 23 25 24 26 25 28 26 29 27 30 91 31 28 32 90 33 29 34
REMARK SMILES IDX 30 35 31 36 84 37 32 38 89 39 83 40 85 41 33 42 88 43 82 44
REMARK SMILES IDX 81 45 34 47 68 48 47 49 67 50 48 51 51 52 66 53 86 54 49 55
REMARK SMILES IDX 50 56 65 58 87 59 52 60 35 61 36 62 45 63 37 64 38 65 44 66
REMARK SMILES IDX 46 67 39 68 40 69 41 70 42 71 43 72 69 73 70 74 79 75 71 76
REMARK SMILES IDX 72 77 78 78 80 79 73 80 74 81 75 82 76 83 77 84 53 85 54 86
REMARK SMILES IDX 63 87 55 88 56 89 62 90 64 91 57 92 58 93 59 94 60 95 61 96
REMARK H PARENT 19 4 23 27 85 46 51 57
REMARK Flexibility Score: inf
ROOT
ATOM      1  C   UNL A   1      32.186  31.250  26.899  1.00  0.00     0.244 C 
ATOM      2  O   UNL A   1      31.212  31.875  26.483  1.00  0.00    -0.270 OA
ATOM      3  N   UNL A   1      33.255  31.928  27.392  1.00  0.00    -0.352 N 
ATOM      4  H   UNL A   1      33.198  32.905  27.292  1.00  0.00     0.163 HD
ENDROOT
BRANCH   1   5
ATOM      5  C   UNL A   1      32.128  29.774  26.939  1.00  0.00     0.072 C 
ATOM      6  C   UNL A   1      32.483  28.974  25.924  1.00  0.00     0.014 C 
BRANCH   6   7
ATOM      7  C   UNL A   1      32.427  27.509  25.945  1.00  0.00    -0.022 A 
ATOM      8  C   UNL A   1      33.620  25.390  25.577  1.00  0.00    -0.035 A 
ATOM      9  C   UNL A   1      32.436  24.721  25.895  1.00  0.00     0.043 A 
ATOM     10  C   UNL A   1      33.589  26.796  25.599  1.00  0.00     0.013 A 
ATOM     11  C   UNL A   1      31.283  25.420  26.232  1.00  0.00     0.124 A 
ATOM     12  F   UNL A   1      30.178  24.739  26.561  1.00  0.00    -0.207 F 
ATOM     13  C   UNL A   1      31.268  26.804  26.265  1.00  0.00     0.047 A 
BRANCH   8  14
ATOM     14  C   UNL A   1      34.950  24.695  25.417  1.00  0.00     0.105 C 
BRANCH  14  15
ATOM     15  S   UNL A   1      35.070  23.204  24.397  1.00  0.00    -0.156 SA
BRANCH  15  16
ATOM     16  C   UNL A   1      34.301  21.876  25.386  1.00  0.00     0.086 C 
BRANCH  16  17
ATOM     17  C   UNL A   1      34.277  20.453  24.851  1.00  0.00     0.147 C 
BRANCH  17  18
ATOM     18  S   UNL A   1      32.686  19.685  24.650  1.00  0.00     0.148 S 
ATOM     19  C   UNL A   1      32.795  18.187  25.606  1.00  0.00     0.158 C 
ATOM     20  O   UNL A   1      32.564  19.283  23.258  1.00  0.00    -0.229 OA
ATOM     21  O   UNL A   1      31.671  20.529  25.238  1.00  0.00    -0.229 OA
ENDBRANCH  17  18
ENDBRANCH  16  17
ENDBRANCH  15  16
ENDBRANCH  14  15
ENDBRANCH   8  14
ENDBRANCH   6   7
ENDBRANCH   1   5
BRANCH   3  22
ATOM     22  C   UNL A   1      34.467  31.459  28.041  1.00  0.00     0.118 C 
BRANCH  22  23
ATOM     23  C   UNL A   1      35.578  32.504  27.969  1.00  0.00     0.042 C 
BRANCH  23  24
ATOM     24  C   UNL A   1      36.364  32.635  29.269  1.00  0.00     0.118 C 
BRANCH  24  25
ATOM     25  N   UNL A   1      36.027  31.580  30.216  1.00  0.00    -0.352 N 
ATOM     26  C   UNL A   1      36.689  30.408  30.485  1.00  0.00     0.251 C 
ATOM     27  H   UNL A   1      35.208  31.730  30.739  1.00  0.00     0.163 HD
ATOM     28  O   UNL A   1      36.131  29.527  31.131  1.00  0.00    -0.269 OA
BRANCH  26  29
ATOM     29  C   UNL A   1      38.066  30.215  29.987  1.00  0.00     0.039 A 
ATOM     30  C   UNL A   1      39.126  30.206  30.896  1.00  0.00     0.014 A 
ATOM     31  C   UNL A   1      38.304  30.043  28.621  1.00  0.00     0.014 A 
ATOM     32  C   UNL A   1      40.422  29.957  30.439  1.00  0.00     0.010 A 
ATOM     33  C   UNL A   1      39.580  29.713  28.180  1.00  0.00     0.010 A 
ATOM     34  C   UNL A   1      40.651  29.668  29.084  1.00  0.00    -0.014 A 
BRANCH  34  35
ATOM     35  C   UNL A   1      41.999  29.309  28.578  1.00  0.00     0.031 A 
ATOM     36  C   UNL A   1      42.287  27.895  28.158  1.00  0.00     0.074 A 
ATOM     37  C   UNL A   1      42.979  30.233  28.584  1.00  0.00     0.049 A 
ATOM     38  N   UNL A   1      43.426  27.352  27.816  1.00  0.00    -0.248 NA
ATOM     39  C   UNL A   1      41.150  26.958  28.146  1.00  0.00     0.031 C 
ATOM     40  C   UNL A   1      42.823  31.629  29.001  1.00  0.00     0.029 A 
ATOM     41  N   UNL A   1      44.306  30.138  28.243  1.00  0.00    -0.354 N 
ATOM     42  C   UNL A   1      43.147  26.015  27.562  1.00  0.00     0.074 A 
ATOM     43  C   UNL A   1      41.743  25.813  27.843  1.00  0.00     0.031 C 
ATOM     44  C   UNL A   1      43.997  32.263  28.869  1.00  0.00     0.029 A 
ATOM     45  C   UNL A   1      45.005  31.310  28.410  1.00  0.00     0.049 A 
ATOM     46  H   UNL A   1      44.718  29.308  27.911  1.00  0.00     0.167 HD
ATOM     47  C   UNL A   1      43.981  25.050  27.109  1.00  0.00     0.037 A 
ATOM     48  C   UNL A   1      46.312  31.585  28.232  1.00  0.00     0.037 A 
ATOM     49  C   UNL A   1      45.372  25.272  26.812  1.00  0.00     0.049 A 
ATOM     50  C   UNL A   1      47.230  30.487  27.764  1.00  0.00     0.074 A 
ATOM     51  C   UNL A   1      46.293  24.373  26.304  1.00  0.00     0.029 A 
ATOM     52  N   UNL A   1      46.042  26.474  26.992  1.00  0.00    -0.354 N 
ATOM     53  N   UNL A   1      46.940  29.238  27.484  1.00  0.00    -0.248 NA
ATOM     54  C   UNL A   1      48.648  30.829  27.590  1.00  0.00     0.031 C 
ATOM     55  C   UNL A   1      47.532  25.015  26.229  1.00  0.00     0.029 A 
ATOM     56  C   UNL A   1      47.371  26.332  26.631  1.00  0.00     0.049 A 
ATOM     57  H   UNL A   1      45.632  27.304  27.327  1.00  0.00     0.167 HD
ATOM     58  C   UNL A   1      48.133  28.653  27.076  1.00  0.00     0.074 A 
ATOM     59  C   UNL A   1      49.147  29.685  27.137  1.00  0.00     0.031 C 
ATOM     60  C   UNL A   1      48.366  27.376  26.685  1.00  0.00     0.037 A 
BRANCH  47  61
ATOM     61  C   UNL A   1      43.419  23.673  26.891  1.00  0.00     0.058 A 
ATOM     62  C   UNL A   1      43.155  22.826  27.980  1.00  0.00     0.135 A 
ATOM     63  C   UNL A   1      43.207  23.162  25.600  1.00  0.00     0.135 A 
ATOM     64  F   UNL A   1      43.333  23.264  29.237  1.00  0.00    -0.206 F 
ATOM     65  C   UNL A   1      42.719  21.518  27.797  1.00  0.00     0.059 A 
ATOM     66  C   UNL A   1      42.742  21.866  25.394  1.00  0.00     0.059 A 
ATOM     67  F   UNL A   1      43.423  23.935  24.524  1.00  0.00    -0.206 F 
ATOM     68  C   UNL A   1      42.517  21.047  26.499  1.00  0.00     0.060 A 
BRANCH  68  69
ATOM     69  S   UNL A   1      41.929  19.354  26.280  1.00  0.00     0.124 S 
ATOM     70  O   UNL A   1      42.414  18.708  27.494  1.00  0.00    -0.237 OA
ATOM     71  O   UNL A   1      40.485  19.543  26.191  1.00  0.00    -0.237 OA
ATOM     72  O   UNL A   1      42.574  18.930  25.041  1.00  0.00    -0.744 OA
ENDBRANCH  68  69
ENDBRANCH  47  61
BRANCH  48  73
ATOM     73  C   UNL A   1      46.817  32.963  28.473  1.00  0.00     0.058 A 
ATOM     74  C   UNL A   1      46.882  33.912  27.443  1.00  0.00     0.135 A 
ATOM     75  C   UNL A   1      47.292  33.342  29.738  1.00  0.00     0.135 A 
ATOM     76  F   UNL A   1      46.452  33.599  26.210  1.00  0.00    -0.206 F 
ATOM     77  C   UNL A   1      47.425  35.177  27.646  1.00  0.00     0.059 A 
ATOM     78  C   UNL A   1      47.815  34.611  29.975  1.00  0.00     0.059 A 
ATOM     79  F   UNL A   1      47.242  32.474  30.760  1.00  0.00    -0.206 F 
ATOM     80  C   UNL A   1      47.895  35.514  28.917  1.00  0.00     0.060 A 
BRANCH  80  81
ATOM     81  S   UNL A   1      48.618  37.152  29.154  1.00  0.00     0.124 S 
ATOM     82  O   UNL A   1      50.043  36.861  29.031  1.00  0.00    -0.237 OA
ATOM     83  O   UNL A   1      48.026  37.909  28.057  1.00  0.00    -0.237 OA
ATOM     84  O   UNL A   1      48.169  37.529  30.490  1.00  0.00    -0.744 OA
ENDBRANCH  80  81
ENDBRANCH  48  73
BRANCH  60  85
ATOM     85  C   UNL A   1      49.761  27.007  26.264  1.00  0.00     0.058 A 
ATOM     86  C   UNL A   1      50.158  27.155  24.925  1.00  0.00     0.135 A 
ATOM     87  C   UNL A   1      50.658  26.393  27.151  1.00  0.00     0.135 A 
ATOM     88  F   UNL A   1      49.336  27.732  24.034  1.00  0.00    -0.206 F 
ATOM     89  C   UNL A   1      51.380  26.671  24.472  1.00  0.00     0.059 A 
ATOM     90  C   UNL A   1      51.899  25.928  26.726  1.00  0.00     0.059 A 
ATOM     91  F   UNL A   1      50.330  26.239  28.445  1.00  0.00    -0.206 F 
ATOM     92  C   UNL A   1      52.241  26.051  25.379  1.00  0.00     0.060 A 
BRANCH  92  93
ATOM     93  S   UNL A   1      53.808  25.400  24.765  1.00  0.00     0.124 S 
ATOM     94  O   UNL A   1      53.578  23.961  24.819  1.00  0.00    -0.237 OA
ATOM     95  O   UNL A   1      53.877  25.983  23.428  1.00  0.00    -0.237 OA
ATOM     96  O   UNL A   1      54.787  25.916  25.717  1.00  0.00    -0.744 OA
ENDBRANCH  92  93
ENDBRANCH  60  85
ENDBRANCH  34  35
ENDBRANCH  26  29
ENDBRANCH  24  25
ENDBRANCH  23  24
ENDBRANCH  22  23
ENDBRANCH   3  22
TORSDOF 19
ENDMDL
MODEL 2
REMARK VINA RESULT:     -10.8      5.103     12.094
REMARK SMILES CS(=O)(=O)CCSCc1cc(F)cc(/C=C/C(=O)NCCCNC(=O)c2ccc(-c3c4nc(c(-c5c(F)cc(S(=O)(=O)[O-])cc5F)c5ccc([nH]5)c(-c5c(F)cc(S(=O)(=O)[O-])cc5F)c5nc(c(-c6c(F)cc(S(=O)(=O)[O-])cc6F)c6ccc3[nH]6)C=C5)C=C4)cc2)c1
REMARK SMILES IDX 17 1 18 2 19 3 16 5 15 6 14 7 9 8 10 9 92 10 11 11 12 12
REMARK SMILES IDX 13 13 8 14 7 15 6 16 5 17 2 18 1 19 3 20 4 21 20 22 21 23
REMARK SMILES IDX 22 24 23 25 24 26 25 28 26 29 27 30 91 31 28 32 90 33 29 34
REMARK SMILES IDX 30 35 31 36 84 37 32 38 89 39 83 40 85 41 33 42 88 43 82 44
REMARK SMILES IDX 81 45 34 47 68 48 47 49 67 50 48 51 51 52 66 53 86 54 49 55
REMARK SMILES IDX 50 56 65 58 87 59 52 60 35 61 36 62 45 63 37 64 38 65 44 66
REMARK SMILES IDX 46 67 39 68 40 69 41 70 42 71 43 72 69 73 70 74 79 75 71 76
REMARK SMILES IDX 72 77 78 78 80 79 73 80 74 81 75 82 76 83 77 84 53 85 54 86
REMARK SMILES IDX 63 87 55 88 56 89 62 90 64 91 57 92 58 93 59 94 60 95 61 96
REMARK H PARENT 19 4 23 27 85 46 51 57
REMARK Flexibility Score: inf
ROOT
ATOM      1  C   UNL A   1      44.192  23.049  24.496  1.00  0.00     0.244 C 
ATOM      2  O   UNL A   1      44.687  22.865  23.385  1.00  0.00    -0.270 OA
ATOM      3  N   UNL A   1      43.247  22.191  24.958  1.00  0.00    -0.352 N 
ATOM      4  H   UNL A   1      42.960  21.512  24.306  1.00  0.00     0.163 HD
ENDROOT
BRANCH   1   5
ATOM      5  C   UNL A   1      44.707  24.150  25.338  1.00  0.00     0.072 C 
ATOM      6  C   UNL A   1      44.197  25.388  25.363  1.00  0.00     0.014 C 
BRANCH   6   7
ATOM      7  C   UNL A   1      44.698  26.492  26.187  1.00  0.00    -0.022 A 
ATOM      8  C   UNL A   1      44.379  28.804  26.961  1.00  0.00    -0.035 A 
ATOM      9  C   UNL A   1      45.574  28.682  27.675  1.00  0.00     0.043 A 
ATOM     10  C   UNL A   1      43.962  27.691  26.210  1.00  0.00     0.013 A 
ATOM     11  C   UNL A   1      46.308  27.502  27.651  1.00  0.00     0.124 A 
ATOM     12  F   UNL A   1      47.432  27.417  28.374  1.00  0.00    -0.207 F 
ATOM     13  C   UNL A   1      45.881  26.407  26.921  1.00  0.00     0.047 A 
BRANCH   8  14
ATOM     14  C   UNL A   1      43.432  29.970  27.119  1.00  0.00     0.105 C 
BRANCH  14  15
ATOM     15  S   UNL A   1      44.090  31.625  27.444  1.00  0.00    -0.156 SA
BRANCH  15  16
ATOM     16  C   UNL A   1      44.164  31.768  29.264  1.00  0.00     0.086 C 
BRANCH  16  17
ATOM     17  C   UNL A   1      45.059  32.819  29.901  1.00  0.00     0.147 C 
BRANCH  17  18
ATOM     18  S   UNL A   1      46.704  32.992  29.248  1.00  0.00     0.148 S 
ATOM     19  C   UNL A   1      47.698  33.419  30.663  1.00  0.00     0.158 C 
ATOM     20  O   UNL A   1      46.709  34.152  28.371  1.00  0.00    -0.229 OA
ATOM     21  O   UNL A   1      47.154  31.716  28.743  1.00  0.00    -0.229 OA
ENDBRANCH  17  18
ENDBRANCH  16  17
ENDBRANCH  15  16
ENDBRANCH  14  15
ENDBRANCH   8  14
ENDBRANCH   6   7
ENDBRANCH   1   5
BRANCH   3  22
ATOM     22  C   UNL A   1      42.588  22.099  26.250  1.00  0.00     0.118 C 
BRANCH  22  23
ATOM     23  C   UNL A   1      41.404  21.135  26.206  1.00  0.00     0.042 C 
BRANCH  23  24
ATOM     24  C   UNL A   1      40.163  21.677  26.906  1.00  0.00     0.118 C 
BRANCH  24  25
ATOM     25  N   UNL A   1      39.210  22.245  25.961  1.00  0.00    -0.352 N 
ATOM     26  C   UNL A   1      38.663  23.503  25.928  1.00  0.00     0.251 C 
ATOM     27  H   UNL A   1      38.918  21.639  25.243  1.00  0.00     0.163 HD
ATOM     28  O   UNL A   1      37.693  23.727  25.210  1.00  0.00    -0.269 OA
BRANCH  26  29
ATOM     29  C   UNL A   1      39.241  24.575  26.762  1.00  0.00     0.039 A 
ATOM     30  C   UNL A   1      40.146  25.473  26.192  1.00  0.00     0.014 A 
ATOM     31  C   UNL A   1      38.886  24.689  28.109  1.00  0.00     0.014 A 
ATOM     32  C   UNL A   1      40.643  26.528  26.958  1.00  0.00     0.010 A 
ATOM     33  C   UNL A   1      39.317  25.785  28.845  1.00  0.00     0.010 A 
ATOM     34  C   UNL A   1      40.200  26.715  28.278  1.00  0.00    -0.014 A 
BRANCH  34  35
ATOM     35  C   UNL A   1      40.637  27.876  29.092  1.00  0.00     0.031 A 
ATOM     36  C   UNL A   1      41.950  27.826  29.822  1.00  0.00     0.074 A 
ATOM     37  C   UNL A   1      39.812  28.931  29.242  1.00  0.00     0.049 A 
ATOM     38  N   UNL A   1      42.448  28.673  30.683  1.00  0.00    -0.248 NA
ATOM     39  C   UNL A   1      42.806  26.653  29.571  1.00  0.00     0.031 C 
ATOM     40  C   UNL A   1      38.500  29.076  28.607  1.00  0.00     0.029 A 
ATOM     41  N   UNL A   1      39.945  30.077  29.987  1.00  0.00    -0.354 N 
ATOM     42  C   UNL A   1      43.663  28.133  31.086  1.00  0.00     0.074 A 
ATOM     43  C   UNL A   1      43.804  26.859  30.419  1.00  0.00     0.031 C 
ATOM     44  C   UNL A   1      37.961  30.249  28.969  1.00  0.00     0.029 A 
ATOM     45  C   UNL A   1      38.861  30.919  29.903  1.00  0.00     0.049 A 
ATOM     46  H   UNL A   1      40.741  30.276  30.530  1.00  0.00     0.167 HD
ATOM     47  C   UNL A   1      44.589  28.667  31.917  1.00  0.00     0.037 A 
ATOM     48  C   UNL A   1      38.611  32.090  30.522  1.00  0.00     0.037 A 
ATOM     49  C   UNL A   1      44.445  29.949  32.555  1.00  0.00     0.049 A 
ATOM     50  C   UNL A   1      39.639  32.647  31.470  1.00  0.00     0.074 A 
ATOM     51  C   UNL A   1      45.346  30.601  33.379  1.00  0.00     0.029 A 
ATOM     52  N   UNL A   1      43.334  30.772  32.444  1.00  0.00    -0.354 N 
ATOM     53  N   UNL A   1      40.805  32.146  31.806  1.00  0.00    -0.248 NA
ATOM     54  C   UNL A   1      39.322  33.922  32.128  1.00  0.00     0.031 C 
ATOM     55  C   UNL A   1      44.757  31.793  33.809  1.00  0.00     0.029 A 
ATOM     56  C   UNL A   1      43.515  31.914  33.205  1.00  0.00     0.049 A 
ATOM     57  H   UNL A   1      42.535  30.574  31.904  1.00  0.00     0.167 HD
ATOM     58  C   UNL A   1      41.371  33.056  32.690  1.00  0.00     0.074 A 
ATOM     59  C   UNL A   1      40.424  34.142  32.834  1.00  0.00     0.031 C 
ATOM     60  C   UNL A   1      42.567  32.996  33.326  1.00  0.00     0.037 A 
BRANCH  47  61
ATOM     61  C   UNL A   1      45.846  27.882  32.173  1.00  0.00     0.058 A 
ATOM     62  C   UNL A   1      47.025  28.168  31.466  1.00  0.00     0.135 A 
ATOM     63  C   UNL A   1      45.867  26.800  33.068  1.00  0.00     0.135 A 
ATOM     64  F   UNL A   1      47.065  29.195  30.602  1.00  0.00    -0.206 F 
ATOM     65  C   UNL A   1      48.173  27.398  31.623  1.00  0.00     0.059 A 
ATOM     66  C   UNL A   1      47.013  26.035  33.264  1.00  0.00     0.059 A 
ATOM     67  F   UNL A   1      44.773  26.497  33.786  1.00  0.00    -0.206 F 
ATOM     68  C   UNL A   1      48.156  26.332  32.524  1.00  0.00     0.060 A 
BRANCH  68  69
ATOM     69  S   UNL A   1      49.662  25.358  32.732  1.00  0.00     0.124 S 
ATOM     70  O   UNL A   1      49.202  24.275  33.594  1.00  0.00    -0.237 OA
ATOM     71  O   UNL A   1      49.977  24.988  31.356  1.00  0.00    -0.237 OA
ATOM     72  O   UNL A   1      50.592  26.301  33.347  1.00  0.00    -0.744 OA
ENDBRANCH  68  69
ENDBRANCH  47  61
BRANCH  48  73
ATOM     73  C   UNL A   1      37.346  32.820  30.239  1.00  0.00     0.058 A 
ATOM     74  C   UNL A   1      36.160  32.528  30.929  1.00  0.00     0.135 A 
ATOM     75  C   UNL A   1      37.291  33.797  29.233  1.00  0.00     0.135 A 
ATOM     76  F   UNL A   1      36.154  31.594  31.893  1.00  0.00    -0.206 F 
ATOM     77  C   UNL A   1      34.958  33.154  30.613  1.00  0.00     0.059 A 
ATOM     78  C   UNL A   1      36.107  34.457  28.917  1.00  0.00     0.059 A 
ATOM     79  F   UNL A   1      38.401  34.119  28.551  1.00  0.00    -0.206 F 
ATOM     80  C   UNL A   1      34.942  34.114  29.600  1.00  0.00     0.060 A 
BRANCH  80  81
ATOM     81  S   UNL A   1      33.367  34.897  29.191  1.00  0.00     0.124 S 
ATOM     82  O   UNL A   1      32.712  34.934  30.495  1.00  0.00    -0.237 OA
ATOM     83  O   UNL A   1      33.795  36.185  28.657  1.00  0.00    -0.237 OA
ATOM     84  O   UNL A   1      32.777  33.981  28.220  1.00  0.00    -0.744 OA
ENDBRANCH  80  81
ENDBRANCH  48  73
BRANCH  60  85
ATOM     85  C   UNL A   1      42.952  34.140  34.221  1.00  0.00     0.058 A 
ATOM     86  C   UNL A   1      43.713  35.208  33.716  1.00  0.00     0.135 A 
ATOM     87  C   UNL A   1      42.679  34.120  35.597  1.00  0.00     0.135 A 
ATOM     88  F   UNL A   1      44.006  35.272  32.408  1.00  0.00    -0.206 F 
ATOM     89  C   UNL A   1      44.223  36.194  34.552  1.00  0.00     0.059 A 
ATOM     90  C   UNL A   1      43.155  35.114  36.448  1.00  0.00     0.059 A 
ATOM     91  F   UNL A   1      41.944  33.128  36.126  1.00  0.00    -0.206 F 
ATOM     92  C   UNL A   1      43.946  36.135  35.918  1.00  0.00     0.060 A 
BRANCH  92  93
ATOM     93  S   UNL A   1      44.645  37.406  36.991  1.00  0.00     0.124 S 
ATOM     94  O   UNL A   1      46.077  37.161  36.854  1.00  0.00    -0.237 OA
ATOM     95  O   UNL A   1      44.148  38.632  36.374  1.00  0.00    -0.237 OA
ATOM     96  O   UNL A   1      44.077  37.097  38.300  1.00  0.00    -0.744 OA
ENDBRANCH  92  93
ENDBRANCH  60  85
ENDBRANCH  34  35
ENDBRANCH  26  29
ENDBRANCH  24  25
ENDBRANCH  23  24
ENDBRANCH  22  23
ENDBRANCH   3  22
TORSDOF 19
ENDMDL
MODEL 3
REMARK VINA RESULT:     -10.7      6.731     14.545
REMARK SMILES CS(=O)(=O)CCSCc1cc(F)cc(/C=C/C(=O)NCCCNC(=O)c2ccc(-c3c4nc(c(-c5c(F)cc(S(=O)(=O)[O-])cc5F)c5ccc([nH]5)c(-c5c(F)cc(S(=O)(=O)[O-])cc5F)c5nc(c(-c6c(F)cc(S(=O)(=O)[O-])cc6F)c6ccc3[nH]6)C=C5)C=C4)cc2)c1
REMARK SMILES IDX 17 1 18 2 19 3 16 5 15 6 14 7 9 8 10 9 92 10 11 11 12 12
REMARK SMILES IDX 13 13 8 14 7 15 6 16 5 17 2 18 1 19 3 20 4 21 20 22 21 23
REMARK SMILES IDX 22 24 23 25 24 26 25 28 26 29 27 30 91 31 28 32 90 33 29 34
REMARK SMILES IDX 30 35 31 36 84 37 32 38 89 39 83 40 85 41 33 42 88 43 82 44
REMARK SMILES IDX 81 45 34 47 68 48 47 49 67 50 48 51 51 52 66 53 86 54 49 55
REMARK SMILES IDX 50 56 65 58 87 59 52 60 35 61 36 62 45 63 37 64 38 65 44 66
REMARK SMILES IDX 46 67 39 68 40 69 41 70 42 71 43 72 69 73 70 74 79 75 71 76
REMARK SMILES IDX 72 77 78 78 80 79 73 80 74 81 75 82 76 83 77 84 53 85 54 86
REMARK SMILES IDX 63 87 55 88 56 89 62 90 64 91 57 92 58 93 59 94 60 95 61 96
REMARK H PARENT 19 4 23 27 85 46 51 57
REMARK Flexibility Score: inf
ROOT
ATOM      1  C   UNL A   1      43.462  23.572  35.067  1.00  0.00     0.244 C 
ATOM      2  O   UNL A   1      42.269  23.708  35.330  1.00  0.00    -0.270 OA
ATOM      3  N   UNL A   1      44.330  23.232  36.055  1.00  0.00    -0.352 N 
ATOM      4  H   UNL A   1      43.932  23.205  36.955  1.00  0.00     0.163 HD
ENDROOT
BRANCH   1   5
ATOM      5  C   UNL A   1      43.906  23.691  33.662  1.00  0.00     0.072 C 
ATOM      6  C   UNL A   1      44.578  24.738  33.165  1.00  0.00     0.014 C 
BRANCH   6   7
ATOM      7  C   UNL A   1      45.022  24.874  31.775  1.00  0.00    -0.022 A 
ATOM      8  C   UNL A   1      44.917  24.003  29.477  1.00  0.00    -0.035 A 
ATOM      9  C   UNL A   1      45.829  24.994  29.108  1.00  0.00     0.043 A 
ATOM     10  C   UNL A   1      44.531  23.955  30.829  1.00  0.00     0.013 A 
ATOM     11  C   UNL A   1      46.321  25.901  30.040  1.00  0.00     0.124 A 
ATOM     12  F   UNL A   1      47.171  26.855  29.638  1.00  0.00    -0.207 F 
ATOM     13  C   UNL A   1      45.924  25.855  31.364  1.00  0.00     0.047 A 
BRANCH   8  14
ATOM     14  C   UNL A   1      44.185  23.135  28.482  1.00  0.00     0.105 C 
BRANCH  14  15
ATOM     15  S   UNL A   1      44.571  23.267  26.718  1.00  0.00    -0.156 SA
BRANCH  15  16
ATOM     16  C   UNL A   1      44.234  21.612  26.023  1.00  0.00     0.086 C 
BRANCH  16  17
ATOM     17  C   UNL A   1      45.269  20.943  25.133  1.00  0.00     0.147 C 
BRANCH  17  18
ATOM     18  S   UNL A   1      44.902  19.305  24.546  1.00  0.00     0.148 S 
ATOM     19  C   UNL A   1      43.445  18.828  25.452  1.00  0.00     0.158 C 
ATOM     20  O   UNL A   1      45.973  18.428  24.989  1.00  0.00    -0.229 OA
ATOM     21  O   UNL A   1      44.566  19.365  23.142  1.00  0.00    -0.229 OA
ENDBRANCH  17  18
ENDBRANCH  16  17
ENDBRANCH  15  16
ENDBRANCH  14  15
ENDBRANCH   8  14
ENDBRANCH   6   7
ENDBRANCH   1   5
BRANCH   3  22
ATOM     22  C   UNL A   1      45.744  22.900  36.013  1.00  0.00     0.118 C 
BRANCH  22  23
ATOM     23  C   UNL A   1      46.477  23.419  37.248  1.00  0.00     0.042 C 
BRANCH  23  24
ATOM     24  C   UNL A   1      45.655  24.416  38.057  1.00  0.00     0.118 C 
BRANCH  24  25
ATOM     25  N   UNL A   1      46.487  25.466  38.633  1.00  0.00    -0.352 N 
ATOM     26  C   UNL A   1      46.572  26.793  38.293  1.00  0.00     0.251 C 
ATOM     27  H   UNL A   1      47.071  25.182  39.371  1.00  0.00     0.163 HD
ATOM     28  O   UNL A   1      47.502  27.472  38.716  1.00  0.00    -0.269 OA
BRANCH  26  29
ATOM     29  C   UNL A   1      45.546  27.391  37.416  1.00  0.00     0.039 A 
ATOM     30  C   UNL A   1      44.210  27.014  37.570  1.00  0.00     0.014 A 
ATOM     31  C   UNL A   1      45.910  28.324  36.441  1.00  0.00     0.014 A 
ATOM     32  C   UNL A   1      43.229  27.626  36.788  1.00  0.00     0.010 A 
ATOM     33  C   UNL A   1      44.924  28.989  35.723  1.00  0.00     0.010 A 
ATOM     34  C   UNL A   1      43.574  28.647  35.889  1.00  0.00    -0.014 A 
BRANCH  34  35
ATOM     35  C   UNL A   1      42.549  29.382  35.108  1.00  0.00     0.031 A 
ATOM     36  C   UNL A   1      41.881  30.590  35.703  1.00  0.00     0.074 A 
ATOM     37  C   UNL A   1      42.160  28.908  33.908  1.00  0.00     0.049 A 
ATOM     38  N   UNL A   1      40.875  31.287  35.243  1.00  0.00    -0.248 NA
ATOM     39  C   UNL A   1      42.393  31.063  37.001  1.00  0.00     0.031 C 
ATOM     40  C   UNL A   1      42.716  27.726  33.246  1.00  0.00     0.029 A 
ATOM     41  N   UNL A   1      41.197  29.352  33.036  1.00  0.00    -0.354 N 
ATOM     42  C   UNL A   1      40.626  32.267  36.195  1.00  0.00     0.074 A 
ATOM     43  C   UNL A   1      41.548  32.043  37.286  1.00  0.00     0.031 C 
ATOM     44  C   UNL A   1      42.103  27.552  32.065  1.00  0.00     0.029 A 
ATOM     45  C   UNL A   1      41.075  28.576  31.907  1.00  0.00     0.049 A 
ATOM     46  H   UNL A   1      40.646  30.150  33.203  1.00  0.00     0.167 HD
ATOM     47  C   UNL A   1      39.728  33.279  36.150  1.00  0.00     0.037 A 
ATOM     48  C   UNL A   1      40.219  28.667  30.869  1.00  0.00     0.037 A 
ATOM     49  C   UNL A   1      38.833  33.503  35.045  1.00  0.00     0.049 A 
ATOM     50  C   UNL A   1      39.204  29.778  30.857  1.00  0.00     0.074 A 
ATOM     51  C   UNL A   1      37.917  34.527  34.881  1.00  0.00     0.029 A 
ATOM     52  N   UNL A   1      38.740  32.697  33.920  1.00  0.00    -0.354 N 
ATOM     53  N   UNL A   1      39.011  30.725  31.746  1.00  0.00    -0.248 NA
ATOM     54  C   UNL A   1      38.287  29.835  29.711  1.00  0.00     0.031 C 
ATOM     55  C   UNL A   1      37.232  34.309  33.682  1.00  0.00     0.029 A 
ATOM     56  C   UNL A   1      37.764  33.185  33.069  1.00  0.00     0.049 A 
ATOM     57  H   UNL A   1      39.289  31.897  33.752  1.00  0.00     0.167 HD
ATOM     58  C   UNL A   1      37.972  31.505  31.253  1.00  0.00     0.074 A 
ATOM     59  C   UNL A   1      37.580  30.925  29.985  1.00  0.00     0.031 C 
ATOM     60  C   UNL A   1      37.395  32.602  31.801  1.00  0.00     0.037 A 
BRANCH  47  61
ATOM     61  C   UNL A   1      39.674  34.230  37.313  1.00  0.00     0.058 A 
ATOM     62  C   UNL A   1      40.515  35.354  37.359  1.00  0.00     0.135 A 
ATOM     63  C   UNL A   1      38.840  33.993  38.418  1.00  0.00     0.135 A 
ATOM     64  F   UNL A   1      41.328  35.633  36.327  1.00  0.00    -0.206 F 
ATOM     65  C   UNL A   1      40.545  36.197  38.465  1.00  0.00     0.059 A 
ATOM     66  C   UNL A   1      38.831  34.840  39.523  1.00  0.00     0.059 A 
ATOM     67  F   UNL A   1      38.001  32.945  38.419  1.00  0.00    -0.206 F 
ATOM     68  C   UNL A   1      39.700  35.931  39.543  1.00  0.00     0.060 A 
BRANCH  68  69
ATOM     69  S   UNL A   1      39.735  37.049  40.960  1.00  0.00     0.124 S 
ATOM     70  O   UNL A   1      39.176  38.270  40.394  1.00  0.00    -0.237 OA
ATOM     71  O   UNL A   1      38.891  36.346  41.921  1.00  0.00    -0.237 OA
ATOM     72  O   UNL A   1      41.152  37.107  41.309  1.00  0.00    -0.744 OA
ENDBRANCH  68  69
ENDBRANCH  47  61
BRANCH  48  73
ATOM     73  C   UNL A   1      40.310  27.692  29.749  1.00  0.00     0.058 A 
ATOM     74  C   UNL A   1      41.267  27.829  28.733  1.00  0.00     0.135 A 
ATOM     75  C   UNL A   1      39.404  26.625  29.651  1.00  0.00     0.135 A 
ATOM     76  F   UNL A   1      42.151  28.839  28.770  1.00  0.00    -0.206 F 
ATOM     77  C   UNL A   1      41.305  26.964  27.644  1.00  0.00     0.059 A 
ATOM     78  C   UNL A   1      39.439  25.729  28.586  1.00  0.00     0.059 A 
ATOM     79  F   UNL A   1      38.477  26.445  30.604  1.00  0.00    -0.206 F 
ATOM     80  C   UNL A   1      40.381  25.919  27.578  1.00  0.00     0.060 A 
BRANCH  80  81
ATOM     81  S   UNL A   1      40.433  24.822  26.144  1.00  0.00     0.124 S 
ATOM     82  O   UNL A   1      41.265  23.731  26.642  1.00  0.00    -0.237 OA
ATOM     83  O   UNL A   1      39.022  24.508  25.948  1.00  0.00    -0.237 OA
ATOM     84  O   UNL A   1      41.041  25.650  25.107  1.00  0.00    -0.744 OA
ENDBRANCH  80  81
ENDBRANCH  48  73
BRANCH  60  85
ATOM     85  C   UNL A   1      36.292  33.280  31.037  1.00  0.00     0.058 A 
ATOM     86  C   UNL A   1      36.592  34.075  29.918  1.00  0.00     0.135 A 
ATOM     87  C   UNL A   1      34.963  33.246  31.482  1.00  0.00     0.135 A 
ATOM     88  F   UNL A   1      37.850  34.146  29.455  1.00  0.00    -0.206 F 
ATOM     89  C   UNL A   1      35.618  34.844  29.293  1.00  0.00     0.059 A 
ATOM     90  C   UNL A   1      33.965  33.985  30.852  1.00  0.00     0.059 A 
ATOM     91  F   UNL A   1      34.622  32.491  32.539  1.00  0.00    -0.206 F 
ATOM     92  C   UNL A   1      34.308  34.800  29.772  1.00  0.00     0.060 A 
BRANCH  92  93
ATOM     93  S   UNL A   1      33.065  35.831  28.967  1.00  0.00     0.124 S 
ATOM     94  O   UNL A   1      33.893  36.799  28.256  1.00  0.00    -0.237 OA
ATOM     95  O   UNL A   1      32.360  34.863  28.133  1.00  0.00    -0.237 OA
ATOM     96  O   UNL A   1      32.292  36.366  30.084  1.00  0.00    -0.744 OA
ENDBRANCH  92  93
ENDBRANCH  60  85
ENDBRANCH  34  35
ENDBRANCH  26  29
ENDBRANCH  24  25
ENDBRANCH  23  24
ENDBRANCH  22  23
ENDBRANCH   3  22
TORSDOF 19
ENDMDL
