MODEL 1
REMARK VINA RESULT:     -11.6      0.000      0.000
REMARK SMILES O=C(NCCCNC(=O)[C@H](Cc1ccc(O)cc1)NC(=O)c1ccc(Cl)s1)c1ccc(-c2c3nc(c(-c4c(F)cc(S(=O)(=O)[O-])cc4F)c4ccc([nH]4)c(-c4c(F)cc(S(=O)(=O)[O-])cc4F)c4nc(c(-c5c(F)cc(S(=O)(=O)[O-])cc5F)c5ccc2[nH]5)C=C4)C=C3)cc1
REMARK SMILES IDX 5 1 4 2 3 3 1 4 2 5 28 7 29 8 93 9 30 10 92 11 31 12 32 13
REMARK SMILES IDX 33 14 86 15 34 16 91 17 85 18 87 19 35 20 90 21 84 22 83 23
REMARK SMILES IDX 36 25 70 26 49 27 69 28 50 29 53 30 68 31 88 32 51 33 52 34
REMARK SMILES IDX 67 36 89 37 54 38 37 39 38 40 47 41 39 42 40 43 46 44 48 45
REMARK SMILES IDX 41 46 42 47 43 48 44 49 45 50 71 51 72 52 81 53 73 54 74 55
REMARK SMILES IDX 80 56 82 57 75 58 76 59 77 60 78 61 79 62 55 63 56 64 65 65
REMARK SMILES IDX 57 66 58 67 64 68 66 69 59 70 60 71 61 72 62 73 63 74 6 75
REMARK SMILES IDX 7 76 8 77 9 79 10 80 19 81 20 82 21 84 22 85 23 86 27 87
REMARK SMILES IDX 24 88 25 89 26 90 11 91 12 92 13 93 18 94 14 95 17 96 15 97
REMARK SMILES IDX 16 98
REMARK H PARENT 3 6 87 24 53 35 7 78 19 83 16 99
REMARK Flexibility Score: inf
ROOT
ATOM      1  C   UNL A   1      32.008  28.092  27.553  1.00  0.00     0.042 C 
ENDROOT
BRANCH   1   2
ATOM      2  C   UNL A   1      33.397  28.646  27.295  1.00  0.00     0.118 C 
BRANCH   2   3
ATOM      3  N   UNL A   1      33.510  30.041  27.713  1.00  0.00    -0.352 N 
ATOM      4  O   UNL A   1      34.221  31.860  28.799  1.00  0.00    -0.269 OA
ATOM      5  C   UNL A   1      34.504  30.747  28.356  1.00  0.00     0.251 C 
ATOM      6  H   UNL A   1      32.720  30.585  27.490  1.00  0.00     0.163 HD
BRANCH   5   7
ATOM      7  C   UNL A   1      35.875  30.208  28.550  1.00  0.00     0.039 A 
ATOM      8  C   UNL A   1      36.840  30.301  27.555  1.00  0.00     0.014 A 
ATOM      9  C   UNL A   1      36.254  29.678  29.792  1.00  0.00     0.014 A 
ATOM     10  C   UNL A   1      38.082  29.706  27.707  1.00  0.00     0.010 A 
ATOM     11  C   UNL A   1      37.574  29.246  30.013  1.00  0.00     0.010 A 
ATOM     12  C   UNL A   1      38.502  29.248  28.963  1.00  0.00    -0.014 A 
BRANCH  12  13
ATOM     13  C   UNL A   1      39.949  28.935  29.126  1.00  0.00     0.031 A 
ATOM     14  C   UNL A   1      40.530  27.616  28.709  1.00  0.00     0.074 A 
ATOM     15  C   UNL A   1      40.758  29.921  29.579  1.00  0.00     0.049 A 
ATOM     16  N   UNL A   1      41.783  27.242  28.702  1.00  0.00    -0.248 NA
ATOM     17  C   UNL A   1      39.594  26.578  28.249  1.00  0.00     0.031 C 
ATOM     18  C   UNL A   1      40.302  31.235  30.048  1.00  0.00     0.029 A 
ATOM     19  N   UNL A   1      42.124  30.004  29.672  1.00  0.00    -0.354 N 
ATOM     20  C   UNL A   1      41.792  25.927  28.251  1.00  0.00     0.074 A 
ATOM     21  C   UNL A   1      40.411  25.557  28.019  1.00  0.00     0.031 C 
ATOM     22  C   UNL A   1      41.361  32.020  30.280  1.00  0.00     0.029 A 
ATOM     23  C   UNL A   1      42.573  31.240  30.085  1.00  0.00     0.049 A 
ATOM     24  H   UNL A   1      42.726  29.254  29.463  1.00  0.00     0.167 HD
ATOM     25  C   UNL A   1      42.854  25.112  28.047  1.00  0.00     0.037 A 
ATOM     26  C   UNL A   1      43.820  31.695  30.311  1.00  0.00     0.037 A 
ATOM     27  C   UNL A   1      44.226  25.495  28.283  1.00  0.00     0.049 A 
ATOM     28  C   UNL A   1      44.972  30.763  30.084  1.00  0.00     0.074 A 
ATOM     29  C   UNL A   1      45.372  24.738  28.109  1.00  0.00     0.029 A 
ATOM     30  N   UNL A   1      44.638  26.739  28.741  1.00  0.00    -0.354 N 
ATOM     31  N   UNL A   1      44.953  29.525  29.650  1.00  0.00    -0.248 NA
ATOM     32  C   UNL A   1      46.311  31.280  30.385  1.00  0.00     0.031 C 
ATOM     33  C   UNL A   1      46.472  25.508  28.501  1.00  0.00     0.029 A 
ATOM     34  C   UNL A   1      46.019  26.765  28.869  1.00  0.00     0.049 A 
ATOM     35  H   UNL A   1      44.039  27.492  28.945  1.00  0.00     0.167 HD
ATOM     36  C   UNL A   1      46.279  29.115  29.625  1.00  0.00     0.074 A 
ATOM     37  C   UNL A   1      47.075  30.251  30.047  1.00  0.00     0.031 C 
ATOM     38  C   UNL A   1      46.793  27.903  29.300  1.00  0.00     0.037 A 
BRANCH  25  39
ATOM     39  C   UNL A   1      42.586  23.716  27.550  1.00  0.00     0.058 A 
ATOM     40  C   UNL A   1      42.562  23.414  26.180  1.00  0.00     0.135 A 
ATOM     41  C   UNL A   1      42.417  22.655  28.455  1.00  0.00     0.135 A 
ATOM     42  F   UNL A   1      42.695  24.393  25.271  1.00  0.00    -0.206 F 
ATOM     43  C   UNL A   1      42.373  22.113  25.723  1.00  0.00     0.059 A 
ATOM     44  C   UNL A   1      42.252  21.342  28.022  1.00  0.00     0.059 A 
ATOM     45  F   UNL A   1      42.426  22.887  29.778  1.00  0.00    -0.206 F 
ATOM     46  C   UNL A   1      42.225  21.082  26.653  1.00  0.00     0.060 A 
BRANCH  46  47
ATOM     47  S   UNL A   1      42.012  19.396  26.044  1.00  0.00     0.124 S 
ATOM     48  O   UNL A   1      42.421  18.612  27.206  1.00  0.00    -0.237 OA
ATOM     49  O   UNL A   1      40.589  19.358  25.723  1.00  0.00    -0.237 OA
ATOM     50  O   UNL A   1      42.912  19.331  24.897  1.00  0.00    -0.744 OA
ENDBRANCH  46  47
ENDBRANCH  25  39
BRANCH  26  51
ATOM     51  C   UNL A   1      44.030  33.075  30.828  1.00  0.00     0.058 A 
ATOM     52  C   UNL A   1      44.068  33.349  32.202  1.00  0.00     0.135 A 
ATOM     53  C   UNL A   1      44.196  34.156  29.945  1.00  0.00     0.135 A 
ATOM     54  F   UNL A   1      43.912  32.354  33.090  1.00  0.00    -0.206 F 
ATOM     55  C   UNL A   1      44.235  34.644  32.684  1.00  0.00     0.059 A 
ATOM     56  C   UNL A   1      44.402  35.453  30.402  1.00  0.00     0.059 A 
ATOM     57  F   UNL A   1      44.188  33.949  28.619  1.00  0.00    -0.206 F 
ATOM     58  C   UNL A   1      44.400  35.690  31.774  1.00  0.00     0.060 A 
BRANCH  58  59
ATOM     59  S   UNL A   1      44.640  37.365  32.402  1.00  0.00     0.124 S 
ATOM     60  O   UNL A   1      43.705  37.394  33.521  1.00  0.00    -0.237 OA
ATOM     61  O   UNL A   1      46.057  37.364  32.750  1.00  0.00    -0.237 OA
ATOM     62  O   UNL A   1      44.285  38.203  31.260  1.00  0.00    -0.744 OA
ENDBRANCH  58  59
ENDBRANCH  26  51
BRANCH  38  63
ATOM     63  C   UNL A   1      48.288  27.762  29.373  1.00  0.00     0.058 A 
ATOM     64  C   UNL A   1      48.933  27.382  30.560  1.00  0.00     0.135 A 
ATOM     65  C   UNL A   1      49.083  28.014  28.244  1.00  0.00     0.135 A 
ATOM     66  F   UNL A   1      48.219  27.139  31.671  1.00  0.00    -0.206 F 
ATOM     67  C   UNL A   1      50.319  27.300  30.638  1.00  0.00     0.059 A 
ATOM     68  C   UNL A   1      50.468  27.906  28.291  1.00  0.00     0.059 A 
ATOM     69  F   UNL A   1      48.515  28.371  27.081  1.00  0.00    -0.206 F 
ATOM     70  C   UNL A   1      51.078  27.569  29.498  1.00  0.00     0.060 A 
BRANCH  70  71
ATOM     71  S   UNL A   1      52.876  27.464  29.613  1.00  0.00     0.124 S 
ATOM     72  O   UNL A   1      53.060  27.120  31.019  1.00  0.00    -0.237 OA
ATOM     73  O   UNL A   1      53.189  26.407  28.656  1.00  0.00    -0.237 OA
ATOM     74  O   UNL A   1      53.319  28.800  29.230  1.00  0.00    -0.744 OA
ENDBRANCH  70  71
ENDBRANCH  38  63
ENDBRANCH  12  13
ENDBRANCH   5   7
ENDBRANCH   2   3
ENDBRANCH   1   2
BRANCH   1  75
ATOM     75  C   UNL A   1      31.322  27.733  26.246  1.00  0.00     0.117 C 
BRANCH  75  76
ATOM     76  N   UNL A   1      31.746  28.575  25.143  1.00  0.00    -0.354 N 
ATOM     77  C   UNL A   1      32.431  28.223  24.011  1.00  0.00     0.242 C 
ATOM     78  H   UNL A   1      31.509  29.527  25.219  1.00  0.00     0.163 HD
ATOM     79  O   UNL A   1      32.595  29.080  23.139  1.00  0.00    -0.273 OA
BRANCH  77  80
ATOM     80  C   UNL A   1      32.884  26.762  23.808  1.00  0.00     0.176 C 
BRANCH  80  81
ATOM     81  N   UNL A   1      33.091  26.569  22.364  1.00  0.00    -0.339 N 
ATOM     82  C   UNL A   1      32.915  25.421  21.629  1.00  0.00     0.262 C 
ATOM     83  H   UNL A   1      33.392  27.360  21.862  1.00  0.00     0.164 HD
ATOM     84  O   UNL A   1      33.012  25.481  20.400  1.00  0.00    -0.268 OA
BRANCH  82  85
ATOM     85  C   UNL A   1      32.559  24.208  22.329  1.00  0.00     0.093 A 
ATOM     86  C   UNL A   1      31.348  23.887  22.918  1.00  0.00     0.027 A 
ATOM     87  S   UNL A   1      33.703  22.944  22.509  1.00  0.00    -0.118 S 
ATOM     88  C   UNL A   1      31.421  22.667  23.659  1.00  0.00     0.033 A 
ATOM     89  C   UNL A   1      32.651  22.079  23.516  1.00  0.00     0.094 A 
ATOM     90  Cl  UNL A   1      33.179  20.623  24.257  1.00  0.00    -0.072 Cl
ENDBRANCH  82  85
ENDBRANCH  80  81
BRANCH  80  91
ATOM     91  C   UNL A   1      34.171  26.462  24.605  1.00  0.00     0.070 C 
BRANCH  91  92
ATOM     92  C   UNL A   1      34.195  25.188  25.436  1.00  0.00    -0.045 A 
ATOM     93  C   UNL A   1      33.088  24.669  26.125  1.00  0.00     0.007 A 
ATOM     94  C   UNL A   1      35.387  24.445  25.470  1.00  0.00     0.007 A 
ATOM     95  C   UNL A   1      33.187  23.513  26.905  1.00  0.00     0.046 A 
ATOM     96  C   UNL A   1      35.481  23.271  26.223  1.00  0.00     0.046 A 
ATOM     97  C   UNL A   1      34.390  22.829  26.956  1.00  0.00     0.115 A 
BRANCH  97  98
ATOM     98  O   UNL A   1      34.545  21.711  27.713  1.00  0.00    -0.508 OA
ATOM     99  H   UNL A   1      33.804  21.326  28.139  1.00  0.00     0.293 HD
ENDBRANCH  97  98
ENDBRANCH  91  92
ENDBRANCH  80  91
ENDBRANCH  77  80
ENDBRANCH  75  76
ENDBRANCH   1  75
TORSDOF 18
ENDMDL
MODEL 2
REMARK VINA RESULT:     -11.5      1.458      2.912
REMARK SMILES O=C(NCCCNC(=O)[C@H](Cc1ccc(O)cc1)NC(=O)c1ccc(Cl)s1)c1ccc(-c2c3nc(c(-c4c(F)cc(S(=O)(=O)[O-])cc4F)c4ccc([nH]4)c(-c4c(F)cc(S(=O)(=O)[O-])cc4F)c4nc(c(-c5c(F)cc(S(=O)(=O)[O-])cc5F)c5ccc2[nH]5)C=C4)C=C3)cc1
REMARK SMILES IDX 5 1 4 2 3 3 1 4 2 5 28 7 29 8 93 9 30 10 92 11 31 12 32 13
REMARK SMILES IDX 33 14 86 15 34 16 91 17 85 18 87 19 35 20 90 21 84 22 83 23
REMARK SMILES IDX 36 25 70 26 49 27 69 28 50 29 53 30 68 31 88 32 51 33 52 34
REMARK SMILES IDX 67 36 89 37 54 38 37 39 38 40 47 41 39 42 40 43 46 44 48 45
REMARK SMILES IDX 41 46 42 47 43 48 44 49 45 50 71 51 72 52 81 53 73 54 74 55
REMARK SMILES IDX 80 56 82 57 75 58 76 59 77 60 78 61 79 62 55 63 56 64 65 65
REMARK SMILES IDX 57 66 58 67 64 68 66 69 59 70 60 71 61 72 62 73 63 74 6 75
REMARK SMILES IDX 7 76 8 77 9 79 10 80 19 81 20 82 21 84 22 85 23 86 27 87
REMARK SMILES IDX 24 88 25 89 26 90 11 91 12 92 13 93 18 94 14 95 17 96 15 97
REMARK SMILES IDX 16 98
REMARK H PARENT 3 6 87 24 53 35 7 78 19 83 16 99
REMARK Flexibility Score: inf
ROOT
ATOM      1  C   UNL A   1      32.423  27.958  26.687  1.00  0.00     0.042 C 
ENDROOT
BRANCH   1   2
ATOM      2  C   UNL A   1      33.658  28.785  26.381  1.00  0.00     0.118 C 
BRANCH   2   3
ATOM      3  N   UNL A   1      33.643  30.063  27.088  1.00  0.00    -0.352 N 
ATOM      4  O   UNL A   1      34.111  31.628  28.614  1.00  0.00    -0.269 OA
ATOM      5  C   UNL A   1      34.506  30.640  27.994  1.00  0.00     0.251 C 
ATOM      6  H   UNL A   1      32.862  30.624  26.874  1.00  0.00     0.163 HD
BRANCH   5   7
ATOM      7  C   UNL A   1      35.867  30.104  28.262  1.00  0.00     0.039 A 
ATOM      8  C   UNL A   1      36.883  30.197  27.320  1.00  0.00     0.014 A 
ATOM      9  C   UNL A   1      36.179  29.575  29.524  1.00  0.00     0.014 A 
ATOM     10  C   UNL A   1      38.115  29.604  27.539  1.00  0.00     0.010 A 
ATOM     11  C   UNL A   1      37.486  29.146  29.815  1.00  0.00     0.010 A 
ATOM     12  C   UNL A   1      38.468  29.149  28.816  1.00  0.00    -0.014 A 
BRANCH  12  13
ATOM     13  C   UNL A   1      39.906  28.838  29.057  1.00  0.00     0.031 A 
ATOM     14  C   UNL A   1      40.514  27.525  28.659  1.00  0.00     0.074 A 
ATOM     15  C   UNL A   1      40.685  29.821  29.564  1.00  0.00     0.049 A 
ATOM     16  N   UNL A   1      41.767  27.155  28.718  1.00  0.00    -0.248 NA
ATOM     17  C   UNL A   1      39.609  26.490  28.136  1.00  0.00     0.031 C 
ATOM     18  C   UNL A   1      40.198  31.129  30.021  1.00  0.00     0.029 A 
ATOM     19  N   UNL A   1      42.043  29.908  29.735  1.00  0.00    -0.354 N 
ATOM     20  C   UNL A   1      41.805  25.846  28.255  1.00  0.00     0.074 A 
ATOM     21  C   UNL A   1      40.441  25.474  27.942  1.00  0.00     0.031 C 
ATOM     22  C   UNL A   1      41.239  31.915  30.321  1.00  0.00     0.029 A 
ATOM     23  C   UNL A   1      42.463  31.140  30.185  1.00  0.00     0.049 A 
ATOM     24  H   UNL A   1      42.658  29.162  29.553  1.00  0.00     0.167 HD
ATOM     25  C   UNL A   1      42.881  25.036  28.102  1.00  0.00     0.037 A 
ATOM     26  C   UNL A   1      43.694  31.597  30.486  1.00  0.00     0.037 A 
ATOM     27  C   UNL A   1      44.235  25.420  28.419  1.00  0.00     0.049 A 
ATOM     28  C   UNL A   1      44.860  30.671  30.314  1.00  0.00     0.074 A 
ATOM     29  C   UNL A   1      45.393  24.669  28.302  1.00  0.00     0.029 A 
ATOM     30  N   UNL A   1      44.617  26.660  28.913  1.00  0.00    -0.354 N 
ATOM     31  N   UNL A   1      44.870  29.438  29.867  1.00  0.00    -0.248 NA
ATOM     32  C   UNL A   1      46.179  31.189  30.695  1.00  0.00     0.031 C 
ATOM     33  C   UNL A   1      46.466  25.438  28.762  1.00  0.00     0.029 A 
ATOM     34  C   UNL A   1      45.988  26.689  29.118  1.00  0.00     0.049 A 
ATOM     35  H   UNL A   1      44.004  27.410  29.091  1.00  0.00     0.167 HD
ATOM     36  C   UNL A   1      46.197  29.031  29.912  1.00  0.00     0.074 A 
ATOM     37  C   UNL A   1      46.964  30.165  30.390  1.00  0.00     0.031 C 
ATOM     38  C   UNL A   1      46.732  27.825  29.603  1.00  0.00     0.037 A 
BRANCH  25  39
ATOM     39  C   UNL A   1      42.645  23.645  27.576  1.00  0.00     0.058 A 
ATOM     40  C   UNL A   1      42.715  23.354  26.205  1.00  0.00     0.135 A 
ATOM     41  C   UNL A   1      42.414  22.576  28.459  1.00  0.00     0.135 A 
ATOM     42  F   UNL A   1      42.911  24.340  25.316  1.00  0.00    -0.206 F 
ATOM     43  C   UNL A   1      42.557  22.057  25.726  1.00  0.00     0.059 A 
ATOM     44  C   UNL A   1      42.278  21.267  28.004  1.00  0.00     0.059 A 
ATOM     45  F   UNL A   1      42.333  22.797  29.781  1.00  0.00    -0.206 F 
ATOM     46  C   UNL A   1      42.344  21.018  26.635  1.00  0.00     0.060 A 
BRANCH  46  47
ATOM     47  S   UNL A   1      42.172  19.338  25.998  1.00  0.00     0.124 S 
ATOM     48  O   UNL A   1      43.040  19.380  24.825  1.00  0.00    -0.237 OA
ATOM     49  O   UNL A   1      42.655  18.531  27.115  1.00  0.00    -0.237 OA
ATOM     50  O   UNL A   1      40.745  19.224  25.717  1.00  0.00    -0.744 OA
ENDBRANCH  46  47
ENDBRANCH  25  39
BRANCH  26  51
ATOM     51  C   UNL A   1      43.870  32.972  31.029  1.00  0.00     0.058 A 
ATOM     52  C   UNL A   1      43.798  33.236  32.403  1.00  0.00     0.135 A 
ATOM     53  C   UNL A   1      44.113  34.058  30.169  1.00  0.00     0.135 A 
ATOM     54  F   UNL A   1      43.565  32.236  33.268  1.00  0.00    -0.206 F 
ATOM     55  C   UNL A   1      43.933  34.527  32.907  1.00  0.00     0.059 A 
ATOM     56  C   UNL A   1      44.289  35.350  30.651  1.00  0.00     0.059 A 
ATOM     57  F   UNL A   1      44.211  33.860  28.846  1.00  0.00    -0.206 F 
ATOM     58  C   UNL A   1      44.177  35.578  32.020  1.00  0.00     0.060 A 
BRANCH  58  59
ATOM     59  S   UNL A   1      44.376  37.247  32.678  1.00  0.00     0.124 S 
ATOM     60  O   UNL A   1      44.135  38.058  31.491  1.00  0.00    -0.237 OA
ATOM     61  O   UNL A   1      43.344  37.297  33.709  1.00  0.00    -0.237 OA
ATOM     62  O   UNL A   1      45.748  37.248  33.177  1.00  0.00    -0.744 OA
ENDBRANCH  58  59
ENDBRANCH  26  51
BRANCH  38  63
ATOM     63  C   UNL A   1      48.222  27.688  29.758  1.00  0.00     0.058 A 
ATOM     64  C   UNL A   1      49.100  27.962  28.698  1.00  0.00     0.135 A 
ATOM     65  C   UNL A   1      48.775  27.275  30.980  1.00  0.00     0.135 A 
ATOM     66  F   UNL A   1      48.620  28.351  27.505  1.00  0.00    -0.206 F 
ATOM     67  C   UNL A   1      50.473  27.787  28.830  1.00  0.00     0.059 A 
ATOM     68  C   UNL A   1      50.148  27.126  31.144  1.00  0.00     0.059 A 
ATOM     69  F   UNL A   1      47.980  27.011  32.029  1.00  0.00    -0.206 F 
ATOM     70  C   UNL A   1      50.986  27.364  30.057  1.00  0.00     0.060 A 
BRANCH  70  71
ATOM     71  S   UNL A   1      52.770  27.137  30.215  1.00  0.00     0.124 S 
ATOM     72  O   UNL A   1      53.237  28.518  30.276  1.00  0.00    -0.237 OA
ATOM     73  O   UNL A   1      52.879  26.375  31.455  1.00  0.00    -0.237 OA
ATOM     74  O   UNL A   1      53.127  26.406  29.003  1.00  0.00    -0.744 OA
ENDBRANCH  70  71
ENDBRANCH  38  63
ENDBRANCH  12  13
ENDBRANCH   5   7
ENDBRANCH   2   3
ENDBRANCH   1   2
BRANCH   1  75
ATOM     75  C   UNL A   1      32.627  26.512  26.271  1.00  0.00     0.117 C 
BRANCH  75  76
ATOM     76  N   UNL A   1      31.642  25.618  26.849  1.00  0.00    -0.354 N 
ATOM     77  C   UNL A   1      31.139  24.452  26.338  1.00  0.00     0.242 C 
ATOM     78  H   UNL A   1      31.287  25.887  27.726  1.00  0.00     0.163 HD
ATOM     79  O   UNL A   1      30.385  23.781  27.048  1.00  0.00    -0.273 OA
BRANCH  77  80
ATOM     80  C   UNL A   1      31.601  23.956  24.952  1.00  0.00     0.176 C 
BRANCH  80  81
ATOM     81  N   UNL A   1      31.706  22.490  25.029  1.00  0.00    -0.339 N 
ATOM     82  C   UNL A   1      32.845  21.722  25.017  1.00  0.00     0.262 C 
ATOM     83  H   UNL A   1      30.856  21.999  25.098  1.00  0.00     0.164 HD
ATOM     84  O   UNL A   1      32.746  20.508  25.223  1.00  0.00    -0.268 OA
BRANCH  82  85
ATOM     85  C   UNL A   1      34.116  22.384  24.829  1.00  0.00     0.093 A 
ATOM     86  C   UNL A   1      34.759  22.671  23.637  1.00  0.00     0.027 A 
ATOM     87  S   UNL A   1      35.023  22.920  26.181  1.00  0.00    -0.118 S 
ATOM     88  C   UNL A   1      36.075  23.187  23.851  1.00  0.00     0.033 A 
ATOM     89  C   UNL A   1      36.326  23.351  25.189  1.00  0.00     0.094 A 
ATOM     90  Cl  UNL A   1      37.789  23.911  25.891  1.00  0.00    -0.072 Cl
ENDBRANCH  82  85
ENDBRANCH  80  81
BRANCH  80  91
ATOM     91  C   UNL A   1      30.613  24.391  23.849  1.00  0.00     0.070 C 
BRANCH  91  92
ATOM     92  C   UNL A   1      30.677  25.840  23.388  1.00  0.00    -0.045 A 
ATOM     93  C   UNL A   1      29.673  26.792  23.623  1.00  0.00     0.007 A 
ATOM     94  C   UNL A   1      31.843  26.273  22.735  1.00  0.00     0.007 A 
ATOM     95  C   UNL A   1      29.775  28.099  23.137  1.00  0.00     0.046 A 
ATOM     96  C   UNL A   1      31.963  27.588  22.275  1.00  0.00     0.046 A 
ATOM     97  C   UNL A   1      30.918  28.482  22.456  1.00  0.00     0.115 A 
BRANCH  97  98
ATOM     98  O   UNL A   1      31.061  29.735  21.946  1.00  0.00    -0.508 OA
ATOM     99  H   UNL A   1      31.794  30.263  22.198  1.00  0.00     0.293 HD
ENDBRANCH  97  98
ENDBRANCH  91  92
ENDBRANCH  80  91
ENDBRANCH  77  80
ENDBRANCH  75  76
ENDBRANCH   1  75
TORSDOF 18
ENDMDL
MODEL 3
REMARK VINA RESULT:     -11.2      5.418      9.904
REMARK SMILES O=C(NCCCNC(=O)[C@H](Cc1ccc(O)cc1)NC(=O)c1ccc(Cl)s1)c1ccc(-c2c3nc(c(-c4c(F)cc(S(=O)(=O)[O-])cc4F)c4ccc([nH]4)c(-c4c(F)cc(S(=O)(=O)[O-])cc4F)c4nc(c(-c5c(F)cc(S(=O)(=O)[O-])cc5F)c5ccc2[nH]5)C=C4)C=C3)cc1
REMARK SMILES IDX 5 1 4 2 3 3 1 4 2 5 28 7 29 8 93 9 30 10 92 11 31 12 32 13
REMARK SMILES IDX 33 14 86 15 34 16 91 17 85 18 87 19 35 20 90 21 84 22 83 23
REMARK SMILES IDX 36 25 70 26 49 27 69 28 50 29 53 30 68 31 88 32 51 33 52 34
REMARK SMILES IDX 67 36 89 37 54 38 37 39 38 40 47 41 39 42 40 43 46 44 48 45
REMARK SMILES IDX 41 46 42 47 43 48 44 49 45 50 71 51 72 52 81 53 73 54 74 55
REMARK SMILES IDX 80 56 82 57 75 58 76 59 77 60 78 61 79 62 55 63 56 64 65 65
REMARK SMILES IDX 57 66 58 67 64 68 66 69 59 70 60 71 61 72 62 73 63 74 6 75
REMARK SMILES IDX 7 76 8 77 9 79 10 80 19 81 20 82 21 84 22 85 23 86 27 87
REMARK SMILES IDX 24 88 25 89 26 90 11 91 12 92 13 93 18 94 14 95 17 96 15 97
REMARK SMILES IDX 16 98
REMARK H PARENT 3 6 87 24 53 35 7 78 19 83 16 99
REMARK Flexibility Score: inf
ROOT
ATOM      1  C   UNL A   1      37.445  24.091  26.091  1.00  0.00     0.042 C 
ENDROOT
BRANCH   1   2
ATOM      2  C   UNL A   1      38.815  23.731  26.635  1.00  0.00     0.118 C 
BRANCH   2   3
ATOM      3  N   UNL A   1      39.885  24.400  25.898  1.00  0.00    -0.352 N 
ATOM      4  O   UNL A   1      41.272  26.008  25.203  1.00  0.00    -0.269 OA
ATOM      5  C   UNL A   1      40.594  25.559  26.127  1.00  0.00     0.251 C 
ATOM      6  H   UNL A   1      40.152  23.929  25.076  1.00  0.00     0.163 HD
BRANCH   5   7
ATOM      7  C   UNL A   1      40.550  26.286  27.423  1.00  0.00     0.039 A 
ATOM      8  C   UNL A   1      41.319  27.420  27.647  1.00  0.00     0.014 A 
ATOM      9  C   UNL A   1      39.646  25.890  28.421  1.00  0.00     0.014 A 
ATOM     10  C   UNL A   1      41.346  28.029  28.892  1.00  0.00     0.010 A 
ATOM     11  C   UNL A   1      39.534  26.623  29.615  1.00  0.00     0.010 A 
ATOM     12  C   UNL A   1      40.395  27.700  29.866  1.00  0.00    -0.014 A 
BRANCH  12  13
ATOM     13  C   UNL A   1      40.271  28.615  31.036  1.00  0.00     0.031 A 
ATOM     14  C   UNL A   1      41.201  28.533  32.211  1.00  0.00     0.074 A 
ATOM     15  C   UNL A   1      39.346  29.599  30.969  1.00  0.00     0.049 A 
ATOM     16  N   UNL A   1      41.272  29.323  33.251  1.00  0.00    -0.248 NA
ATOM     17  C   UNL A   1      42.168  27.425  32.235  1.00  0.00     0.031 C 
ATOM     18  C   UNL A   1      38.362  29.756  29.890  1.00  0.00     0.029 A 
ATOM     19  N   UNL A   1      39.106  30.678  31.780  1.00  0.00    -0.354 N 
ATOM     20  C   UNL A   1      42.278  28.808  34.059  1.00  0.00     0.074 A 
ATOM     21  C   UNL A   1      42.773  27.618  33.401  1.00  0.00     0.031 C 
ATOM     22  C   UNL A   1      37.701  30.910  30.051  1.00  0.00     0.029 A 
ATOM     23  C   UNL A   1      38.131  31.524  31.298  1.00  0.00     0.049 A 
ATOM     24  H   UNL A   1      39.586  30.835  32.625  1.00  0.00     0.167 HD
ATOM     25  C   UNL A   1      42.744  29.290  35.236  1.00  0.00     0.037 A 
ATOM     26  C   UNL A   1      37.613  32.656  31.811  1.00  0.00     0.037 A 
ATOM     27  C   UNL A   1      42.240  30.479  35.881  1.00  0.00     0.049 A 
ATOM     28  C   UNL A   1      38.146  33.156  33.120  1.00  0.00     0.074 A 
ATOM     29  C   UNL A   1      42.645  31.046  37.078  1.00  0.00     0.029 A 
ATOM     30  N   UNL A   1      41.224  31.284  35.386  1.00  0.00    -0.354 N 
ATOM     31  N   UNL A   1      39.104  32.653  33.862  1.00  0.00    -0.248 NA
ATOM     32  C   UNL A   1      37.525  34.366  33.669  1.00  0.00     0.031 C 
ATOM     33  C   UNL A   1      41.848  32.168  37.326  1.00  0.00     0.029 A 
ATOM     34  C   UNL A   1      40.980  32.334  36.259  1.00  0.00     0.049 A 
ATOM     35  H   UNL A   1      40.746  31.133  34.538  1.00  0.00     0.167 HD
ATOM     36  C   UNL A   1      39.202  33.487  34.967  1.00  0.00     0.074 A 
ATOM     37  C   UNL A   1      38.234  34.550  34.774  1.00  0.00     0.031 C 
ATOM     38  C   UNL A   1      40.006  33.377  36.053  1.00  0.00     0.037 A 
BRANCH  25  39
ATOM     39  C   UNL A   1      43.853  28.532  35.918  1.00  0.00     0.058 A 
ATOM     40  C   UNL A   1      45.201  28.879  35.738  1.00  0.00     0.135 A 
ATOM     41  C   UNL A   1      43.561  27.491  36.815  1.00  0.00     0.135 A 
ATOM     42  F   UNL A   1      45.538  29.851  34.876  1.00  0.00    -0.206 F 
ATOM     43  C   UNL A   1      46.220  28.216  36.415  1.00  0.00     0.059 A 
ATOM     44  C   UNL A   1      44.562  26.831  37.522  1.00  0.00     0.059 A 
ATOM     45  F   UNL A   1      42.289  27.114  37.022  1.00  0.00    -0.206 F 
ATOM     46  C   UNL A   1      45.891  27.196  37.310  1.00  0.00     0.060 A 
BRANCH  46  47
ATOM     47  S   UNL A   1      47.223  26.369  38.203  1.00  0.00     0.124 S 
ATOM     48  O   UNL A   1      48.378  27.173  37.814  1.00  0.00    -0.237 OA
ATOM     49  O   UNL A   1      46.797  26.503  39.592  1.00  0.00    -0.237 OA
ATOM     50  O   UNL A   1      47.199  25.011  37.671  1.00  0.00    -0.744 OA
ENDBRANCH  46  47
ENDBRANCH  25  39
BRANCH  26  51
ATOM     51  C   UNL A   1      36.499  33.353  31.111  1.00  0.00     0.058 A 
ATOM     52  C   UNL A   1      35.182  33.298  31.587  1.00  0.00     0.135 A 
ATOM     53  C   UNL A   1      36.737  34.091  29.939  1.00  0.00     0.135 A 
ATOM     54  F   UNL A   1      34.898  32.605  32.701  1.00  0.00    -0.206 F 
ATOM     55  C   UNL A   1      34.136  33.926  30.915  1.00  0.00     0.059 A 
ATOM     56  C   UNL A   1      35.716  34.758  29.271  1.00  0.00     0.059 A 
ATOM     57  F   UNL A   1      37.982  34.194  29.449  1.00  0.00    -0.206 F 
ATOM     58  C   UNL A   1      34.415  34.653  29.757  1.00  0.00     0.060 A 
BRANCH  58  59
ATOM     59  S   UNL A   1      33.061  35.485  28.900  1.00  0.00     0.124 S 
ATOM     60  O   UNL A   1      32.271  35.983  30.020  1.00  0.00    -0.237 OA
ATOM     61  O   UNL A   1      33.767  36.493  28.115  1.00  0.00    -0.237 OA
ATOM     62  O   UNL A   1      32.449  34.412  28.122  1.00  0.00    -0.744 OA
ENDBRANCH  58  59
ENDBRANCH  26  51
BRANCH  38  63
ATOM     63  C   UNL A   1      39.878  34.449  37.099  1.00  0.00     0.058 A 
ATOM     64  C   UNL A   1      40.540  35.681  36.975  1.00  0.00     0.135 A 
ATOM     65  C   UNL A   1      39.087  34.240  38.239  1.00  0.00     0.135 A 
ATOM     66  F   UNL A   1      41.316  35.928  35.907  1.00  0.00    -0.206 F 
ATOM     67  C   UNL A   1      40.458  36.651  37.968  1.00  0.00     0.059 A 
ATOM     68  C   UNL A   1      38.965  35.210  39.229  1.00  0.00     0.059 A 
ATOM     69  F   UNL A   1      38.424  33.083  38.402  1.00  0.00    -0.206 F 
ATOM     70  C   UNL A   1      39.671  36.403  39.093  1.00  0.00     0.060 A 
BRANCH  70  71
ATOM     71  S   UNL A   1      39.577  37.669  40.377  1.00  0.00     0.124 S 
ATOM     72  O   UNL A   1      40.986  38.000  40.565  1.00  0.00    -0.237 OA
ATOM     73  O   UNL A   1      38.763  38.700  39.740  1.00  0.00    -0.237 OA
ATOM     74  O   UNL A   1      38.941  36.975  41.491  1.00  0.00    -0.744 OA
ENDBRANCH  70  71
ENDBRANCH  38  63
ENDBRANCH  12  13
ENDBRANCH   5   7
ENDBRANCH   2   3
ENDBRANCH   1   2
BRANCH   1  75
ATOM     75  C   UNL A   1      36.722  22.852  25.593  1.00  0.00     0.117 C 
BRANCH  75  76
ATOM     76  N   UNL A   1      35.947  22.202  26.633  1.00  0.00    -0.354 N 
ATOM     77  C   UNL A   1      34.587  22.150  26.782  1.00  0.00     0.242 C 
ATOM     78  H   UNL A   1      36.470  21.736  27.325  1.00  0.00     0.163 HD
ATOM     79  O   UNL A   1      34.126  21.444  27.683  1.00  0.00    -0.273 OA
BRANCH  77  80
ATOM     80  C   UNL A   1      33.674  22.878  25.774  1.00  0.00     0.176 C 
BRANCH  80  81
ATOM     81  N   UNL A   1      33.040  21.844  24.940  1.00  0.00    -0.339 N 
ATOM     82  C   UNL A   1      32.499  21.984  23.684  1.00  0.00     0.262 C 
ATOM     83  H   UNL A   1      32.999  20.941  25.328  1.00  0.00     0.164 HD
ATOM     84  O   UNL A   1      32.126  20.973  23.081  1.00  0.00    -0.268 OA
BRANCH  82  85
ATOM     85  C   UNL A   1      32.452  23.307  23.102  1.00  0.00     0.093 A 
ATOM     86  C   UNL A   1      33.471  23.996  22.469  1.00  0.00     0.027 A 
ATOM     87  S   UNL A   1      31.002  24.222  23.146  1.00  0.00    -0.118 S 
ATOM     88  C   UNL A   1      33.098  25.343  22.168  1.00  0.00     0.033 A 
ATOM     89  C   UNL A   1      31.789  25.576  22.501  1.00  0.00     0.094 A 
ATOM     90  Cl  UNL A   1      30.944  27.061  22.340  1.00  0.00    -0.072 Cl
ENDBRANCH  82  85
ENDBRANCH  80  81
BRANCH  80  91
ATOM     91  C   UNL A   1      32.618  23.738  26.500  1.00  0.00     0.070 C 
BRANCH  91  92
ATOM     92  C   UNL A   1      32.597  25.227  26.186  1.00  0.00    -0.045 A 
ATOM     93  C   UNL A   1      31.482  26.060  26.366  1.00  0.00     0.007 A 
ATOM     94  C   UNL A   1      33.789  25.824  25.744  1.00  0.00     0.007 A 
ATOM     95  C   UNL A   1      31.516  27.413  26.019  1.00  0.00     0.046 A 
ATOM     96  C   UNL A   1      33.836  27.185  25.426  1.00  0.00     0.046 A 
ATOM     97  C   UNL A   1      32.694  27.963  25.540  1.00  0.00     0.115 A 
BRANCH  97  98
ATOM     98  O   UNL A   1      32.776  29.269  25.172  1.00  0.00    -0.508 OA
ATOM     99  H   UNL A   1      32.395  29.933  25.712  1.00  0.00     0.293 HD
ENDBRANCH  97  98
ENDBRANCH  91  92
ENDBRANCH  80  91
ENDBRANCH  77  80
ENDBRANCH  75  76
ENDBRANCH   1  75
TORSDOF 18
ENDMDL
