MODEL 1
REMARK VINA RESULT:     -10.7      0.000      0.000
REMARK SMILES O=C(NCCCNC(=O)C1CCN(c2ccnnc2)CC1)c1ccc(-c2c3nc(c(-c4c(F)cc(S(=O)(=O)[O-])cc4F)c4ccc([nH]4)c(-c4c(F)cc(S(=O)(=O)[O-])cc4F)c4nc(c(-c5c(F)cc(S(=O)(=O)[O-])cc5F)c5ccc2[nH]5)C=C4)C=C3)cc1
REMARK SMILES IDX 4 1 3 2 1 3 2 4 22 6 23 7 87 8 24 9 86 10 25 11 26 12 27 13
REMARK SMILES IDX 80 14 28 15 85 16 79 17 81 18 29 19 84 20 78 21 77 22 30 24
REMARK SMILES IDX 64 25 43 26 63 27 44 28 47 29 62 30 82 31 45 32 46 33 61 35
REMARK SMILES IDX 83 36 48 37 31 38 32 39 41 40 33 41 34 42 40 43 42 44 35 45
REMARK SMILES IDX 36 46 37 47 38 48 39 49 65 50 66 51 75 52 67 53 68 54 74 55
REMARK SMILES IDX 76 56 69 57 70 58 71 59 72 60 73 61 49 62 50 63 59 64 51 65
REMARK SMILES IDX 52 66 58 67 60 68 53 69 54 70 55 71 56 72 57 73 5 74 6 75
REMARK SMILES IDX 7 76 8 77 9 79 10 80 11 81 21 82 12 83 20 84 13 85 14 86
REMARK SMILES IDX 15 87 19 88 16 89 18 90 17 91
REMARK H PARENT 3 5 81 23 47 34 7 78
REMARK Flexibility Score: inf
ROOT
ATOM      1  C   UNL A   1      34.643  32.646  28.357  1.00  0.00     0.118 C 
ENDROOT
BRANCH   1   2
ATOM      2  N   UNL A   1      33.959  31.390  28.074  1.00  0.00    -0.352 N 
ATOM      3  O   UNL A   1      33.726  29.241  27.463  1.00  0.00    -0.269 OA
ATOM      4  C   UNL A   1      34.465  30.129  27.886  1.00  0.00     0.251 C 
ATOM      5  H   UNL A   1      32.978  31.458  28.008  1.00  0.00     0.163 HD
BRANCH   4   6
ATOM      6  C   UNL A   1      35.885  29.836  28.176  1.00  0.00     0.039 A 
ATOM      7  C   UNL A   1      36.878  30.085  27.224  1.00  0.00     0.014 A 
ATOM      8  C   UNL A   1      36.236  29.345  29.438  1.00  0.00     0.014 A 
ATOM      9  C   UNL A   1      38.194  29.719  27.484  1.00  0.00     0.010 A 
ATOM     10  C   UNL A   1      37.572  29.053  29.725  1.00  0.00     0.010 A 
ATOM     11  C   UNL A   1      38.559  29.212  28.741  1.00  0.00    -0.014 A 
BRANCH  11  12
ATOM     12  C   UNL A   1      39.987  28.912  29.021  1.00  0.00     0.031 A 
ATOM     13  C   UNL A   1      40.865  29.903  29.731  1.00  0.00     0.074 A 
ATOM     14  C   UNL A   1      40.481  27.716  28.647  1.00  0.00     0.049 A 
ATOM     15  N   UNL A   1      42.121  29.788  30.080  1.00  0.00    -0.248 NA
ATOM     16  C   UNL A   1      40.259  31.194  30.093  1.00  0.00     0.031 C 
ATOM     17  C   UNL A   1      39.726  26.679  27.936  1.00  0.00     0.029 A 
ATOM     18  N   UNL A   1      41.722  27.160  28.822  1.00  0.00    -0.354 N 
ATOM     19  C   UNL A   1      42.464  30.992  30.685  1.00  0.00     0.074 A 
ATOM     20  C   UNL A   1      41.288  31.836  30.631  1.00  0.00     0.031 C 
ATOM     21  C   UNL A   1      40.505  25.598  27.779  1.00  0.00     0.029 A 
ATOM     22  C   UNL A   1      41.828  25.884  28.323  1.00  0.00     0.049 A 
ATOM     23  H   UNL A   1      42.466  27.630  29.264  1.00  0.00     0.167 HD
ATOM     24  C   UNL A   1      43.645  31.355  31.239  1.00  0.00     0.037 A 
ATOM     25  C   UNL A   1      42.874  25.038  28.295  1.00  0.00     0.037 A 
ATOM     26  C   UNL A   1      44.808  30.504  31.295  1.00  0.00     0.049 A 
ATOM     27  C   UNL A   1      44.178  25.470  28.898  1.00  0.00     0.074 A 
ATOM     28  C   UNL A   1      46.040  30.765  31.869  1.00  0.00     0.029 A 
ATOM     29  N   UNL A   1      44.886  29.229  30.750  1.00  0.00    -0.354 N 
ATOM     30  N   UNL A   1      44.473  26.599  29.497  1.00  0.00    -0.248 NA
ATOM     31  C   UNL A   1      45.293  24.519  28.818  1.00  0.00     0.031 C 
ATOM     32  C   UNL A   1      46.876  29.666  31.633  1.00  0.00     0.029 A 
ATOM     33  C   UNL A   1      46.150  28.701  30.953  1.00  0.00     0.049 A 
ATOM     34  H   UNL A   1      44.150  28.768  30.288  1.00  0.00     0.167 HD
ATOM     35  C   UNL A   1      45.804  26.490  29.879  1.00  0.00     0.074 A 
ATOM     36  C   UNL A   1      46.251  25.178  29.456  1.00  0.00     0.031 C 
ATOM     37  C   UNL A   1      46.584  27.395  30.519  1.00  0.00     0.037 A 
BRANCH  24  38
ATOM     38  C   UNL A   1      43.748  32.743  31.811  1.00  0.00     0.058 A 
ATOM     39  C   UNL A   1      43.426  33.017  33.150  1.00  0.00     0.135 A 
ATOM     40  C   UNL A   1      44.194  33.811  31.015  1.00  0.00     0.135 A 
ATOM     41  F   UNL A   1      42.982  32.038  33.953  1.00  0.00    -0.206 F 
ATOM     42  C   UNL A   1      43.505  34.307  33.669  1.00  0.00     0.059 A 
ATOM     43  C   UNL A   1      44.304  35.104  31.519  1.00  0.00     0.059 A 
ATOM     44  F   UNL A   1      44.520  33.605  29.729  1.00  0.00    -0.206 F 
ATOM     45  C   UNL A   1      43.939  35.346  32.842  1.00  0.00     0.060 A 
BRANCH  45  46
ATOM     46  S   UNL A   1      44.011  37.017  33.520  1.00  0.00     0.124 S 
ATOM     47  O   UNL A   1      42.687  37.142  34.122  1.00  0.00    -0.237 OA
ATOM     48  O   UNL A   1      45.126  36.928  34.458  1.00  0.00    -0.237 OA
ATOM     49  O   UNL A   1      44.248  37.851  32.346  1.00  0.00    -0.744 OA
ENDBRANCH  45  46
ENDBRANCH  24  38
BRANCH  25  50
ATOM     50  C   UNL A   1      42.712  23.697  27.676  1.00  0.00     0.058 A 
ATOM     51  C   UNL A   1      42.909  23.509  26.301  1.00  0.00     0.135 A 
ATOM     52  C   UNL A   1      42.416  22.569  28.457  1.00  0.00     0.135 A 
ATOM     53  F   UNL A   1      43.190  24.559  25.513  1.00  0.00    -0.206 F 
ATOM     54  C   UNL A   1      42.818  22.248  25.720  1.00  0.00     0.059 A 
ATOM     55  C   UNL A   1      42.344  21.296  27.904  1.00  0.00     0.059 A 
ATOM     56  F   UNL A   1      42.237  22.697  29.781  1.00  0.00    -0.206 F 
ATOM     57  C   UNL A   1      42.543  21.146  26.531  1.00  0.00     0.060 A 
BRANCH  57  58
ATOM     58  S   UNL A   1      42.506  19.504  25.780  1.00  0.00     0.124 S 
ATOM     59  O   UNL A   1      42.882  18.658  26.906  1.00  0.00    -0.237 OA
ATOM     60  O   UNL A   1      41.119  19.401  25.337  1.00  0.00    -0.237 OA
ATOM     61  O   UNL A   1      43.492  19.606  24.708  1.00  0.00    -0.744 OA
ENDBRANCH  57  58
ENDBRANCH  25  50
BRANCH  37  62
ATOM     62  C   UNL A   1      47.999  26.988  30.819  1.00  0.00     0.058 A 
ATOM     63  C   UNL A   1      49.067  27.387  30.001  1.00  0.00     0.135 A 
ATOM     64  C   UNL A   1      48.293  26.220  31.957  1.00  0.00     0.135 A 
ATOM     65  F   UNL A   1      48.838  28.113  28.895  1.00  0.00    -0.206 F 
ATOM     66  C   UNL A   1      50.378  27.019  30.289  1.00  0.00     0.059 A 
ATOM     67  C   UNL A   1      49.599  25.862  32.278  1.00  0.00     0.059 A 
ATOM     68  F   UNL A   1      47.308  25.820  32.776  1.00  0.00    -0.206 F 
ATOM     69  C   UNL A   1      50.633  26.256  31.430  1.00  0.00     0.060 A 
BRANCH  69  70
ATOM     70  S   UNL A   1      52.340  25.809  31.810  1.00  0.00     0.124 S 
ATOM     71  O   UNL A   1      52.688  26.807  32.818  1.00  0.00    -0.237 OA
ATOM     72  O   UNL A   1      52.205  24.439  32.296  1.00  0.00    -0.237 OA
ATOM     73  O   UNL A   1      53.021  25.948  30.527  1.00  0.00    -0.744 OA
ENDBRANCH  69  70
ENDBRANCH  37  62
ENDBRANCH  11  12
ENDBRANCH   4   6
ENDBRANCH   1   2
BRANCH   1  74
ATOM     74  C   UNL A   1      33.673  33.808  28.566  1.00  0.00     0.042 C 
BRANCH  74  75
ATOM     75  C   UNL A   1      34.086  34.755  29.690  1.00  0.00     0.117 C 
BRANCH  75  76
ATOM     76  N   UNL A   1      33.670  34.252  30.989  1.00  0.00    -0.356 N 
ATOM     77  C   UNL A   1      34.404  33.699  31.993  1.00  0.00     0.223 C 
ATOM     78  H   UNL A   1      32.704  34.322  31.170  1.00  0.00     0.163 HD
ATOM     79  O   UNL A   1      33.798  33.189  32.936  1.00  0.00    -0.275 OA
BRANCH  77  80
ATOM     80  C   UNL A   1      35.921  33.812  31.969  1.00  0.00     0.082 C 
ATOM     81  C   UNL A   1      36.578  32.537  31.423  1.00  0.00     0.035 C 
ATOM     82  C   UNL A   1      36.408  34.177  33.381  1.00  0.00     0.035 C 
ATOM     83  C   UNL A   1      36.640  31.396  32.434  1.00  0.00     0.117 C 
ATOM     84  C   UNL A   1      36.417  32.975  34.332  1.00  0.00     0.117 C 
ATOM     85  N   UNL A   1      37.173  31.907  33.693  1.00  0.00    -0.370 N 
BRANCH  85  86
ATOM     86  C   UNL A   1      38.170  31.220  34.351  1.00  0.00     0.059 A 
ATOM     87  C   UNL A   1      39.242  30.641  33.684  1.00  0.00     0.049 A 
ATOM     88  C   UNL A   1      38.161  31.052  35.732  1.00  0.00     0.161 A 
ATOM     89  C   UNL A   1      40.202  29.965  34.418  1.00  0.00     0.138 A 
ATOM     90  N   UNL A   1      39.104  30.372  36.427  1.00  0.00    -0.157 NA
ATOM     91  N   UNL A   1      40.142  29.822  35.758  1.00  0.00    -0.159 NA
ENDBRANCH  85  86
ENDBRANCH  77  80
ENDBRANCH  75  76
ENDBRANCH  74  75
ENDBRANCH   1  74
TORSDOF 14
ENDMDL
MODEL 2
REMARK VINA RESULT:     -10.6      0.475      8.500
REMARK SMILES O=C(NCCCNC(=O)C1CCN(c2ccnnc2)CC1)c1ccc(-c2c3nc(c(-c4c(F)cc(S(=O)(=O)[O-])cc4F)c4ccc([nH]4)c(-c4c(F)cc(S(=O)(=O)[O-])cc4F)c4nc(c(-c5c(F)cc(S(=O)(=O)[O-])cc5F)c5ccc2[nH]5)C=C4)C=C3)cc1
REMARK SMILES IDX 4 1 3 2 1 3 2 4 22 6 23 7 87 8 24 9 86 10 25 11 26 12 27 13
REMARK SMILES IDX 80 14 28 15 85 16 79 17 81 18 29 19 84 20 78 21 77 22 30 24
REMARK SMILES IDX 64 25 43 26 63 27 44 28 47 29 62 30 82 31 45 32 46 33 61 35
REMARK SMILES IDX 83 36 48 37 31 38 32 39 41 40 33 41 34 42 40 43 42 44 35 45
REMARK SMILES IDX 36 46 37 47 38 48 39 49 65 50 66 51 75 52 67 53 68 54 74 55
REMARK SMILES IDX 76 56 69 57 70 58 71 59 72 60 73 61 49 62 50 63 59 64 51 65
REMARK SMILES IDX 52 66 58 67 60 68 53 69 54 70 55 71 56 72 57 73 5 74 6 75
REMARK SMILES IDX 7 76 8 77 9 79 10 80 11 81 21 82 12 83 20 84 13 85 14 86
REMARK SMILES IDX 15 87 19 88 16 89 18 90 17 91
REMARK H PARENT 3 5 81 23 47 34 7 78
REMARK Flexibility Score: inf
ROOT
ATOM      1  C   UNL A   1      34.614  32.504  28.266  1.00  0.00     0.118 C 
ENDROOT
BRANCH   1   2
ATOM      2  N   UNL A   1      33.953  31.227  28.027  1.00  0.00    -0.352 N 
ATOM      3  O   UNL A   1      33.759  29.055  27.489  1.00  0.00    -0.269 OA
ATOM      4  C   UNL A   1      34.481  29.970  27.881  1.00  0.00     0.251 C 
ATOM      5  H   UNL A   1      32.971  31.275  27.959  1.00  0.00     0.163 HD
BRANCH   4   6
ATOM      6  C   UNL A   1      35.907  29.713  28.179  1.00  0.00     0.039 A 
ATOM      7  C   UNL A   1      36.892  29.920  27.210  1.00  0.00     0.014 A 
ATOM      8  C   UNL A   1      36.269  29.299  29.465  1.00  0.00     0.014 A 
ATOM      9  C   UNL A   1      38.213  29.586  27.483  1.00  0.00     0.010 A 
ATOM     10  C   UNL A   1      37.611  29.042  29.762  1.00  0.00     0.010 A 
ATOM     11  C   UNL A   1      38.591  29.156  28.764  1.00  0.00    -0.014 A 
BRANCH  11  12
ATOM     12  C   UNL A   1      40.024  28.891  29.053  1.00  0.00     0.031 A 
ATOM     13  C   UNL A   1      40.665  27.585  28.679  1.00  0.00     0.074 A 
ATOM     14  C   UNL A   1      40.755  29.860  29.640  1.00  0.00     0.049 A 
ATOM     15  N   UNL A   1      41.908  27.204  28.831  1.00  0.00    -0.248 NA
ATOM     16  C   UNL A   1      39.800  26.570  28.057  1.00  0.00     0.031 C 
ATOM     17  C   UNL A   1      40.236  31.164  30.063  1.00  0.00     0.029 A 
ATOM     18  N   UNL A   1      42.085  29.910  29.968  1.00  0.00    -0.354 N 
ATOM     19  C   UNL A   1      41.974  25.904  28.344  1.00  0.00     0.074 A 
ATOM     20  C   UNL A   1      40.636  25.550  27.914  1.00  0.00     0.031 C 
ATOM     21  C   UNL A   1      41.244  31.901  30.550  1.00  0.00     0.029 A 
ATOM     22  C   UNL A   1      42.467  31.105  30.528  1.00  0.00     0.049 A 
ATOM     23  H   UNL A   1      42.706  29.162  29.815  1.00  0.00     0.167 HD
ATOM     24  C   UNL A   1      43.050  25.086  28.256  1.00  0.00     0.037 A 
ATOM     25  C   UNL A   1      43.664  31.516  30.985  1.00  0.00     0.037 A 
ATOM     26  C   UNL A   1      44.380  25.451  28.679  1.00  0.00     0.049 A 
ATOM     27  C   UNL A   1      44.838  30.585  30.895  1.00  0.00     0.074 A 
ATOM     28  C   UNL A   1      45.544  24.707  28.596  1.00  0.00     0.029 A 
ATOM     29  N   UNL A   1      44.721  26.659  29.271  1.00  0.00    -0.354 N 
ATOM     30  N   UNL A   1      44.888  29.371  30.398  1.00  0.00    -0.248 NA
ATOM     31  C   UNL A   1      46.114  31.073  31.430  1.00  0.00     0.031 C 
ATOM     32  C   UNL A   1      46.581  25.448  29.178  1.00  0.00     0.029 A 
ATOM     33  C   UNL A   1      46.071  26.672  29.581  1.00  0.00     0.049 A 
ATOM     34  H   UNL A   1      44.095  27.398  29.445  1.00  0.00     0.167 HD
ATOM     35  C   UNL A   1      46.205  28.955  30.548  1.00  0.00     0.074 A 
ATOM     36  C   UNL A   1      46.920  30.053  31.167  1.00  0.00     0.031 C 
ATOM     37  C   UNL A   1      46.769  27.770  30.205  1.00  0.00     0.037 A 
BRANCH  24  38
ATOM     38  C   UNL A   1      42.831  23.705  27.700  1.00  0.00     0.058 A 
ATOM     39  C   UNL A   1      42.934  23.434  26.326  1.00  0.00     0.135 A 
ATOM     40  C   UNL A   1      42.533  22.631  28.555  1.00  0.00     0.135 A 
ATOM     41  F   UNL A   1      43.204  24.424  25.461  1.00  0.00    -0.206 F 
ATOM     42  C   UNL A   1      42.712  22.158  25.816  1.00  0.00     0.059 A 
ATOM     43  C   UNL A   1      42.331  21.342  28.071  1.00  0.00     0.059 A 
ATOM     44  F   UNL A   1      42.426  22.831  29.879  1.00  0.00    -0.206 F 
ATOM     45  C   UNL A   1      42.403  21.119  26.697  1.00  0.00     0.060 A 
BRANCH  45  46
ATOM     46  S   UNL A   1      42.091  19.475  26.019  1.00  0.00     0.124 S 
ATOM     47  O   UNL A   1      42.879  19.515  24.791  1.00  0.00    -0.237 OA
ATOM     48  O   UNL A   1      42.601  18.600  27.070  1.00  0.00    -0.237 OA
ATOM     49  O   UNL A   1      40.643  19.453  25.835  1.00  0.00    -0.744 OA
ENDBRANCH  45  46
ENDBRANCH  24  38
BRANCH  25  50
ATOM     50  C   UNL A   1      43.799  32.879  31.560  1.00  0.00     0.058 A 
ATOM     51  C   UNL A   1      44.170  33.966  30.757  1.00  0.00     0.135 A 
ATOM     52  C   UNL A   1      43.502  33.130  32.909  1.00  0.00     0.135 A 
ATOM     53  F   UNL A   1      44.468  33.774  29.463  1.00  0.00    -0.206 F 
ATOM     54  C   UNL A   1      44.243  35.257  31.271  1.00  0.00     0.059 A 
ATOM     55  C   UNL A   1      43.543  34.414  33.439  1.00  0.00     0.059 A 
ATOM     56  F   UNL A   1      43.125  32.123  33.712  1.00  0.00    -0.206 F 
ATOM     57  C   UNL A   1      43.920  35.472  32.612  1.00  0.00     0.060 A 
BRANCH  57  58
ATOM     58  S   UNL A   1      43.940  37.162  33.248  1.00  0.00     0.124 S 
ATOM     59  O   UNL A   1      43.859  37.940  32.018  1.00  0.00    -0.237 OA
ATOM     60  O   UNL A   1      42.753  37.183  34.098  1.00  0.00    -0.237 OA
ATOM     61  O   UNL A   1      45.212  37.234  33.961  1.00  0.00    -0.744 OA
ENDBRANCH  57  58
ENDBRANCH  25  50
BRANCH  37  62
ATOM     62  C   UNL A   1      48.237  27.608  30.476  1.00  0.00     0.058 A 
ATOM     63  C   UNL A   1      48.706  27.056  31.678  1.00  0.00     0.135 A 
ATOM     64  C   UNL A   1      49.185  27.976  29.508  1.00  0.00     0.135 A 
ATOM     65  F   UNL A   1      47.842  26.697  32.641  1.00  0.00    -0.206 F 
ATOM     66  C   UNL A   1      50.067  26.895  31.920  1.00  0.00     0.059 A 
ATOM     67  C   UNL A   1      50.549  27.801  29.719  1.00  0.00     0.059 A 
ATOM     68  F   UNL A   1      48.788  28.502  28.338  1.00  0.00    -0.206 F 
ATOM     69  C   UNL A   1      50.980  27.271  30.934  1.00  0.00     0.060 A 
BRANCH  69  70
ATOM     70  S   UNL A   1      52.742  27.031  31.246  1.00  0.00     0.124 S 
ATOM     71  O   UNL A   1      52.940  27.837  32.447  1.00  0.00    -0.237 OA
ATOM     72  O   UNL A   1      52.834  25.586  31.433  1.00  0.00    -0.237 OA
ATOM     73  O   UNL A   1      53.375  27.541  30.034  1.00  0.00    -0.744 OA
ENDBRANCH  69  70
ENDBRANCH  37  62
ENDBRANCH  11  12
ENDBRANCH   4   6
ENDBRANCH   1   2
BRANCH   1  74
ATOM     74  C   UNL A   1      33.627  33.625  28.589  1.00  0.00     0.042 C 
BRANCH  74  75
ATOM     75  C   UNL A   1      34.154  34.628  29.612  1.00  0.00     0.117 C 
BRANCH  75  76
ATOM     76  N   UNL A   1      33.765  34.263  30.964  1.00  0.00    -0.356 N 
ATOM     77  C   UNL A   1      34.508  33.751  31.983  1.00  0.00     0.223 C 
ATOM     78  H   UNL A   1      32.814  34.408  31.175  1.00  0.00     0.163 HD
ATOM     79  O   UNL A   1      33.915  33.360  32.989  1.00  0.00    -0.275 OA
BRANCH  77  80
ATOM     80  C   UNL A   1      36.027  33.765  31.891  1.00  0.00     0.082 C 
ATOM     81  C   UNL A   1      36.582  32.414  31.420  1.00  0.00     0.035 C 
ATOM     82  C   UNL A   1      36.596  34.204  33.251  1.00  0.00     0.035 C 
ATOM     83  C   UNL A   1      36.620  31.350  32.513  1.00  0.00     0.117 C 
ATOM     84  C   UNL A   1      36.575  33.078  34.290  1.00  0.00     0.117 C 
ATOM     85  N   UNL A   1      37.237  31.919  33.707  1.00  0.00    -0.370 N 
BRANCH  85  86
ATOM     86  C   UNL A   1      38.219  31.222  34.376  1.00  0.00     0.059 A 
ATOM     87  C   UNL A   1      39.368  30.762  33.747  1.00  0.00     0.049 A 
ATOM     88  C   UNL A   1      38.117  30.923  35.732  1.00  0.00     0.161 A 
ATOM     89  C   UNL A   1      40.306  30.065  34.490  1.00  0.00     0.138 A 
ATOM     90  N   UNL A   1      39.041  30.226  36.434  1.00  0.00    -0.157 NA
ATOM     91  N   UNL A   1      40.155  29.793  35.802  1.00  0.00    -0.159 NA
ENDBRANCH  85  86
ENDBRANCH  77  80
ENDBRANCH  75  76
ENDBRANCH  74  75
ENDBRANCH   1  74
TORSDOF 14
ENDMDL
MODEL 3
REMARK VINA RESULT:     -10.6      3.079     11.114
REMARK SMILES O=C(NCCCNC(=O)C1CCN(c2ccnnc2)CC1)c1ccc(-c2c3nc(c(-c4c(F)cc(S(=O)(=O)[O-])cc4F)c4ccc([nH]4)c(-c4c(F)cc(S(=O)(=O)[O-])cc4F)c4nc(c(-c5c(F)cc(S(=O)(=O)[O-])cc5F)c5ccc2[nH]5)C=C4)C=C3)cc1
REMARK SMILES IDX 4 1 3 2 1 3 2 4 22 6 23 7 87 8 24 9 86 10 25 11 26 12 27 13
REMARK SMILES IDX 80 14 28 15 85 16 79 17 81 18 29 19 84 20 78 21 77 22 30 24
REMARK SMILES IDX 64 25 43 26 63 27 44 28 47 29 62 30 82 31 45 32 46 33 61 35
REMARK SMILES IDX 83 36 48 37 31 38 32 39 41 40 33 41 34 42 40 43 42 44 35 45
REMARK SMILES IDX 36 46 37 47 38 48 39 49 65 50 66 51 75 52 67 53 68 54 74 55
REMARK SMILES IDX 76 56 69 57 70 58 71 59 72 60 73 61 49 62 50 63 59 64 51 65
REMARK SMILES IDX 52 66 58 67 60 68 53 69 54 70 55 71 56 72 57 73 5 74 6 75
REMARK SMILES IDX 7 76 8 77 9 79 10 80 11 81 21 82 12 83 20 84 13 85 14 86
REMARK SMILES IDX 15 87 19 88 16 89 18 90 17 91
REMARK H PARENT 3 5 81 23 47 34 7 78
REMARK Flexibility Score: inf
ROOT
ATOM      1  C   UNL A   1      40.455  21.702  26.926  1.00  0.00     0.118 C 
ENDROOT
BRANCH   1   2
ATOM      2  N   UNL A   1      39.336  22.135  26.098  1.00  0.00    -0.352 N 
ATOM      3  O   UNL A   1      37.608  23.410  25.439  1.00  0.00    -0.269 OA
ATOM      4  C   UNL A   1      38.650  23.323  26.086  1.00  0.00     0.251 C 
ATOM      5  H   UNL A   1      39.024  21.469  25.442  1.00  0.00     0.163 HD
BRANCH   4   6
ATOM      6  C   UNL A   1      39.146  24.486  26.853  1.00  0.00     0.039 A 
ATOM      7  C   UNL A   1      38.880  24.613  28.219  1.00  0.00     0.014 A 
ATOM      8  C   UNL A   1      39.930  25.445  26.203  1.00  0.00     0.014 A 
ATOM      9  C   UNL A   1      39.278  25.758  28.899  1.00  0.00     0.010 A 
ATOM     10  C   UNL A   1      40.399  26.557  26.909  1.00  0.00     0.010 A 
ATOM     11  C   UNL A   1      40.053  26.737  28.257  1.00  0.00    -0.014 A 
BRANCH  11  12
ATOM     12  C   UNL A   1      40.540  27.907  29.031  1.00  0.00     0.031 A 
ATOM     13  C   UNL A   1      41.952  27.969  29.542  1.00  0.00     0.074 A 
ATOM     14  C   UNL A   1      39.696  28.935  29.249  1.00  0.00     0.049 A 
ATOM     15  N   UNL A   1      42.545  28.927  30.207  1.00  0.00    -0.248 NA
ATOM     16  C   UNL A   1      42.809  26.802  29.280  1.00  0.00     0.031 C 
ATOM     17  C   UNL A   1      38.297  28.980  28.813  1.00  0.00     0.029 A 
ATOM     18  N   UNL A   1      39.889  30.140  29.872  1.00  0.00    -0.354 N 
ATOM     19  C   UNL A   1      43.837  28.477  30.459  1.00  0.00     0.074 A 
ATOM     20  C   UNL A   1      43.932  27.145  29.898  1.00  0.00     0.031 C 
ATOM     21  C   UNL A   1      37.773  30.170  29.141  1.00  0.00     0.029 A 
ATOM     22  C   UNL A   1      38.776  30.948  29.859  1.00  0.00     0.049 A 
ATOM     23  H   UNL A   1      40.741  30.403  30.288  1.00  0.00     0.167 HD
ATOM     24  C   UNL A   1      44.848  29.119  31.092  1.00  0.00     0.037 A 
ATOM     25  C   UNL A   1      38.578  32.175  30.375  1.00  0.00     0.037 A 
ATOM     26  C   UNL A   1      44.746  30.448  31.640  1.00  0.00     0.049 A 
ATOM     27  C   UNL A   1      39.709  32.858  31.088  1.00  0.00     0.074 A 
ATOM     28  C   UNL A   1      45.725  31.200  32.266  1.00  0.00     0.029 A 
ATOM     29  N   UNL A   1      43.594  31.222  31.635  1.00  0.00    -0.354 N 
ATOM     30  N   UNL A   1      40.934  32.431  31.286  1.00  0.00    -0.248 NA
ATOM     31  C   UNL A   1      39.432  34.183  31.654  1.00  0.00     0.031 C 
ATOM     32  C   UNL A   1      45.153  32.411  32.678  1.00  0.00     0.029 A 
ATOM     33  C   UNL A   1      43.830  32.432  32.267  1.00  0.00     0.049 A 
ATOM     34  H   UNL A   1      42.734  30.952  31.239  1.00  0.00     0.167 HD
ATOM     35  C   UNL A   1      41.579  33.441  31.987  1.00  0.00     0.074 A 
ATOM     36  C   UNL A   1      40.613  34.507  32.164  1.00  0.00     0.031 C 
ATOM     37  C   UNL A   1      42.855  33.481  32.443  1.00  0.00     0.037 A 
BRANCH  24  38
ATOM     38  C   UNL A   1      46.150  28.380  31.247  1.00  0.00     0.058 A 
ATOM     39  C   UNL A   1      47.222  28.575  30.360  1.00  0.00     0.135 A 
ATOM     40  C   UNL A   1      46.339  27.481  32.309  1.00  0.00     0.135 A 
ATOM     41  F   UNL A   1      47.094  29.413  29.319  1.00  0.00    -0.206 F 
ATOM     42  C   UNL A   1      48.418  27.875  30.497  1.00  0.00     0.059 A 
ATOM     43  C   UNL A   1      47.534  26.789  32.481  1.00  0.00     0.059 A 
ATOM     44  F   UNL A   1      45.350  27.260  33.190  1.00  0.00    -0.206 F 
ATOM     45  C   UNL A   1      48.561  26.978  31.558  1.00  0.00     0.060 A 
BRANCH  45  46
ATOM     46  S   UNL A   1      50.107  26.058  31.708  1.00  0.00     0.124 S 
ATOM     47  O   UNL A   1      51.093  27.106  31.458  1.00  0.00    -0.237 OA
ATOM     48  O   UNL A   1      50.046  25.562  33.080  1.00  0.00    -0.237 OA
ATOM     49  O   UNL A   1      49.998  25.038  30.670  1.00  0.00    -0.744 OA
ENDBRANCH  45  46
ENDBRANCH  24  38
BRANCH  25  50
ATOM     50  C   UNL A   1      37.253  32.828  30.221  1.00  0.00     0.058 A 
ATOM     51  C   UNL A   1      36.291  32.755  31.238  1.00  0.00     0.135 A 
ATOM     52  C   UNL A   1      36.945  33.584  29.079  1.00  0.00     0.135 A 
ATOM     53  F   UNL A   1      36.538  32.040  32.346  1.00  0.00    -0.206 F 
ATOM     54  C   UNL A   1      35.069  33.411  31.129  1.00  0.00     0.059 A 
ATOM     55  C   UNL A   1      35.741  34.268  28.958  1.00  0.00     0.059 A 
ATOM     56  F   UNL A   1      37.842  33.697  28.087  1.00  0.00    -0.206 F 
ATOM     57  C   UNL A   1      34.806  34.172  29.989  1.00  0.00     0.060 A 
BRANCH  57  58
ATOM     58  S   UNL A   1      33.250  35.083  29.893  1.00  0.00     0.124 S 
ATOM     59  O   UNL A   1      32.538  34.340  28.861  1.00  0.00    -0.237 OA
ATOM     60  O   UNL A   1      32.732  34.948  31.251  1.00  0.00    -0.237 OA
ATOM     61  O   UNL A   1      33.675  36.430  29.525  1.00  0.00    -0.744 OA
ENDBRANCH  57  58
ENDBRANCH  25  50
BRANCH  37  62
ATOM     62  C   UNL A   1      43.285  34.728  33.163  1.00  0.00     0.058 A 
ATOM     63  C   UNL A   1      43.813  35.830  32.473  1.00  0.00     0.135 A 
ATOM     64  C   UNL A   1      43.131  34.836  34.554  1.00  0.00     0.135 A 
ATOM     65  F   UNL A   1      43.990  35.774  31.143  1.00  0.00    -0.206 F 
ATOM     66  C   UNL A   1      44.198  36.989  33.141  1.00  0.00     0.059 A 
ATOM     67  C   UNL A   1      43.485  35.994  35.240  1.00  0.00     0.059 A 
ATOM     68  F   UNL A   1      42.623  33.814  35.260  1.00  0.00    -0.206 F 
ATOM     69  C   UNL A   1      44.029  37.060  34.525  1.00  0.00     0.060 A 
BRANCH  69  70
ATOM     70  S   UNL A   1      44.503  38.579  35.379  1.00  0.00     0.124 S 
ATOM     71  O   UNL A   1      44.078  38.292  36.746  1.00  0.00    -0.237 OA
ATOM     72  O   UNL A   1      45.946  38.623  35.161  1.00  0.00    -0.237 OA
ATOM     73  O   UNL A   1      43.739  39.611  34.686  1.00  0.00    -0.744 OA
ENDBRANCH  69  70
ENDBRANCH  37  62
ENDBRANCH  11  12
ENDBRANCH   4   6
ENDBRANCH   1   2
BRANCH   1  74
ATOM     74  C   UNL A   1      41.164  20.473  26.358  1.00  0.00     0.042 C 
BRANCH  74  75
ATOM     75  C   UNL A   1      42.685  20.537  26.475  1.00  0.00     0.117 C 
BRANCH  75  76
ATOM     76  N   UNL A   1      43.290  21.051  25.258  1.00  0.00    -0.356 N 
ATOM     77  C   UNL A   1      43.892  22.248  25.015  1.00  0.00     0.223 C 
ATOM     78  H   UNL A   1      43.258  20.438  24.488  1.00  0.00     0.163 HD
ATOM     79  O   UNL A   1      44.177  22.523  23.849  1.00  0.00    -0.275 OA
BRANCH  77  80
ATOM     80  C   UNL A   1      44.275  23.150  26.178  1.00  0.00     0.082 C 
ATOM     81  C   UNL A   1      43.328  24.352  26.304  1.00  0.00     0.035 C 
ATOM     82  C   UNL A   1      45.747  23.564  26.014  1.00  0.00     0.035 C 
ATOM     83  C   UNL A   1      43.610  25.464  25.298  1.00  0.00     0.117 C 
ATOM     84  C   UNL A   1      45.936  24.670  24.971  1.00  0.00     0.117 C 
ATOM     85  N   UNL A   1      45.039  25.765  25.312  1.00  0.00    -0.370 N 
BRANCH  85  86
ATOM     86  C   UNL A   1      45.468  27.073  25.377  1.00  0.00     0.059 A 
ATOM     87  C   UNL A   1      45.096  27.931  26.403  1.00  0.00     0.049 A 
ATOM     88  C   UNL A   1      46.301  27.623  24.407  1.00  0.00     0.161 A 
ATOM     89  C   UNL A   1      45.568  29.232  26.394  1.00  0.00     0.138 A 
ATOM     90  N   UNL A   1      46.738  28.905  24.411  1.00  0.00    -0.157 NA
ATOM     91  N   UNL A   1      46.367  29.721  25.423  1.00  0.00    -0.159 NA
ENDBRANCH  85  86
ENDBRANCH  77  80
ENDBRANCH  75  76
ENDBRANCH  74  75
ENDBRANCH   1  74
TORSDOF 14
ENDMDL
