MODEL 1
REMARK VINA RESULT:     -11.1      0.000      0.000
REMARK SMILES CCC(CC)(Nc1nc(Cl)nc(OC)n1)C(=O)NCCCNC(=O)c1ccc(-c2c3nc(c(-c4c(F)cc(S(=O)(=O)[O-])cc4F)c4ccc([nH]4)c(-c4c(F)cc(S(=O)(=O)[O-])cc4F)c4nc(c(-c5c(F)cc(S(=O)(=O)[O-])cc5F)c5ccc2[nH]5)C=C4)C=C3)cc1
REMARK SMILES IDX 20 1 19 2 18 3 16 4 17 5 3 7 2 8 1 9 4 10 5 11 6 12 7 14
REMARK SMILES IDX 8 15 15 16 9 17 12 18 10 19 11 20 13 21 14 22 21 23 22 24
REMARK SMILES IDX 23 25 24 27 25 28 26 29 90 30 27 31 89 32 28 33 29 34 30 35
REMARK SMILES IDX 83 36 31 37 88 38 82 39 84 40 32 41 87 42 81 43 80 44 33 46
REMARK SMILES IDX 67 47 46 48 66 49 47 50 50 51 65 52 85 53 48 54 49 55 64 57
REMARK SMILES IDX 86 58 51 59 34 60 35 61 44 62 36 63 37 64 43 65 45 66 38 67
REMARK SMILES IDX 39 68 40 69 41 70 42 71 68 72 69 73 78 74 70 75 71 76 77 77
REMARK SMILES IDX 79 78 72 79 73 80 74 81 75 82 76 83 52 84 53 85 62 86 54 87
REMARK SMILES IDX 55 88 61 89 63 90 56 91 57 92 58 93 59 94 60 95
REMARK H PARENT 18 6 6 13 22 26 84 45 50 56
REMARK Flexibility Score: inf
ROOT
ATOM      1  C   UNL A   1      39.244  22.304  26.505  1.00  0.00     0.042 C 
ENDROOT
BRANCH   1   2
ATOM      2  C   UNL A   1      37.995  23.067  26.089  1.00  0.00     0.117 C 
BRANCH   2   3
ATOM      3  N   UNL A   1      37.718  23.076  24.660  1.00  0.00    -0.354 N 
ATOM      4  C   UNL A   1      36.562  22.889  23.948  1.00  0.00     0.245 C 
ATOM      5  O   UNL A   1      36.659  22.970  22.718  1.00  0.00    -0.272 OA
ATOM      6  H   UNL A   1      38.510  23.248  24.100  1.00  0.00     0.163 HD
BRANCH   4   7
ATOM      7  C   UNL A   1      35.187  22.625  24.659  1.00  0.00     0.118 C 
BRANCH   7   8
ATOM      8  C   UNL A   1      35.114  21.171  25.235  1.00  0.00     0.035 C 
ATOM      9  C   UNL A   1      36.281  20.238  24.911  1.00  0.00     0.007 C 
ENDBRANCH   7   8
BRANCH   7  10
ATOM     10  C   UNL A   1      34.068  22.832  23.589  1.00  0.00     0.035 C 
ATOM     11  C   UNL A   1      32.984  21.766  23.514  1.00  0.00     0.007 C 
ENDBRANCH   7  10
BRANCH   7  12
ATOM     12  N   UNL A   1      34.986  23.537  25.810  1.00  0.00    -0.340 N 
ATOM     13  H   UNL A   1      35.775  23.766  26.350  1.00  0.00     0.164 HD
BRANCH  12  14
ATOM     14  C   UNL A   1      33.778  24.088  26.180  1.00  0.00     0.231 A 
ATOM     15  N   UNL A   1      33.483  25.339  25.878  1.00  0.00    -0.182 NA
ATOM     16  N   UNL A   1      32.927  23.269  26.782  1.00  0.00    -0.159 NA
ATOM     17  C   UNL A   1      32.235  25.706  26.141  1.00  0.00     0.230 A 
ATOM     18  C   UNL A   1      31.716  23.782  27.019  1.00  0.00     0.322 A 
ATOM     19  Cl  UNL A   1      31.786  27.268  25.612  1.00  0.00    -0.041 Cl
ATOM     20  N   UNL A   1      31.286  24.986  26.698  1.00  0.00    -0.164 NA
BRANCH  18  21
ATOM     21  O   UNL A   1      30.791  22.977  27.638  1.00  0.00    -0.467 OA
ATOM     22  C   UNL A   1      29.573  23.016  26.905  1.00  0.00     0.282 C 
ENDBRANCH  18  21
ENDBRANCH  12  14
ENDBRANCH   7  12
ENDBRANCH   4   7
ENDBRANCH   2   3
ENDBRANCH   1   2
BRANCH   1  23
ATOM     23  C   UNL A   1      40.343  23.152  27.114  1.00  0.00     0.118 C 
BRANCH  23  24
ATOM     24  N   UNL A   1      41.229  23.721  26.114  1.00  0.00    -0.352 N 
ATOM     25  C   UNL A   1      41.709  25.004  25.996  1.00  0.00     0.251 C 
ATOM     26  H   UNL A   1      41.531  23.096  25.415  1.00  0.00     0.163 HD
ATOM     27  O   UNL A   1      42.308  25.334  24.980  1.00  0.00    -0.269 OA
BRANCH  25  28
ATOM     28  C   UNL A   1      41.469  25.994  27.074  1.00  0.00     0.039 A 
ATOM     29  C   UNL A   1      40.469  25.732  28.012  1.00  0.00     0.014 A 
ATOM     30  C   UNL A   1      42.213  27.175  27.162  1.00  0.00     0.014 A 
ATOM     31  C   UNL A   1      40.256  26.622  29.068  1.00  0.00     0.010 A 
ATOM     32  C   UNL A   1      42.061  28.015  28.264  1.00  0.00     0.010 A 
ATOM     33  C   UNL A   1      41.073  27.755  29.224  1.00  0.00    -0.014 A 
BRANCH  33  34
ATOM     34  C   UNL A   1      40.886  28.673  30.378  1.00  0.00     0.031 A 
ATOM     35  C   UNL A   1      41.756  28.546  31.601  1.00  0.00     0.074 A 
ATOM     36  C   UNL A   1      39.916  29.609  30.338  1.00  0.00     0.049 A 
ATOM     37  N   UNL A   1      41.742  29.255  32.702  1.00  0.00    -0.248 NA
ATOM     38  C   UNL A   1      42.762  27.472  31.596  1.00  0.00     0.031 C 
ATOM     39  C   UNL A   1      38.976  29.805  29.232  1.00  0.00     0.029 A 
ATOM     40  N   UNL A   1      39.556  30.571  31.250  1.00  0.00    -0.354 N 
ATOM     41  C   UNL A   1      42.727  28.711  33.517  1.00  0.00     0.074 A 
ATOM     42  C   UNL A   1      43.281  27.577  32.810  1.00  0.00     0.031 C 
ATOM     43  C   UNL A   1      38.170  30.840  29.516  1.00  0.00     0.029 A 
ATOM     44  C   UNL A   1      38.505  31.357  30.839  1.00  0.00     0.049 A 
ATOM     45  H   UNL A   1      40.008  30.687  32.116  1.00  0.00     0.167 HD
ATOM     46  C   UNL A   1      43.151  29.132  34.733  1.00  0.00     0.037 A 
ATOM     47  C   UNL A   1      37.875  32.375  31.460  1.00  0.00     0.037 A 
ATOM     48  C   UNL A   1      42.605  30.271  35.428  1.00  0.00     0.049 A 
ATOM     49  C   UNL A   1      38.349  32.810  32.821  1.00  0.00     0.074 A 
ATOM     50  C   UNL A   1      43.005  30.811  36.638  1.00  0.00     0.029 A 
ATOM     51  N   UNL A   1      41.537  31.036  34.982  1.00  0.00    -0.354 N 
ATOM     52  N   UNL A   1      39.335  32.333  33.543  1.00  0.00    -0.248 NA
ATOM     53  C   UNL A   1      37.627  33.925  33.451  1.00  0.00     0.031 C 
ATOM     54  C   UNL A   1      42.142  31.865  36.951  1.00  0.00     0.029 A 
ATOM     55  C   UNL A   1      41.244  32.024  35.909  1.00  0.00     0.049 A 
ATOM     56  H   UNL A   1      41.059  30.899  34.133  1.00  0.00     0.167 HD
ATOM     57  C   UNL A   1      39.366  33.103  34.700  1.00  0.00     0.074 A 
ATOM     58  C   UNL A   1      38.314  34.090  34.573  1.00  0.00     0.031 C 
ATOM     59  C   UNL A   1      40.192  33.002  35.772  1.00  0.00     0.037 A 
BRANCH  46  60
ATOM     60  C   UNL A   1      44.261  28.359  35.394  1.00  0.00     0.058 A 
ATOM     61  C   UNL A   1      44.000  27.290  36.266  1.00  0.00     0.135 A 
ATOM     62  C   UNL A   1      45.605  28.663  35.118  1.00  0.00     0.135 A 
ATOM     63  F   UNL A   1      42.735  26.962  36.576  1.00  0.00    -0.206 F 
ATOM     64  C   UNL A   1      45.029  26.569  36.864  1.00  0.00     0.059 A 
ATOM     65  C   UNL A   1      46.650  27.936  35.681  1.00  0.00     0.059 A 
ATOM     66  F   UNL A   1      45.914  29.675  34.292  1.00  0.00    -0.206 F 
ATOM     67  C   UNL A   1      46.352  26.898  36.564  1.00  0.00     0.060 A 
BRANCH  67  68
ATOM     68  S   UNL A   1      47.674  25.946  37.341  1.00  0.00     0.124 S 
ATOM     69  O   UNL A   1      48.860  26.645  36.860  1.00  0.00    -0.237 OA
ATOM     70  O   UNL A   1      47.376  26.104  38.761  1.00  0.00    -0.237 OA
ATOM     71  O   UNL A   1      47.481  24.600  36.810  1.00  0.00    -0.744 OA
ENDBRANCH  67  68
ENDBRANCH  46  60
BRANCH  47  72
ATOM     72  C   UNL A   1      36.734  33.062  30.793  1.00  0.00     0.058 A 
ATOM     73  C   UNL A   1      35.411  32.827  31.194  1.00  0.00     0.135 A 
ATOM     74  C   UNL A   1      36.946  33.971  29.744  1.00  0.00     0.135 A 
ATOM     75  F   UNL A   1      35.154  31.960  32.185  1.00  0.00    -0.206 F 
ATOM     76  C   UNL A   1      34.336  33.454  30.570  1.00  0.00     0.059 A 
ATOM     77  C   UNL A   1      35.891  34.633  29.125  1.00  0.00     0.059 A 
ATOM     78  F   UNL A   1      38.194  34.243  29.331  1.00  0.00    -0.206 F 
ATOM     79  C   UNL A   1      34.588  34.360  29.538  1.00  0.00     0.060 A 
BRANCH  79  80
ATOM     80  S   UNL A   1      33.190  35.204  28.767  1.00  0.00     0.124 S 
ATOM     81  O   UNL A   1      33.863  36.235  27.986  1.00  0.00    -0.237 OA
ATOM     82  O   UNL A   1      32.566  34.128  28.004  1.00  0.00    -0.237 OA
ATOM     83  O   UNL A   1      32.415  35.683  29.909  1.00  0.00    -0.744 OA
ENDBRANCH  79  80
ENDBRANCH  47  72
BRANCH  59  84
ATOM     84  C   UNL A   1      40.011  33.997  36.887  1.00  0.00     0.058 A 
ATOM     85  C   UNL A   1      40.665  35.239  36.885  1.00  0.00     0.135 A 
ATOM     86  C   UNL A   1      39.129  33.726  37.946  1.00  0.00     0.135 A 
ATOM     87  F   UNL A   1      41.524  35.548  35.900  1.00  0.00    -0.206 F 
ATOM     88  C   UNL A   1      40.470  36.167  37.903  1.00  0.00     0.059 A 
ATOM     89  C   UNL A   1      38.894  34.651  38.959  1.00  0.00     0.059 A 
ATOM     90  F   UNL A   1      38.469  32.557  37.994  1.00  0.00    -0.206 F 
ATOM     91  C   UNL A   1      39.579  35.865  38.934  1.00  0.00     0.060 A 
BRANCH  91  92
ATOM     92  S   UNL A   1      39.308  37.093  40.229  1.00  0.00     0.124 S 
ATOM     93  O   UNL A   1      40.676  37.430  40.607  1.00  0.00    -0.237 OA
ATOM     94  O   UNL A   1      38.570  38.135  39.521  1.00  0.00    -0.237 OA
ATOM     95  O   UNL A   1      38.541  36.364  41.235  1.00  0.00    -0.744 OA
ENDBRANCH  91  92
ENDBRANCH  59  84
ENDBRANCH  33  34
ENDBRANCH  25  28
ENDBRANCH  23  24
ENDBRANCH   1  23
TORSDOF 18
ENDMDL
MODEL 2
REMARK VINA RESULT:     -11.0      3.309      9.436
REMARK SMILES CCC(CC)(Nc1nc(Cl)nc(OC)n1)C(=O)NCCCNC(=O)c1ccc(-c2c3nc(c(-c4c(F)cc(S(=O)(=O)[O-])cc4F)c4ccc([nH]4)c(-c4c(F)cc(S(=O)(=O)[O-])cc4F)c4nc(c(-c5c(F)cc(S(=O)(=O)[O-])cc5F)c5ccc2[nH]5)C=C4)C=C3)cc1
REMARK SMILES IDX 20 1 19 2 18 3 16 4 17 5 3 7 2 8 1 9 4 10 5 11 6 12 7 14
REMARK SMILES IDX 8 15 15 16 9 17 12 18 10 19 11 20 13 21 14 22 21 23 22 24
REMARK SMILES IDX 23 25 24 27 25 28 26 29 90 30 27 31 89 32 28 33 29 34 30 35
REMARK SMILES IDX 83 36 31 37 88 38 82 39 84 40 32 41 87 42 81 43 80 44 33 46
REMARK SMILES IDX 67 47 46 48 66 49 47 50 50 51 65 52 85 53 48 54 49 55 64 57
REMARK SMILES IDX 86 58 51 59 34 60 35 61 44 62 36 63 37 64 43 65 45 66 38 67
REMARK SMILES IDX 39 68 40 69 41 70 42 71 68 72 69 73 78 74 70 75 71 76 77 77
REMARK SMILES IDX 79 78 72 79 73 80 74 81 75 82 76 83 52 84 53 85 62 86 54 87
REMARK SMILES IDX 55 88 61 89 63 90 56 91 57 92 58 93 59 94 60 95
REMARK H PARENT 18 6 6 13 22 26 84 45 50 56
REMARK Flexibility Score: inf
ROOT
ATOM      1  C   UNL A   1      32.890  27.739  26.868  1.00  0.00     0.042 C 
ENDROOT
BRANCH   1   2
ATOM      2  C   UNL A   1      32.213  26.759  25.921  1.00  0.00     0.117 C 
BRANCH   2   3
ATOM      3  N   UNL A   1      31.377  25.752  26.560  1.00  0.00    -0.354 N 
ATOM      4  C   UNL A   1      31.450  24.384  26.591  1.00  0.00     0.245 C 
ATOM      5  O   UNL A   1      30.574  23.805  27.245  1.00  0.00    -0.272 OA
ATOM      6  H   UNL A   1      30.617  26.124  27.064  1.00  0.00     0.163 HD
BRANCH   4   7
ATOM      7  C   UNL A   1      32.604  23.601  25.867  1.00  0.00     0.118 C 
BRANCH   7   8
ATOM      8  C   UNL A   1      33.997  24.258  26.143  1.00  0.00     0.035 C 
ATOM      9  C   UNL A   1      34.922  24.453  24.940  1.00  0.00     0.007 C 
ENDBRANCH   7   8
BRANCH   7  10
ATOM     10  C   UNL A   1      32.291  23.633  24.337  1.00  0.00     0.035 C 
ATOM     11  C   UNL A   1      30.824  23.717  23.939  1.00  0.00     0.007 C 
ENDBRANCH   7  10
BRANCH   7  12
ATOM     12  N   UNL A   1      32.701  22.205  26.353  1.00  0.00    -0.340 N 
ATOM     13  H   UNL A   1      32.361  22.014  27.256  1.00  0.00     0.164 HD
BRANCH  12  14
ATOM     14  C   UNL A   1      33.230  21.153  25.636  1.00  0.00     0.231 A 
ATOM     15  N   UNL A   1      34.536  21.011  25.506  1.00  0.00    -0.182 NA
ATOM     16  N   UNL A   1      32.357  20.276  25.162  1.00  0.00    -0.159 NA
ATOM     17  C   UNL A   1      34.930  19.879  24.937  1.00  0.00     0.230 A 
ATOM     18  C   UNL A   1      32.892  19.197  24.581  1.00  0.00     0.322 A 
ATOM     19  Cl  UNL A   1      36.616  19.603  24.902  1.00  0.00    -0.041 Cl
ATOM     20  N   UNL A   1      34.174  18.915  24.459  1.00  0.00    -0.164 NA
BRANCH  18  21
ATOM     21  O   UNL A   1      32.034  18.253  24.074  1.00  0.00    -0.467 OA
ATOM     22  C   UNL A   1      32.305  18.070  22.691  1.00  0.00     0.282 C 
ENDBRANCH  18  21
ENDBRANCH  12  14
ENDBRANCH   7  12
ENDBRANCH   4   7
ENDBRANCH   2   3
ENDBRANCH   1   2
BRANCH   1  23
ATOM     23  C   UNL A   1      33.998  28.569  26.250  1.00  0.00     0.118 C 
BRANCH  23  24
ATOM     24  N   UNL A   1      33.848  29.989  26.517  1.00  0.00    -0.352 N 
ATOM     25  C   UNL A   1      34.574  30.805  27.352  1.00  0.00     0.251 C 
ATOM     26  H   UNL A   1      33.117  30.433  26.029  1.00  0.00     0.163 HD
ATOM     27  O   UNL A   1      34.181  31.945  27.574  1.00  0.00    -0.269 OA
BRANCH  25  28
ATOM     28  C   UNL A   1      35.803  30.299  28.010  1.00  0.00     0.039 A 
ATOM     29  C   UNL A   1      37.024  30.450  27.351  1.00  0.00     0.014 A 
ATOM     30  C   UNL A   1      35.760  29.676  29.261  1.00  0.00     0.014 A 
ATOM     31  C   UNL A   1      38.204  30.030  27.969  1.00  0.00     0.010 A 
ATOM     32  C   UNL A   1      36.945  29.339  29.914  1.00  0.00     0.010 A 
ATOM     33  C   UNL A   1      38.180  29.502  29.271  1.00  0.00    -0.014 A 
BRANCH  33  34
ATOM     34  C   UNL A   1      39.441  29.107  29.954  1.00  0.00     0.031 A 
ATOM     35  C   UNL A   1      39.885  29.820  31.205  1.00  0.00     0.074 A 
ATOM     36  C   UNL A   1      40.201  28.121  29.437  1.00  0.00     0.049 A 
ATOM     37  N   UNL A   1      40.950  29.614  31.938  1.00  0.00    -0.248 NA
ATOM     38  C   UNL A   1      39.032  30.918  31.686  1.00  0.00     0.031 C 
ATOM     39  C   UNL A   1      39.906  27.383  28.206  1.00  0.00     0.029 A 
ATOM     40  N   UNL A   1      41.378  27.567  29.877  1.00  0.00    -0.354 N 
ATOM     41  C   UNL A   1      40.897  30.557  32.958  1.00  0.00     0.074 A 
ATOM     42  C   UNL A   1      39.727  31.373  32.718  1.00  0.00     0.031 C 
ATOM     43  C   UNL A   1      40.856  26.456  28.008  1.00  0.00     0.029 A 
ATOM     44  C   UNL A   1      41.851  26.559  29.072  1.00  0.00     0.049 A 
ATOM     45  H   UNL A   1      41.840  27.864  30.695  1.00  0.00     0.167 HD
ATOM     46  C   UNL A   1      41.732  30.713  34.013  1.00  0.00     0.037 A 
ATOM     47  C   UNL A   1      42.965  25.804  29.171  1.00  0.00     0.037 A 
ATOM     48  C   UNL A   1      42.889  29.890  34.255  1.00  0.00     0.049 A 
ATOM     49  C   UNL A   1      43.890  26.013  30.340  1.00  0.00     0.074 A 
ATOM     50  C   UNL A   1      43.765  29.933  35.326  1.00  0.00     0.029 A 
ATOM     51  N   UNL A   1      43.339  28.884  33.412  1.00  0.00    -0.354 N 
ATOM     52  N   UNL A   1      43.781  26.857  31.338  1.00  0.00    -0.248 NA
ATOM     53  C   UNL A   1      45.088  25.163  30.400  1.00  0.00     0.031 C 
ATOM     54  C   UNL A   1      44.776  28.994  35.101  1.00  0.00     0.029 A 
ATOM     55  C   UNL A   1      44.498  28.322  33.923  1.00  0.00     0.049 A 
ATOM     56  H   UNL A   1      42.899  28.610  32.575  1.00  0.00     0.167 HD
ATOM     57  C   UNL A   1      44.882  26.625  32.155  1.00  0.00     0.074 A 
ATOM     58  C   UNL A   1      45.634  25.548  31.545  1.00  0.00     0.031 C 
ATOM     59  C   UNL A   1      45.239  27.248  33.306  1.00  0.00     0.037 A 
BRANCH  46  60
ATOM     60  C   UNL A   1      41.426  31.818  34.990  1.00  0.00     0.058 A 
ATOM     61  C   UNL A   1      42.019  33.086  34.881  1.00  0.00     0.135 A 
ATOM     62  C   UNL A   1      40.495  31.619  36.024  1.00  0.00     0.135 A 
ATOM     63  F   UNL A   1      42.925  33.330  33.920  1.00  0.00    -0.206 F 
ATOM     64  C   UNL A   1      41.723  34.109  35.777  1.00  0.00     0.059 A 
ATOM     65  C   UNL A   1      40.161  32.637  36.913  1.00  0.00     0.059 A 
ATOM     66  F   UNL A   1      39.897  30.427  36.176  1.00  0.00    -0.206 F 
ATOM     67  C   UNL A   1      40.791  33.875  36.790  1.00  0.00     0.060 A 
BRANCH  67  68
ATOM     68  S   UNL A   1      40.412  35.216  37.937  1.00  0.00     0.124 S 
ATOM     69  O   UNL A   1      41.199  34.832  39.104  1.00  0.00    -0.237 OA
ATOM     70  O   UNL A   1      40.887  36.389  37.211  1.00  0.00    -0.237 OA
ATOM     71  O   UNL A   1      38.965  35.127  38.100  1.00  0.00    -0.744 OA
ENDBRANCH  67  68
ENDBRANCH  46  60
BRANCH  47  72
ATOM     72  C   UNL A   1      43.259  24.772  28.139  1.00  0.00     0.058 A 
ATOM     73  C   UNL A   1      43.923  25.105  26.948  1.00  0.00     0.135 A 
ATOM     74  C   UNL A   1      42.888  23.431  28.325  1.00  0.00     0.135 A 
ATOM     75  F   UNL A   1      44.290  26.374  26.717  1.00  0.00    -0.206 F 
ATOM     76  C   UNL A   1      44.192  24.151  25.971  1.00  0.00     0.059 A 
ATOM     77  C   UNL A   1      43.174  22.454  27.378  1.00  0.00     0.059 A 
ATOM     78  F   UNL A   1      42.265  23.056  29.453  1.00  0.00    -0.206 F 
ATOM     79  C   UNL A   1      43.817  22.825  26.198  1.00  0.00     0.060 A 
BRANCH  79  80
ATOM     80  S   UNL A   1      44.214  21.587  24.945  1.00  0.00     0.124 S 
ATOM     81  O   UNL A   1      44.100  22.364  23.717  1.00  0.00    -0.237 OA
ATOM     82  O   UNL A   1      45.566  21.189  25.327  1.00  0.00    -0.237 OA
ATOM     83  O   UNL A   1      43.189  20.566  25.145  1.00  0.00    -0.744 OA
ENDBRANCH  79  80
ENDBRANCH  47  72
BRANCH  59  84
ATOM     84  C   UNL A   1      46.486  26.769  34.000  1.00  0.00     0.058 A 
ATOM     85  C   UNL A   1      47.741  27.347  33.748  1.00  0.00     0.135 A 
ATOM     86  C   UNL A   1      46.417  25.754  34.969  1.00  0.00     0.135 A 
ATOM     87  F   UNL A   1      47.866  28.316  32.827  1.00  0.00    -0.206 F 
ATOM     88  C   UNL A   1      48.885  26.921  34.415  1.00  0.00     0.059 A 
ATOM     89  C   UNL A   1      47.543  25.333  35.670  1.00  0.00     0.059 A 
ATOM     90  F   UNL A   1      45.241  25.173  35.257  1.00  0.00    -0.206 F 
ATOM     91  C   UNL A   1      48.775  25.915  35.377  1.00  0.00     0.060 A 
BRANCH  91  92
ATOM     92  S   UNL A   1      50.262  25.398  36.260  1.00  0.00     0.124 S 
ATOM     93  O   UNL A   1      50.004  23.977  36.466  1.00  0.00    -0.237 OA
ATOM     94  O   UNL A   1      51.319  25.718  35.304  1.00  0.00    -0.237 OA
ATOM     95  O   UNL A   1      50.247  26.220  37.466  1.00  0.00    -0.744 OA
ENDBRANCH  91  92
ENDBRANCH  59  84
ENDBRANCH  33  34
ENDBRANCH  25  28
ENDBRANCH  23  24
ENDBRANCH   1  23
TORSDOF 18
ENDMDL
MODEL 3
REMARK VINA RESULT:     -10.8      3.186      9.465
REMARK SMILES CCC(CC)(Nc1nc(Cl)nc(OC)n1)C(=O)NCCCNC(=O)c1ccc(-c2c3nc(c(-c4c(F)cc(S(=O)(=O)[O-])cc4F)c4ccc([nH]4)c(-c4c(F)cc(S(=O)(=O)[O-])cc4F)c4nc(c(-c5c(F)cc(S(=O)(=O)[O-])cc5F)c5ccc2[nH]5)C=C4)C=C3)cc1
REMARK SMILES IDX 20 1 19 2 18 3 16 4 17 5 3 7 2 8 1 9 4 10 5 11 6 12 7 14
REMARK SMILES IDX 8 15 15 16 9 17 12 18 10 19 11 20 13 21 14 22 21 23 22 24
REMARK SMILES IDX 23 25 24 27 25 28 26 29 90 30 27 31 89 32 28 33 29 34 30 35
REMARK SMILES IDX 83 36 31 37 88 38 82 39 84 40 32 41 87 42 81 43 80 44 33 46
REMARK SMILES IDX 67 47 46 48 66 49 47 50 50 51 65 52 85 53 48 54 49 55 64 57
REMARK SMILES IDX 86 58 51 59 34 60 35 61 44 62 36 63 37 64 43 65 45 66 38 67
REMARK SMILES IDX 39 68 40 69 41 70 42 71 68 72 69 73 78 74 70 75 71 76 77 77
REMARK SMILES IDX 79 78 72 79 73 80 74 81 75 82 76 83 52 84 53 85 62 86 54 87
REMARK SMILES IDX 55 88 61 89 63 90 56 91 57 92 58 93 59 94 60 95
REMARK H PARENT 18 6 6 13 22 26 84 45 50 56
REMARK Flexibility Score: inf
ROOT
ATOM      1  C   UNL A   1      33.300  27.593  25.967  1.00  0.00     0.042 C 
ENDROOT
BRANCH   1   2
ATOM      2  C   UNL A   1      33.695  26.253  25.364  1.00  0.00     0.117 C 
BRANCH   2   3
ATOM      3  N   UNL A   1      33.230  25.082  26.094  1.00  0.00    -0.354 N 
ATOM      4  C   UNL A   1      32.947  23.802  25.691  1.00  0.00     0.245 C 
ATOM      5  O   UNL A   1      32.574  23.021  26.575  1.00  0.00    -0.272 OA
ATOM      6  H   UNL A   1      33.092  25.238  27.056  1.00  0.00     0.163 HD
BRANCH   4   7
ATOM      7  C   UNL A   1      33.125  23.347  24.198  1.00  0.00     0.118 C 
BRANCH   7   8
ATOM      8  C   UNL A   1      32.350  24.290  23.219  1.00  0.00     0.035 C 
ATOM      9  C   UNL A   1      33.100  24.765  21.975  1.00  0.00     0.007 C 
ENDBRANCH   7   8
BRANCH   7  10
ATOM     10  C   UNL A   1      32.567  21.892  24.092  1.00  0.00     0.035 C 
ATOM     11  C   UNL A   1      32.068  21.447  22.724  1.00  0.00     0.007 C 
ENDBRANCH   7  10
BRANCH   7  12
ATOM     12  N   UNL A   1      34.546  23.395  23.782  1.00  0.00    -0.340 N 
ATOM     13  H   UNL A   1      34.753  23.825  22.922  1.00  0.00     0.164 HD
BRANCH  12  14
ATOM     14  C   UNL A   1      35.601  22.883  24.508  1.00  0.00     0.231 A 
ATOM     15  N   UNL A   1      35.906  21.600  24.447  1.00  0.00    -0.182 NA
ATOM     16  N   UNL A   1      36.313  23.763  25.196  1.00  0.00    -0.159 NA
ATOM     17  C   UNL A   1      37.033  21.256  25.056  1.00  0.00     0.230 A 
ATOM     18  C   UNL A   1      37.405  23.272  25.790  1.00  0.00     0.322 A 
ATOM     19  Cl  UNL A   1      37.529  19.632  24.855  1.00  0.00    -0.041 Cl
ATOM     20  N   UNL A   1      37.847  22.031  25.738  1.00  0.00    -0.164 NA
BRANCH  18  21
ATOM     21  O   UNL A   1      38.184  24.140  26.514  1.00  0.00    -0.467 OA
ATOM     22  C   UNL A   1      39.454  23.545  26.747  1.00  0.00     0.282 C 
ENDBRANCH  18  21
ENDBRANCH  12  14
ENDBRANCH   7  12
ENDBRANCH   4   7
ENDBRANCH   2   3
ENDBRANCH   1   2
BRANCH   1  23
ATOM     23  C   UNL A   1      34.299  28.714  25.752  1.00  0.00     0.118 C 
BRANCH  23  24
ATOM     24  N   UNL A   1      33.867  29.968  26.342  1.00  0.00    -0.352 N 
ATOM     25  C   UNL A   1      34.373  30.648  27.424  1.00  0.00     0.251 C 
ATOM     26  H   UNL A   1      33.096  30.395  25.902  1.00  0.00     0.163 HD
ATOM     27  O   UNL A   1      33.759  31.608  27.876  1.00  0.00    -0.269 OA
BRANCH  25  28
ATOM     28  C   UNL A   1      35.634  30.202  28.066  1.00  0.00     0.039 A 
ATOM     29  C   UNL A   1      36.840  30.447  27.408  1.00  0.00     0.014 A 
ATOM     30  C   UNL A   1      35.634  29.542  29.298  1.00  0.00     0.014 A 
ATOM     31  C   UNL A   1      38.047  30.085  28.012  1.00  0.00     0.010 A 
ATOM     32  C   UNL A   1      36.840  29.262  29.939  1.00  0.00     0.010 A 
ATOM     33  C   UNL A   1      38.060  29.520  29.299  1.00  0.00    -0.014 A 
BRANCH  33  34
ATOM     34  C   UNL A   1      39.346  29.185  29.968  1.00  0.00     0.031 A 
ATOM     35  C   UNL A   1      39.788  29.946  31.191  1.00  0.00     0.074 A 
ATOM     36  C   UNL A   1      40.129  28.211  29.463  1.00  0.00     0.049 A 
ATOM     37  N   UNL A   1      40.873  29.795  31.908  1.00  0.00    -0.248 NA
ATOM     38  C   UNL A   1      38.907  31.027  31.659  1.00  0.00     0.031 C 
ATOM     39  C   UNL A   1      39.836  27.431  28.258  1.00  0.00     0.029 A 
ATOM     40  N   UNL A   1      41.332  27.709  29.895  1.00  0.00    -0.354 N 
ATOM     41  C   UNL A   1      40.806  30.763  32.904  1.00  0.00     0.074 A 
ATOM     42  C   UNL A   1      39.606  31.532  32.665  1.00  0.00     0.031 C 
ATOM     43  C   UNL A   1      40.814  26.531  28.066  1.00  0.00     0.029 A 
ATOM     44  C   UNL A   1      41.824  26.695  29.107  1.00  0.00     0.049 A 
ATOM     45  H   UNL A   1      41.798  28.043  30.695  1.00  0.00     0.167 HD
ATOM     46  C   UNL A   1      41.655  30.975  33.939  1.00  0.00     0.037 A 
ATOM     47  C   UNL A   1      42.964  25.981  29.206  1.00  0.00     0.037 A 
ATOM     48  C   UNL A   1      42.843  30.197  34.180  1.00  0.00     0.049 A 
ATOM     49  C   UNL A   1      43.902  26.252  30.351  1.00  0.00     0.074 A 
ATOM     50  C   UNL A   1      43.736  30.299  35.233  1.00  0.00     0.029 A 
ATOM     51  N   UNL A   1      43.311  29.184  33.356  1.00  0.00    -0.354 N 
ATOM     52  N   UNL A   1      43.783  27.118  31.329  1.00  0.00    -0.248 NA
ATOM     53  C   UNL A   1      45.129  25.443  30.411  1.00  0.00     0.031 C 
ATOM     54  C   UNL A   1      44.774  29.388  35.014  1.00  0.00     0.029 A 
ATOM     55  C   UNL A   1      44.497  28.675  33.859  1.00  0.00     0.049 A 
ATOM     56  H   UNL A   1      42.866  28.873  32.535  1.00  0.00     0.167 HD
ATOM     57  C   UNL A   1      44.906  26.945  32.130  1.00  0.00     0.074 A 
ATOM     58  C   UNL A   1      45.683  25.877  31.535  1.00  0.00     0.031 C 
ATOM     59  C   UNL A   1      45.263  27.610  33.257  1.00  0.00     0.037 A 
BRANCH  46  60
ATOM     60  C   UNL A   1      41.330  32.095  34.892  1.00  0.00     0.058 A 
ATOM     61  C   UNL A   1      41.864  33.383  34.728  1.00  0.00     0.135 A 
ATOM     62  C   UNL A   1      40.438  31.888  35.959  1.00  0.00     0.135 A 
ATOM     63  F   UNL A   1      42.730  33.636  33.734  1.00  0.00    -0.206 F 
ATOM     64  C   UNL A   1      41.549  34.419  35.603  1.00  0.00     0.059 A 
ATOM     65  C   UNL A   1      40.086  32.917  36.828  1.00  0.00     0.059 A 
ATOM     66  F   UNL A   1      39.897  30.677  36.163  1.00  0.00    -0.206 F 
ATOM     67  C   UNL A   1      40.658  34.176  36.649  1.00  0.00     0.060 A 
BRANCH  67  68
ATOM     68  S   UNL A   1      40.255  35.535  37.769  1.00  0.00     0.124 S 
ATOM     69  O   UNL A   1      39.980  36.616  36.828  1.00  0.00    -0.237 OA
ATOM     70  O   UNL A   1      39.099  35.011  38.488  1.00  0.00    -0.237 OA
ATOM     71  O   UNL A   1      41.467  35.691  38.566  1.00  0.00    -0.744 OA
ENDBRANCH  67  68
ENDBRANCH  46  60
BRANCH  47  72
ATOM     72  C   UNL A   1      43.274  24.932  28.195  1.00  0.00     0.058 A 
ATOM     73  C   UNL A   1      43.938  25.248  27.001  1.00  0.00     0.135 A 
ATOM     74  C   UNL A   1      42.918  23.590  28.408  1.00  0.00     0.135 A 
ATOM     75  F   UNL A   1      44.292  26.517  26.745  1.00  0.00    -0.206 F 
ATOM     76  C   UNL A   1      44.222  24.278  26.044  1.00  0.00     0.059 A 
ATOM     77  C   UNL A   1      43.218  22.597  27.481  1.00  0.00     0.059 A 
ATOM     78  F   UNL A   1      42.294  23.231  29.540  1.00  0.00    -0.206 F 
ATOM     79  C   UNL A   1      43.862  22.953  26.296  1.00  0.00     0.060 A 
BRANCH  79  80
ATOM     80  S   UNL A   1      44.278  21.694  25.070  1.00  0.00     0.124 S 
ATOM     81  O   UNL A   1      45.646  21.357  25.448  1.00  0.00    -0.237 OA
ATOM     82  O   UNL A   1      43.272  20.669  25.330  1.00  0.00    -0.237 OA
ATOM     83  O   UNL A   1      44.129  22.399  23.800  1.00  0.00    -0.744 OA
ENDBRANCH  79  80
ENDBRANCH  47  72
BRANCH  59  84
ATOM     84  C   UNL A   1      46.538  27.191  33.940  1.00  0.00     0.058 A 
ATOM     85  C   UNL A   1      46.556  26.186  34.920  1.00  0.00     0.135 A 
ATOM     86  C   UNL A   1      47.765  27.765  33.569  1.00  0.00     0.135 A 
ATOM     87  F   UNL A   1      45.411  25.608  35.317  1.00  0.00    -0.206 F 
ATOM     88  C   UNL A   1      47.742  25.782  35.525  1.00  0.00     0.059 A 
ATOM     89  C   UNL A   1      48.967  27.354  34.138  1.00  0.00     0.059 A 
ATOM     90  F   UNL A   1      47.807  28.723  32.629  1.00  0.00    -0.206 F 
ATOM     91  C   UNL A   1      48.943  26.369  35.124  1.00  0.00     0.060 A 
BRANCH  91  92
ATOM     92  S   UNL A   1      50.478  25.809  35.893  1.00  0.00     0.124 S 
ATOM     93  O   UNL A   1      51.466  26.648  35.223  1.00  0.00    -0.237 OA
ATOM     94  O   UNL A   1      50.246  26.106  37.303  1.00  0.00    -0.237 OA
ATOM     95  O   UNL A   1      50.529  24.390  35.557  1.00  0.00    -0.744 OA
ENDBRANCH  91  92
ENDBRANCH  59  84
ENDBRANCH  33  34
ENDBRANCH  25  28
ENDBRANCH  23  24
ENDBRANCH   1  23
TORSDOF 18
ENDMDL
