MODEL 1
REMARK VINA RESULT:     -10.8      0.000      0.000
REMARK SMILES O=C(NCCCNC(=O)[C@H](CO)NC(=O)[C@H](CS)NC(=O)[C@H](Cc1c[nH]c2ccccc12)NC(=O)c1ccc(F)cc1)c1ccc(-c2c3nc(c(-c4c(F)cc(S(=O)(=O)[O-])cc4F)c4ccc([nH]4)c(-c4c(F)cc(S(=O)(=O)[O-])cc4F)c4nc(c(-c5c(F)cc(S(=O)(=O)[O-])cc5F)c5ccc2[nH]5)C=C4)C=C3)cc1
REMARK SMILES IDX 7 1 8 2 9 3 6 5 5 6 4 7 3 8 1 9 2 10 43 12 44 13 108 14
REMARK SMILES IDX 45 15 107 16 46 17 47 18 48 19 101 20 49 21 106 22 100 23
REMARK SMILES IDX 102 24 50 25 105 26 99 27 98 28 51 30 85 31 64 32 84 33
REMARK SMILES IDX 65 34 68 35 83 36 103 37 66 38 67 39 82 41 104 42 69 43
REMARK SMILES IDX 52 44 53 45 62 46 54 47 55 48 61 49 63 50 56 51 57 52 58 53
REMARK SMILES IDX 59 54 60 55 86 56 87 57 96 58 88 59 89 60 95 61 97 62 90 63
REMARK SMILES IDX 91 64 92 65 93 66 94 67 70 68 71 69 80 70 72 71 73 72 79 73
REMARK SMILES IDX 81 74 74 75 75 76 76 77 77 78 78 79 10 80 13 81 14 82 15 84
REMARK SMILES IDX 16 85 19 86 20 87 21 89 22 90 33 91 34 92 35 94 36 95 37 96
REMARK SMILES IDX 42 97 38 98 41 99 39 100 40 101 23 102 24 103 25 104 32 105
REMARK SMILES IDX 26 106 27 107 31 108 28 110 30 111 29 112 17 113 18 114
REMARK SMILES IDX 11 116 12 117
REMARK H PARENT 7 4 3 11 102 29 68 40 13 83 19 88 33 93 26 109 18 115 12 118
REMARK Flexibility Score: inf
ROOT
ATOM      1  N   UNL A   1      43.319  39.723  26.643  1.00  0.00    -0.354 N 
ATOM      2  C   UNL A   1      43.590  40.793  25.852  1.00  0.00     0.244 C 
ATOM      3  O   UNL A   1      42.620  41.577  25.909  1.00  0.00    -0.273 OA
ATOM      4  H   UNL A   1      42.373  39.722  26.910  1.00  0.00     0.163 HD
ENDROOT
BRANCH   1   5
ATOM      5  C   UNL A   1      44.007  38.587  27.209  1.00  0.00     0.117 C 
BRANCH   5   6
ATOM      6  C   UNL A   1      44.200  38.711  28.710  1.00  0.00     0.042 C 
BRANCH   6   7
ATOM      7  C   UNL A   1      44.882  37.502  29.328  1.00  0.00     0.118 C 
BRANCH   7   8
ATOM      8  N   UNL A   1      46.331  37.568  29.205  1.00  0.00    -0.352 N 
ATOM      9  O   UNL A   1      48.449  36.821  29.262  1.00  0.00    -0.269 OA
ATOM     10  C   UNL A   1      47.260  36.563  29.098  1.00  0.00     0.251 C 
ATOM     11  H   UNL A   1      46.705  38.479  29.198  1.00  0.00     0.163 HD
BRANCH  10  12
ATOM     12  C   UNL A   1      46.829  35.181  28.807  1.00  0.00     0.039 A 
ATOM     13  C   UNL A   1      46.567  34.282  29.842  1.00  0.00     0.014 A 
ATOM     14  C   UNL A   1      46.651  34.786  27.478  1.00  0.00     0.014 A 
ATOM     15  C   UNL A   1      46.292  32.952  29.556  1.00  0.00     0.010 A 
ATOM     16  C   UNL A   1      46.261  33.476  27.193  1.00  0.00     0.010 A 
ATOM     17  C   UNL A   1      46.105  32.542  28.229  1.00  0.00    -0.014 A 
BRANCH  17  18
ATOM     18  C   UNL A   1      45.674  31.152  27.943  1.00  0.00     0.031 A 
ATOM     19  C   UNL A   1      44.240  30.744  28.111  1.00  0.00     0.074 A 
ATOM     20  C   UNL A   1      46.598  30.257  27.541  1.00  0.00     0.049 A 
ATOM     21  N   UNL A   1      43.704  29.557  27.990  1.00  0.00    -0.248 NA
ATOM     22  C   UNL A   1      43.281  31.801  28.469  1.00  0.00     0.031 C 
ATOM     23  C   UNL A   1      48.018  30.552  27.329  1.00  0.00     0.029 A 
ATOM     24  N   UNL A   1      46.489  28.925  27.238  1.00  0.00    -0.354 N 
ATOM     25  C   UNL A   1      42.355  29.716  28.282  1.00  0.00     0.074 A 
ATOM     26  C   UNL A   1      42.157  31.113  28.608  1.00  0.00     0.031 C 
ATOM     27  C   UNL A   1      48.639  29.445  26.901  1.00  0.00     0.029 A 
ATOM     28  C   UNL A   1      47.684  28.343  26.889  1.00  0.00     0.049 A 
ATOM     29  H   UNL A   1      45.637  28.432  27.268  1.00  0.00     0.167 HD
ATOM     30  C   UNL A   1      41.377  28.780  28.272  1.00  0.00     0.037 A 
ATOM     31  C   UNL A   1      47.992  27.060  26.623  1.00  0.00     0.037 A 
ATOM     32  C   UNL A   1      41.598  27.396  27.938  1.00  0.00     0.049 A 
ATOM     33  C   UNL A   1      46.905  26.029  26.675  1.00  0.00     0.074 A 
ATOM     34  C   UNL A   1      40.671  26.370  27.875  1.00  0.00     0.029 A 
ATOM     35  N   UNL A   1      42.830  26.840  27.621  1.00  0.00    -0.354 N 
ATOM     36  N   UNL A   1      45.632  26.195  26.944  1.00  0.00    -0.248 NA
ATOM     37  C   UNL A   1      47.288  24.639  26.399  1.00  0.00     0.031 C 
ATOM     38  C   UNL A   1      41.350  25.185  27.579  1.00  0.00     0.029 A 
ATOM     39  C   UNL A   1      42.691  25.481  27.388  1.00  0.00     0.049 A 
ATOM     40  H   UNL A   1      43.678  27.338  27.568  1.00  0.00     0.167 HD
ATOM     41  C   UNL A   1      45.055  24.936  26.846  1.00  0.00     0.074 A 
ATOM     42  C   UNL A   1      46.118  24.017  26.491  1.00  0.00     0.031 C 
ATOM     43  C   UNL A   1      43.760  24.580  27.026  1.00  0.00     0.037 A 
BRANCH  30  44
ATOM     44  C   UNL A   1      39.986  29.208  28.661  1.00  0.00     0.058 A 
ATOM     45  C   UNL A   1      39.086  29.667  27.684  1.00  0.00     0.135 A 
ATOM     46  C   UNL A   1      39.552  29.204  29.996  1.00  0.00     0.135 A 
ATOM     47  F   UNL A   1      39.445  29.690  26.390  1.00  0.00    -0.206 F 
ATOM     48  C   UNL A   1      37.811  30.110  28.017  1.00  0.00     0.059 A 
ATOM     49  C   UNL A   1      38.269  29.615  30.348  1.00  0.00     0.059 A 
ATOM     50  F   UNL A   1      40.364  28.759  30.969  1.00  0.00    -0.206 F 
ATOM     51  C   UNL A   1      37.409  30.076  29.353  1.00  0.00     0.060 A 
BRANCH  51  52
ATOM     52  S   UNL A   1      35.727  30.591  29.759  1.00  0.00     0.124 S 
ATOM     53  O   UNL A   1      34.939  29.844  28.783  1.00  0.00    -0.237 OA
ATOM     54  O   UNL A   1      35.601  30.156  31.147  1.00  0.00    -0.237 OA
ATOM     55  O   UNL A   1      35.762  32.038  29.565  1.00  0.00    -0.744 OA
ENDBRANCH  51  52
ENDBRANCH  30  44
BRANCH  31  56
ATOM     56  C   UNL A   1      49.396  26.713  26.281  1.00  0.00     0.058 A 
ATOM     57  C   UNL A   1      49.870  26.814  24.962  1.00  0.00     0.135 A 
ATOM     58  C   UNL A   1      50.255  26.169  27.246  1.00  0.00     0.135 A 
ATOM     59  F   UNL A   1      49.079  27.313  23.999  1.00  0.00    -0.206 F 
ATOM     60  C   UNL A   1      51.127  26.343  24.603  1.00  0.00     0.059 A 
ATOM     61  C   UNL A   1      51.529  25.715  26.914  1.00  0.00     0.059 A 
ATOM     62  F   UNL A   1      49.849  26.060  28.519  1.00  0.00    -0.206 F 
ATOM     63  C   UNL A   1      51.945  25.783  25.584  1.00  0.00     0.060 A 
BRANCH  63  64
ATOM     64  S   UNL A   1      53.547  25.119  25.084  1.00  0.00     0.124 S 
ATOM     65  O   UNL A   1      54.450  25.818  25.995  1.00  0.00    -0.237 OA
ATOM     66  O   UNL A   1      53.375  23.692  25.330  1.00  0.00    -0.237 OA
ATOM     67  O   UNL A   1      53.650  25.506  23.681  1.00  0.00    -0.744 OA
ENDBRANCH  63  64
ENDBRANCH  31  56
BRANCH  43  68
ATOM     68  C   UNL A   1      43.389  23.139  26.812  1.00  0.00     0.058 A 
ATOM     69  C   UNL A   1      43.150  22.303  27.914  1.00  0.00     0.135 A 
ATOM     70  C   UNL A   1      43.398  22.556  25.535  1.00  0.00     0.135 A 
ATOM     71  F   UNL A   1      43.130  22.811  29.157  1.00  0.00    -0.206 F 
ATOM     72  C   UNL A   1      42.978  20.933  27.764  1.00  0.00     0.059 A 
ATOM     73  C   UNL A   1      43.200  21.190  25.358  1.00  0.00     0.059 A 
ATOM     74  F   UNL A   1      43.605  23.316  24.448  1.00  0.00    -0.206 F 
ATOM     75  C   UNL A   1      43.017  20.383  26.482  1.00  0.00     0.060 A 
BRANCH  75  76
ATOM     76  S   UNL A   1      42.837  18.595  26.312  1.00  0.00     0.124 S 
ATOM     77  O   UNL A   1      43.935  18.269  25.408  1.00  0.00    -0.237 OA
ATOM     78  O   UNL A   1      42.991  18.140  27.689  1.00  0.00    -0.237 OA
ATOM     79  O   UNL A   1      41.498  18.440  25.752  1.00  0.00    -0.744 OA
ENDBRANCH  75  76
ENDBRANCH  43  68
ENDBRANCH  17  18
ENDBRANCH  10  12
ENDBRANCH   7   8
ENDBRANCH   6   7
ENDBRANCH   5   6
ENDBRANCH   1   5
BRANCH   2  80
ATOM     80  C   UNL A   1      45.174  41.170  25.021  1.00  0.00     0.197 C 
BRANCH  80  81
ATOM     81  N   UNL A   1      45.013  42.825  25.225  1.00  0.00    -0.340 N 
ATOM     82  C   UNL A   1      44.927  43.944  24.459  1.00  0.00     0.244 C 
ATOM     83  H   UNL A   1      44.967  43.053  26.182  1.00  0.00     0.164 HD
ATOM     84  O   UNL A   1      45.016  45.012  25.084  1.00  0.00    -0.273 OA
BRANCH  82  85
ATOM     85  C   UNL A   1      44.744  43.983  22.916  1.00  0.00     0.181 C 
BRANCH  85  86
ATOM     86  N   UNL A   1      45.427  42.960  22.113  1.00  0.00    -0.342 N 
ATOM     87  C   UNL A   1      45.783  42.902  20.802  1.00  0.00     0.243 C 
ATOM     88  H   UNL A   1      45.678  42.158  22.627  1.00  0.00     0.164 HD
ATOM     89  O   UNL A   1      46.378  41.882  20.437  1.00  0.00    -0.273 OA
BRANCH  87  90
ATOM     90  C   UNL A   1      45.657  44.100  19.842  1.00  0.00     0.176 C 
BRANCH  90  91
ATOM     91  N   UNL A   1      46.712  44.186  18.838  1.00  0.00    -0.340 N 
ATOM     92  C   UNL A   1      47.932  44.811  18.896  1.00  0.00     0.251 C 
ATOM     93  H   UNL A   1      46.518  43.728  17.989  1.00  0.00     0.164 HD
ATOM     94  O   UNL A   1      48.722  44.643  17.971  1.00  0.00    -0.269 OA
BRANCH  92  95
ATOM     95  C   UNL A   1      48.234  45.796  19.959  1.00  0.00     0.040 A 
ATOM     96  C   UNL A   1      48.027  45.570  21.325  1.00  0.00     0.017 A 
ATOM     97  C   UNL A   1      48.690  47.047  19.521  1.00  0.00     0.017 A 
ATOM     98  C   UNL A   1      48.154  46.627  22.228  1.00  0.00     0.040 A 
ATOM     99  C   UNL A   1      48.837  48.094  20.428  1.00  0.00     0.040 A 
ATOM    100  C   UNL A   1      48.539  47.883  21.768  1.00  0.00     0.123 A 
ATOM    101  F   UNL A   1      48.612  48.908  22.626  1.00  0.00    -0.207 F 
ENDBRANCH  92  95
ENDBRANCH  90  91
BRANCH  90 102
ATOM    102  C   UNL A   1      44.264  44.141  19.212  1.00  0.00     0.072 C 
BRANCH 102 103
ATOM    103  C   UNL A   1      43.870  45.409  18.509  1.00  0.00    -0.020 A 
ATOM    104  C   UNL A   1      42.556  45.549  17.284  1.00  0.00     0.087 A 
ATOM    105  C   UNL A   1      44.332  47.223  19.072  1.00  0.00     0.003 A 
ATOM    106  N   UNL A   1      42.118  47.350  17.143  1.00  0.00    -0.361 N 
ATOM    107  C   UNL A   1      43.311  48.355  18.129  1.00  0.00     0.046 A 
ATOM    108  C   UNL A   1      45.144  47.799  20.055  1.00  0.00     0.010 A 
ATOM    109  H   UNL A   1      41.365  47.713  16.623  1.00  0.00     0.166 HD
ATOM    110  C   UNL A   1      43.462  49.725  18.309  1.00  0.00     0.026 A 
ATOM    111  C   UNL A   1      45.158  49.210  20.119  1.00  0.00     0.001 A 
ATOM    112  C   UNL A   1      44.392  50.099  19.299  1.00  0.00     0.002 A 
ENDBRANCH 102 103
ENDBRANCH  90 102
ENDBRANCH  87  90
ENDBRANCH  85  86
BRANCH  85 113
ATOM    113  C   UNL A   1      43.231  43.947  22.564  1.00  0.00     0.101 C 
BRANCH 113 114
ATOM    114  S   UNL A   1      42.554  42.270  22.350  1.00  0.00    -0.177 SA
ATOM    115  H   UNL A   1      42.156  41.784  23.556  1.00  0.00     0.102 HD
ENDBRANCH 113 114
ENDBRANCH  85 113
ENDBRANCH  82  85
ENDBRANCH  80  81
BRANCH  80 116
ATOM    116  C   UNL A   1      47.097  39.951  25.129  1.00  0.00     0.191 C 
BRANCH 116 117
ATOM    117  O   UNL A   1      47.483  38.653  24.314  1.00  0.00    -0.394 OA
ATOM    118  H   UNL A   1      48.445  38.534  24.332  1.00  0.00     0.210 HD
ENDBRANCH 116 117
ENDBRANCH  80 116
ENDBRANCH   2  80
TORSDOF 25
ENDMDL
MODEL 2
REMARK VINA RESULT:     -10.6     11.269     17.920
REMARK SMILES O=C(NCCCNC(=O)[C@H](CO)NC(=O)[C@H](CS)NC(=O)[C@H](Cc1c[nH]c2ccccc12)NC(=O)c1ccc(F)cc1)c1ccc(-c2c3nc(c(-c4c(F)cc(S(=O)(=O)[O-])cc4F)c4ccc([nH]4)c(-c4c(F)cc(S(=O)(=O)[O-])cc4F)c4nc(c(-c5c(F)cc(S(=O)(=O)[O-])cc5F)c5ccc2[nH]5)C=C4)C=C3)cc1
REMARK SMILES IDX 7 1 8 2 9 3 6 5 5 6 4 7 3 8 1 9 2 10 43 12 44 13 108 14
REMARK SMILES IDX 45 15 107 16 46 17 47 18 48 19 101 20 49 21 106 22 100 23
REMARK SMILES IDX 102 24 50 25 105 26 99 27 98 28 51 30 85 31 64 32 84 33
REMARK SMILES IDX 65 34 68 35 83 36 103 37 66 38 67 39 82 41 104 42 69 43
REMARK SMILES IDX 52 44 53 45 62 46 54 47 55 48 61 49 63 50 56 51 57 52 58 53
REMARK SMILES IDX 59 54 60 55 86 56 87 57 96 58 88 59 89 60 95 61 97 62 90 63
REMARK SMILES IDX 91 64 92 65 93 66 94 67 70 68 71 69 80 70 72 71 73 72 79 73
REMARK SMILES IDX 81 74 74 75 75 76 76 77 77 78 78 79 10 80 13 81 14 82 15 84
REMARK SMILES IDX 16 85 19 86 20 87 21 89 22 90 33 91 34 92 35 94 36 95 37 96
REMARK SMILES IDX 42 97 38 98 41 99 39 100 40 101 23 102 24 103 25 104 32 105
REMARK SMILES IDX 26 106 27 107 31 108 28 110 30 111 29 112 17 113 18 114
REMARK SMILES IDX 11 116 12 117
REMARK H PARENT 7 4 3 11 102 29 68 40 13 83 19 88 33 93 26 109 18 115 12 118
REMARK Flexibility Score: inf
ROOT
ATOM      1  N   UNL A   1      51.352  23.623  32.591  1.00  0.00    -0.354 N 
ATOM      2  C   UNL A   1      51.226  22.368  33.092  1.00  0.00     0.244 C 
ATOM      3  O   UNL A   1      51.761  21.572  32.293  1.00  0.00    -0.273 OA
ATOM      4  H   UNL A   1      51.650  23.593  31.655  1.00  0.00     0.163 HD
ENDROOT
BRANCH   1   5
ATOM      5  C   UNL A   1      51.180  24.989  33.025  1.00  0.00     0.117 C 
BRANCH   5   6
ATOM      6  C   UNL A   1      49.894  25.607  32.505  1.00  0.00     0.042 C 
BRANCH   6   7
ATOM      7  C   UNL A   1      49.088  26.310  33.585  1.00  0.00     0.118 C 
BRANCH   7   8
ATOM      8  N   UNL A   1      49.860  27.344  34.259  1.00  0.00    -0.352 N 
ATOM      9  O   UNL A   1      50.442  29.427  34.866  1.00  0.00    -0.269 OA
ATOM     10  C   UNL A   1      49.553  28.658  34.512  1.00  0.00     0.251 C 
ATOM     11  H   UNL A   1      50.743  27.055  34.585  1.00  0.00     0.163 HD
BRANCH  10  12
ATOM     12  C   UNL A   1      48.169  29.144  34.343  1.00  0.00     0.039 A 
ATOM     13  C   UNL A   1      47.159  28.737  35.217  1.00  0.00     0.014 A 
ATOM     14  C   UNL A   1      47.882  30.049  33.317  1.00  0.00     0.014 A 
ATOM     15  C   UNL A   1      45.841  29.095  34.971  1.00  0.00     0.010 A 
ATOM     16  C   UNL A   1      46.572  30.500  33.140  1.00  0.00     0.010 A 
ATOM     17  C   UNL A   1      45.538  30.004  33.949  1.00  0.00    -0.014 A 
BRANCH  17  18
ATOM     18  C   UNL A   1      44.145  30.488  33.784  1.00  0.00     0.031 A 
ATOM     19  C   UNL A   1      43.211  29.822  32.816  1.00  0.00     0.074 A 
ATOM     20  C   UNL A   1      43.737  31.547  34.510  1.00  0.00     0.049 A 
ATOM     21  N   UNL A   1      41.994  30.164  32.482  1.00  0.00    -0.248 NA
ATOM     22  C   UNL A   1      43.708  28.620  32.128  1.00  0.00     0.031 C 
ATOM     23  C   UNL A   1      44.559  32.260  35.492  1.00  0.00     0.029 A 
ATOM     24  N   UNL A   1      42.538  32.209  34.541  1.00  0.00    -0.354 N 
ATOM     25  C   UNL A   1      41.588  29.240  31.527  1.00  0.00     0.074 A 
ATOM     26  C   UNL A   1      42.698  28.334  31.319  1.00  0.00     0.031 C 
ATOM     27  C   UNL A   1      43.831  33.237  36.050  1.00  0.00     0.029 A 
ATOM     28  C   UNL A   1      42.522  33.275  35.408  1.00  0.00     0.049 A 
ATOM     29  H   UNL A   1      41.762  31.947  33.994  1.00  0.00     0.167 HD
ATOM     30  C   UNL A   1      40.395  29.158  30.890  1.00  0.00     0.037 A 
ATOM     31  C   UNL A   1      41.577  34.206  35.641  1.00  0.00     0.037 A 
ATOM     32  C   UNL A   1      39.302  30.068  31.120  1.00  0.00     0.049 A 
ATOM     33  C   UNL A   1      40.287  34.132  34.882  1.00  0.00     0.074 A 
ATOM     34  C   UNL A   1      38.043  30.060  30.545  1.00  0.00     0.029 A 
ATOM     35  N   UNL A   1      39.339  31.155  31.985  1.00  0.00    -0.354 N 
ATOM     36  N   UNL A   1      39.912  33.248  33.988  1.00  0.00    -0.248 NA
ATOM     37  C   UNL A   1      39.293  35.178  35.151  1.00  0.00     0.031 C 
ATOM     38  C   UNL A   1      37.341  31.172  31.015  1.00  0.00     0.029 A 
ATOM     39  C   UNL A   1      38.134  31.838  31.936  1.00  0.00     0.049 A 
ATOM     40  H   UNL A   1      40.107  31.402  32.549  1.00  0.00     0.167 HD
ATOM     41  C   UNL A   1      38.630  33.615  33.604  1.00  0.00     0.074 A 
ATOM     42  C   UNL A   1      38.291  34.802  34.363  1.00  0.00     0.031 C 
ATOM     43  C   UNL A   1      37.808  33.015  32.708  1.00  0.00     0.037 A 
BRANCH  30  44
ATOM     44  C   UNL A   1      40.216  28.069  29.866  1.00  0.00     0.058 A 
ATOM     45  C   UNL A   1      39.393  26.964  30.142  1.00  0.00     0.135 A 
ATOM     46  C   UNL A   1      40.881  28.093  28.630  1.00  0.00     0.135 A 
ATOM     47  F   UNL A   1      38.729  26.888  31.306  1.00  0.00    -0.206 F 
ATOM     48  C   UNL A   1      39.241  25.922  29.233  1.00  0.00     0.059 A 
ATOM     49  C   UNL A   1      40.721  27.076  27.693  1.00  0.00     0.059 A 
ATOM     50  F   UNL A   1      41.666  29.134  28.305  1.00  0.00    -0.206 F 
ATOM     51  C   UNL A   1      39.906  25.989  28.008  1.00  0.00     0.060 A 
BRANCH  51  52
ATOM     52  S   UNL A   1      39.645  24.661  26.813  1.00  0.00     0.124 S 
ATOM     53  O   UNL A   1      40.558  25.038  25.739  1.00  0.00    -0.237 OA
ATOM     54  O   UNL A   1      40.022  23.479  27.584  1.00  0.00    -0.237 OA
ATOM     55  O   UNL A   1      38.224  24.766  26.498  1.00  0.00    -0.744 OA
ENDBRANCH  51  52
ENDBRANCH  30  44
BRANCH  31  56
ATOM     56  C   UNL A   1      41.846  35.269  36.644  1.00  0.00     0.058 A 
ATOM     57  C   UNL A   1      42.580  36.419  36.306  1.00  0.00     0.135 A 
ATOM     58  C   UNL A   1      41.471  35.101  37.984  1.00  0.00     0.135 A 
ATOM     59  F   UNL A   1      42.977  36.616  35.040  1.00  0.00    -0.206 F 
ATOM     60  C   UNL A   1      42.974  37.339  37.270  1.00  0.00     0.059 A 
ATOM     61  C   UNL A   1      41.830  36.024  38.962  1.00  0.00     0.059 A 
ATOM     62  F   UNL A   1      40.763  34.023  38.351  1.00  0.00    -0.206 F 
ATOM     63  C   UNL A   1      42.604  37.126  38.599  1.00  0.00     0.060 A 
BRANCH  63  64
ATOM     64  S   UNL A   1      43.181  38.299  39.844  1.00  0.00     0.124 S 
ATOM     65  O   UNL A   1      42.893  37.577  41.080  1.00  0.00    -0.237 OA
ATOM     66  O   UNL A   1      44.592  38.437  39.502  1.00  0.00    -0.237 OA
ATOM     67  O   UNL A   1      42.359  39.480  39.602  1.00  0.00    -0.744 OA
ENDBRANCH  63  64
ENDBRANCH  31  56
BRANCH  43  68
ATOM     68  C   UNL A   1      36.437  33.597  32.510  1.00  0.00     0.058 A 
ATOM     69  C   UNL A   1      36.123  34.267  31.316  1.00  0.00     0.135 A 
ATOM     70  C   UNL A   1      35.484  33.610  33.540  1.00  0.00     0.135 A 
ATOM     71  F   UNL A   1      37.001  34.285  30.299  1.00  0.00    -0.206 F 
ATOM     72  C   UNL A   1      34.932  34.967  31.165  1.00  0.00     0.059 A 
ATOM     73  C   UNL A   1      34.272  34.281  33.401  1.00  0.00     0.059 A 
ATOM     74  F   UNL A   1      35.729  32.970  34.694  1.00  0.00    -0.206 F 
ATOM     75  C   UNL A   1      34.018  34.978  32.219  1.00  0.00     0.060 A 
BRANCH  75  76
ATOM     76  S   UNL A   1      32.497  35.930  32.022  1.00  0.00     0.124 S 
ATOM     77  O   UNL A   1      32.774  37.109  32.836  1.00  0.00    -0.237 OA
ATOM     78  O   UNL A   1      32.459  36.150  30.579  1.00  0.00    -0.237 OA
ATOM     79  O   UNL A   1      31.466  35.037  32.542  1.00  0.00    -0.744 OA
ENDBRANCH  75  76
ENDBRANCH  43  68
ENDBRANCH  17  18
ENDBRANCH  10  12
ENDBRANCH   7   8
ENDBRANCH   6   7
ENDBRANCH   5   6
ENDBRANCH   1   5
BRANCH   2  80
ATOM     80  C   UNL A   1      50.600  21.904  34.746  1.00  0.00     0.197 C 
BRANCH  80  81
ATOM     81  N   UNL A   1      49.434  20.868  34.135  1.00  0.00    -0.340 N 
ATOM     82  C   UNL A   1      48.094  20.663  34.241  1.00  0.00     0.244 C 
ATOM     83  H   UNL A   1      49.838  20.217  33.516  1.00  0.00     0.164 HD
ATOM     84  O   UNL A   1      47.686  19.610  33.728  1.00  0.00    -0.273 OA
BRANCH  82  85
ATOM     85  C   UNL A   1      47.079  21.607  34.942  1.00  0.00     0.181 C 
BRANCH  85  86
ATOM     86  N   UNL A   1      45.692  21.613  34.458  1.00  0.00    -0.342 N 
ATOM     87  C   UNL A   1      44.757  22.595  34.346  1.00  0.00     0.243 C 
ATOM     88  H   UNL A   1      45.377  20.731  34.154  1.00  0.00     0.164 HD
ATOM     89  O   UNL A   1      43.666  22.264  33.870  1.00  0.00    -0.273 OA
BRANCH  87  90
ATOM     90  C   UNL A   1      45.068  24.084  34.590  1.00  0.00     0.176 C 
BRANCH  90  91
ATOM     91  N   UNL A   1      45.367  24.422  35.977  1.00  0.00    -0.340 N 
ATOM     92  C   UNL A   1      44.642  25.160  36.878  1.00  0.00     0.251 C 
ATOM     93  H   UNL A   1      46.218  24.067  36.319  1.00  0.00     0.164 HD
ATOM     94  O   UNL A   1      45.028  25.208  38.043  1.00  0.00    -0.269 OA
BRANCH  92  95
ATOM     95  C   UNL A   1      43.519  26.016  36.434  1.00  0.00     0.040 A 
ATOM     96  C   UNL A   1      42.476  25.581  35.607  1.00  0.00     0.017 A 
ATOM     97  C   UNL A   1      43.578  27.358  36.833  1.00  0.00     0.017 A 
ATOM     98  C   UNL A   1      41.575  26.510  35.082  1.00  0.00     0.040 A 
ATOM     99  C   UNL A   1      42.664  28.279  36.325  1.00  0.00     0.040 A 
ATOM    100  C   UNL A   1      41.690  27.853  35.431  1.00  0.00     0.123 A 
ATOM    101  F   UNL A   1      40.857  28.750  34.890  1.00  0.00    -0.207 F 
ENDBRANCH  92  95
ENDBRANCH  90  91
BRANCH  90 102
ATOM    102  C   UNL A   1      46.159  24.569  33.635  1.00  0.00     0.072 C 
BRANCH 102 103
ATOM    103  C   UNL A   1      45.710  25.297  32.399  1.00  0.00    -0.020 A 
ATOM    104  C   UNL A   1      46.450  26.811  31.762  1.00  0.00     0.087 A 
ATOM    105  C   UNL A   1      44.589  24.559  30.978  1.00  0.00     0.003 A 
ATOM    106  N   UNL A   1      45.921  26.984  29.989  1.00  0.00    -0.361 N 
ATOM    107  C   UNL A   1      44.675  25.684  29.586  1.00  0.00     0.046 A 
ATOM    108  C   UNL A   1      43.869  23.376  30.771  1.00  0.00     0.010 A 
ATOM    109  H   UNL A   1      46.254  27.665  29.360  1.00  0.00     0.166 HD
ATOM    110  C   UNL A   1      43.935  25.415  28.441  1.00  0.00     0.026 A 
ATOM    111  C   UNL A   1      43.196  23.253  29.536  1.00  0.00     0.001 A 
ATOM    112  C   UNL A   1      43.214  24.204  28.467  1.00  0.00     0.002 A 
ENDBRANCH 102 103
ENDBRANCH  90 102
ENDBRANCH  87  90
ENDBRANCH  85  86
BRANCH  85 113
ATOM    113  C   UNL A   1      47.060  21.321  36.469  1.00  0.00     0.101 C 
BRANCH 113 114
ATOM    114  S   UNL A   1      46.058  19.876  36.944  1.00  0.00    -0.177 SA
ATOM    115  H   UNL A   1      46.040  18.981  35.922  1.00  0.00     0.102 HD
ENDBRANCH 113 114
ENDBRANCH  85 113
ENDBRANCH  82  85
ENDBRANCH  80  81
BRANCH  80 116
ATOM    116  C   UNL A   1      51.832  21.620  36.642  1.00  0.00     0.191 C 
BRANCH 116 117
ATOM    117  O   UNL A   1      53.279  22.171  36.964  1.00  0.00    -0.394 OA
ATOM    118  H   UNL A   1      53.939  21.496  36.744  1.00  0.00     0.210 HD
ENDBRANCH 116 117
ENDBRANCH  80 116
ENDBRANCH   2  80
TORSDOF 25
ENDMDL
MODEL 3
REMARK VINA RESULT:     -10.4     11.074     19.068
REMARK SMILES O=C(NCCCNC(=O)[C@H](CO)NC(=O)[C@H](CS)NC(=O)[C@H](Cc1c[nH]c2ccccc12)NC(=O)c1ccc(F)cc1)c1ccc(-c2c3nc(c(-c4c(F)cc(S(=O)(=O)[O-])cc4F)c4ccc([nH]4)c(-c4c(F)cc(S(=O)(=O)[O-])cc4F)c4nc(c(-c5c(F)cc(S(=O)(=O)[O-])cc5F)c5ccc2[nH]5)C=C4)C=C3)cc1
REMARK SMILES IDX 7 1 8 2 9 3 6 5 5 6 4 7 3 8 1 9 2 10 43 12 44 13 108 14
REMARK SMILES IDX 45 15 107 16 46 17 47 18 48 19 101 20 49 21 106 22 100 23
REMARK SMILES IDX 102 24 50 25 105 26 99 27 98 28 51 30 85 31 64 32 84 33
REMARK SMILES IDX 65 34 68 35 83 36 103 37 66 38 67 39 82 41 104 42 69 43
REMARK SMILES IDX 52 44 53 45 62 46 54 47 55 48 61 49 63 50 56 51 57 52 58 53
REMARK SMILES IDX 59 54 60 55 86 56 87 57 96 58 88 59 89 60 95 61 97 62 90 63
REMARK SMILES IDX 91 64 92 65 93 66 94 67 70 68 71 69 80 70 72 71 73 72 79 73
REMARK SMILES IDX 81 74 74 75 75 76 76 77 77 78 78 79 10 80 13 81 14 82 15 84
REMARK SMILES IDX 16 85 19 86 20 87 21 89 22 90 33 91 34 92 35 94 36 95 37 96
REMARK SMILES IDX 42 97 38 98 41 99 39 100 40 101 23 102 24 103 25 104 32 105
REMARK SMILES IDX 26 106 27 107 31 108 28 110 30 111 29 112 17 113 18 114
REMARK SMILES IDX 11 116 12 117
REMARK H PARENT 7 4 3 11 102 29 68 40 13 83 19 88 33 93 26 109 18 115 12 118
REMARK Flexibility Score: inf
ROOT
ATOM      1  N   UNL A   1      51.291  25.638  37.482  1.00  0.00    -0.354 N 
ATOM      2  C   UNL A   1      51.947  24.645  36.828  1.00  0.00     0.244 C 
ATOM      3  O   UNL A   1      51.710  23.568  37.413  1.00  0.00    -0.273 OA
ATOM      4  H   UNL A   1      50.955  25.318  38.348  1.00  0.00     0.163 HD
ENDROOT
BRANCH   1   5
ATOM      5  C   UNL A   1      50.940  27.024  37.283  1.00  0.00     0.117 C 
BRANCH   5   6
ATOM      6  C   UNL A   1      50.006  27.225  36.102  1.00  0.00     0.042 C 
BRANCH   6   7
ATOM      7  C   UNL A   1      48.618  26.650  36.332  1.00  0.00     0.118 C 
BRANCH   7   8
ATOM      8  N   UNL A   1      48.237  26.683  37.736  1.00  0.00    -0.352 N 
ATOM      9  O   UNL A   1      47.241  27.463  39.592  1.00  0.00    -0.269 OA
ATOM     10  C   UNL A   1      47.234  27.375  38.368  1.00  0.00     0.251 C 
ATOM     11  H   UNL A   1      48.788  26.121  38.328  1.00  0.00     0.163 HD
BRANCH  10  12
ATOM     12  C   UNL A   1      46.165  28.020  37.579  1.00  0.00     0.039 A 
ATOM     13  C   UNL A   1      44.827  27.668  37.770  1.00  0.00     0.014 A 
ATOM     14  C   UNL A   1      46.500  29.017  36.659  1.00  0.00     0.014 A 
ATOM     15  C   UNL A   1      43.847  28.184  36.934  1.00  0.00     0.010 A 
ATOM     16  C   UNL A   1      45.497  29.620  35.897  1.00  0.00     0.010 A 
ATOM     17  C   UNL A   1      44.166  29.188  36.010  1.00  0.00    -0.014 A 
BRANCH  17  18
ATOM     18  C   UNL A   1      43.088  29.831  35.220  1.00  0.00     0.031 A 
ATOM     19  C   UNL A   1      42.342  31.016  35.762  1.00  0.00     0.074 A 
ATOM     20  C   UNL A   1      42.780  29.322  34.011  1.00  0.00     0.049 A 
ATOM     21  N   UNL A   1      41.318  31.646  35.248  1.00  0.00    -0.248 NA
ATOM     22  C   UNL A   1      42.799  31.561  37.050  1.00  0.00     0.031 C 
ATOM     23  C   UNL A   1      43.453  28.182  33.381  1.00  0.00     0.029 A 
ATOM     24  N   UNL A   1      41.831  29.692  33.094  1.00  0.00    -0.354 N 
ATOM     25  C   UNL A   1      40.989  32.643  36.159  1.00  0.00     0.074 A 
ATOM     26  C   UNL A   1      41.910  32.520  37.269  1.00  0.00     0.031 C 
ATOM     27  C   UNL A   1      42.917  27.967  32.172  1.00  0.00     0.029 A 
ATOM     28  C   UNL A   1      41.810  28.896  31.975  1.00  0.00     0.049 A 
ATOM     29  H   UNL A   1      41.220  30.454  33.226  1.00  0.00     0.167 HD
ATOM     30  C   UNL A   1      40.011  33.575  36.068  1.00  0.00     0.037 A 
ATOM     31  C   UNL A   1      40.975  28.884  30.919  1.00  0.00     0.037 A 
ATOM     32  C   UNL A   1      39.110  33.681  34.948  1.00  0.00     0.049 A 
ATOM     33  C   UNL A   1      39.861  29.886  30.867  1.00  0.00     0.074 A 
ATOM     34  C   UNL A   1      38.098  34.604  34.747  1.00  0.00     0.029 A 
ATOM     35  N   UNL A   1      39.103  32.834  33.848  1.00  0.00    -0.354 N 
ATOM     36  N   UNL A   1      39.567  30.828  31.730  1.00  0.00    -0.248 NA
ATOM     37  C   UNL A   1      38.961  29.825  29.709  1.00  0.00     0.031 C 
ATOM     38  C   UNL A   1      37.442  34.280  33.557  1.00  0.00     0.029 A 
ATOM     39  C   UNL A   1      38.086  33.196  32.979  1.00  0.00     0.049 A 
ATOM     40  H   UNL A   1      39.728  32.087  33.707  1.00  0.00     0.167 HD
ATOM     41  C   UNL A   1      38.462  31.490  31.210  1.00  0.00     0.074 A 
ATOM     42  C   UNL A   1      38.141  30.840  29.955  1.00  0.00     0.031 C 
ATOM     43  C   UNL A   1      37.784  32.544  31.726  1.00  0.00     0.037 A 
BRANCH  30  44
ATOM     44  C   UNL A   1      39.841  34.533  37.216  1.00  0.00     0.058 A 
ATOM     45  C   UNL A   1      40.500  35.774  37.209  1.00  0.00     0.135 A 
ATOM     46  C   UNL A   1      39.061  34.218  38.341  1.00  0.00     0.135 A 
ATOM     47  F   UNL A   1      41.257  36.132  36.159  1.00  0.00    -0.206 F 
ATOM     48  C   UNL A   1      40.398  36.662  38.274  1.00  0.00     0.059 A 
ATOM     49  C   UNL A   1      38.920  35.104  39.405  1.00  0.00     0.059 A 
ATOM     50  F   UNL A   1      38.393  33.053  38.393  1.00  0.00    -0.206 F 
ATOM     51  C   UNL A   1      39.600  36.320  39.367  1.00  0.00     0.060 A 
BRANCH  51  52
ATOM     52  S   UNL A   1      39.424  37.513  40.711  1.00  0.00     0.124 S 
ATOM     53  O   UNL A   1      38.416  38.422  40.176  1.00  0.00    -0.237 OA
ATOM     54  O   UNL A   1      38.993  36.664  41.818  1.00  0.00    -0.237 OA
ATOM     55  O   UNL A   1      40.767  38.070  40.845  1.00  0.00    -0.744 OA
ENDBRANCH  51  52
ENDBRANCH  30  44
BRANCH  31  56
ATOM     56  C   UNL A   1      41.190  27.882  29.842  1.00  0.00     0.058 A 
ATOM     57  C   UNL A   1      42.231  28.028  28.910  1.00  0.00     0.135 A 
ATOM     58  C   UNL A   1      40.291  26.822  29.659  1.00  0.00     0.135 A 
ATOM     59  F   UNL A   1      43.107  29.037  29.033  1.00  0.00    -0.206 F 
ATOM     60  C   UNL A   1      42.343  27.190  27.808  1.00  0.00     0.059 A 
ATOM     61  C   UNL A   1      40.400  25.953  28.578  1.00  0.00     0.059 A 
ATOM     62  F   UNL A   1      39.286  26.639  30.528  1.00  0.00    -0.206 F 
ATOM     63  C   UNL A   1      41.415  26.161  27.644  1.00  0.00     0.060 A 
BRANCH  63  64
ATOM     64  S   UNL A   1      41.542  25.123  26.173  1.00  0.00     0.124 S 
ATOM     65  O   UNL A   1      40.388  24.244  26.335  1.00  0.00    -0.237 OA
ATOM     66  O   UNL A   1      41.446  26.105  25.098  1.00  0.00    -0.237 OA
ATOM     67  O   UNL A   1      42.844  24.482  26.322  1.00  0.00    -0.744 OA
ENDBRANCH  63  64
ENDBRANCH  31  56
BRANCH  43  68
ATOM     68  C   UNL A   1      36.640  33.104  30.928  1.00  0.00     0.058 A 
ATOM     69  C   UNL A   1      36.893  33.933  29.823  1.00  0.00     0.135 A 
ATOM     70  C   UNL A   1      35.306  32.933  31.329  1.00  0.00     0.135 A 
ATOM     71  F   UNL A   1      38.152  34.131  29.399  1.00  0.00    -0.206 F 
ATOM     72  C   UNL A   1      35.869  34.608  29.170  1.00  0.00     0.059 A 
ATOM     73  C   UNL A   1      34.261  33.576  30.673  1.00  0.00     0.059 A 
ATOM     74  F   UNL A   1      35.012  32.137  32.369  1.00  0.00    -0.206 F 
ATOM     75  C   UNL A   1      34.556  34.433  29.611  1.00  0.00     0.060 A 
BRANCH  75  76
ATOM     76  S   UNL A   1      33.245  35.353  28.779  1.00  0.00     0.124 S 
ATOM     77  O   UNL A   1      32.599  34.307  27.992  1.00  0.00    -0.237 OA
ATOM     78  O   UNL A   1      32.472  35.869  29.904  1.00  0.00    -0.237 OA
ATOM     79  O   UNL A   1      33.971  36.359  28.010  1.00  0.00    -0.744 OA
ENDBRANCH  75  76
ENDBRANCH  43  68
ENDBRANCH  17  18
ENDBRANCH  10  12
ENDBRANCH   7   8
ENDBRANCH   6   7
ENDBRANCH   5   6
ENDBRANCH   1   5
BRANCH   2  80
ATOM     80  C   UNL A   1      52.838  24.781  35.237  1.00  0.00     0.197 C 
BRANCH  80  81
ATOM     81  N   UNL A   1      51.463  24.513  34.319  1.00  0.00    -0.340 N 
ATOM     82  C   UNL A   1      50.727  23.464  33.867  1.00  0.00     0.244 C 
ATOM     83  H   UNL A   1      51.074  25.367  34.020  1.00  0.00     0.164 HD
ATOM     84  O   UNL A   1      49.865  23.758  33.024  1.00  0.00    -0.273 OA
BRANCH  82  85
ATOM     85  C   UNL A   1      50.887  21.981  34.301  1.00  0.00     0.181 C 
BRANCH  85  86
ATOM     86  N   UNL A   1      50.121  20.961  33.572  1.00  0.00    -0.342 N 
ATOM     87  C   UNL A   1      49.035  20.211  33.903  1.00  0.00     0.243 C 
ATOM     88  H   UNL A   1      50.461  20.785  32.665  1.00  0.00     0.164 HD
ATOM     89  O   UNL A   1      48.614  19.440  33.035  1.00  0.00    -0.273 OA
BRANCH  87  90
ATOM     90  C   UNL A   1      48.222  20.431  35.193  1.00  0.00     0.176 C 
BRANCH  90  91
ATOM     91  N   UNL A   1      46.984  19.663  35.268  1.00  0.00    -0.340 N 
ATOM     92  C   UNL A   1      45.684  20.074  35.114  1.00  0.00     0.251 C 
ATOM     93  H   UNL A   1      47.098  18.705  35.459  1.00  0.00     0.164 HD
ATOM     94  O   UNL A   1      44.799  19.223  35.090  1.00  0.00    -0.269 OA
BRANCH  92  95
ATOM     95  C   UNL A   1      45.331  21.511  35.143  1.00  0.00     0.040 A 
ATOM     96  C   UNL A   1      45.081  22.285  34.004  1.00  0.00     0.017 A 
ATOM     97  C   UNL A   1      45.324  22.113  36.409  1.00  0.00     0.017 A 
ATOM     98  C   UNL A   1      44.953  23.670  34.122  1.00  0.00     0.040 A 
ATOM     99  C   UNL A   1      45.173  23.493  36.526  1.00  0.00     0.040 A 
ATOM    100  C   UNL A   1      45.019  24.263  35.380  1.00  0.00     0.123 A 
ATOM    101  F   UNL A   1      44.945  25.595  35.488  1.00  0.00    -0.207 F 
ENDBRANCH  92  95
ENDBRANCH  90  91
BRANCH  90 102
ATOM    102  C   UNL A   1      49.102  20.218  36.426  1.00  0.00     0.072 C 
BRANCH 102 103
ATOM    103  C   UNL A   1      48.536  20.648  37.750  1.00  0.00    -0.020 A 
ATOM    104  C   UNL A   1      48.442  22.351  38.332  1.00  0.00     0.087 A 
ATOM    105  C   UNL A   1      47.379  19.577  38.905  1.00  0.00     0.003 A 
ATOM    106  N   UNL A   1      47.206  22.395  39.720  1.00  0.00    -0.361 N 
ATOM    107  C   UNL A   1      46.689  20.675  40.142  1.00  0.00     0.046 A 
ATOM    108  C   UNL A   1      46.909  18.259  38.921  1.00  0.00     0.010 A 
ATOM    109  H   UNL A   1      46.877  23.211  40.162  1.00  0.00     0.166 HD
ATOM    110  C   UNL A   1      45.849  20.160  41.122  1.00  0.00     0.026 A 
ATOM    111  C   UNL A   1      46.037  17.910  39.975  1.00  0.00     0.001 A 
ATOM    112  C   UNL A   1      45.561  18.786  41.002  1.00  0.00     0.002 A 
ENDBRANCH 102 103
ENDBRANCH  90 102
ENDBRANCH  87  90
ENDBRANCH  85  86
BRANCH  85 113
ATOM    113  C   UNL A   1      52.388  21.581  34.265  1.00  0.00     0.101 C 
BRANCH 113 114
ATOM    114  S   UNL A   1      53.160  21.731  32.622  1.00  0.00    -0.177 SA
ATOM    115  H   UNL A   1      52.535  20.898  31.749  1.00  0.00     0.102 HD
ENDBRANCH 113 114
ENDBRANCH  85 113
ENDBRANCH  82  85
ENDBRANCH  80  81
BRANCH  80 116
ATOM    116  C   UNL A   1      54.562  26.191  34.754  1.00  0.00     0.191 C 
BRANCH 116 117
ATOM    117  O   UNL A   1      55.878  26.454  35.589  1.00  0.00    -0.394 OA
ATOM    118  H   UNL A   1      55.793  26.046  36.464  1.00  0.00     0.210 HD
ENDBRANCH 116 117
ENDBRANCH  80 116
ENDBRANCH   2  80
TORSDOF 25
ENDMDL
