MODEL 1
REMARK VINA RESULT:     -10.9      0.000      0.000
REMARK SMILES O=C(COc1ccc(N2C[C@@H](C(=O)NCCCNC(=O)c3ccc(-c4c5nc(c(-c6c(F)cc(S(=O)(=O)[O-])cc6F)c6ccc([nH]6)c(-c6c(F)cc(S(=O)(=O)[O-])cc6F)c6nc(c(-c7c(F)cc(S(=O)(=O)[O-])cc7F)c7ccc4[nH]7)C=C6)C=C5)cc3)CC2=O)cc1)Nc1ccc(Cl)cc1Cl
REMARK SMILES IDX 15 1 14 2 12 3 13 4 11 6 9 7 10 8 88 9 87 10 89 11 8 12 5 13
REMARK SMILES IDX 6 14 91 15 7 16 90 17 4 18 3 19 2 20 1 21 92 22 93 24 94 25
REMARK SMILES IDX 99 26 95 27 98 28 100 29 96 30 97 31 16 32 17 33 18 34 19 35
REMARK SMILES IDX 20 37 21 38 22 39 86 40 23 41 85 42 24 43 25 44 26 45 79 46
REMARK SMILES IDX 27 47 84 48 78 49 80 50 28 51 83 52 77 53 76 54 29 56 63 57
REMARK SMILES IDX 42 58 62 59 43 60 46 61 61 62 81 63 44 64 45 65 60 67 82 68
REMARK SMILES IDX 47 69 30 70 31 71 40 72 32 73 33 74 39 75 41 76 34 77 35 78
REMARK SMILES IDX 36 79 37 80 38 81 64 82 65 83 74 84 66 85 67 86 73 87 75 88
REMARK SMILES IDX 68 89 69 90 70 91 71 92 72 93 48 94 49 95 58 96 50 97 51 98
REMARK SMILES IDX 57 99 59 100 52 101 53 102 54 103 55 104 56 105
REMARK H PARENT 14 5 92 23 18 36 80 55 46 66
REMARK Flexibility Score: inf
ROOT
ATOM      1  C   UNL A   1      42.200  20.056  26.730  1.00  0.00     0.117 C 
ENDROOT
BRANCH   1   2
ATOM      2  N   UNL A   1      42.717  19.687  25.421  1.00  0.00    -0.356 N 
ATOM      3  C   UNL A   1      43.874  19.989  24.779  1.00  0.00     0.225 C 
ATOM      4  O   UNL A   1      44.045  19.493  23.661  1.00  0.00    -0.275 OA
ATOM      5  H   UNL A   1      42.113  19.109  24.903  1.00  0.00     0.163 HD
BRANCH   3   6
ATOM      6  C   UNL A   1      44.953  20.862  25.380  1.00  0.00     0.107 C 
ATOM      7  N   UNL A   1      45.414  23.167  25.251  1.00  0.00    -0.312 N 
ATOM      8  C   UNL A   1      44.444  22.239  25.770  1.00  0.00     0.139 C 
ATOM      9  C   UNL A   1      46.416  22.545  24.508  1.00  0.00     0.227 C 
ATOM     10  C   UNL A   1      46.170  21.065  24.495  1.00  0.00     0.116 C 
ATOM     11  O   UNL A   1      47.378  23.063  23.956  1.00  0.00    -0.274 OA
BRANCH   7  12
ATOM     12  C   UNL A   1      45.284  24.566  25.398  1.00  0.00     0.044 A 
ATOM     13  C   UNL A   1      45.064  27.342  25.820  1.00  0.00     0.120 A 
ATOM     14  C   UNL A   1      43.957  26.608  25.398  1.00  0.00     0.048 A 
ATOM     15  C   UNL A   1      46.278  26.691  26.017  1.00  0.00     0.048 A 
ATOM     16  C   UNL A   1      44.075  25.229  25.154  1.00  0.00     0.030 A 
ATOM     17  C   UNL A   1      46.382  25.318  25.815  1.00  0.00     0.030 A 
BRANCH  13  18
ATOM     18  O   UNL A   1      44.882  28.653  26.177  1.00  0.00    -0.484 OA
BRANCH  18  19
ATOM     19  C   UNL A   1      46.095  29.401  26.254  1.00  0.00     0.329 C 
BRANCH  19  20
ATOM     20  C   UNL A   1      45.954  30.927  26.222  1.00  0.00     0.262 C 
ATOM     21  O   UNL A   1      46.946  31.647  26.252  1.00  0.00    -0.271 OA
ATOM     22  N   UNL A   1      44.627  31.343  26.258  1.00  0.00    -0.322 N 
ATOM     23  H   UNL A   1      43.930  30.656  26.152  1.00  0.00     0.170 HD
BRANCH  22  24
ATOM     24  C   UNL A   1      44.208  32.684  26.436  1.00  0.00     0.060 A 
ATOM     25  C   UNL A   1      43.928  33.393  25.255  1.00  0.00     0.029 A 
ATOM     26  C   UNL A   1      44.019  33.332  27.671  1.00  0.00     0.066 A 
ATOM     27  C   UNL A   1      43.382  34.678  25.304  1.00  0.00     0.023 A 
ATOM     28  C   UNL A   1      43.464  34.617  27.717  1.00  0.00     0.043 A 
ATOM     29  Cl  UNL A   1      44.629  32.713  29.169  1.00  0.00    -0.082 Cl
ATOM     30  C   UNL A   1      43.134  35.276  26.536  1.00  0.00     0.042 A 
ATOM     31  Cl  UNL A   1      42.456  36.854  26.600  1.00  0.00    -0.084 Cl
ENDBRANCH  22  24
ENDBRANCH  19  20
ENDBRANCH  18  19
ENDBRANCH  13  18
ENDBRANCH   7  12
ENDBRANCH   3   6
ENDBRANCH   1   2
BRANCH   1  32
ATOM     32  C   UNL A   1      40.687  20.241  26.726  1.00  0.00     0.042 C 
BRANCH  32  33
ATOM     33  C   UNL A   1      40.231  21.655  27.067  1.00  0.00     0.118 C 
BRANCH  33  34
ATOM     34  N   UNL A   1      39.181  22.142  26.181  1.00  0.00    -0.352 N 
ATOM     35  C   UNL A   1      38.657  23.409  26.064  1.00  0.00     0.251 C 
ATOM     36  H   UNL A   1      38.790  21.467  25.581  1.00  0.00     0.163 HD
ATOM     37  O   UNL A   1      37.655  23.596  25.379  1.00  0.00    -0.269 OA
BRANCH  35  38
ATOM     38  C   UNL A   1      39.290  24.534  26.783  1.00  0.00     0.039 A 
ATOM     39  C   UNL A   1      40.134  25.406  26.089  1.00  0.00     0.014 A 
ATOM     40  C   UNL A   1      39.030  24.737  28.140  1.00  0.00     0.014 A 
ATOM     41  C   UNL A   1      40.647  26.534  26.738  1.00  0.00     0.010 A 
ATOM     42  C   UNL A   1      39.470  25.901  28.756  1.00  0.00     0.010 A 
ATOM     43  C   UNL A   1      40.283  26.813  28.064  1.00  0.00    -0.014 A 
BRANCH  43  44
ATOM     44  C   UNL A   1      40.738  28.036  28.776  1.00  0.00     0.031 A 
ATOM     45  C   UNL A   1      42.095  28.047  29.425  1.00  0.00     0.074 A 
ATOM     46  C   UNL A   1      39.897  29.076  28.943  1.00  0.00     0.049 A 
ATOM     47  N   UNL A   1      42.606  28.912  30.261  1.00  0.00    -0.248 NA
ATOM     48  C   UNL A   1      42.979  26.910  29.119  1.00  0.00     0.031 C 
ATOM     49  C   UNL A   1      38.548  29.176  28.383  1.00  0.00     0.029 A 
ATOM     50  N   UNL A   1      40.043  30.238  29.659  1.00  0.00    -0.354 N 
ATOM     51  C   UNL A   1      43.855  28.408  30.606  1.00  0.00     0.074 A 
ATOM     52  C   UNL A   1      44.004  27.141  29.926  1.00  0.00     0.031 C 
ATOM     53  C   UNL A   1      37.992  30.333  28.774  1.00  0.00     0.029 A 
ATOM     54  C   UNL A   1      38.921  31.036  29.655  1.00  0.00     0.049 A 
ATOM     55  H   UNL A   1      40.872  30.480  30.132  1.00  0.00     0.167 HD
ATOM     56  C   UNL A   1      44.797  28.961  31.406  1.00  0.00     0.037 A 
ATOM     57  C   UNL A   1      38.659  32.185  30.310  1.00  0.00     0.037 A 
ATOM     58  C   UNL A   1      44.648  30.237  32.055  1.00  0.00     0.049 A 
ATOM     59  C   UNL A   1      39.714  32.776  31.206  1.00  0.00     0.074 A 
ATOM     60  C   UNL A   1      45.563  30.912  32.844  1.00  0.00     0.029 A 
ATOM     61  N   UNL A   1      43.511  31.030  31.991  1.00  0.00    -0.354 N 
ATOM     62  N   UNL A   1      40.907  32.309  31.492  1.00  0.00    -0.248 NA
ATOM     63  C   UNL A   1      39.394  34.048  31.870  1.00  0.00     0.031 C 
ATOM     64  C   UNL A   1      44.961  32.088  33.299  1.00  0.00     0.029 A 
ATOM     65  C   UNL A   1      43.695  32.178  32.741  1.00  0.00     0.049 A 
ATOM     66  H   UNL A   1      42.695  30.809  31.487  1.00  0.00     0.167 HD
ATOM     67  C   UNL A   1      41.495  33.251  32.330  1.00  0.00     0.074 A 
ATOM     68  C   UNL A   1      40.525  34.309  32.514  1.00  0.00     0.031 C 
ATOM     69  C   UNL A   1      42.731  33.242  32.887  1.00  0.00     0.037 A 
BRANCH  56  70
ATOM     70  C   UNL A   1      46.067  28.186  31.630  1.00  0.00     0.058 A 
ATOM     71  C   UNL A   1      47.159  28.281  30.752  1.00  0.00     0.135 A 
ATOM     72  C   UNL A   1      46.205  27.357  32.755  1.00  0.00     0.135 A 
ATOM     73  F   UNL A   1      47.079  29.048  29.653  1.00  0.00    -0.206 F 
ATOM     74  C   UNL A   1      48.326  27.553  30.960  1.00  0.00     0.059 A 
ATOM     75  C   UNL A   1      47.376  26.645  33.001  1.00  0.00     0.059 A 
ATOM     76  F   UNL A   1      45.195  27.228  33.629  1.00  0.00    -0.206 F 
ATOM     77  C   UNL A   1      48.423  26.736  32.087  1.00  0.00     0.060 A 
BRANCH  77  78
ATOM     78  S   UNL A   1      49.942  25.793  32.338  1.00  0.00     0.124 S 
ATOM     79  O   UNL A   1      50.798  26.788  32.978  1.00  0.00    -0.237 OA
ATOM     80  O   UNL A   1      49.493  24.700  33.194  1.00  0.00    -0.237 OA
ATOM     81  O   UNL A   1      50.333  25.408  30.986  1.00  0.00    -0.744 OA
ENDBRANCH  77  78
ENDBRANCH  56  70
BRANCH  57  82
ATOM     82  C   UNL A   1      37.344  32.857  30.129  1.00  0.00     0.058 A 
ATOM     83  C   UNL A   1      36.259  32.557  30.967  1.00  0.00     0.135 A 
ATOM     84  C   UNL A   1      37.148  33.828  29.134  1.00  0.00     0.135 A 
ATOM     85  F   UNL A   1      36.393  31.630  31.928  1.00  0.00    -0.206 F 
ATOM     86  C   UNL A   1      35.026  33.183  30.819  1.00  0.00     0.059 A 
ATOM     87  C   UNL A   1      35.932  34.488  28.983  1.00  0.00     0.059 A 
ATOM     88  F   UNL A   1      38.157  34.164  28.315  1.00  0.00    -0.206 F 
ATOM     89  C   UNL A   1      34.874  34.152  29.825  1.00  0.00     0.060 A 
BRANCH  89  90
ATOM     90  S   UNL A   1      33.282  34.994  29.676  1.00  0.00     0.124 S 
ATOM     91  O   UNL A   1      32.561  34.102  28.776  1.00  0.00    -0.237 OA
ATOM     92  O   UNL A   1      32.818  35.016  31.060  1.00  0.00    -0.237 OA
ATOM     93  O   UNL A   1      33.642  36.296  29.122  1.00  0.00    -0.744 OA
ENDBRANCH  89  90
ENDBRANCH  57  82
BRANCH  69  94
ATOM     94  C   UNL A   1      43.155  34.438  33.693  1.00  0.00     0.058 A 
ATOM     95  C   UNL A   1      43.081  34.457  35.093  1.00  0.00     0.135 A 
ATOM     96  C   UNL A   1      43.759  35.533  33.052  1.00  0.00     0.135 A 
ATOM     97  F   UNL A   1      42.506  33.440  35.754  1.00  0.00    -0.206 F 
ATOM     98  C   UNL A   1      43.597  35.519  35.831  1.00  0.00     0.059 A 
ATOM     99  C   UNL A   1      44.304  36.591  33.770  1.00  0.00     0.059 A 
ATOM    100  F   UNL A   1      43.860  35.560  31.712  1.00  0.00    -0.206 F 
ATOM    101  C   UNL A   1      44.220  36.574  35.160  1.00  0.00     0.060 A 
BRANCH 101 102
ATOM    102  S   UNL A   1      44.967  37.898  36.135  1.00  0.00     0.124 S 
ATOM    103  O   UNL A   1      45.260  38.893  35.108  1.00  0.00    -0.237 OA
ATOM    104  O   UNL A   1      43.895  38.243  37.064  1.00  0.00    -0.237 OA
ATOM    105  O   UNL A   1      46.132  37.260  36.740  1.00  0.00    -0.744 OA
ENDBRANCH 101 102
ENDBRANCH  69  94
ENDBRANCH  43  44
ENDBRANCH  35  38
ENDBRANCH  33  34
ENDBRANCH  32  33
ENDBRANCH   1  32
TORSDOF 18
ENDMDL
MODEL 2
REMARK VINA RESULT:     -10.5      4.966     10.950
REMARK SMILES O=C(COc1ccc(N2C[C@@H](C(=O)NCCCNC(=O)c3ccc(-c4c5nc(c(-c6c(F)cc(S(=O)(=O)[O-])cc6F)c6ccc([nH]6)c(-c6c(F)cc(S(=O)(=O)[O-])cc6F)c6nc(c(-c7c(F)cc(S(=O)(=O)[O-])cc7F)c7ccc4[nH]7)C=C6)C=C5)cc3)CC2=O)cc1)Nc1ccc(Cl)cc1Cl
REMARK SMILES IDX 15 1 14 2 12 3 13 4 11 6 9 7 10 8 88 9 87 10 89 11 8 12 5 13
REMARK SMILES IDX 6 14 91 15 7 16 90 17 4 18 3 19 2 20 1 21 92 22 93 24 94 25
REMARK SMILES IDX 99 26 95 27 98 28 100 29 96 30 97 31 16 32 17 33 18 34 19 35
REMARK SMILES IDX 20 37 21 38 22 39 86 40 23 41 85 42 24 43 25 44 26 45 79 46
REMARK SMILES IDX 27 47 84 48 78 49 80 50 28 51 83 52 77 53 76 54 29 56 63 57
REMARK SMILES IDX 42 58 62 59 43 60 46 61 61 62 81 63 44 64 45 65 60 67 82 68
REMARK SMILES IDX 47 69 30 70 31 71 40 72 32 73 33 74 39 75 41 76 34 77 35 78
REMARK SMILES IDX 36 79 37 80 38 81 64 82 65 83 74 84 66 85 67 86 73 87 75 88
REMARK SMILES IDX 68 89 69 90 70 91 71 92 72 93 48 94 49 95 58 96 50 97 51 98
REMARK SMILES IDX 57 99 59 100 52 101 53 102 54 103 55 104 56 105
REMARK H PARENT 14 5 92 23 18 36 80 55 46 66
REMARK Flexibility Score: inf
ROOT
ATOM      1  C   UNL A   1      37.752  22.358  25.733  1.00  0.00     0.117 C 
ENDROOT
BRANCH   1   2
ATOM      2  N   UNL A   1      36.564  21.849  26.403  1.00  0.00    -0.356 N 
ATOM      3  C   UNL A   1      35.267  21.756  26.015  1.00  0.00     0.225 C 
ATOM      4  O   UNL A   1      34.476  21.240  26.809  1.00  0.00    -0.275 OA
ATOM      5  H   UNL A   1      36.734  21.507  27.310  1.00  0.00     0.163 HD
BRANCH   3   6
ATOM      6  C   UNL A   1      34.771  22.219  24.663  1.00  0.00     0.107 C 
ATOM      7  N   UNL A   1      32.799  23.294  23.955  1.00  0.00    -0.312 N 
ATOM      8  C   UNL A   1      33.987  23.517  24.738  1.00  0.00     0.139 C 
ATOM      9  C   UNL A   1      32.704  21.988  23.476  1.00  0.00     0.227 C 
ATOM     10  C   UNL A   1      33.905  21.211  23.928  1.00  0.00     0.116 C 
ATOM     11  O   UNL A   1      31.824  21.503  22.777  1.00  0.00    -0.274 OA
BRANCH   7  12
ATOM     12  C   UNL A   1      31.798  24.276  23.794  1.00  0.00     0.044 A 
ATOM     13  C   UNL A   1      29.897  26.325  23.446  1.00  0.00     0.120 A 
ATOM     14  C   UNL A   1      29.963  25.628  24.651  1.00  0.00     0.048 A 
ATOM     15  C   UNL A   1      30.770  25.988  22.416  1.00  0.00     0.048 A 
ATOM     16  C   UNL A   1      30.888  24.583  24.813  1.00  0.00     0.030 A 
ATOM     17  C   UNL A   1      31.714  24.981  22.593  1.00  0.00     0.030 A 
BRANCH  13  18
ATOM     18  O   UNL A   1      29.080  27.422  23.369  1.00  0.00    -0.484 OA
BRANCH  18  19
ATOM     19  C   UNL A   1      29.652  28.517  22.652  1.00  0.00     0.329 C 
BRANCH  19  20
ATOM     20  C   UNL A   1      30.924  29.128  23.249  1.00  0.00     0.262 C 
ATOM     21  O   UNL A   1      31.870  29.428  22.529  1.00  0.00    -0.271 OA
ATOM     22  N   UNL A   1      30.889  29.187  24.638  1.00  0.00    -0.322 N 
ATOM     23  H   UNL A   1      30.034  28.984  25.083  1.00  0.00     0.170 HD
BRANCH  22  24
ATOM     24  C   UNL A   1      31.995  29.519  25.459  1.00  0.00     0.060 A 
ATOM     25  C   UNL A   1      31.893  30.739  26.148  1.00  0.00     0.029 A 
ATOM     26  C   UNL A   1      33.139  28.724  25.660  1.00  0.00     0.066 A 
ATOM     27  C   UNL A   1      32.857  31.113  27.087  1.00  0.00     0.023 A 
ATOM     28  C   UNL A   1      34.100  29.099  26.608  1.00  0.00     0.043 A 
ATOM     29  Cl  UNL A   1      33.554  27.384  24.645  1.00  0.00    -0.082 Cl
ATOM     30  C   UNL A   1      33.947  30.282  27.326  1.00  0.00     0.042 A 
ATOM     31  Cl  UNL A   1      35.131  30.735  28.486  1.00  0.00    -0.084 Cl
ENDBRANCH  22  24
ENDBRANCH  19  20
ENDBRANCH  18  19
ENDBRANCH  13  18
ENDBRANCH   7  12
ENDBRANCH   3   6
ENDBRANCH   1   2
BRANCH   1  32
ATOM     32  C   UNL A   1      37.984  23.839  26.009  1.00  0.00     0.042 C 
BRANCH  32  33
ATOM     33  C   UNL A   1      39.300  24.144  26.715  1.00  0.00     0.118 C 
BRANCH  33  34
ATOM     34  N   UNL A   1      40.291  24.748  25.833  1.00  0.00    -0.352 N 
ATOM     35  C   UNL A   1      41.040  25.888  26.013  1.00  0.00     0.251 C 
ATOM     36  H   UNL A   1      40.447  24.271  24.986  1.00  0.00     0.163 HD
ATOM     37  O   UNL A   1      41.704  26.338  25.085  1.00  0.00    -0.269 OA
BRANCH  35  38
ATOM     38  C   UNL A   1      41.020  26.578  27.320  1.00  0.00     0.039 A 
ATOM     39  C   UNL A   1      41.771  27.745  27.493  1.00  0.00     0.014 A 
ATOM     40  C   UNL A   1      40.239  26.082  28.366  1.00  0.00     0.014 A 
ATOM     41  C   UNL A   1      41.669  28.461  28.690  1.00  0.00     0.010 A 
ATOM     42  C   UNL A   1      40.074  26.840  29.518  1.00  0.00     0.010 A 
ATOM     43  C   UNL A   1      40.785  28.037  29.694  1.00  0.00    -0.014 A 
BRANCH  43  44
ATOM     44  C   UNL A   1      40.581  28.801  30.953  1.00  0.00     0.031 A 
ATOM     45  C   UNL A   1      39.532  29.878  30.999  1.00  0.00     0.074 A 
ATOM     46  C   UNL A   1      41.409  28.615  32.000  1.00  0.00     0.049 A 
ATOM     47  N   UNL A   1      39.326  30.795  31.907  1.00  0.00    -0.248 NA
ATOM     48  C   UNL A   1      38.617  29.954  29.847  1.00  0.00     0.031 C 
ATOM     49  C   UNL A   1      42.480  27.618  32.070  1.00  0.00     0.029 A 
ATOM     50  N   UNL A   1      41.498  29.279  33.199  1.00  0.00    -0.354 N 
ATOM     51  C   UNL A   1      38.281  31.575  31.423  1.00  0.00     0.074 A 
ATOM     52  C   UNL A   1      37.930  31.052  30.121  1.00  0.00     0.031 C 
ATOM     53  C   UNL A   1      43.115  27.735  33.247  1.00  0.00     0.029 A 
ATOM     54  C   UNL A   1      42.535  28.846  33.995  1.00  0.00     0.049 A 
ATOM     55  H   UNL A   1      40.879  29.996  33.466  1.00  0.00     0.167 HD
ATOM     56  C   UNL A   1      37.664  32.623  32.017  1.00  0.00     0.037 A 
ATOM     57  C   UNL A   1      42.986  29.312  35.177  1.00  0.00     0.037 A 
ATOM     58  C   UNL A   1      38.005  33.116  33.327  1.00  0.00     0.049 A 
ATOM     59  C   UNL A   1      42.295  30.487  35.816  1.00  0.00     0.074 A 
ATOM     60  C   UNL A   1      37.406  34.137  34.042  1.00  0.00     0.029 A 
ATOM     61  N   UNL A   1      39.035  32.623  34.115  1.00  0.00    -0.354 N 
ATOM     62  N   UNL A   1      41.283  31.191  35.365  1.00  0.00    -0.248 NA
ATOM     63  C   UNL A   1      42.800  30.935  37.121  1.00  0.00     0.031 C 
ATOM     64  C   UNL A   1      38.107  34.297  35.240  1.00  0.00     0.029 A 
ATOM     65  C   UNL A   1      39.100  33.332  35.301  1.00  0.00     0.049 A 
ATOM     66  H   UNL A   1      39.630  31.880  33.867  1.00  0.00     0.167 HD
ATOM     67  C   UNL A   1      41.003  32.132  36.350  1.00  0.00     0.074 A 
ATOM     68  C   UNL A   1      41.958  31.917  37.417  1.00  0.00     0.031 C 
ATOM     69  C   UNL A   1      40.036  33.082  36.371  1.00  0.00     0.037 A 
BRANCH  56  70
ATOM     70  C   UNL A   1      36.564  33.311  31.256  1.00  0.00     0.058 A 
ATOM     71  C   UNL A   1      35.214  33.176  31.618  1.00  0.00     0.135 A 
ATOM     72  C   UNL A   1      36.867  34.140  30.163  1.00  0.00     0.135 A 
ATOM     73  F   UNL A   1      34.865  32.386  32.645  1.00  0.00    -0.206 F 
ATOM     74  C   UNL A   1      34.201  33.806  30.902  1.00  0.00     0.059 A 
ATOM     75  C   UNL A   1      35.872  34.807  29.452  1.00  0.00     0.059 A 
ATOM     76  F   UNL A   1      38.139  34.307  29.772  1.00  0.00    -0.206 F 
ATOM     77  C   UNL A   1      34.541  34.618  29.820  1.00  0.00     0.060 A 
BRANCH  77  78
ATOM     78  S   UNL A   1      33.214  35.423  28.898  1.00  0.00     0.124 S 
ATOM     79  O   UNL A   1      32.626  34.291  28.188  1.00  0.00    -0.237 OA
ATOM     80  O   UNL A   1      32.398  35.996  29.962  1.00  0.00    -0.237 OA
ATOM     81  O   UNL A   1      33.918  36.389  28.061  1.00  0.00    -0.744 OA
ENDBRANCH  77  78
ENDBRANCH  56  70
BRANCH  57  82
ATOM     82  C   UNL A   1      44.145  28.654  35.839  1.00  0.00     0.058 A 
ATOM     83  C   UNL A   1      45.456  29.092  35.600  1.00  0.00     0.135 A 
ATOM     84  C   UNL A   1      43.969  27.592  36.741  1.00  0.00     0.135 A 
ATOM     85  F   UNL A   1      45.679  30.099  34.740  1.00  0.00    -0.206 F 
ATOM     86  C   UNL A   1      46.551  28.496  36.217  1.00  0.00     0.059 A 
ATOM     87  C   UNL A   1      45.045  26.997  37.391  1.00  0.00     0.059 A 
ATOM     88  F   UNL A   1      42.734  27.144  37.018  1.00  0.00    -0.206 F 
ATOM     89  C   UNL A   1      46.334  27.450  37.116  1.00  0.00     0.060 A 
BRANCH  89  90
ATOM     90  S   UNL A   1      47.760  26.718  37.950  1.00  0.00     0.124 S 
ATOM     91  O   UNL A   1      48.862  27.202  37.127  1.00  0.00    -0.237 OA
ATOM     92  O   UNL A   1      47.660  27.293  39.287  1.00  0.00    -0.237 OA
ATOM     93  O   UNL A   1      47.495  25.284  37.870  1.00  0.00    -0.744 OA
ENDBRANCH  89  90
ENDBRANCH  57  82
BRANCH  69  94
ATOM     94  C   UNL A   1      39.894  33.924  37.609  1.00  0.00     0.058 A 
ATOM     95  C   UNL A   1      39.090  33.531  38.688  1.00  0.00     0.135 A 
ATOM     96  C   UNL A   1      40.676  35.082  37.758  1.00  0.00     0.135 A 
ATOM     97  F   UNL A   1      38.318  32.437  38.593  1.00  0.00    -0.206 F 
ATOM     98  C   UNL A   1      39.070  34.255  39.877  1.00  0.00     0.059 A 
ATOM     99  C   UNL A   1      40.691  35.804  38.946  1.00  0.00     0.059 A 
ATOM    100  F   UNL A   1      41.468  35.497  36.756  1.00  0.00    -0.206 F 
ATOM    101  C   UNL A   1      39.886  35.382  40.001  1.00  0.00     0.060 A 
BRANCH 101 102
ATOM    102  S   UNL A   1      39.920  36.256  41.581  1.00  0.00     0.124 S 
ATOM    103  O   UNL A   1      38.548  36.080  42.046  1.00  0.00    -0.237 OA
ATOM    104  O   UNL A   1      40.940  35.519  42.321  1.00  0.00    -0.237 OA
ATOM    105  O   UNL A   1      40.286  37.619  41.208  1.00  0.00    -0.744 OA
ENDBRANCH 101 102
ENDBRANCH  69  94
ENDBRANCH  43  44
ENDBRANCH  35  38
ENDBRANCH  33  34
ENDBRANCH  32  33
ENDBRANCH   1  32
TORSDOF 18
ENDMDL
MODEL 3
REMARK VINA RESULT:     -10.5      4.499      7.358
REMARK SMILES O=C(COc1ccc(N2C[C@@H](C(=O)NCCCNC(=O)c3ccc(-c4c5nc(c(-c6c(F)cc(S(=O)(=O)[O-])cc6F)c6ccc([nH]6)c(-c6c(F)cc(S(=O)(=O)[O-])cc6F)c6nc(c(-c7c(F)cc(S(=O)(=O)[O-])cc7F)c7ccc4[nH]7)C=C6)C=C5)cc3)CC2=O)cc1)Nc1ccc(Cl)cc1Cl
REMARK SMILES IDX 15 1 14 2 12 3 13 4 11 6 9 7 10 8 88 9 87 10 89 11 8 12 5 13
REMARK SMILES IDX 6 14 91 15 7 16 90 17 4 18 3 19 2 20 1 21 92 22 93 24 94 25
REMARK SMILES IDX 99 26 95 27 98 28 100 29 96 30 97 31 16 32 17 33 18 34 19 35
REMARK SMILES IDX 20 37 21 38 22 39 86 40 23 41 85 42 24 43 25 44 26 45 79 46
REMARK SMILES IDX 27 47 84 48 78 49 80 50 28 51 83 52 77 53 76 54 29 56 63 57
REMARK SMILES IDX 42 58 62 59 43 60 46 61 61 62 81 63 44 64 45 65 60 67 82 68
REMARK SMILES IDX 47 69 30 70 31 71 40 72 32 73 33 74 39 75 41 76 34 77 35 78
REMARK SMILES IDX 36 79 37 80 38 81 64 82 65 83 74 84 66 85 67 86 73 87 75 88
REMARK SMILES IDX 68 89 69 90 70 91 71 92 72 93 48 94 49 95 58 96 50 97 51 98
REMARK SMILES IDX 57 99 59 100 52 101 53 102 54 103 55 104 56 105
REMARK H PARENT 14 5 92 23 18 36 80 55 46 66
REMARK Flexibility Score: inf
ROOT
ATOM      1  C   UNL A   1      38.323  21.768  25.724  1.00  0.00     0.117 C 
ENDROOT
BRANCH   1   2
ATOM      2  N   UNL A   1      37.178  22.289  26.456  1.00  0.00    -0.356 N 
ATOM      3  C   UNL A   1      35.973  22.762  26.050  1.00  0.00     0.225 C 
ATOM      4  O   UNL A   1      35.180  23.114  26.927  1.00  0.00    -0.275 OA
ATOM      5  H   UNL A   1      37.301  22.299  27.432  1.00  0.00     0.163 HD
BRANCH   3   6
ATOM      6  C   UNL A   1      35.561  22.842  24.596  1.00  0.00     0.107 C 
ATOM      7  N   UNL A   1      33.729  23.829  23.496  1.00  0.00    -0.312 N 
ATOM      8  C   UNL A   1      34.913  24.168  24.241  1.00  0.00     0.139 C 
ATOM      9  C   UNL A   1      33.512  22.454  23.420  1.00  0.00     0.227 C 
ATOM     10  C   UNL A   1      34.615  21.742  24.145  1.00  0.00     0.116 C 
ATOM     11  O   UNL A   1      32.605  21.864  22.848  1.00  0.00    -0.274 OA
BRANCH   7  12
ATOM     12  C   UNL A   1      32.838  24.804  22.997  1.00  0.00     0.044 A 
ATOM     13  C   UNL A   1      31.133  26.843  22.064  1.00  0.00     0.120 A 
ATOM     14  C   UNL A   1      30.621  25.799  22.833  1.00  0.00     0.048 A 
ATOM     15  C   UNL A   1      32.489  26.858  21.754  1.00  0.00     0.048 A 
ATOM     16  C   UNL A   1      31.465  24.763  23.269  1.00  0.00     0.030 A 
ATOM     17  C   UNL A   1      33.331  25.854  22.223  1.00  0.00     0.030 A 
BRANCH  13  18
ATOM     18  O   UNL A   1      30.313  27.901  21.770  1.00  0.00    -0.484 OA
BRANCH  18  19
ATOM     19  C   UNL A   1      30.609  29.082  22.516  1.00  0.00     0.329 C 
BRANCH  19  20
ATOM     20  C   UNL A   1      31.133  28.872  23.941  1.00  0.00     0.262 C 
ATOM     21  O   UNL A   1      30.436  28.325  24.788  1.00  0.00    -0.271 OA
ATOM     22  N   UNL A   1      32.383  29.447  24.142  1.00  0.00    -0.322 N 
ATOM     23  H   UNL A   1      32.862  29.787  23.352  1.00  0.00     0.170 HD
BRANCH  22  24
ATOM     24  C   UNL A   1      33.016  29.579  25.402  1.00  0.00     0.060 A 
ATOM     25  C   UNL A   1      34.008  28.624  25.685  1.00  0.00     0.029 A 
ATOM     26  C   UNL A   1      32.762  30.587  26.351  1.00  0.00     0.066 A 
ATOM     27  C   UNL A   1      34.792  28.726  26.836  1.00  0.00     0.023 A 
ATOM     28  C   UNL A   1      33.556  30.691  27.500  1.00  0.00     0.043 A 
ATOM     29  Cl  UNL A   1      31.368  31.613  26.294  1.00  0.00    -0.082 Cl
ATOM     30  C   UNL A   1      34.575  29.771  27.729  1.00  0.00     0.042 A 
ATOM     31  Cl  UNL A   1      35.544  29.904  29.142  1.00  0.00    -0.084 Cl
ENDBRANCH  22  24
ENDBRANCH  19  20
ENDBRANCH  18  19
ENDBRANCH  13  18
ENDBRANCH   7  12
ENDBRANCH   3   6
ENDBRANCH   1   2
BRANCH   1  32
ATOM     32  C   UNL A   1      39.619  21.875  26.519  1.00  0.00     0.042 C 
BRANCH  32  33
ATOM     33  C   UNL A   1      40.077  23.306  26.776  1.00  0.00     0.118 C 
BRANCH  33  34
ATOM     34  N   UNL A   1      41.251  23.675  25.995  1.00  0.00    -0.352 N 
ATOM     35  C   UNL A   1      41.968  24.849  25.998  1.00  0.00     0.251 C 
ATOM     36  H   UNL A   1      41.578  22.984  25.375  1.00  0.00     0.163 HD
ATOM     37  O   UNL A   1      42.830  25.043  25.146  1.00  0.00    -0.269 OA
BRANCH  35  38
ATOM     38  C   UNL A   1      41.678  25.881  27.016  1.00  0.00     0.039 A 
ATOM     39  C   UNL A   1      40.873  25.558  28.113  1.00  0.00     0.014 A 
ATOM     40  C   UNL A   1      42.222  27.161  26.895  1.00  0.00     0.014 A 
ATOM     41  C   UNL A   1      40.687  26.496  29.133  1.00  0.00     0.010 A 
ATOM     42  C   UNL A   1      42.106  28.059  27.949  1.00  0.00     0.010 A 
ATOM     43  C   UNL A   1      41.339  27.738  29.080  1.00  0.00    -0.014 A 
BRANCH  43  44
ATOM     44  C   UNL A   1      41.236  28.741  30.172  1.00  0.00     0.031 A 
ATOM     45  C   UNL A   1      42.135  28.617  31.372  1.00  0.00     0.074 A 
ATOM     46  C   UNL A   1      40.267  29.677  30.143  1.00  0.00     0.049 A 
ATOM     47  N   UNL A   1      42.078  29.244  32.516  1.00  0.00    -0.248 NA
ATOM     48  C   UNL A   1      43.219  27.625  31.281  1.00  0.00     0.031 C 
ATOM     49  C   UNL A   1      39.319  29.885  29.047  1.00  0.00     0.029 A 
ATOM     50  N   UNL A   1      39.900  30.613  31.078  1.00  0.00    -0.354 N 
ATOM     51  C   UNL A   1      43.096  28.702  33.293  1.00  0.00     0.074 A 
ATOM     52  C   UNL A   1      43.722  27.662  32.505  1.00  0.00     0.031 C 
ATOM     53  C   UNL A   1      38.482  30.883  29.371  1.00  0.00     0.029 A 
ATOM     54  C   UNL A   1      38.797  31.353  30.717  1.00  0.00     0.049 A 
ATOM     55  H   UNL A   1      40.380  30.744  31.928  1.00  0.00     0.167 HD
ATOM     56  C   UNL A   1      43.481  29.049  34.544  1.00  0.00     0.037 A 
ATOM     57  C   UNL A   1      38.100  32.281  31.403  1.00  0.00     0.037 A 
ATOM     58  C   UNL A   1      42.868  30.105  35.306  1.00  0.00     0.049 A 
ATOM     59  C   UNL A   1      38.535  32.643  32.798  1.00  0.00     0.074 A 
ATOM     60  C   UNL A   1      43.216  30.571  36.561  1.00  0.00     0.029 A 
ATOM     61  N   UNL A   1      41.779  30.855  34.886  1.00  0.00    -0.354 N 
ATOM     62  N   UNL A   1      39.524  32.150  33.506  1.00  0.00    -0.248 NA
ATOM     63  C   UNL A   1      37.766  33.687  33.491  1.00  0.00     0.031 C 
ATOM     64  C   UNL A   1      42.307  31.569  36.922  1.00  0.00     0.029 A 
ATOM     65  C   UNL A   1      41.432  31.770  35.865  1.00  0.00     0.049 A 
ATOM     66  H   UNL A   1      41.322  30.753  34.021  1.00  0.00     0.167 HD
ATOM     67  C   UNL A   1      39.524  32.854  34.705  1.00  0.00     0.074 A 
ATOM     68  C   UNL A   1      38.430  33.799  34.635  1.00  0.00     0.031 C 
ATOM     69  C   UNL A   1      40.360  32.731  35.766  1.00  0.00     0.037 A 
BRANCH  56  70
ATOM     70  C   UNL A   1      44.612  28.277  35.168  1.00  0.00     0.058 A 
ATOM     71  C   UNL A   1      45.949  28.686  35.040  1.00  0.00     0.135 A 
ATOM     72  C   UNL A   1      44.351  27.124  35.927  1.00  0.00     0.135 A 
ATOM     73  F   UNL A   1      46.258  29.772  34.313  1.00  0.00    -0.206 F 
ATOM     74  C   UNL A   1      46.990  27.960  35.610  1.00  0.00     0.059 A 
ATOM     75  C   UNL A   1      45.375  26.402  36.535  1.00  0.00     0.059 A 
ATOM     76  F   UNL A   1      43.093  26.687  36.085  1.00  0.00    -0.206 F 
ATOM     77  C   UNL A   1      46.692  26.819  36.354  1.00  0.00     0.060 A 
BRANCH  77  78
ATOM     78  S   UNL A   1      48.055  25.886  37.082  1.00  0.00     0.124 S 
ATOM     79  O   UNL A   1      48.057  26.395  38.451  1.00  0.00    -0.237 OA
ATOM     80  O   UNL A   1      47.610  24.505  36.922  1.00  0.00    -0.237 OA
ATOM     81  O   UNL A   1      49.205  26.270  36.270  1.00  0.00    -0.744 OA
ENDBRANCH  77  78
ENDBRANCH  56  70
BRANCH  57  82
ATOM     82  C   UNL A   1      36.925  32.942  30.772  1.00  0.00     0.058 A 
ATOM     83  C   UNL A   1      35.618  32.619  31.167  1.00  0.00     0.135 A 
ATOM     84  C   UNL A   1      37.081  33.924  29.781  1.00  0.00     0.135 A 
ATOM     85  F   UNL A   1      35.415  31.681  32.104  1.00  0.00    -0.206 F 
ATOM     86  C   UNL A   1      34.509  33.234  30.595  1.00  0.00     0.059 A 
ATOM     87  C   UNL A   1      35.989  34.573  29.213  1.00  0.00     0.059 A 
ATOM     88  F   UNL A   1      38.311  34.282  29.378  1.00  0.00    -0.206 F 
ATOM     89  C   UNL A   1      34.705  34.215  29.621  1.00  0.00     0.060 A 
BRANCH  89  90
ATOM     90  S   UNL A   1      33.258  35.041  28.923  1.00  0.00     0.124 S 
ATOM     91  O   UNL A   1      32.750  34.023  28.012  1.00  0.00    -0.237 OA
ATOM     92  O   UNL A   1      32.451  35.296  30.111  1.00  0.00    -0.237 OA
ATOM     93  O   UNL A   1      33.824  36.229  28.290  1.00  0.00    -0.744 OA
ENDBRANCH  89  90
ENDBRANCH  57  82
BRANCH  69  94
ATOM     94  C   UNL A   1      40.192  33.684  36.916  1.00  0.00     0.058 A 
ATOM     95  C   UNL A   1      40.830  34.932  36.948  1.00  0.00     0.135 A 
ATOM     96  C   UNL A   1      39.279  33.385  37.942  1.00  0.00     0.135 A 
ATOM     97  F   UNL A   1      41.717  35.263  35.998  1.00  0.00    -0.206 F 
ATOM     98  C   UNL A   1      40.564  35.855  37.955  1.00  0.00     0.059 A 
ATOM     99  C   UNL A   1      38.979  34.302  38.942  1.00  0.00     0.059 A 
ATOM    100  F   UNL A   1      38.638  32.205  37.953  1.00  0.00    -0.206 F 
ATOM    101  C   UNL A   1      39.625  35.536  38.940  1.00  0.00     0.060 A 
BRANCH 101 102
ATOM    102  S   UNL A   1      39.221  36.780  40.186  1.00  0.00     0.124 S 
ATOM    103  O   UNL A   1      38.163  36.112  40.938  1.00  0.00    -0.237 OA
ATOM    104  O   UNL A   1      40.492  36.941  40.886  1.00  0.00    -0.237 OA
ATOM    105  O   UNL A   1      38.797  37.930  39.394  1.00  0.00    -0.744 OA
ENDBRANCH 101 102
ENDBRANCH  69  94
ENDBRANCH  43  44
ENDBRANCH  35  38
ENDBRANCH  33  34
ENDBRANCH  32  33
ENDBRANCH   1  32
TORSDOF 18
ENDMDL
