MODEL 1
REMARK VINA RESULT:     -12.1      0.000      0.000
REMARK SMILES O=C(C[C@H](Cc1ccc(Cl)cc1)C(=O)Nc1cc(Cl)ccc1Cl)NCCCNC(=O)c1ccc(-c2c3nc(c(-c4c(F)cc(S(=O)(=O)[O-])cc4F)c4ccc([nH]4)c(-c4c(F)cc(S(=O)(=O)[O-])cc4F)c4nc(c(-c5c(F)cc(S(=O)(=O)[O-])cc5F)c5ccc2[nH]5)C=C4)C=C3)cc1
REMARK SMILES IDX 26 1 25 2 24 3 1 4 2 5 3 7 4 8 13 9 14 10 15 11 16 13 17 14
REMARK SMILES IDX 22 15 18 16 21 17 23 18 19 19 20 20 5 21 6 22 7 23 12 24
REMARK SMILES IDX 8 25 11 26 9 27 10 28 27 29 28 30 29 31 30 33 31 34 32 35
REMARK SMILES IDX 96 36 33 37 95 38 34 39 35 40 36 41 89 42 37 43 94 44 88 45
REMARK SMILES IDX 90 46 38 47 93 48 87 49 86 50 39 52 73 53 52 54 72 55 53 56
REMARK SMILES IDX 56 57 71 58 91 59 54 60 55 61 70 63 92 64 57 65 40 66 41 67
REMARK SMILES IDX 50 68 42 69 43 70 49 71 51 72 44 73 45 74 46 75 47 76 48 77
REMARK SMILES IDX 74 78 75 79 84 80 76 81 77 82 83 83 85 84 78 85 79 86 80 87
REMARK SMILES IDX 81 88 82 89 58 90 59 91 68 92 60 93 61 94 67 95 69 96 62 97
REMARK SMILES IDX 63 98 64 99 65 100 66 101
REMARK H PARENT 24 6 15 12 28 32 90 51 56 62
REMARK Flexibility Score: inf
ROOT
ATOM      1  C   UNL A   1      34.648  29.044  27.419  1.00  0.00     0.042 C 
ENDROOT
BRANCH   1   2
ATOM      2  C   UNL A   1      33.669  29.427  26.317  1.00  0.00     0.117 C 
BRANCH   2   3
ATOM      3  N   UNL A   1      33.685  28.488  25.212  1.00  0.00    -0.356 N 
ATOM      4  O   UNL A   1      31.647  27.533  25.638  1.00  0.00    -0.275 OA
ATOM      5  C   UNL A   1      32.623  27.669  24.914  1.00  0.00     0.220 C 
ATOM      6  H   UNL A   1      34.493  28.436  24.649  1.00  0.00     0.163 HD
BRANCH   5   7
ATOM      7  C   UNL A   1      32.766  26.929  23.600  1.00  0.00     0.113 C 
BRANCH   7   8
ATOM      8  C   UNL A   1      32.827  25.386  23.671  1.00  0.00     0.092 C 
BRANCH   8   9
ATOM      9  C   UNL A   1      31.439  24.726  23.609  1.00  0.00     0.228 C 
ATOM     10  O   UNL A   1      30.485  25.374  23.161  1.00  0.00    -0.274 OA
ATOM     11  N   UNL A   1      31.202  23.415  23.900  1.00  0.00    -0.324 N 
ATOM     12  H   UNL A   1      30.298  23.101  23.672  1.00  0.00     0.169 HD
BRANCH  11  13
ATOM     13  C   UNL A   1      32.033  22.442  24.473  1.00  0.00     0.061 A 
ATOM     14  C   UNL A   1      32.443  22.545  25.800  1.00  0.00     0.048 A 
ATOM     15  C   UNL A   1      32.411  21.315  23.725  1.00  0.00     0.064 A 
ATOM     16  C   UNL A   1      33.337  21.614  26.330  1.00  0.00     0.043 A 
ATOM     17  C   UNL A   1      33.312  20.387  24.253  1.00  0.00     0.024 A 
ATOM     18  Cl  UNL A   1      31.840  21.081  22.110  1.00  0.00    -0.082 Cl
ATOM     19  Cl  UNL A   1      33.888  21.799  27.948  1.00  0.00    -0.084 Cl
ATOM     20  C   UNL A   1      33.794  20.551  25.553  1.00  0.00     0.022 A 
ENDBRANCH  11  13
ENDBRANCH   8   9
BRANCH   8  21
ATOM     21  C   UNL A   1      33.914  24.674  22.846  1.00  0.00     0.049 C 
BRANCH  21  22
ATOM     22  C   UNL A   1      35.005  24.014  23.658  1.00  0.00    -0.047 A 
ATOM     23  C   UNL A   1      35.281  24.470  24.957  1.00  0.00     0.005 A 
ATOM     24  C   UNL A   1      35.793  22.992  23.114  1.00  0.00     0.005 A 
ATOM     25  C   UNL A   1      36.316  23.909  25.703  1.00  0.00     0.021 A 
ATOM     26  C   UNL A   1      36.832  22.431  23.861  1.00  0.00     0.021 A 
ATOM     27  C   UNL A   1      37.088  22.891  25.152  1.00  0.00     0.041 A 
ATOM     28  Cl  UNL A   1      38.373  22.203  26.068  1.00  0.00    -0.084 Cl
ENDBRANCH  21  22
ENDBRANCH   8  21
ENDBRANCH   7   8
ENDBRANCH   5   7
ENDBRANCH   2   3
ENDBRANCH   1   2
BRANCH   1  29
ATOM     29  C   UNL A   1      35.459  30.203  27.989  1.00  0.00     0.118 C 
BRANCH  29  30
ATOM     30  N   UNL A   1      35.455  30.259  29.442  1.00  0.00    -0.352 N 
ATOM     31  C   UNL A   1      36.488  30.069  30.330  1.00  0.00     0.251 C 
ATOM     32  H   UNL A   1      34.583  30.464  29.852  1.00  0.00     0.163 HD
ATOM     33  O   UNL A   1      36.244  30.034  31.534  1.00  0.00    -0.269 OA
BRANCH  31  34
ATOM     34  C   UNL A   1      37.877  29.872  29.851  1.00  0.00     0.039 A 
ATOM     35  C   UNL A   1      38.862  29.534  30.783  1.00  0.00     0.014 A 
ATOM     36  C   UNL A   1      38.222  30.024  28.504  1.00  0.00     0.014 A 
ATOM     37  C   UNL A   1      40.169  29.284  30.356  1.00  0.00     0.010 A 
ATOM     38  C   UNL A   1      39.506  29.695  28.069  1.00  0.00     0.010 A 
ATOM     39  C   UNL A   1      40.496  29.321  28.989  1.00  0.00    -0.014 A 
BRANCH  39  40
ATOM     40  C   UNL A   1      41.859  28.941  28.526  1.00  0.00     0.031 A 
ATOM     41  C   UNL A   1      42.966  29.960  28.452  1.00  0.00     0.074 A 
ATOM     42  C   UNL A   1      42.092  27.670  28.138  1.00  0.00     0.049 A 
ATOM     43  N   UNL A   1      44.216  29.794  28.097  1.00  0.00    -0.248 NA
ATOM     44  C   UNL A   1      42.622  31.348  28.795  1.00  0.00     0.031 C 
ATOM     45  C   UNL A   1      41.087  26.603  28.094  1.00  0.00     0.029 A 
ATOM     46  N   UNL A   1      43.242  27.055  27.711  1.00  0.00    -0.354 N 
ATOM     47  C   UNL A   1      44.804  31.052  28.172  1.00  0.00     0.074 A 
ATOM     48  C   UNL A   1      43.760  31.981  28.546  1.00  0.00     0.031 C 
ATOM     49  C   UNL A   1      41.675  25.460  27.706  1.00  0.00     0.029 A 
ATOM     50  C   UNL A   1      43.086  25.716  27.440  1.00  0.00     0.049 A 
ATOM     51  H   UNL A   1      44.100  27.529  27.610  1.00  0.00     0.167 HD
ATOM     52  C   UNL A   1      46.100  31.399  27.973  1.00  0.00     0.037 A 
ATOM     53  C   UNL A   1      43.977  24.794  27.028  1.00  0.00     0.037 A 
ATOM     54  C   UNL A   1      47.140  30.466  27.614  1.00  0.00     0.049 A 
ATOM     55  C   UNL A   1      45.413  25.198  26.835  1.00  0.00     0.074 A 
ATOM     56  C   UNL A   1      48.493  30.709  27.444  1.00  0.00     0.029 A 
ATOM     57  N   UNL A   1      46.946  29.115  27.365  1.00  0.00    -0.354 N 
ATOM     58  N   UNL A   1      45.966  26.379  26.983  1.00  0.00    -0.248 NA
ATOM     59  C   UNL A   1      46.350  24.140  26.433  1.00  0.00     0.031 C 
ATOM     60  C   UNL A   1      49.108  29.517  27.045  1.00  0.00     0.029 A 
ATOM     61  C   UNL A   1      48.150  28.517  27.024  1.00  0.00     0.049 A 
ATOM     62  H   UNL A   1      46.081  28.649  27.422  1.00  0.00     0.167 HD
ATOM     63  C   UNL A   1      47.320  26.200  26.720  1.00  0.00     0.074 A 
ATOM     64  C   UNL A   1      47.503  24.793  26.425  1.00  0.00     0.031 C 
ATOM     65  C   UNL A   1      48.321  27.116  26.725  1.00  0.00     0.037 A 
BRANCH  52  66
ATOM     66  C   UNL A   1      46.471  32.849  28.147  1.00  0.00     0.058 A 
ATOM     67  C   UNL A   1      46.991  33.338  29.357  1.00  0.00     0.135 A 
ATOM     68  C   UNL A   1      46.346  33.752  27.079  1.00  0.00     0.135 A 
ATOM     69  F   UNL A   1      47.120  32.524  30.417  1.00  0.00    -0.206 F 
ATOM     70  C   UNL A   1      47.342  34.675  29.512  1.00  0.00     0.059 A 
ATOM     71  C   UNL A   1      46.722  35.088  27.201  1.00  0.00     0.059 A 
ATOM     72  F   UNL A   1      45.857  33.341  25.899  1.00  0.00    -0.206 F 
ATOM     73  C   UNL A   1      47.205  35.543  28.427  1.00  0.00     0.060 A 
BRANCH  73  74
ATOM     74  S   UNL A   1      47.674  37.273  28.643  1.00  0.00     0.124 S 
ATOM     75  O   UNL A   1      48.113  37.282  30.035  1.00  0.00    -0.237 OA
ATOM     76  O   UNL A   1      48.727  37.438  27.647  1.00  0.00    -0.237 OA
ATOM     77  O   UNL A   1      46.436  37.998  28.371  1.00  0.00    -0.744 OA
ENDBRANCH  73  74
ENDBRANCH  52  66
BRANCH  53  78
ATOM     78  C   UNL A   1      43.543  23.387  26.809  1.00  0.00     0.058 A 
ATOM     79  C   UNL A   1      43.427  22.858  25.515  1.00  0.00     0.135 A 
ATOM     80  C   UNL A   1      43.247  22.541  27.889  1.00  0.00     0.135 A 
ATOM     81  F   UNL A   1      43.694  23.627  24.449  1.00  0.00    -0.206 F 
ATOM     82  C   UNL A   1      43.014  21.547  25.297  1.00  0.00     0.059 A 
ATOM     83  C   UNL A   1      42.860  21.219  27.697  1.00  0.00     0.059 A 
ATOM     84  F   UNL A   1      43.360  22.992  29.148  1.00  0.00    -0.206 F 
ATOM     85  C   UNL A   1      42.735  20.734  26.396  1.00  0.00     0.060 A 
BRANCH  85  86
ATOM     86  S   UNL A   1      42.246  19.020  26.105  1.00  0.00     0.124 S 
ATOM     87  O   UNL A   1      43.139  18.642  25.016  1.00  0.00    -0.237 OA
ATOM     88  O   UNL A   1      42.516  18.400  27.399  1.00  0.00    -0.237 OA
ATOM     89  O   UNL A   1      40.834  19.130  25.754  1.00  0.00    -0.744 OA
ENDBRANCH  85  86
ENDBRANCH  53  78
BRANCH  65  90
ATOM     90  C   UNL A   1      49.711  26.614  26.436  1.00  0.00     0.058 A 
ATOM     91  C   UNL A   1      50.276  26.687  25.154  1.00  0.00     0.135 A 
ATOM     92  C   UNL A   1      50.488  26.048  27.461  1.00  0.00     0.135 A 
ATOM     93  F   UNL A   1      49.577  27.217  24.136  1.00  0.00    -0.206 F 
ATOM     94  C   UNL A   1      51.539  26.169  24.884  1.00  0.00     0.059 A 
ATOM     95  C   UNL A   1      51.766  25.555  27.222  1.00  0.00     0.059 A 
ATOM     96  F   UNL A   1      50.005  25.967  28.711  1.00  0.00    -0.206 F 
ATOM     97  C   UNL A   1      52.274  25.598  25.924  1.00  0.00     0.060 A 
BRANCH  97  98
ATOM     98  S   UNL A   1      53.902  24.910  25.559  1.00  0.00     0.124 S 
ATOM     99  O   UNL A   1      54.268  25.644  24.352  1.00  0.00    -0.237 OA
ATOM    100  O   UNL A   1      54.661  25.244  26.761  1.00  0.00    -0.237 OA
ATOM    101  O   UNL A   1      53.635  23.487  25.371  1.00  0.00    -0.744 OA
ENDBRANCH  97  98
ENDBRANCH  65  90
ENDBRANCH  39  40
ENDBRANCH  31  34
ENDBRANCH  29  30
ENDBRANCH   1  29
TORSDOF 18
ENDMDL
MODEL 2
REMARK VINA RESULT:     -12.0      2.762      3.532
REMARK SMILES O=C(C[C@H](Cc1ccc(Cl)cc1)C(=O)Nc1cc(Cl)ccc1Cl)NCCCNC(=O)c1ccc(-c2c3nc(c(-c4c(F)cc(S(=O)(=O)[O-])cc4F)c4ccc([nH]4)c(-c4c(F)cc(S(=O)(=O)[O-])cc4F)c4nc(c(-c5c(F)cc(S(=O)(=O)[O-])cc5F)c5ccc2[nH]5)C=C4)C=C3)cc1
REMARK SMILES IDX 26 1 25 2 24 3 1 4 2 5 3 7 4 8 13 9 14 10 15 11 16 13 17 14
REMARK SMILES IDX 22 15 18 16 21 17 23 18 19 19 20 20 5 21 6 22 7 23 12 24
REMARK SMILES IDX 8 25 11 26 9 27 10 28 27 29 28 30 29 31 30 33 31 34 32 35
REMARK SMILES IDX 96 36 33 37 95 38 34 39 35 40 36 41 89 42 37 43 94 44 88 45
REMARK SMILES IDX 90 46 38 47 93 48 87 49 86 50 39 52 73 53 52 54 72 55 53 56
REMARK SMILES IDX 56 57 71 58 91 59 54 60 55 61 70 63 92 64 57 65 40 66 41 67
REMARK SMILES IDX 50 68 42 69 43 70 49 71 51 72 44 73 45 74 46 75 47 76 48 77
REMARK SMILES IDX 74 78 75 79 84 80 76 81 77 82 83 83 85 84 78 85 79 86 80 87
REMARK SMILES IDX 81 88 82 89 58 90 59 91 68 92 60 93 61 94 67 95 69 96 62 97
REMARK SMILES IDX 63 98 64 99 65 100 66 101
REMARK H PARENT 24 6 15 12 28 32 90 51 56 62
REMARK Flexibility Score: inf
ROOT
ATOM      1  C   UNL A   1      32.294  27.719  26.941  1.00  0.00     0.042 C 
ENDROOT
BRANCH   1   2
ATOM      2  C   UNL A   1      31.477  28.178  25.740  1.00  0.00     0.117 C 
BRANCH   2   3
ATOM      3  N   UNL A   1      31.518  27.227  24.647  1.00  0.00    -0.356 N 
ATOM      4  O   UNL A   1      32.686  28.546  23.182  1.00  0.00    -0.275 OA
ATOM      5  C   UNL A   1      32.200  27.464  23.478  1.00  0.00     0.220 C 
ATOM      6  H   UNL A   1      31.037  26.373  24.747  1.00  0.00     0.163 HD
BRANCH   5   7
ATOM      7  C   UNL A   1      32.292  26.259  22.564  1.00  0.00     0.113 C 
BRANCH   7   8
ATOM      8  C   UNL A   1      32.481  24.881  23.241  1.00  0.00     0.092 C 
BRANCH   8   9
ATOM      9  C   UNL A   1      31.150  24.188  23.575  1.00  0.00     0.228 C 
ATOM     10  O   UNL A   1      30.103  24.626  23.079  1.00  0.00    -0.274 OA
ATOM     11  N   UNL A   1      31.047  23.032  24.292  1.00  0.00    -0.324 N 
ATOM     12  H   UNL A   1      30.149  22.630  24.296  1.00  0.00     0.169 HD
BRANCH  11  13
ATOM     13  C   UNL A   1      32.010  22.324  25.024  1.00  0.00     0.061 A 
ATOM     14  C   UNL A   1      32.644  21.210  24.480  1.00  0.00     0.048 A 
ATOM     15  C   UNL A   1      32.390  22.774  26.299  1.00  0.00     0.064 A 
ATOM     16  C   UNL A   1      33.537  20.467  25.252  1.00  0.00     0.043 A 
ATOM     17  C   UNL A   1      33.279  22.026  27.075  1.00  0.00     0.024 A 
ATOM     18  Cl  UNL A   1      31.717  24.215  26.977  1.00  0.00    -0.082 Cl
ATOM     19  Cl  UNL A   1      34.255  19.053  24.587  1.00  0.00    -0.084 Cl
ATOM     20  C   UNL A   1      33.837  20.855  26.557  1.00  0.00     0.022 A 
ENDBRANCH  11  13
ENDBRANCH   8   9
BRANCH   8  21
ATOM     21  C   UNL A   1      33.567  23.948  22.676  1.00  0.00     0.049 C 
BRANCH  21  22
ATOM     22  C   UNL A   1      34.792  23.790  23.547  1.00  0.00    -0.047 A 
ATOM     23  C   UNL A   1      35.779  22.855  23.200  1.00  0.00     0.005 A 
ATOM     24  C   UNL A   1      34.931  24.518  24.736  1.00  0.00     0.005 A 
ATOM     25  C   UNL A   1      36.892  22.658  24.017  1.00  0.00     0.021 A 
ATOM     26  C   UNL A   1      36.045  24.319  25.556  1.00  0.00     0.021 A 
ATOM     27  C   UNL A   1      37.020  23.391  25.192  1.00  0.00     0.041 A 
ATOM     28  Cl  UNL A   1      38.388  23.143  26.208  1.00  0.00    -0.084 Cl
ENDBRANCH  21  22
ENDBRANCH   8  21
ENDBRANCH   7   8
ENDBRANCH   5   7
ENDBRANCH   2   3
ENDBRANCH   1   2
BRANCH   1  29
ATOM     29  C   UNL A   1      33.649  28.404  27.095  1.00  0.00     0.118 C 
BRANCH  29  30
ATOM     30  N   UNL A   1      33.558  29.781  27.552  1.00  0.00    -0.352 N 
ATOM     31  C   UNL A   1      34.501  30.560  28.183  1.00  0.00     0.251 C 
ATOM     32  H   UNL A   1      32.694  30.222  27.386  1.00  0.00     0.163 HD
ATOM     33  O   UNL A   1      34.177  31.668  28.603  1.00  0.00    -0.269 OA
BRANCH  31  34
ATOM     34  C   UNL A   1      35.883  30.064  28.388  1.00  0.00     0.039 A 
ATOM     35  C   UNL A   1      36.788  30.156  27.327  1.00  0.00     0.014 A 
ATOM     36  C   UNL A   1      36.294  29.506  29.602  1.00  0.00     0.014 A 
ATOM     37  C   UNL A   1      38.114  29.752  27.506  1.00  0.00     0.010 A 
ATOM     38  C   UNL A   1      37.636  29.180  29.804  1.00  0.00     0.010 A 
ATOM     39  C   UNL A   1      38.563  29.298  28.759  1.00  0.00    -0.014 A 
BRANCH  39  40
ATOM     40  C   UNL A   1      40.000  28.979  28.978  1.00  0.00     0.031 A 
ATOM     41  C   UNL A   1      40.942  30.000  29.561  1.00  0.00     0.074 A 
ATOM     42  C   UNL A   1      40.468  27.766  28.616  1.00  0.00     0.049 A 
ATOM     43  N   UNL A   1      42.215  29.880  29.842  1.00  0.00    -0.248 NA
ATOM     44  C   UNL A   1      40.392  31.334  29.842  1.00  0.00     0.031 C 
ATOM     45  C   UNL A   1      39.675  26.713  27.975  1.00  0.00     0.029 A 
ATOM     46  N   UNL A   1      41.717  27.210  28.738  1.00  0.00    -0.354 N 
ATOM     47  C   UNL A   1      42.617  31.119  30.330  1.00  0.00     0.074 A 
ATOM     48  C   UNL A   1      41.468  31.994  30.247  1.00  0.00     0.031 C 
ATOM     49  C   UNL A   1      40.445  25.627  27.800  1.00  0.00     0.029 A 
ATOM     50  C   UNL A   1      41.792  25.915  28.282  1.00  0.00     0.049 A 
ATOM     51  H   UNL A   1      42.487  27.692  29.118  1.00  0.00     0.167 HD
ATOM     52  C   UNL A   1      43.825  31.488  30.824  1.00  0.00     0.037 A 
ATOM     53  C   UNL A   1      42.825  25.051  28.257  1.00  0.00     0.037 A 
ATOM     54  C   UNL A   1      44.963  30.608  30.917  1.00  0.00     0.049 A 
ATOM     55  C   UNL A   1      44.149  25.477  28.831  1.00  0.00     0.074 A 
ATOM     56  C   UNL A   1      46.214  30.871  31.452  1.00  0.00     0.029 A 
ATOM     57  N   UNL A   1      44.996  29.298  30.460  1.00  0.00    -0.354 N 
ATOM     58  N   UNL A   1      44.489  26.630  29.356  1.00  0.00    -0.248 NA
ATOM     59  C   UNL A   1      45.226  24.477  28.823  1.00  0.00     0.031 C 
ATOM     60  C   UNL A   1      47.016  29.738  31.275  1.00  0.00     0.029 A 
ATOM     61  C   UNL A   1      46.249  28.747  30.684  1.00  0.00     0.049 A 
ATOM     62  H   UNL A   1      44.241  28.829  30.039  1.00  0.00     0.167 HD
ATOM     63  C   UNL A   1      45.811  26.485  29.766  1.00  0.00     0.074 A 
ATOM     64  C   UNL A   1      46.198  25.127  29.447  1.00  0.00     0.031 C 
ATOM     65  C   UNL A   1      46.628  27.395  30.356  1.00  0.00     0.037 A 
BRANCH  52  66
ATOM     66  C   UNL A   1      43.978  32.905  31.312  1.00  0.00     0.058 A 
ATOM     67  C   UNL A   1      43.704  33.261  32.644  1.00  0.00     0.135 A 
ATOM     68  C   UNL A   1      44.443  33.912  30.451  1.00  0.00     0.135 A 
ATOM     69  F   UNL A   1      43.244  32.344  33.509  1.00  0.00    -0.206 F 
ATOM     70  C   UNL A   1      43.856  34.569  33.094  1.00  0.00     0.059 A 
ATOM     71  C   UNL A   1      44.633  35.221  30.888  1.00  0.00     0.059 A 
ATOM     72  F   UNL A   1      44.721  33.631  29.169  1.00  0.00    -0.206 F 
ATOM     73  C   UNL A   1      44.323  35.542  32.209  1.00  0.00     0.060 A 
BRANCH  73  74
ATOM     74  S   UNL A   1      44.521  37.232  32.814  1.00  0.00     0.124 S 
ATOM     75  O   UNL A   1      43.478  37.300  33.833  1.00  0.00    -0.237 OA
ATOM     76  O   UNL A   1      45.893  37.226  33.311  1.00  0.00    -0.237 OA
ATOM     77  O   UNL A   1      44.291  38.048  31.625  1.00  0.00    -0.744 OA
ENDBRANCH  73  74
ENDBRANCH  52  66
BRANCH  53  78
ATOM     78  C   UNL A   1      42.637  23.682  27.704  1.00  0.00     0.058 A 
ATOM     79  C   UNL A   1      42.700  23.443  26.323  1.00  0.00     0.135 A 
ATOM     80  C   UNL A   1      42.401  22.584  28.546  1.00  0.00     0.135 A 
ATOM     81  F   UNL A   1      42.918  24.461  25.476  1.00  0.00    -0.206 F 
ATOM     82  C   UNL A   1      42.517  22.170  25.793  1.00  0.00     0.059 A 
ATOM     83  C   UNL A   1      42.243  21.297  28.042  1.00  0.00     0.059 A 
ATOM     84  F   UNL A   1      42.350  22.755  29.876  1.00  0.00    -0.206 F 
ATOM     85  C   UNL A   1      42.291  21.102  26.663  1.00  0.00     0.060 A 
BRANCH  85  86
ATOM     86  S   UNL A   1      42.103  19.445  25.969  1.00  0.00     0.124 S 
ATOM     87  O   UNL A   1      42.952  19.524  24.786  1.00  0.00    -0.237 OA
ATOM     88  O   UNL A   1      42.595  18.601  27.054  1.00  0.00    -0.237 OA
ATOM     89  O   UNL A   1      40.670  19.350  25.712  1.00  0.00    -0.744 OA
ENDBRANCH  85  86
ENDBRANCH  53  78
BRANCH  65  90
ATOM     90  C   UNL A   1      48.012  26.933  30.726  1.00  0.00     0.058 A 
ATOM     91  C   UNL A   1      48.270  26.234  31.916  1.00  0.00     0.135 A 
ATOM     92  C   UNL A   1      49.099  27.196  29.875  1.00  0.00     0.135 A 
ATOM     93  F   UNL A   1      47.269  25.956  32.767  1.00  0.00    -0.206 F 
ATOM     94  C   UNL A   1      49.561  25.861  32.275  1.00  0.00     0.059 A 
ATOM     95  C   UNL A   1      50.393  26.802  30.198  1.00  0.00     0.059 A 
ATOM     96  F   UNL A   1      48.909  27.847  28.716  1.00  0.00    -0.206 F 
ATOM     97  C   UNL A   1      50.618  26.156  31.413  1.00  0.00     0.060 A 
BRANCH  97  98
ATOM     98  S   UNL A   1      52.292  25.687  31.899  1.00  0.00     0.124 S 
ATOM     99  O   UNL A   1      52.544  26.604  33.006  1.00  0.00    -0.237 OA
ATOM    100  O   UNL A   1      52.130  24.282  32.263  1.00  0.00    -0.237 OA
ATOM    101  O   UNL A   1      53.076  25.929  30.692  1.00  0.00    -0.744 OA
ENDBRANCH  97  98
ENDBRANCH  65  90
ENDBRANCH  39  40
ENDBRANCH  31  34
ENDBRANCH  29  30
ENDBRANCH   1  29
TORSDOF 18
ENDMDL
MODEL 3
REMARK VINA RESULT:     -12.0      6.720     12.023
REMARK SMILES O=C(C[C@H](Cc1ccc(Cl)cc1)C(=O)Nc1cc(Cl)ccc1Cl)NCCCNC(=O)c1ccc(-c2c3nc(c(-c4c(F)cc(S(=O)(=O)[O-])cc4F)c4ccc([nH]4)c(-c4c(F)cc(S(=O)(=O)[O-])cc4F)c4nc(c(-c5c(F)cc(S(=O)(=O)[O-])cc5F)c5ccc2[nH]5)C=C4)C=C3)cc1
REMARK SMILES IDX 26 1 25 2 24 3 1 4 2 5 3 7 4 8 13 9 14 10 15 11 16 13 17 14
REMARK SMILES IDX 22 15 18 16 21 17 23 18 19 19 20 20 5 21 6 22 7 23 12 24
REMARK SMILES IDX 8 25 11 26 9 27 10 28 27 29 28 30 29 31 30 33 31 34 32 35
REMARK SMILES IDX 96 36 33 37 95 38 34 39 35 40 36 41 89 42 37 43 94 44 88 45
REMARK SMILES IDX 90 46 38 47 93 48 87 49 86 50 39 52 73 53 52 54 72 55 53 56
REMARK SMILES IDX 56 57 71 58 91 59 54 60 55 61 70 63 92 64 57 65 40 66 41 67
REMARK SMILES IDX 50 68 42 69 43 70 49 71 51 72 44 73 45 74 46 75 47 76 48 77
REMARK SMILES IDX 74 78 75 79 84 80 76 81 77 82 83 83 85 84 78 85 79 86 80 87
REMARK SMILES IDX 81 88 82 89 58 90 59 91 68 92 60 93 61 94 67 95 69 96 62 97
REMARK SMILES IDX 63 98 64 99 65 100 66 101
REMARK H PARENT 24 6 15 12 28 32 90 51 56 62
REMARK Flexibility Score: inf
ROOT
ATOM      1  C   UNL A   1      38.203  23.716  26.548  1.00  0.00     0.042 C 
ENDROOT
BRANCH   1   2
ATOM      2  C   UNL A   1      37.529  22.597  25.765  1.00  0.00     0.117 C 
BRANCH   2   3
ATOM      3  N   UNL A   1      36.095  22.560  25.976  1.00  0.00    -0.356 N 
ATOM      4  O   UNL A   1      35.583  24.377  24.675  1.00  0.00    -0.275 OA
ATOM      5  C   UNL A   1      35.226  23.413  25.338  1.00  0.00     0.220 C 
ATOM      6  H   UNL A   1      35.727  21.895  26.603  1.00  0.00     0.163 HD
BRANCH   5   7
ATOM      7  C   UNL A   1      33.765  23.063  25.534  1.00  0.00     0.113 C 
BRANCH   7   8
ATOM      8  C   UNL A   1      32.733  24.174  25.230  1.00  0.00     0.092 C 
BRANCH   8   9
ATOM      9  C   UNL A   1      31.761  23.798  24.100  1.00  0.00     0.228 C 
ATOM     10  O   UNL A   1      31.436  22.612  23.957  1.00  0.00    -0.274 OA
ATOM     11  N   UNL A   1      31.121  24.705  23.307  1.00  0.00    -0.324 N 
ATOM     12  H   UNL A   1      30.420  24.325  22.732  1.00  0.00     0.169 HD
BRANCH  11  13
ATOM     13  C   UNL A   1      31.301  26.089  23.176  1.00  0.00     0.061 A 
ATOM     14  C   UNL A   1      32.497  26.611  22.692  1.00  0.00     0.048 A 
ATOM     15  C   UNL A   1      30.243  26.963  23.476  1.00  0.00     0.064 A 
ATOM     16  C   UNL A   1      32.690  27.992  22.647  1.00  0.00     0.043 A 
ATOM     17  C   UNL A   1      30.439  28.346  23.437  1.00  0.00     0.024 A 
ATOM     18  Cl  UNL A   1      28.700  26.363  23.974  1.00  0.00    -0.082 Cl
ATOM     19  Cl  UNL A   1      34.200  28.618  22.114  1.00  0.00    -0.084 Cl
ATOM     20  C   UNL A   1      31.675  28.861  23.043  1.00  0.00     0.022 A 
ENDBRANCH  11  13
ENDBRANCH   8   9
BRANCH   8  21
ATOM     21  C   UNL A   1      32.082  24.893  26.425  1.00  0.00     0.049 C 
BRANCH  21  22
ATOM     22  C   UNL A   1      32.363  26.376  26.509  1.00  0.00    -0.047 A 
ATOM     23  C   UNL A   1      33.625  26.870  26.144  1.00  0.00     0.005 A 
ATOM     24  C   UNL A   1      31.402  27.265  27.008  1.00  0.00     0.005 A 
ATOM     25  C   UNL A   1      33.920  28.228  26.263  1.00  0.00     0.021 A 
ATOM     26  C   UNL A   1      31.699  28.626  27.129  1.00  0.00     0.021 A 
ATOM     27  C   UNL A   1      32.955  29.100  26.755  1.00  0.00     0.041 A 
ATOM     28  Cl  UNL A   1      33.320  30.776  26.912  1.00  0.00    -0.084 Cl
ENDBRANCH  21  22
ENDBRANCH   8  21
ENDBRANCH   7   8
ENDBRANCH   5   7
ENDBRANCH   2   3
ENDBRANCH   1   2
BRANCH   1  29
ATOM     29  C   UNL A   1      39.665  23.462  26.902  1.00  0.00     0.118 C 
BRANCH  29  30
ATOM     30  N   UNL A   1      40.604  24.122  26.010  1.00  0.00    -0.352 N 
ATOM     31  C   UNL A   1      41.243  25.332  26.148  1.00  0.00     0.251 C 
ATOM     32  H   UNL A   1      40.815  23.629  25.184  1.00  0.00     0.163 HD
ATOM     33  O   UNL A   1      41.906  25.770  25.211  1.00  0.00    -0.269 OA
BRANCH  31  34
ATOM     34  C   UNL A   1      41.112  26.123  27.395  1.00  0.00     0.039 A 
ATOM     35  C   UNL A   1      42.018  27.162  27.623  1.00  0.00     0.014 A 
ATOM     36  C   UNL A   1      40.119  25.851  28.341  1.00  0.00     0.014 A 
ATOM     37  C   UNL A   1      41.887  27.965  28.760  1.00  0.00     0.010 A 
ATOM     38  C   UNL A   1      39.940  26.703  29.432  1.00  0.00     0.010 A 
ATOM     39  C   UNL A   1      40.821  27.770  29.656  1.00  0.00    -0.014 A 
BRANCH  39  40
ATOM     40  C   UNL A   1      40.616  28.698  30.801  1.00  0.00     0.031 A 
ATOM     41  C   UNL A   1      41.443  28.580  32.055  1.00  0.00     0.074 A 
ATOM     42  C   UNL A   1      39.650  29.637  30.723  1.00  0.00     0.049 A 
ATOM     43  N   UNL A   1      41.413  29.320  33.134  1.00  0.00    -0.248 NA
ATOM     44  C   UNL A   1      42.411  27.474  32.116  1.00  0.00     0.031 C 
ATOM     45  C   UNL A   1      38.732  29.811  29.594  1.00  0.00     0.029 A 
ATOM     46  N   UNL A   1      39.281  30.624  31.603  1.00  0.00    -0.354 N 
ATOM     47  C   UNL A   1      42.353  28.770  34.000  1.00  0.00     0.074 A 
ATOM     48  C   UNL A   1      42.891  27.598  33.345  1.00  0.00     0.031 C 
ATOM     49  C   UNL A   1      37.936  30.866  29.832  1.00  0.00     0.029 A 
ATOM     50  C   UNL A   1      38.260  31.422  31.141  1.00  0.00     0.049 A 
ATOM     51  H   UNL A   1      39.707  30.749  32.481  1.00  0.00     0.167 HD
ATOM     52  C   UNL A   1      42.750  29.215  35.218  1.00  0.00     0.037 A 
ATOM     53  C   UNL A   1      37.655  32.486  31.703  1.00  0.00     0.037 A 
ATOM     54  C   UNL A   1      42.220  30.392  35.861  1.00  0.00     0.049 A 
ATOM     55  C   UNL A   1      38.128  32.973  33.045  1.00  0.00     0.074 A 
ATOM     56  C   UNL A   1      42.596  30.956  37.070  1.00  0.00     0.029 A 
ATOM     57  N   UNL A   1      41.201  31.184  35.355  1.00  0.00    -0.354 N 
ATOM     58  N   UNL A   1      39.070  32.484  33.816  1.00  0.00    -0.248 NA
ATOM     59  C   UNL A   1      37.466  34.167  33.587  1.00  0.00     0.031 C 
ATOM     60  C   UNL A   1      41.771  32.059  37.316  1.00  0.00     0.029 A 
ATOM     61  C   UNL A   1      40.921  32.219  36.234  1.00  0.00     0.049 A 
ATOM     62  H   UNL A   1      40.743  31.034  34.497  1.00  0.00     0.167 HD
ATOM     63  C   UNL A   1      39.132  33.327  34.921  1.00  0.00     0.074 A 
ATOM     64  C   UNL A   1      38.147  34.367  34.706  1.00  0.00     0.031 C 
ATOM     65  C   UNL A   1      39.934  33.248  36.014  1.00  0.00     0.037 A 
BRANCH  52  66
ATOM     66  C   UNL A   1      43.817  28.429  35.936  1.00  0.00     0.058 A 
ATOM     67  C   UNL A   1      45.181  28.729  35.787  1.00  0.00     0.135 A 
ATOM     68  C   UNL A   1      43.470  27.391  36.817  1.00  0.00     0.135 A 
ATOM     69  F   UNL A   1      45.573  29.701  34.948  1.00  0.00    -0.206 F 
ATOM     70  C   UNL A   1      46.163  28.008  36.459  1.00  0.00     0.059 A 
ATOM     71  C   UNL A   1      44.435  26.678  37.525  1.00  0.00     0.059 A 
ATOM     72  F   UNL A   1      42.183  27.061  37.001  1.00  0.00    -0.206 F 
ATOM     73  C   UNL A   1      45.780  26.985  37.327  1.00  0.00     0.060 A 
BRANCH  73  74
ATOM     74  S   UNL A   1      47.068  26.066  38.197  1.00  0.00     0.124 S 
ATOM     75  O   UNL A   1      47.629  27.100  39.062  1.00  0.00    -0.237 OA
ATOM     76  O   UNL A   1      46.305  25.022  38.873  1.00  0.00    -0.237 OA
ATOM     77  O   UNL A   1      47.942  25.605  37.123  1.00  0.00    -0.744 OA
ENDBRANCH  73  74
ENDBRANCH  52  66
BRANCH  53  78
ATOM     78  C   UNL A   1      36.561  33.188  30.977  1.00  0.00     0.058 A 
ATOM     79  C   UNL A   1      35.221  33.033  31.361  1.00  0.00     0.135 A 
ATOM     80  C   UNL A   1      36.835  34.036  29.893  1.00  0.00     0.135 A 
ATOM     81  F   UNL A   1      34.906  32.229  32.388  1.00  0.00    -0.206 F 
ATOM     82  C   UNL A   1      34.189  33.676  30.686  1.00  0.00     0.059 A 
ATOM     83  C   UNL A   1      35.823  34.713  29.220  1.00  0.00     0.059 A 
ATOM     84  F   UNL A   1      38.102  34.234  29.497  1.00  0.00    -0.206 F 
ATOM     85  C   UNL A   1      34.501  34.517  29.617  1.00  0.00     0.060 A 
BRANCH  85  86
ATOM     86  S   UNL A   1      33.159  35.386  28.777  1.00  0.00     0.124 S 
ATOM     87  O   UNL A   1      33.895  36.338  27.953  1.00  0.00    -0.237 OA
ATOM     88  O   UNL A   1      32.492  34.302  28.061  1.00  0.00    -0.237 OA
ATOM     89  O   UNL A   1      32.394  35.963  29.878  1.00  0.00    -0.744 OA
ENDBRANCH  85  86
ENDBRANCH  53  78
BRANCH  65  90
ATOM     90  C   UNL A   1      39.800  34.340  37.042  1.00  0.00     0.058 A 
ATOM     91  C   UNL A   1      40.535  35.533  36.959  1.00  0.00     0.135 A 
ATOM     92  C   UNL A   1      38.922  34.188  38.128  1.00  0.00     0.135 A 
ATOM     93  F   UNL A   1      41.390  35.731  35.943  1.00  0.00    -0.206 F 
ATOM     94  C   UNL A   1      40.446  36.511  37.944  1.00  0.00     0.059 A 
ATOM     95  C   UNL A   1      38.792  35.168  39.106  1.00  0.00     0.059 A 
ATOM     96  F   UNL A   1      38.181  33.074  38.249  1.00  0.00    -0.206 F 
ATOM     97  C   UNL A   1      39.577  36.317  39.018  1.00  0.00     0.060 A 
BRANCH  97  98
ATOM     98  S   UNL A   1      39.486  37.583  40.301  1.00  0.00     0.124 S 
ATOM     99  O   UNL A   1      40.830  38.148  40.252  1.00  0.00    -0.237 OA
ATOM    100  O   UNL A   1      38.415  38.447  39.812  1.00  0.00    -0.237 OA
ATOM    101  O   UNL A   1      39.167  36.823  41.506  1.00  0.00    -0.744 OA
ENDBRANCH  97  98
ENDBRANCH  65  90
ENDBRANCH  39  40
ENDBRANCH  31  34
ENDBRANCH  29  30
ENDBRANCH   1  29
TORSDOF 18
ENDMDL
