MODEL 1
REMARK VINA RESULT:     -11.5      0.000      0.000
REMARK SMILES CN1C(=O)N(CC(=O)NCCCNC(=O)c2ccc(-c3c4nc(c(-c5c(F)cc(S(=O)(=O)[O-])cc5F)c5ccc([nH]5)c(-c5c(F)cc(S(=O)(=O)[O-])cc5F)c5nc(c(-c6c(F)cc(S(=O)(=O)[O-])cc6F)c6ccc3[nH]6)C=C5)C=C4)cc2)C(=O)C12CCCCC2
REMARK SMILES IDX 12 1 11 2 10 3 9 4 7 5 8 6 6 8 5 9 1 10 2 11 3 12 84 13 4 14
REMARK SMILES IDX 82 15 85 16 89 17 83 18 86 19 88 20 87 21 13 22 14 23 15 25
REMARK SMILES IDX 16 26 17 27 81 28 18 29 80 30 19 31 20 32 21 33 74 34 22 35
REMARK SMILES IDX 79 36 73 37 75 38 23 39 78 40 72 41 71 42 24 44 58 45 37 46
REMARK SMILES IDX 57 47 38 48 41 49 56 50 76 51 39 52 40 53 55 55 77 56 42 57
REMARK SMILES IDX 25 58 26 59 35 60 27 61 28 62 34 63 36 64 29 65 30 66 31 67
REMARK SMILES IDX 32 68 33 69 59 70 60 71 69 72 61 73 62 74 68 75 70 76 63 77
REMARK SMILES IDX 64 78 65 79 66 80 67 81 43 82 44 83 53 84 45 85 46 86 52 87
REMARK SMILES IDX 54 88 47 89 48 90 49 91 50 92 51 93
REMARK H PARENT 9 7 13 24 75 43 41 54
REMARK Flexibility Score: inf
ROOT
ATOM      1  C   UNL A   1      37.160  32.850  32.738  1.00  0.00     0.118 C 
ENDROOT
BRANCH   1   2
ATOM      2  C   UNL A   1      36.755  33.394  34.102  1.00  0.00     0.042 C 
BRANCH   2   3
ATOM      3  C   UNL A   1      35.282  33.764  34.250  1.00  0.00     0.117 C 
BRANCH   3   4
ATOM      4  N   UNL A   1      35.068  35.200  34.217  1.00  0.00    -0.354 N 
ATOM      5  C   UNL A   1      34.112  35.948  33.596  1.00  0.00     0.240 C 
ATOM      6  O   UNL A   1      34.009  37.124  33.965  1.00  0.00    -0.273 OA
ATOM      7  H   UNL A   1      35.725  35.722  34.731  1.00  0.00     0.163 HD
BRANCH   5   8
ATOM      8  C   UNL A   1      33.078  35.348  32.636  1.00  0.00     0.230 C 
BRANCH   8   9
ATOM      9  N   UNL A   1      33.492  35.292  31.251  1.00  0.00    -0.253 N 
ATOM     10  C   UNL A   1      33.911  36.845  28.041  1.00  0.00     0.150 C 
ATOM     11  N   UNL A   1      33.735  35.900  29.123  1.00  0.00    -0.313 N 
ATOM     12  C   UNL A   1      33.291  36.312  30.372  1.00  0.00     0.327 C 
ATOM     13  C   UNL A   1      34.319  34.555  29.146  1.00  0.00     0.124 C 
ATOM     14  O   UNL A   1      32.827  37.404  30.637  1.00  0.00    -0.248 OA
ATOM     15  C   UNL A   1      33.910  34.172  30.592  1.00  0.00     0.257 C 
ATOM     16  C   UNL A   1      33.732  33.618  28.085  1.00  0.00     0.039 C 
ATOM     17  C   UNL A   1      35.846  34.617  29.050  1.00  0.00     0.039 C 
ATOM     18  O   UNL A   1      34.004  33.059  31.094  1.00  0.00    -0.272 OA
ATOM     19  C   UNL A   1      34.442  32.261  28.002  1.00  0.00     0.003 C 
ATOM     20  C   UNL A   1      36.502  33.243  29.077  1.00  0.00     0.003 C 
ATOM     21  C   UNL A   1      35.964  32.381  27.946  1.00  0.00     0.000 C 
ENDBRANCH   8   9
ENDBRANCH   5   8
ENDBRANCH   3   4
ENDBRANCH   2   3
ENDBRANCH   1   2
BRANCH   1  22
ATOM     22  N   UNL A   1      36.423  31.643  32.391  1.00  0.00    -0.352 N 
ATOM     23  C   UNL A   1      36.727  30.558  31.602  1.00  0.00     0.251 C 
ATOM     24  H   UNL A   1      35.529  31.595  32.803  1.00  0.00     0.163 HD
ATOM     25  O   UNL A   1      35.801  29.802  31.303  1.00  0.00    -0.269 OA
BRANCH  23  26
ATOM     26  C   UNL A   1      38.094  30.262  31.088  1.00  0.00     0.039 A 
ATOM     27  C   UNL A   1      38.309  30.335  29.702  1.00  0.00     0.014 A 
ATOM     28  C   UNL A   1      39.136  29.803  31.894  1.00  0.00     0.014 A 
ATOM     29  C   UNL A   1      39.548  29.983  29.145  1.00  0.00     0.010 A 
ATOM     30  C   UNL A   1      40.400  29.543  31.351  1.00  0.00     0.010 A 
ATOM     31  C   UNL A   1      40.619  29.603  29.967  1.00  0.00    -0.014 A 
BRANCH  31  32
ATOM     32  C   UNL A   1      41.947  29.217  29.403  1.00  0.00     0.031 A 
ATOM     33  C   UNL A   1      43.056  30.237  29.296  1.00  0.00     0.074 A 
ATOM     34  C   UNL A   1      42.150  27.969  28.932  1.00  0.00     0.049 A 
ATOM     35  N   UNL A   1      44.236  30.125  28.737  1.00  0.00    -0.248 NA
ATOM     36  C   UNL A   1      42.792  31.567  29.867  1.00  0.00     0.031 C 
ATOM     37  C   UNL A   1      41.163  26.888  28.941  1.00  0.00     0.029 A 
ATOM     38  N   UNL A   1      43.254  27.403  28.341  1.00  0.00    -0.354 N 
ATOM     39  C   UNL A   1      44.838  31.373  28.861  1.00  0.00     0.074 A 
ATOM     40  C   UNL A   1      43.875  32.239  29.506  1.00  0.00     0.031 C 
ATOM     41  C   UNL A   1      41.711  25.786  28.403  1.00  0.00     0.029 A 
ATOM     42  C   UNL A   1      43.072  26.090  27.970  1.00  0.00     0.049 A 
ATOM     43  H   UNL A   1      44.097  27.890  28.196  1.00  0.00     0.167 HD
ATOM     44  C   UNL A   1      46.085  31.763  28.494  1.00  0.00     0.037 A 
ATOM     45  C   UNL A   1      43.899  25.228  27.345  1.00  0.00     0.037 A 
ATOM     46  C   UNL A   1      47.062  30.891  27.894  1.00  0.00     0.049 A 
ATOM     47  C   UNL A   1      45.282  25.675  26.957  1.00  0.00     0.074 A 
ATOM     48  C   UNL A   1      48.369  31.179  27.540  1.00  0.00     0.029 A 
ATOM     49  N   UNL A   1      46.843  29.563  27.564  1.00  0.00    -0.354 N 
ATOM     50  N   UNL A   1      45.844  26.849  27.117  1.00  0.00    -0.248 NA
ATOM     51  C   UNL A   1      46.147  24.678  26.309  1.00  0.00     0.031 C 
ATOM     52  C   UNL A   1      48.930  30.033  26.964  1.00  0.00     0.029 A 
ATOM     53  C   UNL A   1      47.987  29.020  27.000  1.00  0.00     0.049 A 
ATOM     54  H   UNL A   1      46.000  29.075  27.709  1.00  0.00     0.167 HD
ATOM     55  C   UNL A   1      47.137  26.723  26.619  1.00  0.00     0.074 A 
ATOM     56  C   UNL A   1      47.276  25.357  26.157  1.00  0.00     0.031 C 
ATOM     57  C   UNL A   1      48.119  27.655  26.553  1.00  0.00     0.037 A 
BRANCH  44  58
ATOM     58  C   UNL A   1      46.466  33.200  28.736  1.00  0.00     0.058 A 
ATOM     59  C   UNL A   1      47.059  33.615  29.940  1.00  0.00     0.135 A 
ATOM     60  C   UNL A   1      46.255  34.172  27.744  1.00  0.00     0.135 A 
ATOM     61  F   UNL A   1      47.274  32.731  30.927  1.00  0.00    -0.206 F 
ATOM     62  C   UNL A   1      47.392  34.946  30.166  1.00  0.00     0.059 A 
ATOM     63  C   UNL A   1      46.607  35.504  27.938  1.00  0.00     0.059 A 
ATOM     64  F   UNL A   1      45.696  33.831  26.572  1.00  0.00    -0.206 F 
ATOM     65  C   UNL A   1      47.157  35.885  29.161  1.00  0.00     0.060 A 
BRANCH  65  66
ATOM     66  S   UNL A   1      47.579  37.612  29.477  1.00  0.00     0.124 S 
ATOM     67  O   UNL A   1      46.831  38.290  28.422  1.00  0.00    -0.237 OA
ATOM     68  O   UNL A   1      47.082  37.814  30.833  1.00  0.00    -0.237 OA
ATOM     69  O   UNL A   1      49.030  37.638  29.333  1.00  0.00    -0.744 OA
ENDBRANCH  65  66
ENDBRANCH  44  58
BRANCH  45  70
ATOM     70  C   UNL A   1      43.444  23.839  27.067  1.00  0.00     0.058 A 
ATOM     71  C   UNL A   1      43.352  22.894  28.099  1.00  0.00     0.135 A 
ATOM     72  C   UNL A   1      43.070  23.436  25.776  1.00  0.00     0.135 A 
ATOM     73  F   UNL A   1      43.706  23.229  29.350  1.00  0.00    -0.206 F 
ATOM     74  C   UNL A   1      42.913  21.595  27.863  1.00  0.00     0.059 A 
ATOM     75  C   UNL A   1      42.606  22.150  25.518  1.00  0.00     0.059 A 
ATOM     76  F   UNL A   1      43.125  24.308  24.757  1.00  0.00    -0.206 F 
ATOM     77  C   UNL A   1      42.537  21.234  26.568  1.00  0.00     0.060 A 
BRANCH  77  78
ATOM     78  S   UNL A   1      41.902  19.568  26.282  1.00  0.00     0.124 S 
ATOM     79  O   UNL A   1      42.610  19.189  25.064  1.00  0.00    -0.237 OA
ATOM     80  O   UNL A   1      42.308  18.872  27.500  1.00  0.00    -0.237 OA
ATOM     81  O   UNL A   1      40.465  19.778  26.139  1.00  0.00    -0.744 OA
ENDBRANCH  77  78
ENDBRANCH  45  70
BRANCH  57  82
ATOM     82  C   UNL A   1      49.450  27.225  25.999  1.00  0.00     0.058 A 
ATOM     83  C   UNL A   1      50.454  26.692  26.819  1.00  0.00     0.135 A 
ATOM     84  C   UNL A   1      49.700  27.299  24.619  1.00  0.00     0.135 A 
ATOM     85  F   UNL A   1      50.269  26.604  28.146  1.00  0.00    -0.206 F 
ATOM     86  C   UNL A   1      51.671  26.267  26.294  1.00  0.00     0.059 A 
ATOM     87  C   UNL A   1      50.899  26.858  24.069  1.00  0.00     0.059 A 
ATOM     88  F   UNL A   1      48.767  27.792  23.788  1.00  0.00    -0.206 F 
ATOM     89  C   UNL A   1      51.884  26.354  24.917  1.00  0.00     0.060 A 
BRANCH  89  90
ATOM     90  S   UNL A   1      53.454  25.769  24.242  1.00  0.00     0.124 S 
ATOM     91  O   UNL A   1      53.554  24.442  24.842  1.00  0.00    -0.237 OA
ATOM     92  O   UNL A   1      53.207  25.798  22.803  1.00  0.00    -0.237 OA
ATOM     93  O   UNL A   1      54.418  26.751  24.726  1.00  0.00    -0.744 OA
ENDBRANCH  89  90
ENDBRANCH  57  82
ENDBRANCH  31  32
ENDBRANCH  23  26
ENDBRANCH   1  22
TORSDOF 14
ENDMDL
MODEL 2
REMARK VINA RESULT:     -11.3      4.218      5.799
REMARK SMILES CN1C(=O)N(CC(=O)NCCCNC(=O)c2ccc(-c3c4nc(c(-c5c(F)cc(S(=O)(=O)[O-])cc5F)c5ccc([nH]5)c(-c5c(F)cc(S(=O)(=O)[O-])cc5F)c5nc(c(-c6c(F)cc(S(=O)(=O)[O-])cc6F)c6ccc3[nH]6)C=C5)C=C4)cc2)C(=O)C12CCCCC2
REMARK SMILES IDX 12 1 11 2 10 3 9 4 7 5 8 6 6 8 5 9 1 10 2 11 3 12 84 13 4 14
REMARK SMILES IDX 82 15 85 16 89 17 83 18 86 19 88 20 87 21 13 22 14 23 15 25
REMARK SMILES IDX 16 26 17 27 81 28 18 29 80 30 19 31 20 32 21 33 74 34 22 35
REMARK SMILES IDX 79 36 73 37 75 38 23 39 78 40 72 41 71 42 24 44 58 45 37 46
REMARK SMILES IDX 57 47 38 48 41 49 56 50 76 51 39 52 40 53 55 55 77 56 42 57
REMARK SMILES IDX 25 58 26 59 35 60 27 61 28 62 34 63 36 64 29 65 30 66 31 67
REMARK SMILES IDX 32 68 33 69 59 70 60 71 69 72 61 73 62 74 68 75 70 76 63 77
REMARK SMILES IDX 64 78 65 79 66 80 67 81 43 82 44 83 53 84 45 85 46 86 52 87
REMARK SMILES IDX 54 88 47 89 48 90 49 91 50 92 51 93
REMARK H PARENT 9 7 13 24 75 43 41 54
REMARK Flexibility Score: inf
ROOT
ATOM      1  C   UNL A   1      34.869  29.726  27.600  1.00  0.00     0.118 C 
ENDROOT
BRANCH   1   2
ATOM      2  C   UNL A   1      33.637  30.257  26.877  1.00  0.00     0.042 C 
BRANCH   2   3
ATOM      3  C   UNL A   1      33.046  29.329  25.820  1.00  0.00     0.117 C 
BRANCH   3   4
ATOM      4  N   UNL A   1      33.919  29.176  24.670  1.00  0.00    -0.354 N 
ATOM      5  C   UNL A   1      33.701  28.604  23.451  1.00  0.00     0.240 C 
ATOM      6  O   UNL A   1      34.529  28.861  22.568  1.00  0.00    -0.273 OA
ATOM      7  H   UNL A   1      34.822  29.548  24.791  1.00  0.00     0.163 HD
BRANCH   5   8
ATOM      8  C   UNL A   1      32.415  27.846  23.104  1.00  0.00     0.230 C 
BRANCH   8   9
ATOM      9  N   UNL A   1      32.487  26.412  23.276  1.00  0.00    -0.253 N 
ATOM     10  C   UNL A   1      33.382  23.153  22.061  1.00  0.00     0.150 C 
ATOM     11  N   UNL A   1      32.774  24.264  22.761  1.00  0.00    -0.313 N 
ATOM     12  C   UNL A   1      32.897  25.564  22.291  1.00  0.00     0.327 C 
ATOM     13  C   UNL A   1      32.307  24.207  24.151  1.00  0.00     0.124 C 
ATOM     14  O   UNL A   1      33.323  25.889  21.200  1.00  0.00    -0.248 OA
ATOM     15  C   UNL A   1      31.954  25.708  24.316  1.00  0.00     0.257 C 
ATOM     16  C   UNL A   1      31.104  23.279  24.352  1.00  0.00     0.039 C 
ATOM     17  C   UNL A   1      33.453  23.847  25.101  1.00  0.00     0.039 C 
ATOM     18  O   UNL A   1      31.351  26.204  25.260  1.00  0.00    -0.272 OA
ATOM     19  C   UNL A   1      30.708  23.096  25.823  1.00  0.00     0.003 C 
ATOM     20  C   UNL A   1      33.021  23.782  26.560  1.00  0.00     0.003 C 
ATOM     21  C   UNL A   1      31.895  22.776  26.730  1.00  0.00     0.000 C 
ENDBRANCH   8   9
ENDBRANCH   5   8
ENDBRANCH   3   4
ENDBRANCH   2   3
ENDBRANCH   1   2
BRANCH   1  22
ATOM     22  N   UNL A   1      35.109  30.426  28.854  1.00  0.00    -0.352 N 
ATOM     23  C   UNL A   1      36.193  30.482  29.699  1.00  0.00     0.251 C 
ATOM     24  H   UNL A   1      34.343  30.965  29.157  1.00  0.00     0.163 HD
ATOM     25  O   UNL A   1      36.012  30.969  30.816  1.00  0.00    -0.269 OA
BRANCH  23  26
ATOM     26  C   UNL A   1      37.551  29.979  29.343  1.00  0.00     0.039 A 
ATOM     27  C   UNL A   1      38.419  29.625  30.388  1.00  0.00     0.014 A 
ATOM     28  C   UNL A   1      38.043  29.954  28.038  1.00  0.00     0.014 A 
ATOM     29  C   UNL A   1      39.739  29.229  30.125  1.00  0.00     0.010 A 
ATOM     30  C   UNL A   1      39.328  29.469  27.767  1.00  0.00     0.010 A 
ATOM     31  C   UNL A   1      40.205  29.124  28.806  1.00  0.00    -0.014 A 
BRANCH  31  32
ATOM     32  C   UNL A   1      41.606  28.712  28.495  1.00  0.00     0.031 A 
ATOM     33  C   UNL A   1      42.718  29.734  28.488  1.00  0.00     0.074 A 
ATOM     34  C   UNL A   1      41.882  27.434  28.162  1.00  0.00     0.049 A 
ATOM     35  N   UNL A   1      43.973  29.594  28.136  1.00  0.00    -0.248 NA
ATOM     36  C   UNL A   1      42.367  31.101  28.904  1.00  0.00     0.031 C 
ATOM     37  C   UNL A   1      40.906  26.345  28.097  1.00  0.00     0.029 A 
ATOM     38  N   UNL A   1      43.067  26.837  27.802  1.00  0.00    -0.354 N 
ATOM     39  C   UNL A   1      44.548  30.855  28.257  1.00  0.00     0.074 A 
ATOM     40  C   UNL A   1      43.494  31.757  28.670  1.00  0.00     0.031 C 
ATOM     41  C   UNL A   1      41.533  25.211  27.742  1.00  0.00     0.029 A 
ATOM     42  C   UNL A   1      42.946  25.498  27.510  1.00  0.00     0.049 A 
ATOM     43  H   UNL A   1      43.922  27.321  27.757  1.00  0.00     0.167 HD
ATOM     44  C   UNL A   1      45.837  31.230  28.066  1.00  0.00     0.037 A 
ATOM     45  C   UNL A   1      43.863  24.600  27.096  1.00  0.00     0.037 A 
ATOM     46  C   UNL A   1      46.898  30.327  27.701  1.00  0.00     0.049 A 
ATOM     47  C   UNL A   1      45.291  25.032  26.902  1.00  0.00     0.074 A 
ATOM     48  C   UNL A   1      48.246  30.603  27.540  1.00  0.00     0.029 A 
ATOM     49  N   UNL A   1      46.735  28.974  27.445  1.00  0.00    -0.354 N 
ATOM     50  N   UNL A   1      45.820  26.222  27.058  1.00  0.00    -0.248 NA
ATOM     51  C   UNL A   1      46.249  23.999  26.482  1.00  0.00     0.031 C 
ATOM     52  C   UNL A   1      48.892  29.423  27.153  1.00  0.00     0.029 A 
ATOM     53  C   UNL A   1      47.954  28.403  27.116  1.00  0.00     0.049 A 
ATOM     54  H   UNL A   1      45.879  28.489  27.490  1.00  0.00     0.167 HD
ATOM     55  C   UNL A   1      47.176  26.074  26.785  1.00  0.00     0.074 A 
ATOM     56  C   UNL A   1      47.387  24.678  26.460  1.00  0.00     0.031 C 
ATOM     57  C   UNL A   1      48.157  27.010  26.805  1.00  0.00     0.037 A 
BRANCH  44  58
ATOM     58  C   UNL A   1      46.175  32.686  28.253  1.00  0.00     0.058 A 
ATOM     59  C   UNL A   1      46.090  33.607  27.195  1.00  0.00     0.135 A 
ATOM     60  C   UNL A   1      46.569  33.173  29.511  1.00  0.00     0.135 A 
ATOM     61  F   UNL A   1      45.730  33.195  25.969  1.00  0.00    -0.206 F 
ATOM     62  C   UNL A   1      46.421  34.946  27.368  1.00  0.00     0.059 A 
ATOM     63  C   UNL A   1      46.876  34.515  29.713  1.00  0.00     0.059 A 
ATOM     64  F   UNL A   1      46.661  32.339  30.559  1.00  0.00    -0.206 F 
ATOM     65  C   UNL A   1      46.819  35.390  28.630  1.00  0.00     0.060 A 
BRANCH  65  66
ATOM     66  S   UNL A   1      47.261  37.129  28.833  1.00  0.00     0.124 S 
ATOM     67  O   UNL A   1      48.120  37.347  27.672  1.00  0.00    -0.237 OA
ATOM     68  O   UNL A   1      45.962  37.791  28.792  1.00  0.00    -0.237 OA
ATOM     69  O   UNL A   1      47.935  37.158  30.127  1.00  0.00    -0.744 OA
ENDBRANCH  65  66
ENDBRANCH  44  58
BRANCH  45  70
ATOM     70  C   UNL A   1      43.459  23.188  26.859  1.00  0.00     0.058 A 
ATOM     71  C   UNL A   1      43.397  22.667  25.558  1.00  0.00     0.135 A 
ATOM     72  C   UNL A   1      43.151  22.327  27.923  1.00  0.00     0.135 A 
ATOM     73  F   UNL A   1      43.674  23.454  24.507  1.00  0.00    -0.206 F 
ATOM     74  C   UNL A   1      43.038  21.345  25.317  1.00  0.00     0.059 A 
ATOM     75  C   UNL A   1      42.812  20.995  27.710  1.00  0.00     0.059 A 
ATOM     76  F   UNL A   1      43.210  22.772  29.188  1.00  0.00    -0.206 F 
ATOM     77  C   UNL A   1      42.752  20.514  26.402  1.00  0.00     0.060 A 
BRANCH  77  78
ATOM     78  S   UNL A   1      42.354  18.781  26.086  1.00  0.00     0.124 S 
ATOM     79  O   UNL A   1      40.943  18.864  25.726  1.00  0.00    -0.237 OA
ATOM     80  O   UNL A   1      43.273  18.449  25.000  1.00  0.00    -0.237 OA
ATOM     81  O   UNL A   1      42.645  18.134  27.362  1.00  0.00    -0.744 OA
ENDBRANCH  77  78
ENDBRANCH  45  70
BRANCH  57  82
ATOM     82  C   UNL A   1      49.559  26.555  26.507  1.00  0.00     0.058 A 
ATOM     83  C   UNL A   1      50.396  26.037  27.507  1.00  0.00     0.135 A 
ATOM     84  C   UNL A   1      50.051  26.589  25.192  1.00  0.00     0.135 A 
ATOM     85  F   UNL A   1      49.977  25.988  28.781  1.00  0.00    -0.206 F 
ATOM     86  C   UNL A   1      51.681  25.589  27.217  1.00  0.00     0.059 A 
ATOM     87  C   UNL A   1      51.323  26.123  24.875  1.00  0.00     0.059 A 
ATOM     88  F   UNL A   1      49.286  27.066  24.196  1.00  0.00    -0.206 F 
ATOM     89  C   UNL A   1      52.135  25.636  25.898  1.00  0.00     0.060 A 
BRANCH  89  90
ATOM     90  S   UNL A   1      53.793  25.020  25.528  1.00  0.00     0.124 S 
ATOM     91  O   UNL A   1      54.520  25.390  26.738  1.00  0.00    -0.237 OA
ATOM     92  O   UNL A   1      53.562  23.591  25.338  1.00  0.00    -0.237 OA
ATOM     93  O   UNL A   1      54.166  25.753  24.323  1.00  0.00    -0.744 OA
ENDBRANCH  89  90
ENDBRANCH  57  82
ENDBRANCH  31  32
ENDBRANCH  23  26
ENDBRANCH   1  22
TORSDOF 14
ENDMDL
MODEL 3
REMARK VINA RESULT:     -11.3      6.880     13.244
REMARK SMILES CN1C(=O)N(CC(=O)NCCCNC(=O)c2ccc(-c3c4nc(c(-c5c(F)cc(S(=O)(=O)[O-])cc5F)c5ccc([nH]5)c(-c5c(F)cc(S(=O)(=O)[O-])cc5F)c5nc(c(-c6c(F)cc(S(=O)(=O)[O-])cc6F)c6ccc3[nH]6)C=C5)C=C4)cc2)C(=O)C12CCCCC2
REMARK SMILES IDX 12 1 11 2 10 3 9 4 7 5 8 6 6 8 5 9 1 10 2 11 3 12 84 13 4 14
REMARK SMILES IDX 82 15 85 16 89 17 83 18 86 19 88 20 87 21 13 22 14 23 15 25
REMARK SMILES IDX 16 26 17 27 81 28 18 29 80 30 19 31 20 32 21 33 74 34 22 35
REMARK SMILES IDX 79 36 73 37 75 38 23 39 78 40 72 41 71 42 24 44 58 45 37 46
REMARK SMILES IDX 57 47 38 48 41 49 56 50 76 51 39 52 40 53 55 55 77 56 42 57
REMARK SMILES IDX 25 58 26 59 35 60 27 61 28 62 34 63 36 64 29 65 30 66 31 67
REMARK SMILES IDX 32 68 33 69 59 70 60 71 69 72 61 73 62 74 68 75 70 76 63 77
REMARK SMILES IDX 64 78 65 79 66 80 67 81 43 82 44 83 53 84 45 85 46 86 52 87
REMARK SMILES IDX 54 88 47 89 48 90 49 91 50 92 51 93
REMARK H PARENT 9 7 13 24 75 43 41 54
REMARK Flexibility Score: inf
ROOT
ATOM      1  C   UNL A   1      38.054  23.969  26.150  1.00  0.00     0.118 C 
ENDROOT
BRANCH   1   2
ATOM      2  C   UNL A   1      37.353  23.306  24.970  1.00  0.00     0.042 C 
BRANCH   2   3
ATOM      3  C   UNL A   1      36.790  21.914  25.239  1.00  0.00     0.117 C 
BRANCH   3   4
ATOM      4  N   UNL A   1      35.858  21.902  26.352  1.00  0.00    -0.354 N 
ATOM      5  C   UNL A   1      34.498  22.010  26.380  1.00  0.00     0.240 C 
ATOM      6  O   UNL A   1      33.944  21.691  27.439  1.00  0.00    -0.273 OA
ATOM      7  H   UNL A   1      36.278  21.799  27.236  1.00  0.00     0.163 HD
BRANCH   5   8
ATOM      8  C   UNL A   1      33.660  22.315  25.133  1.00  0.00     0.230 C 
BRANCH   8   9
ATOM      9  N   UNL A   1      32.935  23.565  25.176  1.00  0.00    -0.253 N 
ATOM     10  C   UNL A   1      29.931  25.422  25.825  1.00  0.00     0.150 C 
ATOM     11  N   UNL A   1      31.215  24.971  25.334  1.00  0.00    -0.313 N 
ATOM     12  C   UNL A   1      31.602  23.643  25.448  1.00  0.00     0.327 C 
ATOM     13  C   UNL A   1      32.338  25.862  25.020  1.00  0.00     0.124 C 
ATOM     14  O   UNL A   1      30.881  22.717  25.763  1.00  0.00    -0.248 OA
ATOM     15  C   UNL A   1      33.401  24.770  24.736  1.00  0.00     0.257 C 
ATOM     16  C   UNL A   1      32.073  26.773  23.816  1.00  0.00     0.039 C 
ATOM     17  C   UNL A   1      32.757  26.672  26.250  1.00  0.00     0.039 C 
ATOM     18  O   UNL A   1      34.512  24.957  24.257  1.00  0.00    -0.272 OA
ATOM     19  C   UNL A   1      33.178  27.811  23.576  1.00  0.00     0.003 C 
ATOM     20  C   UNL A   1      33.925  27.610  25.977  1.00  0.00     0.003 C 
ATOM     21  C   UNL A   1      33.582  28.562  24.844  1.00  0.00     0.000 C 
ENDBRANCH   8   9
ENDBRANCH   5   8
ENDBRANCH   3   4
ENDBRANCH   2   3
ENDBRANCH   1   2
BRANCH   1  22
ATOM     22  N   UNL A   1      39.498  23.790  26.097  1.00  0.00    -0.352 N 
ATOM     23  C   UNL A   1      40.547  24.507  26.624  1.00  0.00     0.251 C 
ATOM     24  H   UNL A   1      39.779  23.000  25.581  1.00  0.00     0.163 HD
ATOM     25  O   UNL A   1      41.675  24.245  26.204  1.00  0.00    -0.269 OA
BRANCH  23  26
ATOM     26  C   UNL A   1      40.390  25.576  27.651  1.00  0.00     0.039 A 
ATOM     27  C   UNL A   1      41.375  26.574  27.723  1.00  0.00     0.014 A 
ATOM     28  C   UNL A   1      39.384  25.572  28.617  1.00  0.00     0.014 A 
ATOM     29  C   UNL A   1      41.334  27.558  28.722  1.00  0.00     0.010 A 
ATOM     30  C   UNL A   1      39.288  26.606  29.556  1.00  0.00     0.010 A 
ATOM     31  C   UNL A   1      40.274  27.600  29.640  1.00  0.00    -0.014 A 
BRANCH  31  32
ATOM     32  C   UNL A   1      40.206  28.631  30.719  1.00  0.00     0.031 A 
ATOM     33  C   UNL A   1      41.101  28.526  31.931  1.00  0.00     0.074 A 
ATOM     34  C   UNL A   1      39.306  29.632  30.648  1.00  0.00     0.049 A 
ATOM     35  N   UNL A   1      41.113  29.255  33.020  1.00  0.00    -0.248 NA
ATOM     36  C   UNL A   1      42.094  27.440  31.932  1.00  0.00     0.031 C 
ATOM     37  C   UNL A   1      38.357  29.843  29.553  1.00  0.00     0.029 A 
ATOM     38  N   UNL A   1      39.032  30.656  31.523  1.00  0.00    -0.354 N 
ATOM     39  C   UNL A   1      42.087  28.699  33.843  1.00  0.00     0.074 A 
ATOM     40  C   UNL A   1      42.611  27.543  33.148  1.00  0.00     0.031 C 
ATOM     41  C   UNL A   1      37.622  30.938  29.811  1.00  0.00     0.029 A 
ATOM     42  C   UNL A   1      38.015  31.484  31.108  1.00  0.00     0.049 A 
ATOM     43  H   UNL A   1      39.520  30.787  32.368  1.00  0.00     0.167 HD
ATOM     44  C   UNL A   1      42.525  29.119  35.056  1.00  0.00     0.037 A 
ATOM     45  C   UNL A   1      37.452  32.555  31.702  1.00  0.00     0.037 A 
ATOM     46  C   UNL A   1      42.039  30.295  35.730  1.00  0.00     0.049 A 
ATOM     47  C   UNL A   1      37.960  33.013  33.042  1.00  0.00     0.074 A 
ATOM     48  C   UNL A   1      42.461  30.833  36.935  1.00  0.00     0.029 A 
ATOM     49  N   UNL A   1      41.028  31.119  35.259  1.00  0.00    -0.354 N 
ATOM     50  N   UNL A   1      38.906  32.494  33.785  1.00  0.00    -0.248 NA
ATOM     51  C   UNL A   1      37.328  34.208  33.621  1.00  0.00     0.031 C 
ATOM     52  C   UNL A   1      41.681  31.963  37.208  1.00  0.00     0.029 A 
ATOM     53  C   UNL A   1      40.804  32.154  36.152  1.00  0.00     0.049 A 
ATOM     54  H   UNL A   1      40.541  30.988  34.413  1.00  0.00     0.167 HD
ATOM     55  C   UNL A   1      39.004  33.315  34.905  1.00  0.00     0.074 A 
ATOM     56  C   UNL A   1      38.024  34.368  34.738  1.00  0.00     0.031 C 
ATOM     57  C   UNL A   1      39.834  33.205  35.972  1.00  0.00     0.037 A 
BRANCH  44  58
ATOM     58  C   UNL A   1      43.591  28.299  35.735  1.00  0.00     0.058 A 
ATOM     59  C   UNL A   1      44.958  28.528  35.506  1.00  0.00     0.135 A 
ATOM     60  C   UNL A   1      43.243  27.284  36.643  1.00  0.00     0.135 A 
ATOM     61  F   UNL A   1      45.348  29.477  34.640  1.00  0.00    -0.206 F 
ATOM     62  C   UNL A   1      45.938  27.756  36.120  1.00  0.00     0.059 A 
ATOM     63  C   UNL A   1      44.208  26.520  37.292  1.00  0.00     0.059 A 
ATOM     64  F   UNL A   1      41.952  27.026  36.905  1.00  0.00    -0.206 F 
ATOM     65  C   UNL A   1      45.553  26.750  37.008  1.00  0.00     0.060 A 
BRANCH  65  66
ATOM     66  S   UNL A   1      46.837  25.746  37.784  1.00  0.00     0.124 S 
ATOM     67  O   UNL A   1      46.605  24.446  37.160  1.00  0.00    -0.237 OA
ATOM     68  O   UNL A   1      48.060  26.431  37.380  1.00  0.00    -0.237 OA
ATOM     69  O   UNL A   1      46.517  25.825  39.205  1.00  0.00    -0.744 OA
ENDBRANCH  65  66
ENDBRANCH  44  58
BRANCH  45  70
ATOM     70  C   UNL A   1      36.353  33.287  31.016  1.00  0.00     0.058 A 
ATOM     71  C   UNL A   1      35.050  33.279  31.537  1.00  0.00     0.135 A 
ATOM     72  C   UNL A   1      36.584  34.026  29.846  1.00  0.00     0.135 A 
ATOM     73  F   UNL A   1      34.777  32.579  32.649  1.00  0.00    -0.206 F 
ATOM     74  C   UNL A   1      34.013  33.970  30.920  1.00  0.00     0.059 A 
ATOM     75  C   UNL A   1      35.569  34.745  29.224  1.00  0.00     0.059 A 
ATOM     76  F   UNL A   1      37.817  34.078  29.317  1.00  0.00    -0.206 F 
ATOM     77  C   UNL A   1      34.284  34.706  29.765  1.00  0.00     0.060 A 
BRANCH  77  78
ATOM     78  S   UNL A   1      32.949  35.657  29.009  1.00  0.00     0.124 S 
ATOM     79  O   UNL A   1      32.130  35.989  30.170  1.00  0.00    -0.237 OA
ATOM     80  O   UNL A   1      33.672  36.769  28.398  1.00  0.00    -0.237 OA
ATOM     81  O   UNL A   1      32.357  34.712  28.066  1.00  0.00    -0.744 OA
ENDBRANCH  77  78
ENDBRANCH  45  70
BRANCH  57  82
ATOM     82  C   UNL A   1      39.752  34.272  37.028  1.00  0.00     0.058 A 
ATOM     83  C   UNL A   1      40.491  35.460  36.938  1.00  0.00     0.135 A 
ATOM     84  C   UNL A   1      38.879  34.124  38.119  1.00  0.00     0.135 A 
ATOM     85  F   UNL A   1      41.345  35.650  35.919  1.00  0.00    -0.206 F 
ATOM     86  C   UNL A   1      40.386  36.457  37.904  1.00  0.00     0.059 A 
ATOM     87  C   UNL A   1      38.740  35.117  39.083  1.00  0.00     0.059 A 
ATOM     88  F   UNL A   1      38.140  33.010  38.247  1.00  0.00    -0.206 F 
ATOM     89  C   UNL A   1      39.507  36.276  38.973  1.00  0.00     0.060 A 
BRANCH  89  90
ATOM     90  S   UNL A   1      39.354  37.590  40.203  1.00  0.00     0.124 S 
ATOM     91  O   UNL A   1      40.683  38.188  40.159  1.00  0.00    -0.237 OA
ATOM     92  O   UNL A   1      38.272  38.405  39.657  1.00  0.00    -0.237 OA
ATOM     93  O   UNL A   1      39.029  36.870  41.430  1.00  0.00    -0.744 OA
ENDBRANCH  89  90
ENDBRANCH  57  82
ENDBRANCH  31  32
ENDBRANCH  23  26
ENDBRANCH   1  22
TORSDOF 14
ENDMDL
