MODEL 1
REMARK VINA RESULT:     -11.9      0.000      0.000
REMARK SMILES C=C(C)COc1ccc2c(C)c(CC(=O)NCCCNC(=O)c3ccc(-c4c5nc(c(-c6c(F)cc(S(=O)(=O)[O-])cc6F)c6ccc([nH]6)c(-c6c(F)cc(S(=O)(=O)[O-])cc6F)c6nc(c(-c7c(F)cc(S(=O)(=O)[O-])cc7F)c7ccc4[nH]7)C=C6)C=C5)cc3)c(=O)oc2c1
REMARK SMILES IDX 17 1 16 2 14 3 15 4 13 6 12 7 6 8 7 9 93 10 8 11 92 12 9 13
REMARK SMILES IDX 91 14 10 15 89 16 11 17 90 18 5 19 4 20 2 21 1 22 3 23 18 24
REMARK SMILES IDX 19 25 20 26 21 27 22 29 23 30 24 31 88 32 25 33 87 34 26 35
REMARK SMILES IDX 27 36 28 37 81 38 29 39 86 40 80 41 82 42 30 43 85 44 79 45
REMARK SMILES IDX 78 46 31 48 65 49 44 50 64 51 45 52 48 53 63 54 83 55 46 56
REMARK SMILES IDX 47 57 62 59 84 60 49 61 32 62 33 63 42 64 34 65 35 66 41 67
REMARK SMILES IDX 43 68 36 69 37 70 38 71 39 72 40 73 66 74 67 75 76 76 68 77
REMARK SMILES IDX 69 78 75 79 77 80 70 81 71 82 72 83 73 84 74 85 50 86 51 87
REMARK SMILES IDX 60 88 52 89 53 90 59 91 61 92 54 93 55 94 56 95 57 96 58 97
REMARK H PARENT 16 5 20 28 82 47 48 58
REMARK Flexibility Score: inf
ROOT
ATOM      1  C   UNL A   1      37.217  23.178  25.855  1.00  0.00     0.117 C 
ENDROOT
BRANCH   1   2
ATOM      2  N   UNL A   1      37.147  23.152  24.406  1.00  0.00    -0.356 N 
ATOM      3  C   UNL A   1      36.085  22.929  23.583  1.00  0.00     0.224 C 
ATOM      4  O   UNL A   1      36.277  22.976  22.365  1.00  0.00    -0.275 OA
ATOM      5  H   UNL A   1      38.001  23.322  23.945  1.00  0.00     0.163 HD
BRANCH   3   6
ATOM      6  C   UNL A   1      34.695  22.660  24.148  1.00  0.00     0.143 C 
BRANCH   6   7
ATOM      7  C   UNL A   1      33.701  23.740  23.796  1.00  0.00     0.051 A 
ATOM      8  C   UNL A   1      30.880  27.783  22.690  1.00  0.00     0.123 A 
ATOM      9  C   UNL A   1      31.468  28.078  23.916  1.00  0.00     0.047 A 
ATOM     10  C   UNL A   1      31.190  26.590  22.052  1.00  0.00     0.094 A 
ATOM     11  C   UNL A   1      32.326  27.150  24.527  1.00  0.00     0.016 A 
ATOM     12  C   UNL A   1      32.010  25.666  22.688  1.00  0.00     0.142 A 
ATOM     13  C   UNL A   1      32.601  25.912  23.923  1.00  0.00     0.021 A 
ATOM     14  O   UNL A   1      32.186  24.456  22.009  1.00  0.00    -0.422 OA
ATOM     15  C   UNL A   1      33.519  24.896  24.476  1.00  0.00    -0.029 A 
ATOM     16  C   UNL A   1      32.887  23.424  22.589  1.00  0.00     0.340 A 
ATOM     17  C   UNL A   1      34.234  25.233  25.759  1.00  0.00     0.046 C 
ATOM     18  O   UNL A   1      32.875  22.302  22.092  1.00  0.00    -0.246 OA
BRANCH   8  19
ATOM     19  O   UNL A   1      30.071  28.719  22.108  1.00  0.00    -0.489 OA
BRANCH  19  20
ATOM     20  C   UNL A   1      29.198  29.369  23.050  1.00  0.00     0.260 C 
BRANCH  20  21
ATOM     21  C   UNL A   1      28.472  30.560  22.459  1.00  0.00    -0.043 C 
ATOM     22  C   UNL A   1      28.388  30.763  21.133  1.00  0.00     0.011 C 
ATOM     23  C   UNL A   1      27.805  31.480  23.442  1.00  0.00     0.042 C 
ENDBRANCH  20  21
ENDBRANCH  19  20
ENDBRANCH   8  19
ENDBRANCH   6   7
ENDBRANCH   3   6
ENDBRANCH   1   2
BRANCH   1  24
ATOM     24  C   UNL A   1      38.268  24.161  26.366  1.00  0.00     0.042 C 
BRANCH  24  25
ATOM     25  C   UNL A   1      39.554  23.500  26.857  1.00  0.00     0.118 C 
BRANCH  25  26
ATOM     26  N   UNL A   1      40.712  23.852  26.046  1.00  0.00    -0.352 N 
ATOM     27  C   UNL A   1      41.544  24.939  26.119  1.00  0.00     0.251 C 
ATOM     28  H   UNL A   1      40.933  23.207  25.336  1.00  0.00     0.163 HD
ATOM     29  O   UNL A   1      42.354  25.137  25.209  1.00  0.00    -0.269 OA
BRANCH  27  30
ATOM     30  C   UNL A   1      41.472  25.877  27.258  1.00  0.00     0.039 A 
ATOM     31  C   UNL A   1      42.015  27.158  27.118  1.00  0.00     0.014 A 
ATOM     32  C   UNL A   1      40.900  25.492  28.473  1.00  0.00     0.014 A 
ATOM     33  C   UNL A   1      41.929  28.069  28.173  1.00  0.00     0.010 A 
ATOM     34  C   UNL A   1      40.746  26.425  29.495  1.00  0.00     0.010 A 
ATOM     35  C   UNL A   1      41.262  27.721  29.359  1.00  0.00    -0.014 A 
BRANCH  35  36
ATOM     36  C   UNL A   1      41.094  28.696  30.469  1.00  0.00     0.031 A 
ATOM     37  C   UNL A   1      41.999  28.638  31.670  1.00  0.00     0.074 A 
ATOM     38  C   UNL A   1      40.086  29.588  30.425  1.00  0.00     0.049 A 
ATOM     39  N   UNL A   1      41.962  29.347  32.769  1.00  0.00    -0.248 NA
ATOM     40  C   UNL A   1      43.071  27.631  31.641  1.00  0.00     0.031 C 
ATOM     41  C   UNL A   1      39.122  29.723  29.331  1.00  0.00     0.029 A 
ATOM     42  N   UNL A   1      39.698  30.547  31.328  1.00  0.00    -0.354 N 
ATOM     43  C   UNL A   1      42.995  28.867  33.565  1.00  0.00     0.074 A 
ATOM     44  C   UNL A   1      43.598  27.763  32.849  1.00  0.00     0.031 C 
ATOM     45  C   UNL A   1      38.275  30.726  29.611  1.00  0.00     0.029 A 
ATOM     46  C   UNL A   1      38.604  31.275  30.923  1.00  0.00     0.049 A 
ATOM     47  H   UNL A   1      40.160  30.699  32.183  1.00  0.00     0.167 HD
ATOM     48  C   UNL A   1      43.419  29.317  34.771  1.00  0.00     0.037 A 
ATOM     49  C   UNL A   1      37.937  32.269  31.542  1.00  0.00     0.037 A 
ATOM     50  C   UNL A   1      42.815  30.420  35.475  1.00  0.00     0.049 A 
ATOM     51  C   UNL A   1      38.399  32.729  32.898  1.00  0.00     0.074 A 
ATOM     52  C   UNL A   1      43.189  30.978  36.684  1.00  0.00     0.029 A 
ATOM     53  N   UNL A   1      41.704  31.128  35.035  1.00  0.00    -0.354 N 
ATOM     54  N   UNL A   1      39.408  32.297  33.617  1.00  0.00    -0.248 NA
ATOM     55  C   UNL A   1      37.633  33.814  33.526  1.00  0.00     0.031 C 
ATOM     56  C   UNL A   1      42.275  31.991  37.000  1.00  0.00     0.029 A 
ATOM     57  C   UNL A   1      41.365  32.102  35.960  1.00  0.00     0.049 A 
ATOM     58  H   UNL A   1      41.227  30.961  34.190  1.00  0.00     0.167 HD
ATOM     59  C   UNL A   1      39.420  33.079  34.766  1.00  0.00     0.074 A 
ATOM     60  C   UNL A   1      38.319  34.014  34.644  1.00  0.00     0.031 C 
ATOM     61  C   UNL A   1      40.269  33.032  35.823  1.00  0.00     0.037 A 
BRANCH  48  62
ATOM     62  C   UNL A   1      44.588  28.606  35.401  1.00  0.00     0.058 A 
ATOM     63  C   UNL A   1      44.407  27.528  36.284  1.00  0.00     0.135 A 
ATOM     64  C   UNL A   1      45.905  29.008  35.126  1.00  0.00     0.135 A 
ATOM     65  F   UNL A   1      43.170  27.106  36.592  1.00  0.00    -0.206 F 
ATOM     66  C   UNL A   1      45.484  26.914  36.916  1.00  0.00     0.059 A 
ATOM     67  C   UNL A   1      47.000  28.384  35.720  1.00  0.00     0.059 A 
ATOM     68  F   UNL A   1      46.141  30.026  34.285  1.00  0.00    -0.206 F 
ATOM     69  C   UNL A   1      46.777  27.355  36.634  1.00  0.00     0.060 A 
BRANCH  69  70
ATOM     70  S   UNL A   1      48.160  26.576  37.492  1.00  0.00     0.124 S 
ATOM     71  O   UNL A   1      49.118  26.406  36.405  1.00  0.00    -0.237 OA
ATOM     72  O   UNL A   1      48.510  27.577  38.494  1.00  0.00    -0.237 OA
ATOM     73  O   UNL A   1      47.582  25.342  38.017  1.00  0.00    -0.744 OA
ENDBRANCH  69  70
ENDBRANCH  48  62
BRANCH  49  74
ATOM     74  C   UNL A   1      36.789  32.924  30.860  1.00  0.00     0.058 A 
ATOM     75  C   UNL A   1      35.470  32.610  31.222  1.00  0.00     0.135 A 
ATOM     76  C   UNL A   1      36.980  33.898  29.868  1.00  0.00     0.135 A 
ATOM     77  F   UNL A   1      35.236  31.681  32.161  1.00  0.00    -0.206 F 
ATOM     78  C   UNL A   1      34.381  33.232  30.621  1.00  0.00     0.059 A 
ATOM     79  C   UNL A   1      35.908  34.552  29.270  1.00  0.00     0.059 A 
ATOM     80  F   UNL A   1      38.222  34.244  29.496  1.00  0.00    -0.206 F 
ATOM     81  C   UNL A   1      34.611  34.209  29.650  1.00  0.00     0.060 A 
BRANCH  81  82
ATOM     82  S   UNL A   1      33.190  35.058  28.928  1.00  0.00     0.124 S 
ATOM     83  O   UNL A   1      33.821  36.227  28.326  1.00  0.00    -0.237 OA
ATOM     84  O   UNL A   1      32.678  34.058  27.997  1.00  0.00    -0.237 OA
ATOM     85  O   UNL A   1      32.336  35.325  30.082  1.00  0.00    -0.744 OA
ENDBRANCH  81  82
ENDBRANCH  49  74
BRANCH  61  86
ATOM     86  C   UNL A   1      40.073  34.046  36.918  1.00  0.00     0.058 A 
ATOM     87  C   UNL A   1      40.681  35.310  36.878  1.00  0.00     0.135 A 
ATOM     88  C   UNL A   1      39.215  33.766  37.995  1.00  0.00     0.135 A 
ATOM     89  F   UNL A   1      41.517  35.627  35.877  1.00  0.00    -0.206 F 
ATOM     90  C   UNL A   1      40.463  36.252  37.879  1.00  0.00     0.059 A 
ATOM     91  C   UNL A   1      38.959  34.704  38.990  1.00  0.00     0.059 A 
ATOM     92  F   UNL A   1      38.600  32.575  38.077  1.00  0.00    -0.206 F 
ATOM     93  C   UNL A   1      39.596  35.942  38.928  1.00  0.00     0.060 A 
BRANCH  93  94
ATOM     94  S   UNL A   1      39.289  37.191  40.194  1.00  0.00     0.124 S 
ATOM     95  O   UNL A   1      40.645  37.552  40.589  1.00  0.00    -0.237 OA
ATOM     96  O   UNL A   1      38.551  38.210  39.454  1.00  0.00    -0.237 OA
ATOM     97  O   UNL A   1      38.513  36.472  41.201  1.00  0.00    -0.744 OA
ENDBRANCH  93  94
ENDBRANCH  61  86
ENDBRANCH  35  36
ENDBRANCH  27  30
ENDBRANCH  25  26
ENDBRANCH  24  25
ENDBRANCH   1  24
TORSDOF 17
ENDMDL
MODEL 2
REMARK VINA RESULT:     -11.9      6.120     10.858
REMARK SMILES C=C(C)COc1ccc2c(C)c(CC(=O)NCCCNC(=O)c3ccc(-c4c5nc(c(-c6c(F)cc(S(=O)(=O)[O-])cc6F)c6ccc([nH]6)c(-c6c(F)cc(S(=O)(=O)[O-])cc6F)c6nc(c(-c7c(F)cc(S(=O)(=O)[O-])cc7F)c7ccc4[nH]7)C=C6)C=C5)cc3)c(=O)oc2c1
REMARK SMILES IDX 17 1 16 2 14 3 15 4 13 6 12 7 6 8 7 9 93 10 8 11 92 12 9 13
REMARK SMILES IDX 91 14 10 15 89 16 11 17 90 18 5 19 4 20 2 21 1 22 3 23 18 24
REMARK SMILES IDX 19 25 20 26 21 27 22 29 23 30 24 31 88 32 25 33 87 34 26 35
REMARK SMILES IDX 27 36 28 37 81 38 29 39 86 40 80 41 82 42 30 43 85 44 79 45
REMARK SMILES IDX 78 46 31 48 65 49 44 50 64 51 45 52 48 53 63 54 83 55 46 56
REMARK SMILES IDX 47 57 62 59 84 60 49 61 32 62 33 63 42 64 34 65 35 66 41 67
REMARK SMILES IDX 43 68 36 69 37 70 38 71 39 72 40 73 66 74 67 75 76 76 68 77
REMARK SMILES IDX 69 78 75 79 77 80 70 81 71 82 72 83 73 84 74 85 50 86 51 87
REMARK SMILES IDX 60 88 52 89 53 90 59 91 61 92 54 93 55 94 56 95 57 96 58 97
REMARK H PARENT 16 5 20 28 82 47 48 58
REMARK Flexibility Score: inf
ROOT
ATOM      1  C   UNL A   1      36.971  21.102  25.033  1.00  0.00     0.117 C 
ENDROOT
BRANCH   1   2
ATOM      2  N   UNL A   1      35.623  20.561  25.048  1.00  0.00    -0.356 N 
ATOM      3  C   UNL A   1      34.560  20.879  25.839  1.00  0.00     0.224 C 
ATOM      4  O   UNL A   1      33.498  20.283  25.645  1.00  0.00    -0.275 OA
ATOM      5  H   UNL A   1      35.451  19.856  24.383  1.00  0.00     0.163 HD
BRANCH   3   6
ATOM      6  C   UNL A   1      34.671  21.958  26.909  1.00  0.00     0.143 C 
BRANCH   6   7
ATOM      7  C   UNL A   1      33.940  23.226  26.540  1.00  0.00     0.051 A 
ATOM      8  C   UNL A   1      31.674  27.337  24.675  1.00  0.00     0.123 A 
ATOM      9  C   UNL A   1      32.986  27.411  24.218  1.00  0.00     0.047 A 
ATOM     10  C   UNL A   1      31.272  26.243  25.426  1.00  0.00     0.094 A 
ATOM     11  C   UNL A   1      33.908  26.410  24.563  1.00  0.00     0.016 A 
ATOM     12  C   UNL A   1      32.206  25.280  25.790  1.00  0.00     0.142 A 
ATOM     13  C   UNL A   1      33.532  25.327  25.374  1.00  0.00     0.021 A 
ATOM     14  O   UNL A   1      31.725  24.268  26.626  1.00  0.00    -0.422 OA
ATOM     15  C   UNL A   1      34.425  24.213  25.752  1.00  0.00    -0.029 A 
ATOM     16  C   UNL A   1      32.581  23.321  27.141  1.00  0.00     0.340 A 
ATOM     17  C   UNL A   1      35.825  24.229  25.196  1.00  0.00     0.046 C 
ATOM     18  O   UNL A   1      32.209  22.557  28.027  1.00  0.00    -0.246 OA
BRANCH   8  19
ATOM     19  O   UNL A   1      30.794  28.314  24.299  1.00  0.00    -0.489 OA
BRANCH  19  20
ATOM     20  C   UNL A   1      30.089  27.998  23.084  1.00  0.00     0.260 C 
BRANCH  20  21
ATOM     21  C   UNL A   1      28.586  27.950  23.267  1.00  0.00    -0.043 C 
ATOM     22  C   UNL A   1      27.782  28.953  22.874  1.00  0.00     0.011 C 
ATOM     23  C   UNL A   1      28.036  26.690  23.874  1.00  0.00     0.042 C 
ENDBRANCH  20  21
ENDBRANCH  19  20
ENDBRANCH   8  19
ENDBRANCH   6   7
ENDBRANCH   3   6
ENDBRANCH   1   2
BRANCH   1  24
ATOM     24  C   UNL A   1      38.032  20.012  25.168  1.00  0.00     0.042 C 
BRANCH  24  25
ATOM     25  C   UNL A   1      39.270  20.442  25.952  1.00  0.00     0.118 C 
BRANCH  25  26
ATOM     26  N   UNL A   1      40.287  19.400  26.013  1.00  0.00    -0.352 N 
ATOM     27  C   UNL A   1      41.651  19.499  26.110  1.00  0.00     0.251 C 
ATOM     28  H   UNL A   1      39.939  18.479  25.981  1.00  0.00     0.163 HD
ATOM     29  O   UNL A   1      42.339  18.487  25.954  1.00  0.00    -0.269 OA
BRANCH  27  30
ATOM     30  C   UNL A   1      42.300  20.798  26.384  1.00  0.00     0.039 A 
ATOM     31  C   UNL A   1      42.710  21.591  25.308  1.00  0.00     0.014 A 
ATOM     32  C   UNL A   1      42.535  21.224  27.693  1.00  0.00     0.014 A 
ATOM     33  C   UNL A   1      43.297  22.836  25.545  1.00  0.00     0.010 A 
ATOM     34  C   UNL A   1      43.048  22.498  27.927  1.00  0.00     0.010 A 
ATOM     35  C   UNL A   1      43.439  23.315  26.857  1.00  0.00    -0.014 A 
BRANCH  35  36
ATOM     36  C   UNL A   1      43.995  24.665  27.134  1.00  0.00     0.031 A 
ATOM     37  C   UNL A   1      43.086  25.787  27.557  1.00  0.00     0.074 A 
ATOM     38  C   UNL A   1      45.308  24.898  26.940  1.00  0.00     0.049 A 
ATOM     39  N   UNL A   1      43.368  27.047  27.767  1.00  0.00    -0.248 NA
ATOM     40  C   UNL A   1      41.665  25.451  27.740  1.00  0.00     0.031 C 
ATOM     41  C   UNL A   1      46.288  23.901  26.502  1.00  0.00     0.029 A 
ATOM     42  N   UNL A   1      46.045  26.047  27.080  1.00  0.00    -0.354 N 
ATOM     43  C   UNL A   1      42.163  27.656  28.098  1.00  0.00     0.074 A 
ATOM     44  C   UNL A   1      41.138  26.640  27.995  1.00  0.00     0.031 C 
ATOM     45  C   UNL A   1      47.500  24.474  26.439  1.00  0.00     0.029 A 
ATOM     46  C   UNL A   1      47.379  25.887  26.786  1.00  0.00     0.049 A 
ATOM     47  H   UNL A   1      45.656  26.905  27.364  1.00  0.00     0.167 HD
ATOM     48  C   UNL A   1      41.933  28.937  28.475  1.00  0.00     0.037 A 
ATOM     49  C   UNL A   1      48.389  26.777  26.790  1.00  0.00     0.037 A 
ATOM     50  C   UNL A   1      42.961  29.942  28.579  1.00  0.00     0.049 A 
ATOM     51  C   UNL A   1      48.107  28.205  27.173  1.00  0.00     0.074 A 
ATOM     52  C   UNL A   1      42.840  31.259  28.985  1.00  0.00     0.029 A 
ATOM     53  N   UNL A   1      44.299  29.741  28.266  1.00  0.00    -0.354 N 
ATOM     54  N   UNL A   1      46.970  28.754  27.530  1.00  0.00    -0.248 NA
ATOM     55  C   UNL A   1      49.245  29.134  27.157  1.00  0.00     0.031 C 
ATOM     56  C   UNL A   1      44.096  31.868  28.870  1.00  0.00     0.029 A 
ATOM     57  C   UNL A   1      45.010  30.916  28.447  1.00  0.00     0.049 A 
ATOM     58  H   UNL A   1      44.685  28.890  27.959  1.00  0.00     0.167 HD
ATOM     59  C   UNL A   1      47.261  30.084  27.814  1.00  0.00     0.074 A 
ATOM     60  C   UNL A   1      48.684  30.254  27.592  1.00  0.00     0.031 C 
ATOM     61  C   UNL A   1      46.429  31.071  28.229  1.00  0.00     0.037 A 
BRANCH  48  62
ATOM     62  C   UNL A   1      40.510  29.317  28.794  1.00  0.00     0.058 A 
ATOM     63  C   UNL A   1      40.075  29.504  30.116  1.00  0.00     0.135 A 
ATOM     64  C   UNL A   1      39.567  29.491  27.768  1.00  0.00     0.135 A 
ATOM     65  F   UNL A   1      40.929  29.342  31.139  1.00  0.00    -0.206 F 
ATOM     66  C   UNL A   1      38.746  29.791  30.413  1.00  0.00     0.059 A 
ATOM     67  C   UNL A   1      38.240  29.814  28.040  1.00  0.00     0.059 A 
ATOM     68  F   UNL A   1      39.926  29.333  26.484  1.00  0.00    -0.206 F 
ATOM     69  C   UNL A   1      37.834  29.936  29.368  1.00  0.00     0.060 A 
BRANCH  69  70
ATOM     70  S   UNL A   1      36.106  30.267  29.772  1.00  0.00     0.124 S 
ATOM     71  O   UNL A   1      36.097  31.725  29.829  1.00  0.00    -0.237 OA
ATOM     72  O   UNL A   1      35.401  29.673  28.641  1.00  0.00    -0.237 OA
ATOM     73  O   UNL A   1      35.919  29.588  31.050  1.00  0.00    -0.744 OA
ENDBRANCH  69  70
ENDBRANCH  48  62
BRANCH  49  74
ATOM     74  C   UNL A   1      49.769  26.331  26.461  1.00  0.00     0.058 A 
ATOM     75  C   UNL A   1      50.634  25.881  27.469  1.00  0.00     0.135 A 
ATOM     76  C   UNL A   1      50.239  26.307  25.139  1.00  0.00     0.135 A 
ATOM     77  F   UNL A   1      50.233  25.891  28.750  1.00  0.00    -0.206 F 
ATOM     78  C   UNL A   1      51.918  25.429  27.182  1.00  0.00     0.059 A 
ATOM     79  C   UNL A   1      51.510  25.836  24.822  1.00  0.00     0.059 A 
ATOM     80  F   UNL A   1      49.445  26.713  24.135  1.00  0.00    -0.206 F 
ATOM     81  C   UNL A   1      52.344  25.403  25.853  1.00  0.00     0.060 A 
BRANCH  81  82
ATOM     82  S   UNL A   1      53.987  24.750  25.486  1.00  0.00     0.124 S 
ATOM     83  O   UNL A   1      54.421  25.630  24.407  1.00  0.00    -0.237 OA
ATOM     84  O   UNL A   1      54.674  24.918  26.762  1.00  0.00    -0.237 OA
ATOM     85  O   UNL A   1      53.720  23.366  25.104  1.00  0.00    -0.744 OA
ENDBRANCH  81  82
ENDBRANCH  49  74
BRANCH  61  86
ATOM     86  C   UNL A   1      47.036  32.419  28.511  1.00  0.00     0.058 A 
ATOM     87  C   UNL A   1      47.574  32.743  29.766  1.00  0.00     0.135 A 
ATOM     88  C   UNL A   1      47.130  33.380  27.490  1.00  0.00     0.135 A 
ATOM     89  F   UNL A   1      47.504  31.866  30.779  1.00  0.00    -0.206 F 
ATOM     90  C   UNL A   1      48.166  33.980  30.004  1.00  0.00     0.059 A 
ATOM     91  C   UNL A   1      47.744  34.611  27.698  1.00  0.00     0.059 A 
ATOM     92  F   UNL A   1      46.640  33.118  26.268  1.00  0.00    -0.206 F 
ATOM     93  C   UNL A   1      48.251  34.906  28.963  1.00  0.00     0.060 A 
BRANCH  93  94
ATOM     94  S   UNL A   1      49.060  36.488  29.275  1.00  0.00     0.124 S 
ATOM     95  O   UNL A   1      50.408  36.234  28.779  1.00  0.00    -0.237 OA
ATOM     96  O   UNL A   1      48.257  37.412  28.481  1.00  0.00    -0.237 OA
ATOM     97  O   UNL A   1      48.944  36.652  30.721  1.00  0.00    -0.744 OA
ENDBRANCH  93  94
ENDBRANCH  61  86
ENDBRANCH  35  36
ENDBRANCH  27  30
ENDBRANCH  25  26
ENDBRANCH  24  25
ENDBRANCH   1  24
TORSDOF 17
ENDMDL
MODEL 3
REMARK VINA RESULT:     -11.9      0.717      8.212
REMARK SMILES C=C(C)COc1ccc2c(C)c(CC(=O)NCCCNC(=O)c3ccc(-c4c5nc(c(-c6c(F)cc(S(=O)(=O)[O-])cc6F)c6ccc([nH]6)c(-c6c(F)cc(S(=O)(=O)[O-])cc6F)c6nc(c(-c7c(F)cc(S(=O)(=O)[O-])cc7F)c7ccc4[nH]7)C=C6)C=C5)cc3)c(=O)oc2c1
REMARK SMILES IDX 17 1 16 2 14 3 15 4 13 6 12 7 6 8 7 9 93 10 8 11 92 12 9 13
REMARK SMILES IDX 91 14 10 15 89 16 11 17 90 18 5 19 4 20 2 21 1 22 3 23 18 24
REMARK SMILES IDX 19 25 20 26 21 27 22 29 23 30 24 31 88 32 25 33 87 34 26 35
REMARK SMILES IDX 27 36 28 37 81 38 29 39 86 40 80 41 82 42 30 43 85 44 79 45
REMARK SMILES IDX 78 46 31 48 65 49 44 50 64 51 45 52 48 53 63 54 83 55 46 56
REMARK SMILES IDX 47 57 62 59 84 60 49 61 32 62 33 63 42 64 34 65 35 66 41 67
REMARK SMILES IDX 43 68 36 69 37 70 38 71 39 72 40 73 66 74 67 75 76 76 68 77
REMARK SMILES IDX 69 78 75 79 77 80 70 81 71 82 72 83 73 84 74 85 50 86 51 87
REMARK SMILES IDX 60 88 52 89 53 90 59 91 61 92 54 93 55 94 56 95 57 96 58 97
REMARK H PARENT 16 5 20 28 82 47 48 58
REMARK Flexibility Score: inf
ROOT
ATOM      1  C   UNL A   1      37.453  22.553  25.865  1.00  0.00     0.117 C 
ENDROOT
BRANCH   1   2
ATOM      2  N   UNL A   1      37.405  22.804  24.436  1.00  0.00    -0.356 N 
ATOM      3  C   UNL A   1      36.342  22.826  23.584  1.00  0.00     0.224 C 
ATOM      4  O   UNL A   1      36.558  23.085  22.397  1.00  0.00    -0.275 OA
ATOM      5  H   UNL A   1      38.278  22.988  24.017  1.00  0.00     0.163 HD
BRANCH   3   6
ATOM      6  C   UNL A   1      34.927  22.570  24.088  1.00  0.00     0.143 C 
BRANCH   6   7
ATOM      7  C   UNL A   1      33.988  23.718  23.806  1.00  0.00     0.051 A 
ATOM      8  C   UNL A   1      31.386  27.955  22.914  1.00  0.00     0.123 A 
ATOM      9  C   UNL A   1      32.064  28.193  24.106  1.00  0.00     0.047 A 
ATOM     10  C   UNL A   1      31.577  26.754  22.246  1.00  0.00     0.094 A 
ATOM     11  C   UNL A   1      32.891  27.201  24.655  1.00  0.00     0.016 A 
ATOM     12  C   UNL A   1      32.370  25.768  22.822  1.00  0.00     0.142 A 
ATOM     13  C   UNL A   1      33.047  25.956  24.022  1.00  0.00     0.021 A 
ATOM     14  O   UNL A   1      32.424  24.560  22.120  1.00  0.00    -0.422 OA
ATOM     15  C   UNL A   1      33.925  24.873  24.509  1.00  0.00    -0.029 A 
ATOM     16  C   UNL A   1      33.086  23.475  22.647  1.00  0.00     0.340 A 
ATOM     17  C   UNL A   1      34.734  25.143  25.751  1.00  0.00     0.046 C 
ATOM     18  O   UNL A   1      32.970  22.364  22.139  1.00  0.00    -0.246 OA
BRANCH   8  19
ATOM     19  O   UNL A   1      30.609  28.952  22.391  1.00  0.00    -0.489 OA
BRANCH  19  20
ATOM     20  C   UNL A   1      29.927  29.720  23.401  1.00  0.00     0.260 C 
BRANCH  20  21
ATOM     21  C   UNL A   1      28.482  30.005  23.050  1.00  0.00    -0.043 C 
ATOM     22  C   UNL A   1      28.036  31.248  22.797  1.00  0.00     0.011 C 
ATOM     23  C   UNL A   1      27.577  28.809  22.954  1.00  0.00     0.042 C 
ENDBRANCH  20  21
ENDBRANCH  19  20
ENDBRANCH   8  19
ENDBRANCH   6   7
ENDBRANCH   3   6
ENDBRANCH   1   2
BRANCH   1  24
ATOM     24  C   UNL A   1      38.879  22.332  26.366  1.00  0.00     0.042 C 
BRANCH  24  25
ATOM     25  C   UNL A   1      39.529  23.578  26.965  1.00  0.00     0.118 C 
BRANCH  25  26
ATOM     26  N   UNL A   1      40.389  24.274  26.017  1.00  0.00    -0.352 N 
ATOM     27  C   UNL A   1      40.937  25.529  26.076  1.00  0.00     0.251 C 
ATOM     28  H   UNL A   1      40.613  23.761  25.206  1.00  0.00     0.163 HD
ATOM     29  O   UNL A   1      41.483  25.994  25.072  1.00  0.00    -0.269 OA
BRANCH  27  30
ATOM     30  C   UNL A   1      40.870  26.329  27.317  1.00  0.00     0.039 A 
ATOM     31  C   UNL A   1      41.796  27.358  27.510  1.00  0.00     0.014 A 
ATOM     32  C   UNL A   1      39.920  26.052  28.302  1.00  0.00     0.014 A 
ATOM     33  C   UNL A   1      41.730  28.146  28.662  1.00  0.00     0.010 A 
ATOM     34  C   UNL A   1      39.805  26.887  29.411  1.00  0.00     0.010 A 
ATOM     35  C   UNL A   1      40.711  27.939  29.606  1.00  0.00    -0.014 A 
BRANCH  35  36
ATOM     36  C   UNL A   1      40.574  28.809  30.803  1.00  0.00     0.031 A 
ATOM     37  C   UNL A   1      39.542  29.903  30.831  1.00  0.00     0.074 A 
ATOM     38  C   UNL A   1      41.424  28.656  31.838  1.00  0.00     0.049 A 
ATOM     39  N   UNL A   1      39.322  30.811  31.747  1.00  0.00    -0.248 NA
ATOM     40  C   UNL A   1      38.659  30.007  29.659  1.00  0.00     0.031 C 
ATOM     41  C   UNL A   1      42.487  27.652  31.917  1.00  0.00     0.029 A 
ATOM     42  N   UNL A   1      41.532  29.348  33.018  1.00  0.00    -0.354 N 
ATOM     43  C   UNL A   1      38.285  31.598  31.261  1.00  0.00     0.074 A 
ATOM     44  C   UNL A   1      37.964  31.100  29.940  1.00  0.00     0.031 C 
ATOM     45  C   UNL A   1      43.119  27.773  33.096  1.00  0.00     0.029 A 
ATOM     46  C   UNL A   1      42.539  28.890  33.835  1.00  0.00     0.049 A 
ATOM     47  H   UNL A   1      40.945  30.101  33.257  1.00  0.00     0.167 HD
ATOM     48  C   UNL A   1      37.641  32.625  31.867  1.00  0.00     0.037 A 
ATOM     49  C   UNL A   1      42.952  29.324  35.042  1.00  0.00     0.037 A 
ATOM     50  C   UNL A   1      37.964  33.112  33.184  1.00  0.00     0.049 A 
ATOM     51  C   UNL A   1      42.251  30.492  35.681  1.00  0.00     0.074 A 
ATOM     52  C   UNL A   1      37.352  34.123  33.903  1.00  0.00     0.029 A 
ATOM     53  N   UNL A   1      38.995  32.626  33.977  1.00  0.00    -0.354 N 
ATOM     54  N   UNL A   1      41.239  31.195  35.229  1.00  0.00    -0.248 NA
ATOM     55  C   UNL A   1      42.745  30.924  36.995  1.00  0.00     0.031 C 
ATOM     56  C   UNL A   1      38.044  34.282  35.110  1.00  0.00     0.029 A 
ATOM     57  C   UNL A   1      39.051  33.332  35.168  1.00  0.00     0.049 A 
ATOM     58  H   UNL A   1      39.598  31.889  33.729  1.00  0.00     0.167 HD
ATOM     59  C   UNL A   1      40.953  32.130  36.217  1.00  0.00     0.074 A 
ATOM     60  C   UNL A   1      41.897  31.899  37.293  1.00  0.00     0.031 C 
ATOM     61  C   UNL A   1      39.992  33.087  36.235  1.00  0.00     0.037 A 
BRANCH  48  62
ATOM     62  C   UNL A   1      36.529  33.291  31.098  1.00  0.00     0.058 A 
ATOM     63  C   UNL A   1      36.788  34.113  29.988  1.00  0.00     0.135 A 
ATOM     64  C   UNL A   1      35.189  33.114  31.478  1.00  0.00     0.135 A 
ATOM     65  F   UNL A   1      38.051  34.328  29.585  1.00  0.00    -0.206 F 
ATOM     66  C   UNL A   1      35.766  34.779  29.320  1.00  0.00     0.059 A 
ATOM     67  C   UNL A   1      34.147  33.743  30.800  1.00  0.00     0.059 A 
ATOM     68  F   UNL A   1      34.879  32.335  32.525  1.00  0.00    -0.206 F 
ATOM     69  C   UNL A   1      34.449  34.595  29.739  1.00  0.00     0.060 A 
BRANCH  69  70
ATOM     70  S   UNL A   1      33.139  35.499  28.887  1.00  0.00     0.124 S 
ATOM     71  O   UNL A   1      32.363  36.012  30.011  1.00  0.00    -0.237 OA
ATOM     72  O   UNL A   1      33.888  36.494  28.128  1.00  0.00    -0.237 OA
ATOM     73  O   UNL A   1      32.480  34.470  28.088  1.00  0.00    -0.744 OA
ENDBRANCH  69  70
ENDBRANCH  48  62
BRANCH  49  74
ATOM     74  C   UNL A   1      44.059  28.619  35.741  1.00  0.00     0.058 A 
ATOM     75  C   UNL A   1      43.789  27.568  36.631  1.00  0.00     0.135 A 
ATOM     76  C   UNL A   1      45.404  28.949  35.511  1.00  0.00     0.135 A 
ATOM     77  F   UNL A   1      42.519  27.220  36.889  1.00  0.00    -0.206 F 
ATOM     78  C   UNL A   1      44.809  26.874  37.272  1.00  0.00     0.059 A 
ATOM     79  C   UNL A   1      46.443  28.254  36.120  1.00  0.00     0.059 A 
ATOM     80  F   UNL A   1      45.717  29.938  34.657  1.00  0.00    -0.206 F 
ATOM     81  C   UNL A   1      46.135  27.220  37.004  1.00  0.00     0.060 A 
BRANCH  81  82
ATOM     82  S   UNL A   1      47.451  26.265  37.789  1.00  0.00     0.124 S 
ATOM     83  O   UNL A   1      47.137  24.911  37.346  1.00  0.00    -0.237 OA
ATOM     84  O   UNL A   1      48.649  26.864  37.211  1.00  0.00    -0.237 OA
ATOM     85  O   UNL A   1      47.252  26.525  39.211  1.00  0.00    -0.744 OA
ENDBRANCH  81  82
ENDBRANCH  49  74
BRANCH  61  86
ATOM     86  C   UNL A   1      39.880  33.936  37.473  1.00  0.00     0.058 A 
ATOM     87  C   UNL A   1      40.653  35.094  37.652  1.00  0.00     0.135 A 
ATOM     88  C   UNL A   1      38.942  33.615  38.468  1.00  0.00     0.135 A 
ATOM     89  F   UNL A   1      41.571  35.443  36.737  1.00  0.00    -0.206 F 
ATOM     90  C   UNL A   1      40.514  35.891  38.785  1.00  0.00     0.059 A 
ATOM     91  C   UNL A   1      38.766  34.415  39.593  1.00  0.00     0.059 A 
ATOM     92  F   UNL A   1      38.169  32.524  38.342  1.00  0.00    -0.206 F 
ATOM     93  C   UNL A   1      39.564  35.546  39.747  1.00  0.00     0.060 A 
BRANCH  93  94
ATOM     94  S   UNL A   1      39.365  36.615  41.189  1.00  0.00     0.124 S 
ATOM     95  O   UNL A   1      38.723  37.785  40.602  1.00  0.00    -0.237 OA
ATOM     96  O   UNL A   1      38.526  35.803  42.064  1.00  0.00    -0.237 OA
ATOM     97  O   UNL A   1      40.734  36.818  41.654  1.00  0.00    -0.744 OA
ENDBRANCH  93  94
ENDBRANCH  61  86
ENDBRANCH  35  36
ENDBRANCH  27  30
ENDBRANCH  25  26
ENDBRANCH  24  25
ENDBRANCH   1  24
TORSDOF 17
ENDMDL
