MODEL 1
REMARK VINA RESULT:     -10.2      0.000      0.000
REMARK SMILES Cc1ccccc1NC(=S)NN1C(=O)CS[C@H]1c1ccccc1C(=O)NCCCNC(=O)c1ccc(-c2c3nc(c(-c4c(F)cc(S(=O)(=O)[O-])cc4F)c4ccc([nH]4)c(-c4c(F)cc(S(=O)(=O)[O-])cc4F)c4nc(c(-c5c(F)cc(S(=O)(=O)[O-])cc5F)c5ccc2[nH]5)C=C4)C=C3)cc1
REMARK SMILES IDX 27 1 26 2 24 3 25 4 23 6 18 7 19 8 20 9 22 10 21 11 17 12
REMARK SMILES IDX 12 13 13 14 14 15 15 16 16 17 11 18 9 20 10 21 8 22 7 24
REMARK SMILES IDX 1 25 2 26 3 27 4 28 6 29 5 30 28 31 29 32 30 33 31 34 32 36
REMARK SMILES IDX 33 37 34 38 98 39 35 40 97 41 36 42 37 43 38 44 91 45 39 46
REMARK SMILES IDX 96 47 90 48 92 49 40 50 95 51 89 52 88 53 41 55 75 56 54 57
REMARK SMILES IDX 74 58 55 59 58 60 73 61 93 62 56 63 57 64 72 66 94 67 59 68
REMARK SMILES IDX 42 69 43 70 52 71 44 72 45 73 51 74 53 75 46 76 47 77 48 78
REMARK SMILES IDX 49 79 50 80 76 81 77 82 86 83 78 84 79 85 85 86 87 87 80 88
REMARK SMILES IDX 81 89 82 90 83 91 84 92 60 93 61 94 70 95 62 96 63 97 69 98
REMARK SMILES IDX 71 99 64 100 65 101 66 102 67 103 68 104
REMARK H PARENT 26 5 11 19 8 23 30 35 92 54 58 65
REMARK Flexibility Score: inf
ROOT
ATOM      1  C   UNL A   1      44.719  29.872  28.686  1.00  0.00     0.118 C 
ENDROOT
BRANCH   1   2
ATOM      2  N   UNL A   1      43.325  30.354  28.593  1.00  0.00    -0.352 N 
ATOM      3  C   UNL A   1      42.262  30.184  29.479  1.00  0.00     0.251 C 
ATOM      4  O   UNL A   1      41.919  31.197  30.101  1.00  0.00    -0.269 OA
ATOM      5  H   UNL A   1      43.115  30.873  27.782  1.00  0.00     0.163 HD
BRANCH   3   6
ATOM      6  C   UNL A   1      41.265  29.036  29.470  1.00  0.00     0.046 A 
ATOM      7  C   UNL A   1      41.172  27.922  28.621  1.00  0.00    -0.001 A 
ATOM      8  C   UNL A   1      39.926  27.202  28.636  1.00  0.00     0.007 A 
ATOM      9  C   UNL A   1      38.909  27.417  29.560  1.00  0.00     0.000 A 
ATOM     10  C   UNL A   1      40.255  29.169  30.471  1.00  0.00     0.014 A 
ATOM     11  C   UNL A   1      39.106  28.368  30.531  1.00  0.00     0.001 A 
BRANCH   7  12
ATOM     12  C   UNL A   1      42.164  27.565  27.549  1.00  0.00     0.197 C 
ATOM     13  N   UNL A   1      42.653  26.245  27.186  1.00  0.00    -0.236 N 
ATOM     14  C   UNL A   1      43.730  26.553  26.330  1.00  0.00     0.252 C 
ATOM     15  O   UNL A   1      44.886  26.728  26.705  1.00  0.00    -0.272 OA
ATOM     16  C   UNL A   1      43.153  27.286  25.121  1.00  0.00     0.174 C 
ATOM     17  S   UNL A   1      41.725  28.166  25.823  1.00  0.00    -0.120 SA
BRANCH  13  18
ATOM     18  N   UNL A   1      42.396  25.037  27.951  1.00  0.00    -0.270 N 
ATOM     19  H   UNL A   1      42.108  25.254  28.868  1.00  0.00     0.191 HD
BRANCH  18  20
ATOM     20  C   UNL A   1      42.442  23.664  27.756  1.00  0.00     0.189 C 
ATOM     21  S   UNL A   1      42.891  22.840  29.166  1.00  0.00    -0.039 S 
BRANCH  20  22
ATOM     22  N   UNL A   1      42.231  22.916  26.602  1.00  0.00    -0.331 N 
ATOM     23  H   UNL A   1      41.324  22.920  26.220  1.00  0.00     0.169 HD
BRANCH  22  24
ATOM     24  C   UNL A   1      43.237  22.136  25.922  1.00  0.00     0.043 A 
ATOM     25  C   UNL A   1      46.281  23.443  25.268  1.00  0.00     0.046 C 
ATOM     26  C   UNL A   1      45.080  22.454  25.213  1.00  0.00    -0.028 A 
ATOM     27  C   UNL A   1      46.133  20.938  24.616  1.00  0.00     0.005 A 
ATOM     28  C   UNL A   1      45.367  19.206  24.421  1.00  0.00     0.000 A 
ATOM     29  C   UNL A   1      42.740  20.267  26.109  1.00  0.00     0.026 A 
ATOM     30  C   UNL A   1      43.679  18.861  25.220  1.00  0.00     0.002 A 
ENDBRANCH  22  24
ENDBRANCH  20  22
ENDBRANCH  18  20
ENDBRANCH  13  18
ENDBRANCH   7  12
ENDBRANCH   3   6
ENDBRANCH   1   2
BRANCH   1  31
ATOM     31  C   UNL A   1      45.503  30.111  29.975  1.00  0.00     0.042 C 
BRANCH  31  32
ATOM     32  C   UNL A   1      46.586  29.038  30.226  1.00  0.00     0.118 C 
BRANCH  32  33
ATOM     33  N   UNL A   1      47.341  28.268  29.219  1.00  0.00    -0.352 N 
ATOM     34  C   UNL A   1      48.037  27.047  29.448  1.00  0.00     0.251 C 
ATOM     35  H   UNL A   1      47.366  28.632  28.304  1.00  0.00     0.163 HD
ATOM     36  O   UNL A   1      49.194  26.830  29.116  1.00  0.00    -0.269 OA
BRANCH  34  37
ATOM     37  C   UNL A   1      47.290  25.975  30.171  1.00  0.00     0.039 A 
ATOM     38  C   UNL A   1      46.045  25.485  29.786  1.00  0.00     0.014 A 
ATOM     39  C   UNL A   1      47.598  25.910  31.492  1.00  0.00     0.014 A 
ATOM     40  C   UNL A   1      45.056  25.359  30.771  1.00  0.00     0.010 A 
ATOM     41  C   UNL A   1      46.587  26.291  32.331  1.00  0.00     0.010 A 
ATOM     42  C   UNL A   1      45.281  26.006  31.980  1.00  0.00    -0.014 A 
BRANCH  42  43
ATOM     43  C   UNL A   1      44.475  25.878  33.181  1.00  0.00     0.031 A 
ATOM     44  C   UNL A   1      43.984  27.278  33.494  1.00  0.00     0.074 A 
ATOM     45  C   UNL A   1      44.150  24.626  33.623  1.00  0.00     0.049 A 
ATOM     46  N   UNL A   1      44.230  27.959  34.568  1.00  0.00    -0.248 NA
ATOM     47  C   UNL A   1      43.511  28.214  32.412  1.00  0.00     0.031 C 
ATOM     48  C   UNL A   1      43.081  24.204  34.524  1.00  0.00     0.029 A 
ATOM     49  N   UNL A   1      44.809  23.380  33.360  1.00  0.00    -0.354 N 
ATOM     50  C   UNL A   1      43.421  29.085  34.433  1.00  0.00     0.074 A 
ATOM     51  C   UNL A   1      43.438  29.380  33.045  1.00  0.00     0.031 C 
ATOM     52  C   UNL A   1      43.373  22.987  35.039  1.00  0.00     0.029 A 
ATOM     53  C   UNL A   1      44.685  22.561  34.531  1.00  0.00     0.049 A 
ATOM     54  H   UNL A   1      45.263  23.130  32.524  1.00  0.00     0.167 HD
ATOM     55  C   UNL A   1      42.353  29.244  35.277  1.00  0.00     0.037 A 
ATOM     56  C   UNL A   1      45.736  22.125  35.311  1.00  0.00     0.037 A 
ATOM     57  C   UNL A   1      42.357  28.116  36.219  1.00  0.00     0.049 A 
ATOM     58  C   UNL A   1      45.742  23.111  36.545  1.00  0.00     0.074 A 
ATOM     59  C   UNL A   1      41.597  26.963  36.297  1.00  0.00     0.029 A 
ATOM     60  N   UNL A   1      43.511  27.863  36.950  1.00  0.00    -0.354 N 
ATOM     61  N   UNL A   1      45.029  24.214  36.629  1.00  0.00    -0.248 NA
ATOM     62  C   UNL A   1      46.553  22.912  37.745  1.00  0.00     0.031 C 
ATOM     63  C   UNL A   1      42.340  26.004  37.050  1.00  0.00     0.029 A 
ATOM     64  C   UNL A   1      43.568  26.549  37.381  1.00  0.00     0.049 A 
ATOM     65  H   UNL A   1      44.205  28.536  37.137  1.00  0.00     0.167 HD
ATOM     66  C   UNL A   1      45.282  24.874  37.803  1.00  0.00     0.074 A 
ATOM     67  C   UNL A   1      46.211  23.984  38.483  1.00  0.00     0.031 C 
ATOM     68  C   UNL A   1      44.735  26.092  38.134  1.00  0.00     0.037 A 
BRANCH  55  69
ATOM     69  C   UNL A   1      41.144  30.156  35.043  1.00  0.00     0.058 A 
ATOM     70  C   UNL A   1      40.097  29.702  34.213  1.00  0.00     0.135 A 
ATOM     71  C   UNL A   1      40.910  31.441  35.600  1.00  0.00     0.135 A 
ATOM     72  F   UNL A   1      40.135  28.487  33.650  1.00  0.00    -0.206 F 
ATOM     73  C   UNL A   1      38.949  30.450  33.935  1.00  0.00     0.059 A 
ATOM     74  C   UNL A   1      39.776  32.221  35.317  1.00  0.00     0.059 A 
ATOM     75  F   UNL A   1      41.738  32.005  36.485  1.00  0.00    -0.206 F 
ATOM     76  C   UNL A   1      38.792  31.710  34.490  1.00  0.00     0.060 A 
BRANCH  76  77
ATOM     77  S   UNL A   1      37.269  32.617  34.167  1.00  0.00     0.124 S 
ATOM     78  O   UNL A   1      36.677  32.703  35.499  1.00  0.00    -0.237 OA
ATOM     79  O   UNL A   1      37.773  33.870  33.615  1.00  0.00    -0.237 OA
ATOM     80  O   UNL A   1      36.553  31.764  33.223  1.00  0.00    -0.744 OA
ENDBRANCH  76  77
ENDBRANCH  55  69
BRANCH  56  81
ATOM     81  C   UNL A   1      47.043  21.742  34.568  1.00  0.00     0.058 A 
ATOM     82  C   UNL A   1      48.277  22.477  34.352  1.00  0.00     0.135 A 
ATOM     83  C   UNL A   1      47.235  20.411  34.566  1.00  0.00     0.135 A 
ATOM     84  F   UNL A   1      48.191  23.805  34.151  1.00  0.00    -0.206 F 
ATOM     85  C   UNL A   1      49.671  21.902  34.391  1.00  0.00     0.059 A 
ATOM     86  C   UNL A   1      48.472  20.074  35.078  1.00  0.00     0.059 A 
ATOM     87  F   UNL A   1      46.228  19.556  34.811  1.00  0.00    -0.206 F 
ATOM     88  C   UNL A   1      49.899  20.559  34.887  1.00  0.00     0.060 A 
BRANCH  88  89
ATOM     89  S   UNL A   1      51.936  19.545  35.995  1.00  0.00     0.124 S 
ATOM     90  O   UNL A   1      50.792  20.828  36.175  1.00  0.00    -0.237 OA
ATOM     91  O   UNL A   1      51.931  18.205  36.631  1.00  0.00    -0.237 OA
ATOM     92  O   UNL A   1      53.321  19.614  35.410  1.00  0.00    -0.744 OA
ENDBRANCH  88  89
ENDBRANCH  56  81
BRANCH  68  93
ATOM     93  C   UNL A   1      45.203  26.942  39.304  1.00  0.00     0.058 A 
ATOM     94  C   UNL A   1      44.815  26.713  40.631  1.00  0.00     0.135 A 
ATOM     95  C   UNL A   1      46.135  27.999  39.127  1.00  0.00     0.135 A 
ATOM     96  F   UNL A   1      44.149  25.607  40.992  1.00  0.00    -0.206 F 
ATOM     97  C   UNL A   1      45.120  27.604  41.655  1.00  0.00     0.059 A 
ATOM     98  C   UNL A   1      46.557  28.821  40.159  1.00  0.00     0.059 A 
ATOM     99  F   UNL A   1      46.677  28.290  37.935  1.00  0.00    -0.206 F 
ATOM    100  C   UNL A   1      45.973  28.670  41.402  1.00  0.00     0.060 A 
BRANCH 100 101
ATOM    101  S   UNL A   1      46.300  29.860  42.703  1.00  0.00     0.124 S 
ATOM    102  O   UNL A   1      45.998  31.115  42.023  1.00  0.00    -0.237 OA
ATOM    103  O   UNL A   1      45.356  29.457  43.740  1.00  0.00    -0.237 OA
ATOM    104  O   UNL A   1      47.708  29.639  43.022  1.00  0.00    -0.744 OA
ENDBRANCH 100 101
ENDBRANCH  68  93
ENDBRANCH  42  43
ENDBRANCH  34  37
ENDBRANCH  32  33
ENDBRANCH  31  32
ENDBRANCH   1  31
TORSDOF 18
ENDMDL
MODEL 2
REMARK VINA RESULT:     -10.2      6.796     13.171
REMARK SMILES Cc1ccccc1NC(=S)NN1C(=O)CS[C@H]1c1ccccc1C(=O)NCCCNC(=O)c1ccc(-c2c3nc(c(-c4c(F)cc(S(=O)(=O)[O-])cc4F)c4ccc([nH]4)c(-c4c(F)cc(S(=O)(=O)[O-])cc4F)c4nc(c(-c5c(F)cc(S(=O)(=O)[O-])cc5F)c5ccc2[nH]5)C=C4)C=C3)cc1
REMARK SMILES IDX 27 1 26 2 24 3 25 4 23 6 18 7 19 8 20 9 22 10 21 11 17 12
REMARK SMILES IDX 12 13 13 14 14 15 15 16 16 17 11 18 9 20 10 21 8 22 7 24
REMARK SMILES IDX 1 25 2 26 3 27 4 28 6 29 5 30 28 31 29 32 30 33 31 34 32 36
REMARK SMILES IDX 33 37 34 38 98 39 35 40 97 41 36 42 37 43 38 44 91 45 39 46
REMARK SMILES IDX 96 47 90 48 92 49 40 50 95 51 89 52 88 53 41 55 75 56 54 57
REMARK SMILES IDX 74 58 55 59 58 60 73 61 93 62 56 63 57 64 72 66 94 67 59 68
REMARK SMILES IDX 42 69 43 70 52 71 44 72 45 73 51 74 53 75 46 76 47 77 48 78
REMARK SMILES IDX 49 79 50 80 76 81 77 82 86 83 78 84 79 85 85 86 87 87 80 88
REMARK SMILES IDX 81 89 82 90 83 91 84 92 60 93 61 94 70 95 62 96 63 97 69 98
REMARK SMILES IDX 71 99 64 100 65 101 66 102 67 103 68 104
REMARK H PARENT 26 5 11 19 8 23 30 35 92 54 58 65
REMARK Flexibility Score: inf
ROOT
ATOM      1  C   UNL A   1      45.774  33.035  26.153  1.00  0.00     0.118 C 
ENDROOT
BRANCH   1   2
ATOM      2  N   UNL A   1      44.353  33.439  26.188  1.00  0.00    -0.352 N 
ATOM      3  C   UNL A   1      43.789  34.698  26.391  1.00  0.00     0.251 C 
ATOM      4  O   UNL A   1      43.274  35.219  25.394  1.00  0.00    -0.269 OA
ATOM      5  H   UNL A   1      43.708  32.709  26.048  1.00  0.00     0.163 HD
BRANCH   3   6
ATOM      6  C   UNL A   1      43.404  35.299  27.733  1.00  0.00     0.046 A 
ATOM      7  C   UNL A   1      43.909  36.425  28.401  1.00  0.00    -0.001 A 
ATOM      8  C   UNL A   1      43.596  36.539  29.801  1.00  0.00     0.007 A 
ATOM      9  C   UNL A   1      42.683  35.730  30.468  1.00  0.00     0.000 A 
ATOM     10  C   UNL A   1      42.395  34.547  28.411  1.00  0.00     0.014 A 
ATOM     11  C   UNL A   1      42.026  34.764  29.746  1.00  0.00     0.001 A 
BRANCH   7  12
ATOM     12  C   UNL A   1      44.924  37.382  27.839  1.00  0.00     0.197 C 
ATOM     13  N   UNL A   1      44.693  38.704  27.280  1.00  0.00    -0.236 N 
ATOM     14  C   UNL A   1      45.938  38.996  26.687  1.00  0.00     0.252 C 
ATOM     15  O   UNL A   1      46.241  38.710  25.532  1.00  0.00    -0.272 OA
ATOM     16  C   UNL A   1      46.976  39.038  27.807  1.00  0.00     0.174 C 
ATOM     17  S   UNL A   1      46.328  37.832  29.004  1.00  0.00    -0.120 SA
BRANCH  13  18
ATOM     18  N   UNL A   1      43.379  39.254  26.991  1.00  0.00    -0.270 N 
ATOM     19  H   UNL A   1      42.690  38.551  27.012  1.00  0.00     0.191 HD
BRANCH  18  20
ATOM     20  C   UNL A   1      42.822  40.489  26.693  1.00  0.00     0.189 C 
ATOM     21  S   UNL A   1      41.200  40.354  26.225  1.00  0.00    -0.039 S 
BRANCH  20  22
ATOM     22  N   UNL A   1      43.402  41.753  26.677  1.00  0.00    -0.331 N 
ATOM     23  H   UNL A   1      43.595  42.174  27.547  1.00  0.00     0.169 HD
BRANCH  22  24
ATOM     24  C   UNL A   1      43.744  42.496  25.488  1.00  0.00     0.043 A 
ATOM     25  C   UNL A   1      41.739  42.419  22.772  1.00  0.00     0.046 C 
ATOM     26  C   UNL A   1      43.002  42.692  23.642  1.00  0.00    -0.028 A 
ATOM     27  C   UNL A   1      43.709  44.080  22.485  1.00  0.00     0.005 A 
ATOM     28  C   UNL A   1      45.270  45.066  22.950  1.00  0.00     0.000 A 
ATOM     29  C   UNL A   1      45.016  43.868  26.012  1.00  0.00     0.026 A 
ATOM     30  C   UNL A   1      45.893  44.994  24.743  1.00  0.00     0.002 A 
ENDBRANCH  22  24
ENDBRANCH  20  22
ENDBRANCH  18  20
ENDBRANCH  13  18
ENDBRANCH   7  12
ENDBRANCH   3   6
ENDBRANCH   1   2
BRANCH   1  31
ATOM     31  C   UNL A   1      46.150  31.605  26.535  1.00  0.00     0.042 C 
BRANCH  31  32
ATOM     32  C   UNL A   1      47.438  31.530  27.385  1.00  0.00     0.118 C 
BRANCH  32  33
ATOM     33  N   UNL A   1      48.417  32.606  27.634  1.00  0.00    -0.352 N 
ATOM     34  C   UNL A   1      48.181  33.795  28.381  1.00  0.00     0.251 C 
ATOM     35  H   UNL A   1      49.315  32.492  27.247  1.00  0.00     0.163 HD
ATOM     36  O   UNL A   1      48.441  34.926  27.994  1.00  0.00    -0.269 OA
BRANCH  34  37
ATOM     37  C   UNL A   1      47.546  33.630  29.723  1.00  0.00     0.039 A 
ATOM     38  C   UNL A   1      47.916  32.664  30.655  1.00  0.00     0.014 A 
ATOM     39  C   UNL A   1      46.261  34.064  29.761  1.00  0.00     0.014 A 
ATOM     40  C   UNL A   1      46.899  31.915  31.264  1.00  0.00     0.010 A 
ATOM     41  C   UNL A   1      45.329  33.073  29.907  1.00  0.00     0.010 A 
ATOM     42  C   UNL A   1      45.638  31.972  30.683  1.00  0.00    -0.014 A 
BRANCH  42  43
ATOM     43  C   UNL A   1      44.417  31.411  31.234  1.00  0.00     0.031 A 
ATOM     44  C   UNL A   1      43.811  30.579  30.121  1.00  0.00     0.074 A 
ATOM     45  C   UNL A   1      44.187  31.532  32.576  1.00  0.00     0.049 A 
ATOM     46  N   UNL A   1      42.655  30.759  29.566  1.00  0.00    -0.248 NA
ATOM     47  C   UNL A   1      44.658  29.709  29.229  1.00  0.00     0.031 C 
ATOM     48  C   UNL A   1      43.292  30.767  33.440  1.00  0.00     0.029 A 
ATOM     49  N   UNL A   1      44.730  32.484  33.500  1.00  0.00    -0.354 N 
ATOM     50  C   UNL A   1      42.511  29.645  28.741  1.00  0.00     0.074 A 
ATOM     51  C   UNL A   1      43.818  29.385  28.252  1.00  0.00     0.031 C 
ATOM     52  C   UNL A   1      43.036  31.471  34.568  1.00  0.00     0.029 A 
ATOM     53  C   UNL A   1      43.723  32.767  34.482  1.00  0.00     0.049 A 
ATOM     54  H   UNL A   1      45.633  32.873  33.468  1.00  0.00     0.167 HD
ATOM     55  C   UNL A   1      41.565  28.704  29.052  1.00  0.00     0.037 A 
ATOM     56  C   UNL A   1      43.129  33.997  34.680  1.00  0.00     0.037 A 
ATOM     57  C   UNL A   1      40.851  29.167  30.249  1.00  0.00     0.049 A 
ATOM     58  C   UNL A   1      41.739  33.882  33.937  1.00  0.00     0.074 A 
ATOM     59  C   UNL A   1      40.922  28.797  31.580  1.00  0.00     0.029 A 
ATOM     60  N   UNL A   1      40.279  30.434  30.235  1.00  0.00    -0.354 N 
ATOM     61  N   UNL A   1      41.393  32.896  33.137  1.00  0.00    -0.248 NA
ATOM     62  C   UNL A   1      40.670  34.872  34.049  1.00  0.00     0.031 C 
ATOM     63  C   UNL A   1      40.425  29.884  32.361  1.00  0.00     0.029 A 
ATOM     64  C   UNL A   1      40.104  30.932  31.515  1.00  0.00     0.049 A 
ATOM     65  H   UNL A   1      40.031  30.918  29.416  1.00  0.00     0.167 HD
ATOM     66  C   UNL A   1      40.144  33.102  32.614  1.00  0.00     0.074 A 
ATOM     67  C   UNL A   1      39.720  34.335  33.260  1.00  0.00     0.031 C 
ATOM     68  C   UNL A   1      39.549  32.273  31.691  1.00  0.00     0.037 A 
BRANCH  55  69
ATOM     69  C   UNL A   1      41.524  27.260  28.539  1.00  0.00     0.058 A 
ATOM     70  C   UNL A   1      42.373  26.301  29.131  1.00  0.00     0.135 A 
ATOM     71  C   UNL A   1      40.686  26.727  27.524  1.00  0.00     0.135 A 
ATOM     72  F   UNL A   1      43.191  26.627  30.141  1.00  0.00    -0.206 F 
ATOM     73  C   UNL A   1      42.414  24.959  28.743  1.00  0.00     0.059 A 
ATOM     74  C   UNL A   1      40.726  25.388  27.101  1.00  0.00     0.059 A 
ATOM     75  F   UNL A   1      39.747  27.453  26.910  1.00  0.00    -0.206 F 
ATOM     76  C   UNL A   1      41.588  24.506  27.727  1.00  0.00     0.060 A 
BRANCH  76  77
ATOM     77  S   UNL A   1      41.617  22.755  27.300  1.00  0.00     0.124 S 
ATOM     78  O   UNL A   1      42.098  22.786  25.921  1.00  0.00    -0.237 OA
ATOM     79  O   UNL A   1      42.549  22.219  28.285  1.00  0.00    -0.237 OA
ATOM     80  O   UNL A   1      40.228  22.337  27.464  1.00  0.00    -0.744 OA
ENDBRANCH  76  77
ENDBRANCH  55  69
BRANCH  56  81
ATOM     81  C   UNL A   1      44.037  35.244  34.520  1.00  0.00     0.058 A 
ATOM     82  C   UNL A   1      44.686  35.818  33.354  1.00  0.00     0.135 A 
ATOM     83  C   UNL A   1      43.777  36.165  35.465  1.00  0.00     0.135 A 
ATOM     84  F   UNL A   1      45.161  34.975  32.419  1.00  0.00    -0.206 F 
ATOM     85  C   UNL A   1      44.829  37.289  33.053  1.00  0.00     0.059 A 
ATOM     86  C   UNL A   1      43.492  37.396  34.911  1.00  0.00     0.059 A 
ATOM     87  F   UNL A   1      43.125  35.847  36.595  1.00  0.00    -0.206 F 
ATOM     88  C   UNL A   1      44.103  38.273  33.832  1.00  0.00     0.060 A 
BRANCH  88  89
ATOM     89  S   UNL A   1      43.277  40.580  33.196  1.00  0.00     0.124 S 
ATOM     90  O   UNL A   1      43.617  39.026  32.518  1.00  0.00    -0.237 OA
ATOM     91  O   UNL A   1      41.974  41.128  33.647  1.00  0.00    -0.237 OA
ATOM     92  O   UNL A   1      44.152  41.805  33.192  1.00  0.00    -0.744 OA
ENDBRANCH  88  89
ENDBRANCH  56  81
BRANCH  68  93
ATOM     93  C   UNL A   1      38.287  32.627  30.923  1.00  0.00     0.058 A 
ATOM     94  C   UNL A   1      38.277  33.447  29.785  1.00  0.00     0.135 A 
ATOM     95  C   UNL A   1      37.025  32.082  31.278  1.00  0.00     0.135 A 
ATOM     96  F   UNL A   1      39.410  33.827  29.179  1.00  0.00    -0.206 F 
ATOM     97  C   UNL A   1      37.094  33.891  29.204  1.00  0.00     0.059 A 
ATOM     98  C   UNL A   1      35.845  32.408  30.628  1.00  0.00     0.059 A 
ATOM     99  F   UNL A   1      36.875  31.208  32.284  1.00  0.00    -0.206 F 
ATOM    100  C   UNL A   1      35.880  33.383  29.650  1.00  0.00     0.060 A 
BRANCH 100 101
ATOM    101  S   UNL A   1      34.355  34.016  28.952  1.00  0.00     0.124 S 
ATOM    102  O   UNL A   1      34.834  35.205  28.254  1.00  0.00    -0.237 OA
ATOM    103  O   UNL A   1      33.919  32.914  28.102  1.00  0.00    -0.237 OA
ATOM    104  O   UNL A   1      33.521  34.267  30.124  1.00  0.00    -0.744 OA
ENDBRANCH 100 101
ENDBRANCH  68  93
ENDBRANCH  42  43
ENDBRANCH  34  37
ENDBRANCH  32  33
ENDBRANCH  31  32
ENDBRANCH   1  31
TORSDOF 18
ENDMDL
MODEL 3
REMARK VINA RESULT:     -10.0      7.711     14.164
REMARK SMILES Cc1ccccc1NC(=S)NN1C(=O)CS[C@H]1c1ccccc1C(=O)NCCCNC(=O)c1ccc(-c2c3nc(c(-c4c(F)cc(S(=O)(=O)[O-])cc4F)c4ccc([nH]4)c(-c4c(F)cc(S(=O)(=O)[O-])cc4F)c4nc(c(-c5c(F)cc(S(=O)(=O)[O-])cc5F)c5ccc2[nH]5)C=C4)C=C3)cc1
REMARK SMILES IDX 27 1 26 2 24 3 25 4 23 6 18 7 19 8 20 9 22 10 21 11 17 12
REMARK SMILES IDX 12 13 13 14 14 15 15 16 16 17 11 18 9 20 10 21 8 22 7 24
REMARK SMILES IDX 1 25 2 26 3 27 4 28 6 29 5 30 28 31 29 32 30 33 31 34 32 36
REMARK SMILES IDX 33 37 34 38 98 39 35 40 97 41 36 42 37 43 38 44 91 45 39 46
REMARK SMILES IDX 96 47 90 48 92 49 40 50 95 51 89 52 88 53 41 55 75 56 54 57
REMARK SMILES IDX 74 58 55 59 58 60 73 61 93 62 56 63 57 64 72 66 94 67 59 68
REMARK SMILES IDX 42 69 43 70 52 71 44 72 45 73 51 74 53 75 46 76 47 77 48 78
REMARK SMILES IDX 49 79 50 80 76 81 77 82 86 83 78 84 79 85 85 86 87 87 80 88
REMARK SMILES IDX 81 89 82 90 83 91 84 92 60 93 61 94 70 95 62 96 63 97 69 98
REMARK SMILES IDX 71 99 64 100 65 101 66 102 67 103 68 104
REMARK H PARENT 26 5 11 19 8 23 30 35 92 54 58 65
REMARK Flexibility Score: inf
ROOT
ATOM      1  C   UNL A   1      37.021  34.002  33.325  1.00  0.00     0.118 C 
ENDROOT
BRANCH   1   2
ATOM      2  N   UNL A   1      35.597  34.359  33.156  1.00  0.00    -0.352 N 
ATOM      3  C   UNL A   1      34.628  33.791  32.330  1.00  0.00     0.251 C 
ATOM      4  O   UNL A   1      33.756  33.130  32.908  1.00  0.00    -0.269 OA
ATOM      5  H   UNL A   1      35.287  35.112  33.709  1.00  0.00     0.163 HD
BRANCH   3   6
ATOM      6  C   UNL A   1      34.314  34.207  30.902  1.00  0.00     0.046 A 
ATOM      7  C   UNL A   1      34.776  33.688  29.683  1.00  0.00    -0.001 A 
ATOM      8  C   UNL A   1      34.581  34.508  28.517  1.00  0.00     0.007 A 
ATOM      9  C   UNL A   1      33.806  35.663  28.492  1.00  0.00     0.000 A 
ATOM     10  C   UNL A   1      33.440  35.336  30.831  1.00  0.00     0.014 A 
ATOM     11  C   UNL A   1      33.175  36.044  29.650  1.00  0.00     0.001 A 
BRANCH   7  12
ATOM     12  C   UNL A   1      35.647  32.471  29.536  1.00  0.00     0.197 C 
ATOM     13  N   UNL A   1      35.335  31.224  28.857  1.00  0.00    -0.236 N 
ATOM     14  C   UNL A   1      36.392  30.388  29.272  1.00  0.00     0.252 C 
ATOM     15  O   UNL A   1      36.367  29.687  30.280  1.00  0.00    -0.272 OA
ATOM     16  C   UNL A   1      37.688  31.000  28.746  1.00  0.00     0.174 C 
ATOM     17  S   UNL A   1      37.327  32.783  28.753  1.00  0.00    -0.120 SA
BRANCH  13  18
ATOM     18  N   UNL A   1      34.017  30.870  28.357  1.00  0.00    -0.270 N 
ATOM     19  H   UNL A   1      33.312  31.181  28.971  1.00  0.00     0.191 HD
BRANCH  18  20
ATOM     20  C   UNL A   1      33.472  30.218  27.262  1.00  0.00     0.189 C 
ATOM     21  S   UNL A   1      32.070  30.986  26.702  1.00  0.00    -0.039 S 
BRANCH  20  22
ATOM     22  N   UNL A   1      33.872  29.047  26.626  1.00  0.00    -0.331 N 
ATOM     23  H   UNL A   1      34.743  28.666  26.883  1.00  0.00     0.169 HD
BRANCH  22  24
ATOM     24  C   UNL A   1      33.111  28.345  25.619  1.00  0.00     0.043 A 
ATOM     25  C   UNL A   1      34.032  28.463  22.372  1.00  0.00     0.046 C 
ATOM     26  C   UNL A   1      33.149  28.190  23.626  1.00  0.00    -0.028 A 
ATOM     27  C   UNL A   1      32.040  26.851  22.765  1.00  0.00     0.005 A 
ATOM     28  C   UNL A   1      30.716  25.882  23.730  1.00  0.00     0.000 A 
ATOM     29  C   UNL A   1      32.067  26.984  26.530  1.00  0.00     0.026 A 
ATOM     30  C   UNL A   1      30.767  25.914  25.629  1.00  0.00     0.002 A 
ENDBRANCH  22  24
ENDBRANCH  20  22
ENDBRANCH  18  20
ENDBRANCH  13  18
ENDBRANCH   7  12
ENDBRANCH   3   6
ENDBRANCH   1   2
BRANCH   1  31
ATOM     31  C   UNL A   1      37.687  34.223  34.681  1.00  0.00     0.042 C 
BRANCH  31  32
ATOM     32  C   UNL A   1      39.012  33.443  34.834  1.00  0.00     0.118 C 
BRANCH  32  33
ATOM     33  N   UNL A   1      40.330  33.976  35.230  1.00  0.00    -0.352 N 
ATOM     34  C   UNL A   1      41.474  34.090  34.390  1.00  0.00     0.251 C 
ATOM     35  H   UNL A   1      40.427  34.279  36.162  1.00  0.00     0.163 HD
ATOM     36  O   UNL A   1      42.593  33.689  34.676  1.00  0.00    -0.269 OA
BRANCH  34  37
ATOM     37  C   UNL A   1      41.264  34.727  33.055  1.00  0.00     0.039 A 
ATOM     38  C   UNL A   1      40.333  34.295  32.115  1.00  0.00     0.014 A 
ATOM     39  C   UNL A   1      42.373  35.353  32.584  1.00  0.00     0.014 A 
ATOM     40  C   UNL A   1      40.760  34.145  30.788  1.00  0.00     0.010 A 
ATOM     41  C   UNL A   1      42.946  34.755  31.495  1.00  0.00     0.010 A 
ATOM     42  C   UNL A   1      42.131  34.141  30.562  1.00  0.00    -0.014 A 
BRANCH  42  43
ATOM     43  C   UNL A   1      42.784  34.162  29.265  1.00  0.00     0.031 A 
ATOM     44  C   UNL A   1      43.525  32.843  29.160  1.00  0.00     0.074 A 
ATOM     45  C   UNL A   1      42.455  35.151  28.380  1.00  0.00     0.049 A 
ATOM     46  N   UNL A   1      44.803  32.686  29.026  1.00  0.00    -0.248 NA
ATOM     47  C   UNL A   1      42.914  31.550  29.633  1.00  0.00     0.031 C 
ATOM     48  C   UNL A   1      42.637  35.203  26.932  1.00  0.00     0.029 A 
ATOM     49  N   UNL A   1      41.883  36.439  28.642  1.00  0.00    -0.354 N 
ATOM     50  C   UNL A   1      44.943  31.316  28.809  1.00  0.00     0.074 A 
ATOM     51  C   UNL A   1      43.949  30.717  29.625  1.00  0.00     0.031 C 
ATOM     52  C   UNL A   1      42.592  36.490  26.514  1.00  0.00     0.029 A 
ATOM     53  C   UNL A   1      42.421  37.362  27.685  1.00  0.00     0.049 A 
ATOM     54  H   UNL A   1      41.236  36.652  29.352  1.00  0.00     0.167 HD
ATOM     55  C   UNL A   1      45.348  30.875  27.576  1.00  0.00     0.037 A 
ATOM     56  C   UNL A   1      43.211  38.451  27.987  1.00  0.00     0.037 A 
ATOM     57  C   UNL A   1      45.597  32.056  26.739  1.00  0.00     0.049 A 
ATOM     58  C   UNL A   1      44.682  37.964  27.678  1.00  0.00     0.074 A 
ATOM     59  C   UNL A   1      44.869  32.651  25.724  1.00  0.00     0.029 A 
ATOM     60  N   UNL A   1      46.467  33.033  27.208  1.00  0.00    -0.354 N 
ATOM     61  N   UNL A   1      45.023  36.720  27.417  1.00  0.00    -0.248 NA
ATOM     62  C   UNL A   1      45.846  38.848  27.650  1.00  0.00     0.031 C 
ATOM     63  C   UNL A   1      45.291  34.012  25.627  1.00  0.00     0.029 A 
ATOM     64  C   UNL A   1      46.230  34.260  26.613  1.00  0.00     0.049 A 
ATOM     65  H   UNL A   1      47.167  32.872  27.881  1.00  0.00     0.167 HD
ATOM     66  C   UNL A   1      46.375  36.609  27.232  1.00  0.00     0.074 A 
ATOM     67  C   UNL A   1      46.833  37.986  27.343  1.00  0.00     0.031 C 
ATOM     68  C   UNL A   1      47.028  35.418  27.016  1.00  0.00     0.037 A 
BRANCH  55  69
ATOM     69  C   UNL A   1      45.172  29.457  27.021  1.00  0.00     0.058 A 
ATOM     70  C   UNL A   1      46.274  28.576  27.038  1.00  0.00     0.135 A 
ATOM     71  C   UNL A   1      43.988  28.875  26.497  1.00  0.00     0.135 A 
ATOM     72  F   UNL A   1      47.455  28.950  27.549  1.00  0.00    -0.206 F 
ATOM     73  C   UNL A   1      46.223  27.264  26.560  1.00  0.00     0.059 A 
ATOM     74  C   UNL A   1      43.918  27.567  25.990  1.00  0.00     0.059 A 
ATOM     75  F   UNL A   1      42.815  29.517  26.483  1.00  0.00    -0.206 F 
ATOM     76  C   UNL A   1      45.042  26.762  26.037  1.00  0.00     0.060 A 
BRANCH  76  77
ATOM     77  S   UNL A   1      44.993  25.044  25.494  1.00  0.00     0.124 S 
ATOM     78  O   UNL A   1      43.656  24.946  24.916  1.00  0.00    -0.237 OA
ATOM     79  O   UNL A   1      46.100  24.994  24.546  1.00  0.00    -0.237 OA
ATOM     80  O   UNL A   1      45.194  24.287  26.727  1.00  0.00    -0.744 OA
ENDBRANCH  76  77
ENDBRANCH  55  69
BRANCH  56  81
ATOM     81  C   UNL A   1      42.866  39.223  29.288  1.00  0.00     0.058 A 
ATOM     82  C   UNL A   1      43.615  39.420  30.517  1.00  0.00     0.135 A 
ATOM     83  C   UNL A   1      42.004  40.228  29.048  1.00  0.00     0.135 A 
ATOM     84  F   UNL A   1      44.374  38.402  30.961  1.00  0.00    -0.206 F 
ATOM     85  C   UNL A   1      43.674  40.692  31.325  1.00  0.00     0.059 A 
ATOM     86  C   UNL A   1      42.489  41.435  29.511  1.00  0.00     0.059 A 
ATOM     87  F   UNL A   1      41.262  40.265  27.929  1.00  0.00    -0.206 F 
ATOM     88  C   UNL A   1      43.140  41.929  30.790  1.00  0.00     0.060 A 
BRANCH  88  89
ATOM     89  S   UNL A   1      43.794  44.331  31.252  1.00  0.00     0.124 S 
ATOM     90  O   UNL A   1      44.431  42.724  31.271  1.00  0.00    -0.237 OA
ATOM     91  O   UNL A   1      43.909  45.359  30.188  1.00  0.00    -0.237 OA
ATOM     92  O   UNL A   1      43.259  45.130  32.410  1.00  0.00    -0.744 OA
ENDBRANCH  88  89
ENDBRANCH  56  81
BRANCH  68  93
ATOM     93  C   UNL A   1      48.538  35.257  27.065  1.00  0.00     0.058 A 
ATOM     94  C   UNL A   1      49.268  35.155  28.257  1.00  0.00     0.135 A 
ATOM     95  C   UNL A   1      49.309  35.129  25.879  1.00  0.00     0.135 A 
ATOM     96  F   UNL A   1      48.664  35.002  29.444  1.00  0.00    -0.206 F 
ATOM     97  C   UNL A   1      50.659  35.179  28.278  1.00  0.00     0.059 A 
ATOM     98  C   UNL A   1      50.691  35.019  25.878  1.00  0.00     0.059 A 
ATOM     99  F   UNL A   1      48.755  35.113  24.658  1.00  0.00    -0.206 F 
ATOM    100  C   UNL A   1      51.361  35.136  27.080  1.00  0.00     0.060 A 
BRANCH 100 101
ATOM    101  S   UNL A   1      53.150  35.247  27.108  1.00  0.00     0.124 S 
ATOM    102  O   UNL A   1      53.501  34.015  27.807  1.00  0.00    -0.237 OA
ATOM    103  O   UNL A   1      53.484  35.287  25.688  1.00  0.00    -0.237 OA
ATOM    104  O   UNL A   1      53.404  36.483  27.843  1.00  0.00    -0.744 OA
ENDBRANCH 100 101
ENDBRANCH  68  93
ENDBRANCH  42  43
ENDBRANCH  34  37
ENDBRANCH  32  33
ENDBRANCH  31  32
ENDBRANCH   1  31
TORSDOF 18
ENDMDL
