MODEL 1
REMARK VINA RESULT:     -12.3      0.000      0.000
REMARK SMILES CC[NH+]1CCC2(CC1)OC[C@@H](C(=O)NCCCNC(=O)c1ccc(-c3c4nc(c(-c5c(F)cc(S(=O)(=O)[O-])cc5F)c5ccc([nH]5)c(-c5c(F)cc(S(=O)(=O)[O-])cc5F)c5nc(c(-c6c(F)cc(S(=O)(=O)[O-])cc6F)c6ccc3[nH]6)C=C5)C=C4)cc1)N2C(=O)c1ccc(Cl)c([N+](=O)[O-])c1
REMARK SMILES IDX 16 1 15 2 14 3 12 4 13 5 11 7 3 8 4 9 8 10 5 12 7 13 6 14
REMARK SMILES IDX 9 15 87 16 10 17 2 18 1 19 88 20 89 21 90 22 91 23 99 24
REMARK SMILES IDX 92 25 95 26 93 27 94 28 96 29 97 30 98 31 17 32 18 33 19 34
REMARK SMILES IDX 20 36 21 37 22 38 86 39 23 40 85 41 24 42 25 43 26 44 79 45
REMARK SMILES IDX 27 46 84 47 78 48 80 49 28 50 83 51 77 52 76 53 29 55 63 56
REMARK SMILES IDX 42 57 62 58 43 59 46 60 61 61 81 62 44 63 45 64 60 66 82 67
REMARK SMILES IDX 47 68 30 69 31 70 40 71 32 72 33 73 39 74 41 75 34 76 35 77
REMARK SMILES IDX 36 78 37 79 38 80 64 81 65 82 74 83 66 84 67 85 73 86 75 87
REMARK SMILES IDX 68 88 69 89 70 90 71 91 72 92 48 93 49 94 58 95 50 96 51 97
REMARK SMILES IDX 57 98 59 99 52 100 53 101 54 102 55 103 56 104
REMARK H PARENT 14 6 3 11 18 35 80 54 46 65
REMARK Flexibility Score: inf
ROOT
ATOM      1  C   UNL A   1      37.803  20.462  25.041  1.00  0.00     0.042 C 
ENDROOT
BRANCH   1   2
ATOM      2  C   UNL A   1      36.842  21.629  24.941  1.00  0.00     0.117 C 
BRANCH   2   3
ATOM      3  N   UNL A   1      36.065  21.774  26.153  1.00  0.00    -0.354 N 
ATOM      4  C   UNL A   1      35.046  22.628  26.441  1.00  0.00     0.245 C 
ATOM      5  O   UNL A   1      34.458  22.445  27.514  1.00  0.00    -0.273 OA
ATOM      6  H   UNL A   1      36.312  21.162  26.882  1.00  0.00     0.163 HD
BRANCH   4   7
ATOM      7  C   UNL A   1      34.458  23.587  25.396  1.00  0.00     0.203 C 
ATOM      8  N   UNL A   1      30.748  26.534  23.610  1.00  0.00    -0.335 N 
ATOM      9  C   UNL A   1      31.795  25.745  22.982  1.00  0.00     0.267 C 
ATOM     10  C   UNL A   1      30.730  26.581  25.076  1.00  0.00     0.267 C 
ATOM     11  H   UNL A   1      29.964  25.939  23.345  1.00  0.00     0.348 HD
ATOM     12  C   UNL A   1      33.141  25.842  23.644  1.00  0.00     0.120 C 
ATOM     13  C   UNL A   1      32.055  26.422  25.814  1.00  0.00     0.120 C 
ATOM     14  C   UNL A   1      33.070  25.505  25.141  1.00  0.00     0.155 C 
ATOM     15  O   UNL A   1      34.361  25.933  25.660  1.00  0.00    -0.352 OA
ATOM     16  N   UNL A   1      33.069  24.060  25.453  1.00  0.00    -0.295 N 
ATOM     17  C   UNL A   1      35.292  24.860  25.452  1.00  0.00     0.198 C 
BRANCH   8  18
ATOM     18  C   UNL A   1      30.457  27.847  23.031  1.00  0.00     0.258 C 
ATOM     19  C   UNL A   1      28.991  28.265  23.007  1.00  0.00     0.071 C 
ENDBRANCH   8  18
BRANCH  16  20
ATOM     20  C   UNL A   1      32.091  23.061  25.444  1.00  0.00     0.257 C 
ATOM     21  O   UNL A   1      31.110  23.110  26.185  1.00  0.00    -0.269 OA
BRANCH  20  22
ATOM     22  C   UNL A   1      32.118  21.896  24.538  1.00  0.00     0.047 A 
ATOM     23  C   UNL A   1      31.933  22.031  23.159  1.00  0.00     0.016 A 
ATOM     24  C   UNL A   1      32.215  20.613  25.081  1.00  0.00     0.101 A 
ATOM     25  C   UNL A   1      31.994  20.904  22.326  1.00  0.00     0.028 A 
ATOM     26  C   UNL A   1      32.415  19.504  24.236  1.00  0.00     0.288 A 
ATOM     27  C   UNL A   1      32.286  19.636  22.852  1.00  0.00     0.118 A 
ATOM     28  Cl  UNL A   1      32.425  18.342  21.723  1.00  0.00    -0.077 Cl
BRANCH  26  29
ATOM     29  N   UNL A   1      32.902  18.277  24.867  1.00  0.00     0.064 N 
ATOM     30  O   UNL A   1      32.093  17.549  25.454  1.00  0.00    -0.258 OA
ATOM     31  O   UNL A   1      34.096  17.989  24.689  1.00  0.00    -0.258 OA
ENDBRANCH  26  29
ENDBRANCH  20  22
ENDBRANCH  16  20
ENDBRANCH   4   7
ENDBRANCH   2   3
ENDBRANCH   1   2
BRANCH   1  32
ATOM     32  C   UNL A   1      39.066  20.772  25.827  1.00  0.00     0.118 C 
BRANCH  32  33
ATOM     33  N   UNL A   1      39.949  19.620  25.940  1.00  0.00    -0.352 N 
ATOM     34  C   UNL A   1      41.311  19.577  26.102  1.00  0.00     0.251 C 
ATOM     35  H   UNL A   1      39.504  18.744  25.892  1.00  0.00     0.163 HD
ATOM     36  O   UNL A   1      41.908  18.510  25.971  1.00  0.00    -0.269 OA
BRANCH  34  37
ATOM     37  C   UNL A   1      42.054  20.818  26.403  1.00  0.00     0.039 A 
ATOM     38  C   UNL A   1      42.523  21.604  25.349  1.00  0.00     0.014 A 
ATOM     39  C   UNL A   1      42.269  21.213  27.725  1.00  0.00     0.014 A 
ATOM     40  C   UNL A   1      43.142  22.827  25.624  1.00  0.00     0.010 A 
ATOM     41  C   UNL A   1      42.792  22.472  27.993  1.00  0.00     0.010 A 
ATOM     42  C   UNL A   1      43.241  23.290  26.945  1.00  0.00    -0.014 A 
BRANCH  42  43
ATOM     43  C   UNL A   1      43.826  24.616  27.270  1.00  0.00     0.031 A 
ATOM     44  C   UNL A   1      42.920  25.745  27.681  1.00  0.00     0.074 A 
ATOM     45  C   UNL A   1      45.148  24.826  27.112  1.00  0.00     0.049 A 
ATOM     46  N   UNL A   1      43.206  27.007  27.868  1.00  0.00    -0.248 NA
ATOM     47  C   UNL A   1      41.497  25.418  27.875  1.00  0.00     0.031 C 
ATOM     48  C   UNL A   1      46.122  23.819  26.681  1.00  0.00     0.029 A 
ATOM     49  N   UNL A   1      45.899  25.964  27.276  1.00  0.00    -0.354 N 
ATOM     50  C   UNL A   1      42.003  27.624  28.190  1.00  0.00     0.074 A 
ATOM     51  C   UNL A   1      40.973  26.611  28.108  1.00  0.00     0.031 C 
ATOM     52  C   UNL A   1      47.340  24.382  26.623  1.00  0.00     0.029 A 
ATOM     53  C   UNL A   1      47.229  25.797  26.963  1.00  0.00     0.049 A 
ATOM     54  H   UNL A   1      45.523  26.817  27.587  1.00  0.00     0.167 HD
ATOM     55  C   UNL A   1      41.779  28.909  28.551  1.00  0.00     0.037 A 
ATOM     56  C   UNL A   1      48.239  26.688  26.932  1.00  0.00     0.037 A 
ATOM     57  C   UNL A   1      42.813  29.906  28.648  1.00  0.00     0.049 A 
ATOM     58  C   UNL A   1      47.964  28.119  27.313  1.00  0.00     0.074 A 
ATOM     59  C   UNL A   1      42.697  31.228  29.037  1.00  0.00     0.029 A 
ATOM     60  N   UNL A   1      44.151  29.689  28.356  1.00  0.00    -0.354 N 
ATOM     61  N   UNL A   1      46.826  28.674  27.664  1.00  0.00    -0.248 NA
ATOM     62  C   UNL A   1      49.105  29.046  27.303  1.00  0.00     0.031 C 
ATOM     63  C   UNL A   1      43.958  31.823  28.936  1.00  0.00     0.029 A 
ATOM     64  C   UNL A   1      44.870  30.858  28.541  1.00  0.00     0.049 A 
ATOM     65  H   UNL A   1      44.533  28.831  28.061  1.00  0.00     0.167 HD
ATOM     66  C   UNL A   1      47.123  30.003  27.947  1.00  0.00     0.074 A 
ATOM     67  C   UNL A   1      48.545  30.168  27.736  1.00  0.00     0.031 C 
ATOM     68  C   UNL A   1      46.293  30.997  28.348  1.00  0.00     0.037 A 
BRANCH  55  69
ATOM     69  C   UNL A   1      40.366  29.306  28.879  1.00  0.00     0.058 A 
ATOM     70  C   UNL A   1      39.941  29.480  30.208  1.00  0.00     0.135 A 
ATOM     71  C   UNL A   1      39.433  29.552  27.859  1.00  0.00     0.135 A 
ATOM     72  F   UNL A   1      40.786  29.242  31.224  1.00  0.00    -0.206 F 
ATOM     73  C   UNL A   1      38.638  29.855  30.513  1.00  0.00     0.059 A 
ATOM     74  C   UNL A   1      38.131  29.960  28.141  1.00  0.00     0.059 A 
ATOM     75  F   UNL A   1      39.782  29.400  26.572  1.00  0.00    -0.206 F 
ATOM     76  C   UNL A   1      37.740  30.094  29.472  1.00  0.00     0.060 A 
BRANCH  76  77
ATOM     77  S   UNL A   1      36.055  30.590  29.888  1.00  0.00     0.124 S 
ATOM     78  O   UNL A   1      36.155  32.045  29.814  1.00  0.00    -0.237 OA
ATOM     79  O   UNL A   1      35.275  29.954  28.832  1.00  0.00    -0.237 OA
ATOM     80  O   UNL A   1      35.860  30.043  31.227  1.00  0.00    -0.744 OA
ENDBRANCH  76  77
ENDBRANCH  55  69
BRANCH  56  81
ATOM     81  C   UNL A   1      49.605  26.256  26.525  1.00  0.00     0.058 A 
ATOM     82  C   UNL A   1      50.060  26.437  25.211  1.00  0.00     0.135 A 
ATOM     83  C   UNL A   1      50.482  25.654  27.441  1.00  0.00     0.135 A 
ATOM     84  F   UNL A   1      49.259  27.007  24.296  1.00  0.00    -0.206 F 
ATOM     85  C   UNL A   1      51.323  26.014  24.811  1.00  0.00     0.059 A 
ATOM     86  C   UNL A   1      51.762  25.249  27.073  1.00  0.00     0.059 A 
ATOM     87  F   UNL A   1      50.106  25.479  28.718  1.00  0.00    -0.206 F 
ATOM     88  C   UNL A   1      52.167  25.420  25.751  1.00  0.00     0.060 A 
BRANCH  88  89
ATOM     89  S   UNL A   1      53.817  24.907  25.228  1.00  0.00     0.124 S 
ATOM     90  O   UNL A   1      53.965  25.634  23.972  1.00  0.00    -0.237 OA
ATOM     91  O   UNL A   1      54.646  25.372  26.336  1.00  0.00    -0.237 OA
ATOM     92  O   UNL A   1      53.696  23.458  25.111  1.00  0.00    -0.744 OA
ENDBRANCH  88  89
ENDBRANCH  56  81
BRANCH  68  93
ATOM     93  C   UNL A   1      46.898  32.343  28.637  1.00  0.00     0.058 A 
ATOM     94  C   UNL A   1      46.995  33.340  27.654  1.00  0.00     0.135 A 
ATOM     95  C   UNL A   1      47.311  32.665  29.940  1.00  0.00     0.135 A 
ATOM     96  F   UNL A   1      46.622  33.081  26.390  1.00  0.00    -0.206 F 
ATOM     97  C   UNL A   1      47.491  34.605  27.949  1.00  0.00     0.059 A 
ATOM     98  C   UNL A   1      47.781  33.933  30.265  1.00  0.00     0.059 A 
ATOM     99  F   UNL A   1      47.231  31.751  30.920  1.00  0.00    -0.206 F 
ATOM    100  C   UNL A   1      47.873  34.895  29.262  1.00  0.00     0.060 A 
BRANCH 100 101
ATOM    101  S   UNL A   1      48.455  36.561  29.643  1.00  0.00     0.124 S 
ATOM    102  O   UNL A   1      49.296  36.319  30.811  1.00  0.00    -0.237 OA
ATOM    103  O   UNL A   1      49.160  36.932  28.420  1.00  0.00    -0.237 OA
ATOM    104  O   UNL A   1      47.223  37.302  29.899  1.00  0.00    -0.744 OA
ENDBRANCH 100 101
ENDBRANCH  68  93
ENDBRANCH  42  43
ENDBRANCH  34  37
ENDBRANCH  32  33
ENDBRANCH   1  32
TORSDOF 17
ENDMDL
MODEL 2
REMARK VINA RESULT:     -11.8      6.033     10.846
REMARK SMILES CC[NH+]1CCC2(CC1)OC[C@@H](C(=O)NCCCNC(=O)c1ccc(-c3c4nc(c(-c5c(F)cc(S(=O)(=O)[O-])cc5F)c5ccc([nH]5)c(-c5c(F)cc(S(=O)(=O)[O-])cc5F)c5nc(c(-c6c(F)cc(S(=O)(=O)[O-])cc6F)c6ccc3[nH]6)C=C5)C=C4)cc1)N2C(=O)c1ccc(Cl)c([N+](=O)[O-])c1
REMARK SMILES IDX 16 1 15 2 14 3 12 4 13 5 11 7 3 8 4 9 8 10 5 12 7 13 6 14
REMARK SMILES IDX 9 15 87 16 10 17 2 18 1 19 88 20 89 21 90 22 91 23 99 24
REMARK SMILES IDX 92 25 95 26 93 27 94 28 96 29 97 30 98 31 17 32 18 33 19 34
REMARK SMILES IDX 20 36 21 37 22 38 86 39 23 40 85 41 24 42 25 43 26 44 79 45
REMARK SMILES IDX 27 46 84 47 78 48 80 49 28 50 83 51 77 52 76 53 29 55 63 56
REMARK SMILES IDX 42 57 62 58 43 59 46 60 61 61 81 62 44 63 45 64 60 66 82 67
REMARK SMILES IDX 47 68 30 69 31 70 40 71 32 72 33 73 39 74 41 75 34 76 35 77
REMARK SMILES IDX 36 78 37 79 38 80 64 81 65 82 74 83 66 84 67 85 73 86 75 87
REMARK SMILES IDX 68 88 69 89 70 90 71 91 72 92 48 93 49 94 58 95 50 96 51 97
REMARK SMILES IDX 57 98 59 99 52 100 53 101 54 102 55 103 56 104
REMARK H PARENT 14 6 3 11 18 35 80 54 46 65
REMARK Flexibility Score: inf
ROOT
ATOM      1  C   UNL A   1      39.850  22.007  26.494  1.00  0.00     0.042 C 
ENDROOT
BRANCH   1   2
ATOM      2  C   UNL A   1      38.360  22.244  26.358  1.00  0.00     0.117 C 
BRANCH   2   3
ATOM      3  N   UNL A   1      37.954  22.245  24.969  1.00  0.00    -0.354 N 
ATOM      4  C   UNL A   1      36.710  22.201  24.422  1.00  0.00     0.245 C 
ATOM      5  O   UNL A   1      36.639  22.357  23.197  1.00  0.00    -0.273 OA
ATOM      6  H   UNL A   1      38.692  22.282  24.320  1.00  0.00     0.163 HD
BRANCH   4   7
ATOM      7  C   UNL A   1      35.435  22.240  25.277  1.00  0.00     0.203 C 
ATOM      8  N   UNL A   1      30.915  24.172  26.492  1.00  0.00    -0.335 N 
ATOM      9  C   UNL A   1      31.970  23.526  27.255  1.00  0.00     0.267 C 
ATOM     10  C   UNL A   1      31.103  24.274  25.040  1.00  0.00     0.267 C 
ATOM     11  H   UNL A   1      31.055  25.115  26.853  1.00  0.00     0.348 HD
ATOM     12  C   UNL A   1      32.581  22.322  26.594  1.00  0.00     0.120 C 
ATOM     13  C   UNL A   1      31.944  23.204  24.350  1.00  0.00     0.120 C 
ATOM     14  C   UNL A   1      33.090  22.640  25.180  1.00  0.00     0.155 C 
ATOM     15  O   UNL A   1      33.361  21.332  24.601  1.00  0.00    -0.352 OA
ATOM     16  N   UNL A   1      34.418  23.288  25.129  1.00  0.00    -0.295 N 
ATOM     17  C   UNL A   1      34.684  20.944  25.001  1.00  0.00     0.198 C 
BRANCH   8  18
ATOM     18  C   UNL A   1      29.533  23.824  26.826  1.00  0.00     0.258 C 
ATOM     19  C   UNL A   1      29.282  22.381  27.249  1.00  0.00     0.071 C 
ENDBRANCH   8  18
BRANCH  16  20
ATOM     20  C   UNL A   1      34.871  24.598  25.309  1.00  0.00     0.257 C 
ATOM     21  O   UNL A   1      36.013  24.838  25.699  1.00  0.00    -0.269 OA
BRANCH  20  22
ATOM     22  C   UNL A   1      34.057  25.794  25.019  1.00  0.00     0.047 A 
ATOM     23  C   UNL A   1      33.847  26.242  23.711  1.00  0.00     0.016 A 
ATOM     24  C   UNL A   1      33.579  26.566  26.079  1.00  0.00     0.101 A 
ATOM     25  C   UNL A   1      33.044  27.368  23.472  1.00  0.00     0.028 A 
ATOM     26  C   UNL A   1      32.662  27.608  25.835  1.00  0.00     0.288 A 
ATOM     27  C   UNL A   1      32.403  28.031  24.530  1.00  0.00     0.118 A 
ATOM     28  Cl  UNL A   1      31.368  29.343  24.108  1.00  0.00    -0.077 Cl
BRANCH  26  29
ATOM     29  N   UNL A   1      31.907  28.101  26.986  1.00  0.00     0.064 N 
ATOM     30  O   UNL A   1      32.107  29.258  27.377  1.00  0.00    -0.258 OA
ATOM     31  O   UNL A   1      31.032  27.352  27.448  1.00  0.00    -0.258 OA
ENDBRANCH  26  29
ENDBRANCH  20  22
ENDBRANCH  16  20
ENDBRANCH   4   7
ENDBRANCH   2   3
ENDBRANCH   1   2
BRANCH   1  32
ATOM     32  C   UNL A   1      40.615  23.200  27.043  1.00  0.00     0.118 C 
BRANCH  32  33
ATOM     33  N   UNL A   1      41.385  23.889  26.017  1.00  0.00    -0.352 N 
ATOM     34  C   UNL A   1      41.826  25.188  25.982  1.00  0.00     0.251 C 
ATOM     35  H   UNL A   1      41.621  23.343  25.233  1.00  0.00     0.163 HD
ATOM     36  O   UNL A   1      42.286  25.648  24.938  1.00  0.00    -0.269 OA
BRANCH  34  37
ATOM     37  C   UNL A   1      41.720  26.033  27.189  1.00  0.00     0.039 A 
ATOM     38  C   UNL A   1      42.665  27.037  27.404  1.00  0.00     0.014 A 
ATOM     39  C   UNL A   1      40.674  25.844  28.096  1.00  0.00     0.014 A 
ATOM     40  C   UNL A   1      42.516  27.902  28.492  1.00  0.00     0.010 A 
ATOM     41  C   UNL A   1      40.472  26.766  29.116  1.00  0.00     0.010 A 
ATOM     42  C   UNL A   1      41.395  27.800  29.330  1.00  0.00    -0.014 A 
BRANCH  42  43
ATOM     43  C   UNL A   1      41.165  28.747  30.451  1.00  0.00     0.031 A 
ATOM     44  C   UNL A   1      41.960  28.601  31.720  1.00  0.00     0.074 A 
ATOM     45  C   UNL A   1      40.191  29.674  30.360  1.00  0.00     0.049 A 
ATOM     46  N   UNL A   1      41.819  29.225  32.860  1.00  0.00    -0.248 NA
ATOM     47  C   UNL A   1      43.036  27.594  31.717  1.00  0.00     0.031 C 
ATOM     48  C   UNL A   1      39.328  29.887  29.196  1.00  0.00     0.029 A 
ATOM     49  N   UNL A   1      39.748  30.599  31.274  1.00  0.00    -0.354 N 
ATOM     50  C   UNL A   1      42.776  28.682  33.709  1.00  0.00     0.074 A 
ATOM     51  C   UNL A   1      43.447  27.632  32.975  1.00  0.00     0.031 C 
ATOM     52  C   UNL A   1      38.467  30.883  29.463  1.00  0.00     0.029 A 
ATOM     53  C   UNL A   1      38.681  31.346  30.830  1.00  0.00     0.049 A 
ATOM     54  H   UNL A   1      40.155  30.717  32.161  1.00  0.00     0.167 HD
ATOM     55  C   UNL A   1      43.089  29.045  34.976  1.00  0.00     0.037 A 
ATOM     56  C   UNL A   1      37.945  32.281  31.462  1.00  0.00     0.037 A 
ATOM     57  C   UNL A   1      42.428  30.104  35.692  1.00  0.00     0.049 A 
ATOM     58  C   UNL A   1      38.293  32.653  32.879  1.00  0.00     0.074 A 
ATOM     59  C   UNL A   1      42.691  30.573  36.967  1.00  0.00     0.029 A 
ATOM     60  N   UNL A   1      41.376  30.858  35.196  1.00  0.00    -0.354 N 
ATOM     61  N   UNL A   1      39.236  32.163  33.650  1.00  0.00    -0.248 NA
ATOM     62  C   UNL A   1      37.489  33.707  33.512  1.00  0.00     0.031 C 
ATOM     63  C   UNL A   1      41.767  31.580  37.259  1.00  0.00     0.029 A 
ATOM     64  C   UNL A   1      40.967  31.780  36.146  1.00  0.00     0.049 A 
ATOM     65  H   UNL A   1      40.978  30.754  34.302  1.00  0.00     0.167 HD
ATOM     66  C   UNL A   1      39.157  32.871  34.845  1.00  0.00     0.074 A 
ATOM     67  C   UNL A   1      38.082  33.829  34.692  1.00  0.00     0.031 C 
ATOM     68  C   UNL A   1      39.908  32.742  35.966  1.00  0.00     0.037 A 
BRANCH  55  69
ATOM     69  C   UNL A   1      44.202  28.300  35.661  1.00  0.00     0.058 A 
ATOM     70  C   UNL A   1      45.538  28.725  35.566  1.00  0.00     0.135 A 
ATOM     71  C   UNL A   1      43.931  27.171  36.450  1.00  0.00     0.135 A 
ATOM     72  F   UNL A   1      45.857  29.789  34.811  1.00  0.00    -0.206 F 
ATOM     73  C   UNL A   1      46.567  28.043  36.205  1.00  0.00     0.059 A 
ATOM     74  C   UNL A   1      44.942  26.491  37.125  1.00  0.00     0.059 A 
ATOM     75  F   UNL A   1      42.674  26.718  36.575  1.00  0.00    -0.206 F 
ATOM     76  C   UNL A   1      46.259  26.927  36.984  1.00  0.00     0.060 A 
BRANCH  76  77
ATOM     77  S   UNL A   1      47.607  26.061  37.814  1.00  0.00     0.124 S 
ATOM     78  O   UNL A   1      47.528  24.741  37.197  1.00  0.00    -0.237 OA
ATOM     79  O   UNL A   1      48.767  26.865  37.444  1.00  0.00    -0.237 OA
ATOM     80  O   UNL A   1      47.232  26.117  39.223  1.00  0.00    -0.744 OA
ENDBRANCH  76  77
ENDBRANCH  55  69
BRANCH  56  81
ATOM     81  C   UNL A   1      36.805  32.933  30.760  1.00  0.00     0.058 A 
ATOM     82  C   UNL A   1      37.021  33.923  29.790  1.00  0.00     0.135 A 
ATOM     83  C   UNL A   1      35.476  32.579  31.043  1.00  0.00     0.135 A 
ATOM     84  F   UNL A   1      38.273  34.300  29.484  1.00  0.00    -0.206 F 
ATOM     85  C   UNL A   1      35.965  34.558  29.147  1.00  0.00     0.059 A 
ATOM     86  C   UNL A   1      34.402  33.178  30.391  1.00  0.00     0.059 A 
ATOM     87  F   UNL A   1      35.213  31.619  31.944  1.00  0.00    -0.206 F 
ATOM     88  C   UNL A   1      34.657  34.178  29.455  1.00  0.00     0.060 A 
BRANCH  88  89
ATOM     89  S   UNL A   1      33.295  34.985  28.587  1.00  0.00     0.124 S 
ATOM     90  O   UNL A   1      34.010  35.926  27.731  1.00  0.00    -0.237 OA
ATOM     91  O   UNL A   1      32.658  33.861  27.908  1.00  0.00    -0.237 OA
ATOM     92  O   UNL A   1      32.514  35.579  29.667  1.00  0.00    -0.744 OA
ENDBRANCH  88  89
ENDBRANCH  56  81
BRANCH  68  93
ATOM     93  C   UNL A   1      39.636  33.687  37.104  1.00  0.00     0.058 A 
ATOM     94  C   UNL A   1      38.756  33.359  38.147  1.00  0.00     0.135 A 
ATOM     95  C   UNL A   1      40.333  34.904  37.192  1.00  0.00     0.135 A 
ATOM     96  F   UNL A   1      38.059  32.212  38.108  1.00  0.00    -0.206 F 
ATOM     97  C   UNL A   1      38.566  34.209  39.231  1.00  0.00     0.059 A 
ATOM     98  C   UNL A   1      40.182  35.754  38.282  1.00  0.00     0.059 A 
ATOM     99  F   UNL A   1      41.193  35.261  36.226  1.00  0.00    -0.206 F 
ATOM    100  C   UNL A   1      39.292  35.402  39.294  1.00  0.00     0.060 A 
BRANCH 100 101
ATOM    101  S   UNL A   1      39.082  36.465  40.738  1.00  0.00     0.124 S 
ATOM    102  O   UNL A   1      40.447  36.546  41.246  1.00  0.00    -0.237 OA
ATOM    103  O   UNL A   1      38.550  37.690  40.148  1.00  0.00    -0.237 OA
ATOM    104  O   UNL A   1      38.144  35.720  41.575  1.00  0.00    -0.744 OA
ENDBRANCH 100 101
ENDBRANCH  68  93
ENDBRANCH  42  43
ENDBRANCH  34  37
ENDBRANCH  32  33
ENDBRANCH   1  32
TORSDOF 17
ENDMDL
MODEL 3
REMARK VINA RESULT:     -11.7      6.054      8.598
REMARK SMILES CC[NH+]1CCC2(CC1)OC[C@@H](C(=O)NCCCNC(=O)c1ccc(-c3c4nc(c(-c5c(F)cc(S(=O)(=O)[O-])cc5F)c5ccc([nH]5)c(-c5c(F)cc(S(=O)(=O)[O-])cc5F)c5nc(c(-c6c(F)cc(S(=O)(=O)[O-])cc6F)c6ccc3[nH]6)C=C5)C=C4)cc1)N2C(=O)c1ccc(Cl)c([N+](=O)[O-])c1
REMARK SMILES IDX 16 1 15 2 14 3 12 4 13 5 11 7 3 8 4 9 8 10 5 12 7 13 6 14
REMARK SMILES IDX 9 15 87 16 10 17 2 18 1 19 88 20 89 21 90 22 91 23 99 24
REMARK SMILES IDX 92 25 95 26 93 27 94 28 96 29 97 30 98 31 17 32 18 33 19 34
REMARK SMILES IDX 20 36 21 37 22 38 86 39 23 40 85 41 24 42 25 43 26 44 79 45
REMARK SMILES IDX 27 46 84 47 78 48 80 49 28 50 83 51 77 52 76 53 29 55 63 56
REMARK SMILES IDX 42 57 62 58 43 59 46 60 61 61 81 62 44 63 45 64 60 66 82 67
REMARK SMILES IDX 47 68 30 69 31 70 40 71 32 72 33 73 39 74 41 75 34 76 35 77
REMARK SMILES IDX 36 78 37 79 38 80 64 81 65 82 74 83 66 84 67 85 73 86 75 87
REMARK SMILES IDX 68 88 69 89 70 90 71 91 72 92 48 93 49 94 58 95 50 96 51 97
REMARK SMILES IDX 57 98 59 99 52 100 53 101 54 102 55 103 56 104
REMARK H PARENT 14 6 3 11 18 35 80 54 46 65
REMARK Flexibility Score: inf
ROOT
ATOM      1  C   UNL A   1      40.158  22.121  27.007  1.00  0.00     0.042 C 
ENDROOT
BRANCH   1   2
ATOM      2  C   UNL A   1      38.805  22.698  26.642  1.00  0.00     0.117 C 
BRANCH   2   3
ATOM      3  N   UNL A   1      38.529  22.534  25.231  1.00  0.00    -0.354 N 
ATOM      4  C   UNL A   1      37.379  22.170  24.602  1.00  0.00     0.245 C 
ATOM      5  O   UNL A   1      37.377  22.244  23.367  1.00  0.00    -0.273 OA
ATOM      6  H   UNL A   1      39.290  22.712  24.635  1.00  0.00     0.163 HD
BRANCH   4   7
ATOM      7  C   UNL A   1      36.062  21.949  25.361  1.00  0.00     0.203 C 
ATOM      8  N   UNL A   1      31.171  22.933  26.220  1.00  0.00    -0.335 N 
ATOM      9  C   UNL A   1      32.273  22.506  27.065  1.00  0.00     0.267 C 
ATOM     10  C   UNL A   1      31.441  23.077  24.786  1.00  0.00     0.267 C 
ATOM     11  H   UNL A   1      31.092  23.883  26.581  1.00  0.00     0.348 HD
ATOM     12  C   UNL A   1      33.160  21.453  26.464  1.00  0.00     0.120 C 
ATOM     13  C   UNL A   1      32.527  22.201  24.169  1.00  0.00     0.120 C 
ATOM     14  C   UNL A   1      33.699  21.873  25.088  1.00  0.00     0.155 C 
ATOM     15  O   UNL A   1      34.268  20.649  24.544  1.00  0.00    -0.352 OA
ATOM     16  N   UNL A   1      34.870  22.773  25.128  1.00  0.00    -0.295 N 
ATOM     17  C   UNL A   1      35.608  20.530  25.043  1.00  0.00     0.198 C 
BRANCH   8  18
ATOM     18  C   UNL A   1      29.864  22.314  26.456  1.00  0.00     0.258 C 
ATOM     19  C   UNL A   1      29.043  22.886  27.606  1.00  0.00     0.071 C 
ENDBRANCH   8  18
BRANCH  16  20
ATOM     20  C   UNL A   1      35.038  24.147  25.328  1.00  0.00     0.257 C 
ATOM     21  O   UNL A   1      36.074  24.608  25.806  1.00  0.00    -0.269 OA
BRANCH  20  22
ATOM     22  C   UNL A   1      34.030  25.159  24.957  1.00  0.00     0.047 A 
ATOM     23  C   UNL A   1      33.914  25.638  23.648  1.00  0.00     0.016 A 
ATOM     24  C   UNL A   1      33.246  25.738  25.957  1.00  0.00     0.101 A 
ATOM     25  C   UNL A   1      32.924  26.580  23.328  1.00  0.00     0.028 A 
ATOM     26  C   UNL A   1      32.166  26.573  25.611  1.00  0.00     0.288 A 
ATOM     27  C   UNL A   1      32.008  27.018  24.296  1.00  0.00     0.118 A 
ATOM     28  Cl  UNL A   1      30.780  28.104  23.765  1.00  0.00    -0.077 Cl
BRANCH  26  29
ATOM     29  N   UNL A   1      31.165  26.816  26.648  1.00  0.00     0.064 N 
ATOM     30  O   UNL A   1      30.217  26.029  26.756  1.00  0.00    -0.258 OA
ATOM     31  O   UNL A   1      31.382  27.756  27.430  1.00  0.00    -0.258 OA
ENDBRANCH  26  29
ENDBRANCH  20  22
ENDBRANCH  16  20
ENDBRANCH   4   7
ENDBRANCH   2   3
ENDBRANCH   1   2
BRANCH   1  32
ATOM     32  C   UNL A   1      41.176  23.164  27.435  1.00  0.00     0.118 C 
BRANCH  32  33
ATOM     33  N   UNL A   1      41.698  23.929  26.312  1.00  0.00    -0.352 N 
ATOM     34  C   UNL A   1      41.751  25.288  26.130  1.00  0.00     0.251 C 
ATOM     35  H   UNL A   1      42.066  23.391  25.574  1.00  0.00     0.163 HD
ATOM     36  O   UNL A   1      42.040  25.745  25.025  1.00  0.00    -0.269 OA
BRANCH  34  37
ATOM     37  C   UNL A   1      41.430  26.192  27.253  1.00  0.00     0.039 A 
ATOM     38  C   UNL A   1      40.359  25.882  28.093  1.00  0.00     0.014 A 
ATOM     39  C   UNL A   1      42.200  27.334  27.486  1.00  0.00     0.014 A 
ATOM     40  C   UNL A   1      40.109  26.679  29.214  1.00  0.00     0.010 A 
ATOM     41  C   UNL A   1      42.014  28.065  28.653  1.00  0.00     0.010 A 
ATOM     42  C   UNL A   1      40.962  27.751  29.525  1.00  0.00    -0.014 A 
BRANCH  42  43
ATOM     43  C   UNL A   1      40.771  28.574  30.747  1.00  0.00     0.031 A 
ATOM     44  C   UNL A   1      39.735  29.666  30.750  1.00  0.00     0.074 A 
ATOM     45  C   UNL A   1      41.580  28.400  31.810  1.00  0.00     0.049 A 
ATOM     46  N   UNL A   1      39.505  30.584  31.652  1.00  0.00    -0.248 NA
ATOM     47  C   UNL A   1      38.862  29.757  29.567  1.00  0.00     0.031 C 
ATOM     48  C   UNL A   1      42.647  27.401  31.909  1.00  0.00     0.029 A 
ATOM     49  N   UNL A   1      41.646  29.074  33.005  1.00  0.00    -0.354 N 
ATOM     50  C   UNL A   1      38.474  31.365  31.143  1.00  0.00     0.074 A 
ATOM     51  C   UNL A   1      38.168  30.854  29.825  1.00  0.00     0.031 C 
ATOM     52  C   UNL A   1      43.254  27.522  33.101  1.00  0.00     0.029 A 
ATOM     53  C   UNL A   1      42.655  28.636  33.831  1.00  0.00     0.049 A 
ATOM     54  H   UNL A   1      41.030  29.801  33.247  1.00  0.00     0.167 HD
ATOM     55  C   UNL A   1      37.821  32.395  31.731  1.00  0.00     0.037 A 
ATOM     56  C   UNL A   1      43.067  29.095  35.029  1.00  0.00     0.037 A 
ATOM     57  C   UNL A   1      38.121  32.885  33.050  1.00  0.00     0.049 A 
ATOM     58  C   UNL A   1      42.343  30.258  35.655  1.00  0.00     0.074 A 
ATOM     59  C   UNL A   1      37.497  33.901  33.752  1.00  0.00     0.029 A 
ATOM     60  N   UNL A   1      39.128  32.393  33.868  1.00  0.00    -0.354 N 
ATOM     61  N   UNL A   1      41.336  30.953  35.179  1.00  0.00    -0.248 NA
ATOM     62  C   UNL A   1      42.801  30.696  36.980  1.00  0.00     0.031 C 
ATOM     63  C   UNL A   1      38.157  34.054  34.975  1.00  0.00     0.029 A 
ATOM     64  C   UNL A   1      39.153  33.095  35.061  1.00  0.00     0.049 A 
ATOM     65  H   UNL A   1      39.735  31.654  33.634  1.00  0.00     0.167 HD
ATOM     66  C   UNL A   1      41.021  31.887  36.160  1.00  0.00     0.074 A 
ATOM     67  C   UNL A   1      41.937  31.664  37.259  1.00  0.00     0.031 C 
ATOM     68  C   UNL A   1      40.060  32.843  36.154  1.00  0.00     0.037 A 
BRANCH  55  69
ATOM     69  C   UNL A   1      36.711  33.051  30.957  1.00  0.00     0.058 A 
ATOM     70  C   UNL A   1      35.361  32.829  31.277  1.00  0.00     0.135 A 
ATOM     71  C   UNL A   1      36.995  33.939  29.907  1.00  0.00     0.135 A 
ATOM     72  F   UNL A   1      35.031  31.976  32.260  1.00  0.00    -0.206 F 
ATOM     73  C   UNL A   1      34.334  33.441  30.567  1.00  0.00     0.059 A 
ATOM     74  C   UNL A   1      35.983  34.589  29.204  1.00  0.00     0.059 A 
ATOM     75  F   UNL A   1      38.266  34.188  29.556  1.00  0.00    -0.206 F 
ATOM     76  C   UNL A   1      34.655  34.321  29.533  1.00  0.00     0.060 A 
BRANCH  76  77
ATOM     77  S   UNL A   1      33.307  35.113  28.631  1.00  0.00     0.124 S 
ATOM     78  O   UNL A   1      34.000  36.233  28.000  1.00  0.00    -0.237 OA
ATOM     79  O   UNL A   1      32.869  34.051  27.731  1.00  0.00    -0.237 OA
ATOM     80  O   UNL A   1      32.360  35.473  29.681  1.00  0.00    -0.744 OA
ENDBRANCH  76  77
ENDBRANCH  55  69
BRANCH  56  81
ATOM     81  C   UNL A   1      44.222  28.455  35.717  1.00  0.00     0.058 A 
ATOM     82  C   UNL A   1      45.532  28.911  35.509  1.00  0.00     0.135 A 
ATOM     83  C   UNL A   1      44.040  27.376  36.597  1.00  0.00     0.135 A 
ATOM     84  F   UNL A   1      45.760  29.939  34.676  1.00  0.00    -0.206 F 
ATOM     85  C   UNL A   1      46.622  28.305  36.125  1.00  0.00     0.059 A 
ATOM     86  C   UNL A   1      45.111  26.772  37.249  1.00  0.00     0.059 A 
ATOM     87  F   UNL A   1      42.805  26.916  36.852  1.00  0.00    -0.206 F 
ATOM     88  C   UNL A   1      46.401  27.236  36.994  1.00  0.00     0.060 A 
BRANCH  88  89
ATOM     89  S   UNL A   1      47.821  26.481  37.815  1.00  0.00     0.124 S 
ATOM     90  O   UNL A   1      47.233  26.042  39.075  1.00  0.00    -0.237 OA
ATOM     91  O   UNL A   1      48.188  25.424  36.878  1.00  0.00    -0.237 OA
ATOM     92  O   UNL A   1      48.776  27.581  37.911  1.00  0.00    -0.744 OA
ENDBRANCH  88  89
ENDBRANCH  56  81
BRANCH  68  93
ATOM     93  C   UNL A   1      39.905  33.691  37.386  1.00  0.00     0.058 A 
ATOM     94  C   UNL A   1      40.619  34.887  37.557  1.00  0.00     0.135 A 
ATOM     95  C   UNL A   1      38.967  33.340  38.371  1.00  0.00     0.135 A 
ATOM     96  F   UNL A   1      41.533  35.265  36.650  1.00  0.00    -0.206 F 
ATOM     97  C   UNL A   1      40.416  35.700  38.667  1.00  0.00     0.059 A 
ATOM     98  C   UNL A   1      38.725  34.153  39.473  1.00  0.00     0.059 A 
ATOM     99  F   UNL A   1      38.252  32.210  38.251  1.00  0.00    -0.206 F 
ATOM    100  C   UNL A   1      39.459  35.329  39.616  1.00  0.00     0.060 A 
BRANCH 100 101
ATOM    101  S   UNL A   1      39.163  36.427  41.018  1.00  0.00     0.124 S 
ATOM    102  O   UNL A   1      38.569  37.588  40.364  1.00  0.00    -0.237 OA
ATOM    103  O   UNL A   1      38.260  35.635  41.848  1.00  0.00    -0.237 OA
ATOM    104  O   UNL A   1      40.497  36.635  41.575  1.00  0.00    -0.744 OA
ENDBRANCH 100 101
ENDBRANCH  68  93
ENDBRANCH  42  43
ENDBRANCH  34  37
ENDBRANCH  32  33
ENDBRANCH   1  32
TORSDOF 17
ENDMDL
