MODEL 1
REMARK VINA RESULT:     -13.6      0.000      0.000
REMARK SMILES Cc1ncc(CC(=O)N2CCc3c(c(C(=O)NCCCNC(=O)c4ccc(-c5c6nc(c(-c7c(F)cc(S(=O)(=O)[O-])cc7F)c7ccc([nH]7)c(-c7c(F)cc(S(=O)(=O)[O-])cc7F)c7nc(c(-c8c(F)cc(S(=O)(=O)[O-])cc8F)c8ccc5[nH]8)C=C7)C=C6)cc4)nn3CC3CC3)C2)c(=O)[nH]1
REMARK SMILES IDX 19 1 18 2 17 3 15 4 16 5 14 7 9 8 10 9 96 10 11 11 13 12
REMARK SMILES IDX 12 13 91 14 90 15 7 16 8 17 6 18 5 19 1 20 2 21 3 22 99 23
REMARK SMILES IDX 4 24 97 25 98 27 92 28 93 29 94 30 95 31 20 32 21 33 22 34
REMARK SMILES IDX 23 36 24 37 25 38 89 39 26 40 88 41 27 42 28 43 29 44 82 45
REMARK SMILES IDX 30 46 87 47 81 48 83 49 31 50 86 51 80 52 79 53 32 55 66 56
REMARK SMILES IDX 45 57 65 58 46 59 49 60 64 61 84 62 47 63 48 64 63 66 85 67
REMARK SMILES IDX 50 68 33 69 34 70 43 71 35 72 36 73 42 74 44 75 37 76 38 77
REMARK SMILES IDX 39 78 40 79 41 80 67 81 68 82 77 83 69 84 70 85 76 86 78 87
REMARK SMILES IDX 71 88 72 89 73 90 74 91 75 92 51 93 52 94 61 95 53 96 54 97
REMARK SMILES IDX 60 98 62 99 55 100 56 101 57 102 58 103 59 104
REMARK H PARENT 17 6 99 26 21 35 83 54 49 65
REMARK Flexibility Score: inf
ROOT
ATOM      1  C   UNL A   1      38.893  21.497  25.891  1.00  0.00     0.042 C 
ENDROOT
BRANCH   1   2
ATOM      2  C   UNL A   1      37.739  22.491  25.713  1.00  0.00     0.118 C 
BRANCH   2   3
ATOM      3  N   UNL A   1      37.432  22.779  24.317  1.00  0.00    -0.351 N 
ATOM      4  C   UNL A   1      36.235  22.721  23.623  1.00  0.00     0.272 C 
ATOM      5  O   UNL A   1      36.222  23.133  22.468  1.00  0.00    -0.267 OA
ATOM      6  H   UNL A   1      38.205  23.062  23.777  1.00  0.00     0.163 HD
BRANCH   4   7
ATOM      7  C   UNL A   1      35.020  22.172  24.252  1.00  0.00     0.155 A 
ATOM      8  N   UNL A   1      32.088  24.486  24.963  1.00  0.00    -0.338 N 
ATOM      9  C   UNL A   1      31.086  23.431  24.735  1.00  0.00     0.126 C 
ATOM     10  C   UNL A   1      33.373  24.285  24.240  1.00  0.00     0.159 C 
ATOM     11  C   UNL A   1      31.527  22.107  25.380  1.00  0.00     0.078 C 
ATOM     12  C   UNL A   1      33.791  22.858  24.489  1.00  0.00     0.026 A 
ATOM     13  C   UNL A   1      32.945  21.891  25.005  1.00  0.00     0.046 A 
ATOM     14  N   UNL A   1      33.664  20.749  25.108  1.00  0.00    -0.268 N 
ATOM     15  N   UNL A   1      34.922  20.897  24.675  1.00  0.00    -0.167 NA
BRANCH   8  16
ATOM     16  C   UNL A   1      31.944  25.616  25.747  1.00  0.00     0.227 C 
ATOM     17  O   UNL A   1      31.251  25.588  26.770  1.00  0.00    -0.275 OA
BRANCH  16  18
ATOM     18  C   UNL A   1      32.378  26.998  25.217  1.00  0.00     0.143 C 
BRANCH  18  19
ATOM     19  C   UNL A   1      31.475  27.796  24.341  1.00  0.00     0.045 A 
ATOM     20  C   UNL A   1      29.367  30.266  21.638  1.00  0.00     0.087 C 
ATOM     21  C   UNL A   1      30.052  29.340  22.597  1.00  0.00     0.105 A 
ATOM     22  N   UNL A   1      30.181  28.082  22.328  1.00  0.00    -0.243 NA
ATOM     23  N   UNL A   1      30.531  29.916  23.739  1.00  0.00    -0.311 N 
ATOM     24  C   UNL A   1      30.887  27.330  23.229  1.00  0.00     0.123 A 
ATOM     25  C   UNL A   1      31.209  29.207  24.688  1.00  0.00     0.254 A 
ATOM     26  H   UNL A   1      30.381  30.878  23.882  1.00  0.00     0.171 HD
ATOM     27  O   UNL A   1      31.588  29.716  25.733  1.00  0.00    -0.269 OA
ENDBRANCH  18  19
ENDBRANCH  16  18
ENDBRANCH   8  16
BRANCH  14  28
ATOM     28  C   UNL A   1      33.251  19.462  25.646  1.00  0.00     0.148 C 
BRANCH  28  29
ATOM     29  C   UNL A   1      32.541  18.564  24.669  1.00  0.00     0.011 C 
ATOM     30  C   UNL A   1      32.457  18.807  23.176  1.00  0.00     0.006 C 
ATOM     31  C   UNL A   1      33.355  17.729  23.707  1.00  0.00     0.006 C 
ENDBRANCH  28  29
ENDBRANCH  14  28
ENDBRANCH   4   7
ENDBRANCH   2   3
ENDBRANCH   1   2
BRANCH   1  32
ATOM     32  C   UNL A   1      40.035  22.131  26.669  1.00  0.00     0.118 C 
BRANCH  32  33
ATOM     33  N   UNL A   1      41.318  22.108  25.934  1.00  0.00    -0.352 N 
ATOM     34  C   UNL A   1      42.154  23.154  25.553  1.00  0.00     0.251 C 
ATOM     35  H   UNL A   1      41.630  21.212  25.673  1.00  0.00     0.163 HD
ATOM     36  O   UNL A   1      43.017  22.984  24.703  1.00  0.00    -0.269 OA
BRANCH  34  37
ATOM     37  C   UNL A   1      41.986  24.469  26.199  1.00  0.00     0.039 A 
ATOM     38  C   UNL A   1      41.195  25.508  25.695  1.00  0.00     0.014 A 
ATOM     39  C   UNL A   1      42.630  24.623  27.409  1.00  0.00     0.014 A 
ATOM     40  C   UNL A   1      41.089  26.681  26.448  1.00  0.00     0.010 A 
ATOM     41  C   UNL A   1      42.135  25.523  28.288  1.00  0.00     0.010 A 
ATOM     42  C   UNL A   1      41.600  26.671  27.746  1.00  0.00    -0.014 A 
BRANCH  42  43
ATOM     43  C   UNL A   1      41.612  27.795  28.665  1.00  0.00     0.031 A 
ATOM     44  C   UNL A   1      42.703  28.755  28.401  1.00  0.00     0.074 A 
ATOM     45  C   UNL A   1      40.504  28.102  29.382  1.00  0.00     0.049 A 
ATOM     46  N   UNL A   1      43.783  28.920  29.089  1.00  0.00    -0.248 NA
ATOM     47  C   UNL A   1      42.722  29.439  27.094  1.00  0.00     0.031 C 
ATOM     48  C   UNL A   1      39.205  27.410  29.411  1.00  0.00     0.029 A 
ATOM     49  N   UNL A   1      40.258  29.214  30.130  1.00  0.00    -0.354 N 
ATOM     50  C   UNL A   1      44.465  29.946  28.443  1.00  0.00     0.074 A 
ATOM     51  C   UNL A   1      43.947  29.967  27.104  1.00  0.00     0.031 C 
ATOM     52  C   UNL A   1      38.266  28.224  29.939  1.00  0.00     0.029 A 
ATOM     53  C   UNL A   1      38.905  29.440  30.400  1.00  0.00     0.049 A 
ATOM     54  H   UNL A   1      40.974  29.808  30.453  1.00  0.00     0.167 HD
ATOM     55  C   UNL A   1      45.138  30.899  29.149  1.00  0.00     0.037 A 
ATOM     56  C   UNL A   1      38.387  30.606  30.874  1.00  0.00     0.037 A 
ATOM     57  C   UNL A   1      45.243  30.512  30.540  1.00  0.00     0.049 A 
ATOM     58  C   UNL A   1      39.530  31.327  31.521  1.00  0.00     0.074 A 
ATOM     59  C   UNL A   1      45.727  29.397  31.200  1.00  0.00     0.029 A 
ATOM     60  N   UNL A   1      44.408  31.141  31.440  1.00  0.00    -0.354 N 
ATOM     61  N   UNL A   1      40.174  30.864  32.565  1.00  0.00    -0.248 NA
ATOM     62  C   UNL A   1      40.290  32.254  30.691  1.00  0.00     0.031 C 
ATOM     63  C   UNL A   1      44.774  29.139  32.229  1.00  0.00     0.029 A 
ATOM     64  C   UNL A   1      43.829  30.166  32.214  1.00  0.00     0.049 A 
ATOM     65  H   UNL A   1      44.256  32.110  31.514  1.00  0.00     0.167 HD
ATOM     66  C   UNL A   1      41.519  31.088  32.290  1.00  0.00     0.074 A 
ATOM     67  C   UNL A   1      41.522  31.999  31.145  1.00  0.00     0.031 C 
ATOM     68  C   UNL A   1      42.504  30.279  32.792  1.00  0.00     0.037 A 
BRANCH  55  69
ATOM     69  C   UNL A   1      45.337  32.338  28.710  1.00  0.00     0.058 A 
ATOM     70  C   UNL A   1      46.647  32.864  28.729  1.00  0.00     0.135 A 
ATOM     71  C   UNL A   1      44.311  33.295  28.532  1.00  0.00     0.135 A 
ATOM     72  F   UNL A   1      47.709  32.053  28.854  1.00  0.00    -0.206 F 
ATOM     73  C   UNL A   1      46.907  34.233  28.703  1.00  0.00     0.059 A 
ATOM     74  C   UNL A   1      44.554  34.661  28.450  1.00  0.00     0.059 A 
ATOM     75  F   UNL A   1      43.013  32.983  28.513  1.00  0.00    -0.206 F 
ATOM     76  C   UNL A   1      45.847  35.126  28.590  1.00  0.00     0.060 A 
BRANCH  76  77
ATOM     77  S   UNL A   1      46.165  36.893  28.680  1.00  0.00     0.124 S 
ATOM     78  O   UNL A   1      44.862  37.398  29.099  1.00  0.00    -0.237 OA
ATOM     79  O   UNL A   1      47.228  36.957  29.677  1.00  0.00    -0.237 OA
ATOM     80  O   UNL A   1      46.568  37.232  27.319  1.00  0.00    -0.744 OA
ENDBRANCH  76  77
ENDBRANCH  55  69
BRANCH  56  81
ATOM     81  C   UNL A   1      37.131  31.273  30.408  1.00  0.00     0.058 A 
ATOM     82  C   UNL A   1      36.186  31.801  31.310  1.00  0.00     0.135 A 
ATOM     83  C   UNL A   1      36.943  31.634  29.055  1.00  0.00     0.135 A 
ATOM     84  F   UNL A   1      36.285  31.533  32.621  1.00  0.00    -0.206 F 
ATOM     85  C   UNL A   1      35.156  32.666  30.902  1.00  0.00     0.059 A 
ATOM     86  C   UNL A   1      35.918  32.477  28.624  1.00  0.00     0.059 A 
ATOM     87  F   UNL A   1      37.806  31.253  28.104  1.00  0.00    -0.206 F 
ATOM     88  C   UNL A   1      35.044  33.015  29.556  1.00  0.00     0.060 A 
BRANCH  88  89
ATOM     89  S   UNL A   1      33.847  34.271  29.037  1.00  0.00     0.124 S 
ATOM     90  O   UNL A   1      33.194  34.607  30.297  1.00  0.00    -0.237 OA
ATOM     91  O   UNL A   1      34.709  35.302  28.470  1.00  0.00    -0.237 OA
ATOM     92  O   UNL A   1      33.012  33.564  28.069  1.00  0.00    -0.744 OA
ENDBRANCH  88  89
ENDBRANCH  56  81
BRANCH  68  93
ATOM     93  C   UNL A   1      42.162  29.261  33.857  1.00  0.00     0.058 A 
ATOM     94  C   UNL A   1      41.730  27.947  33.597  1.00  0.00     0.135 A 
ATOM     95  C   UNL A   1      42.490  29.564  35.187  1.00  0.00     0.135 A 
ATOM     96  F   UNL A   1      41.501  27.533  32.345  1.00  0.00    -0.206 F 
ATOM     97  C   UNL A   1      41.598  26.993  34.610  1.00  0.00     0.059 A 
ATOM     98  C   UNL A   1      42.397  28.622  36.209  1.00  0.00     0.059 A 
ATOM     99  F   UNL A   1      42.974  30.778  35.499  1.00  0.00    -0.206 F 
ATOM    100  C   UNL A   1      41.939  27.341  35.916  1.00  0.00     0.060 A 
BRANCH 100 101
ATOM    101  S   UNL A   1      41.838  26.089  37.214  1.00  0.00     0.124 S 
ATOM    102  O   UNL A   1      40.463  26.239  37.677  1.00  0.00    -0.237 OA
ATOM    103  O   UNL A   1      42.134  24.856  36.492  1.00  0.00    -0.237 OA
ATOM    104  O   UNL A   1      42.865  26.504  38.168  1.00  0.00    -0.744 OA
ENDBRANCH 100 101
ENDBRANCH  68  93
ENDBRANCH  42  43
ENDBRANCH  34  37
ENDBRANCH  32  33
ENDBRANCH   1  32
TORSDOF 18
ENDMDL
MODEL 2
REMARK VINA RESULT:     -12.8      2.608      9.318
REMARK SMILES Cc1ncc(CC(=O)N2CCc3c(c(C(=O)NCCCNC(=O)c4ccc(-c5c6nc(c(-c7c(F)cc(S(=O)(=O)[O-])cc7F)c7ccc([nH]7)c(-c7c(F)cc(S(=O)(=O)[O-])cc7F)c7nc(c(-c8c(F)cc(S(=O)(=O)[O-])cc8F)c8ccc5[nH]8)C=C7)C=C6)cc4)nn3CC3CC3)C2)c(=O)[nH]1
REMARK SMILES IDX 19 1 18 2 17 3 15 4 16 5 14 7 9 8 10 9 96 10 11 11 13 12
REMARK SMILES IDX 12 13 91 14 90 15 7 16 8 17 6 18 5 19 1 20 2 21 3 22 99 23
REMARK SMILES IDX 4 24 97 25 98 27 92 28 93 29 94 30 95 31 20 32 21 33 22 34
REMARK SMILES IDX 23 36 24 37 25 38 89 39 26 40 88 41 27 42 28 43 29 44 82 45
REMARK SMILES IDX 30 46 87 47 81 48 83 49 31 50 86 51 80 52 79 53 32 55 66 56
REMARK SMILES IDX 45 57 65 58 46 59 49 60 64 61 84 62 47 63 48 64 63 66 85 67
REMARK SMILES IDX 50 68 33 69 34 70 43 71 35 72 36 73 42 74 44 75 37 76 38 77
REMARK SMILES IDX 39 78 40 79 41 80 67 81 68 82 77 83 69 84 70 85 76 86 78 87
REMARK SMILES IDX 71 88 72 89 73 90 74 91 75 92 51 93 52 94 61 95 53 96 54 97
REMARK SMILES IDX 60 98 62 99 55 100 56 101 57 102 58 103 59 104
REMARK H PARENT 17 6 99 26 21 35 83 54 49 65
REMARK Flexibility Score: inf
ROOT
ATOM      1  C   UNL A   1      34.667  30.825  27.764  1.00  0.00     0.042 C 
ENDROOT
BRANCH   1   2
ATOM      2  C   UNL A   1      33.616  30.169  26.859  1.00  0.00     0.118 C 
BRANCH   2   3
ATOM      3  N   UNL A   1      32.655  29.349  27.587  1.00  0.00    -0.351 N 
ATOM      4  C   UNL A   1      31.735  28.419  27.136  1.00  0.00     0.272 C 
ATOM      5  O   UNL A   1      31.118  27.770  27.974  1.00  0.00    -0.267 OA
ATOM      6  H   UNL A   1      32.663  29.477  28.563  1.00  0.00     0.163 HD
BRANCH   4   7
ATOM      7  C   UNL A   1      31.499  28.224  25.693  1.00  0.00     0.155 A 
ATOM      8  N   UNL A   1      32.608  24.981  24.049  1.00  0.00    -0.338 N 
ATOM      9  C   UNL A   1      31.495  24.985  23.084  1.00  0.00     0.126 C 
ATOM     10  C   UNL A   1      32.329  25.705  25.318  1.00  0.00     0.159 C 
ATOM     11  C   UNL A   1      31.268  26.397  22.518  1.00  0.00     0.078 C 
ATOM     12  C   UNL A   1      31.742  27.040  24.935  1.00  0.00     0.026 A 
ATOM     13  C   UNL A   1      31.271  27.333  23.667  1.00  0.00     0.046 A 
ATOM     14  N   UNL A   1      30.843  28.617  23.691  1.00  0.00    -0.268 N 
ATOM     15  N   UNL A   1      30.984  29.180  24.896  1.00  0.00    -0.167 NA
BRANCH   8  16
ATOM     16  C   UNL A   1      33.840  24.371  23.896  1.00  0.00     0.227 C 
ATOM     17  O   UNL A   1      34.439  24.425  22.816  1.00  0.00    -0.275 OA
BRANCH  16  18
ATOM     18  C   UNL A   1      34.352  23.364  24.948  1.00  0.00     0.143 C 
BRANCH  18  19
ATOM     19  C   UNL A   1      33.874  21.954  24.948  1.00  0.00     0.045 A 
ATOM     20  C   UNL A   1      32.622  17.954  25.483  1.00  0.00     0.087 C 
ATOM     21  C   UNL A   1      33.017  19.379  25.230  1.00  0.00     0.105 A 
ATOM     22  N   UNL A   1      32.123  20.309  25.140  1.00  0.00    -0.243 NA
ATOM     23  N   UNL A   1      34.358  19.612  25.122  1.00  0.00    -0.311 N 
ATOM     24  C   UNL A   1      32.583  21.589  24.984  1.00  0.00     0.123 A 
ATOM     25  C   UNL A   1      34.869  20.863  24.929  1.00  0.00     0.254 A 
ATOM     26  H   UNL A   1      34.978  18.851  25.187  1.00  0.00     0.171 HD
ATOM     27  O   UNL A   1      36.067  21.061  24.779  1.00  0.00    -0.269 OA
ENDBRANCH  18  19
ENDBRANCH  16  18
ENDBRANCH   8  16
BRANCH  14  28
ATOM     28  C   UNL A   1      30.313  29.417  22.597  1.00  0.00     0.148 C 
BRANCH  28  29
ATOM     29  C   UNL A   1      28.810  29.481  22.527  1.00  0.00     0.011 C 
ATOM     30  C   UNL A   1      27.982  30.701  22.872  1.00  0.00     0.006 C 
ATOM     31  C   UNL A   1      28.156  30.300  21.437  1.00  0.00     0.006 C 
ENDBRANCH  28  29
ENDBRANCH  14  28
ENDBRANCH   4   7
ENDBRANCH   2   3
ENDBRANCH   1   2
BRANCH   1  32
ATOM     32  C   UNL A   1      34.362  32.301  27.964  1.00  0.00     0.118 C 
BRANCH  32  33
ATOM     33  N   UNL A   1      34.031  32.639  29.365  1.00  0.00    -0.352 N 
ATOM     34  C   UNL A   1      34.735  32.391  30.539  1.00  0.00     0.251 C 
ATOM     35  H   UNL A   1      33.178  33.114  29.485  1.00  0.00     0.163 HD
ATOM     36  O   UNL A   1      34.181  32.476  31.627  1.00  0.00    -0.269 OA
BRANCH  34  37
ATOM     37  C   UNL A   1      36.163  32.034  30.450  1.00  0.00     0.039 A 
ATOM     38  C   UNL A   1      37.212  32.958  30.383  1.00  0.00     0.014 A 
ATOM     39  C   UNL A   1      36.442  30.684  30.490  1.00  0.00     0.014 A 
ATOM     40  C   UNL A   1      38.521  32.470  30.358  1.00  0.00     0.010 A 
ATOM     41  C   UNL A   1      37.656  30.294  30.937  1.00  0.00     0.010 A 
ATOM     42  C   UNL A   1      38.716  31.111  30.610  1.00  0.00    -0.014 A 
BRANCH  42  43
ATOM     43  C   UNL A   1      39.990  30.417  30.596  1.00  0.00     0.031 A 
ATOM     44  C   UNL A   1      40.506  30.115  31.947  1.00  0.00     0.074 A 
ATOM     45  C   UNL A   1      40.408  29.777  29.477  1.00  0.00     0.049 A 
ATOM     46  N   UNL A   1      41.482  30.698  32.560  1.00  0.00    -0.248 NA
ATOM     47  C   UNL A   1      39.700  29.238  32.816  1.00  0.00     0.031 C 
ATOM     48  C   UNL A   1      39.747  29.695  28.164  1.00  0.00     0.029 A 
ATOM     49  N   UNL A   1      41.455  28.920  29.330  1.00  0.00    -0.354 N 
ATOM     50  C   UNL A   1      41.582  30.039  33.781  1.00  0.00     0.074 A 
ATOM     51  C   UNL A   1      40.300  29.428  33.992  1.00  0.00     0.031 C 
ATOM     52  C   UNL A   1      40.274  28.676  27.451  1.00  0.00     0.029 A 
ATOM     53  C   UNL A   1      41.384  28.111  28.191  1.00  0.00     0.049 A 
ATOM     54  H   UNL A   1      42.200  28.873  29.972  1.00  0.00     0.167 HD
ATOM     55  C   UNL A   1      42.796  29.770  34.340  1.00  0.00     0.037 A 
ATOM     56  C   UNL A   1      42.144  27.004  27.971  1.00  0.00     0.037 A 
ATOM     57  C   UNL A   1      43.841  30.486  33.639  1.00  0.00     0.049 A 
ATOM     58  C   UNL A   1      43.345  27.149  28.854  1.00  0.00     0.074 A 
ATOM     59  C   UNL A   1      44.058  31.815  33.322  1.00  0.00     0.029 A 
ATOM     60  N   UNL A   1      44.633  29.764  32.770  1.00  0.00    -0.354 N 
ATOM     61  N   UNL A   1      44.220  28.117  28.723  1.00  0.00    -0.248 NA
ATOM     62  C   UNL A   1      43.268  26.566  30.188  1.00  0.00     0.031 C 
ATOM     63  C   UNL A   1      44.539  31.797  31.979  1.00  0.00     0.029 A 
ATOM     64  C   UNL A   1      44.695  30.465  31.591  1.00  0.00     0.049 A 
ATOM     65  H   UNL A   1      45.075  28.905  32.961  1.00  0.00     0.167 HD
ATOM     66  C   UNL A   1      44.481  28.549  30.019  1.00  0.00     0.074 A 
ATOM     67  C   UNL A   1      43.906  27.515  30.882  1.00  0.00     0.031 C 
ATOM     68  C   UNL A   1      44.845  29.840  30.292  1.00  0.00     0.037 A 
BRANCH  55  69
ATOM     69  C   UNL A   1      43.109  28.575  35.222  1.00  0.00     0.058 A 
ATOM     70  C   UNL A   1      43.765  28.810  36.450  1.00  0.00     0.135 A 
ATOM     71  C   UNL A   1      43.049  27.219  34.826  1.00  0.00     0.135 A 
ATOM     72  F   UNL A   1      43.855  30.052  36.952  1.00  0.00    -0.206 F 
ATOM     73  C   UNL A   1      44.417  27.801  37.158  1.00  0.00     0.059 A 
ATOM     74  C   UNL A   1      43.647  26.191  35.546  1.00  0.00     0.059 A 
ATOM     75  F   UNL A   1      42.490  26.813  33.684  1.00  0.00    -0.206 F 
ATOM     76  C   UNL A   1      44.372  26.497  36.681  1.00  0.00     0.060 A 
BRANCH  76  77
ATOM     77  S   UNL A   1      45.313  25.214  37.521  1.00  0.00     0.124 S 
ATOM     78  O   UNL A   1      44.954  25.460  38.913  1.00  0.00    -0.237 OA
ATOM     79  O   UNL A   1      44.767  24.002  36.923  1.00  0.00    -0.237 OA
ATOM     80  O   UNL A   1      46.694  25.520  37.160  1.00  0.00    -0.744 OA
ENDBRANCH  76  77
ENDBRANCH  55  69
BRANCH  56  81
ATOM     81  C   UNL A   1      41.668  25.699  27.411  1.00  0.00     0.058 A 
ATOM     82  C   UNL A   1      42.444  24.944  26.510  1.00  0.00     0.135 A 
ATOM     83  C   UNL A   1      40.540  25.034  27.942  1.00  0.00     0.135 A 
ATOM     84  F   UNL A   1      43.547  25.478  25.963  1.00  0.00    -0.206 F 
ATOM     85  C   UNL A   1      42.148  23.607  26.197  1.00  0.00     0.059 A 
ATOM     86  C   UNL A   1      40.217  23.712  27.633  1.00  0.00     0.059 A 
ATOM     87  F   UNL A   1      39.754  25.614  28.859  1.00  0.00    -0.206 F 
ATOM     88  C   UNL A   1      41.040  22.993  26.781  1.00  0.00     0.060 A 
BRANCH  88  89
ATOM     89  S   UNL A   1      40.748  21.222  26.541  1.00  0.00     0.124 S 
ATOM     90  O   UNL A   1      40.767  20.722  27.912  1.00  0.00    -0.237 OA
ATOM     91  O   UNL A   1      39.449  21.211  25.876  1.00  0.00    -0.237 OA
ATOM     92  O   UNL A   1      41.872  20.803  25.707  1.00  0.00    -0.744 OA
ENDBRANCH  88  89
ENDBRANCH  56  81
BRANCH  68  93
ATOM     93  C   UNL A   1      45.205  30.769  29.153  1.00  0.00     0.058 A 
ATOM     94  C   UNL A   1      44.294  31.614  28.493  1.00  0.00     0.135 A 
ATOM     95  C   UNL A   1      46.566  30.963  28.867  1.00  0.00     0.135 A 
ATOM     96  F   UNL A   1      42.989  31.579  28.783  1.00  0.00    -0.206 F 
ATOM     97  C   UNL A   1      44.709  32.579  27.571  1.00  0.00     0.059 A 
ATOM     98  C   UNL A   1      47.006  31.939  27.977  1.00  0.00     0.059 A 
ATOM     99  F   UNL A   1      47.497  30.239  29.511  1.00  0.00    -0.206 F 
ATOM    100  C   UNL A   1      46.072  32.737  27.322  1.00  0.00     0.060 A 
BRANCH 100 101
ATOM    101  S   UNL A   1      46.615  34.031  26.185  1.00  0.00     0.124 S 
ATOM    102  O   UNL A   1      45.667  33.889  25.085  1.00  0.00    -0.237 OA
ATOM    103  O   UNL A   1      46.476  35.241  26.990  1.00  0.00    -0.237 OA
ATOM    104  O   UNL A   1      47.992  33.656  25.873  1.00  0.00    -0.744 OA
ENDBRANCH 100 101
ENDBRANCH  68  93
ENDBRANCH  42  43
ENDBRANCH  34  37
ENDBRANCH  32  33
ENDBRANCH   1  32
TORSDOF 18
ENDMDL
MODEL 3
REMARK VINA RESULT:     -12.3      2.720      9.431
REMARK SMILES Cc1ncc(CC(=O)N2CCc3c(c(C(=O)NCCCNC(=O)c4ccc(-c5c6nc(c(-c7c(F)cc(S(=O)(=O)[O-])cc7F)c7ccc([nH]7)c(-c7c(F)cc(S(=O)(=O)[O-])cc7F)c7nc(c(-c8c(F)cc(S(=O)(=O)[O-])cc8F)c8ccc5[nH]8)C=C7)C=C6)cc4)nn3CC3CC3)C2)c(=O)[nH]1
REMARK SMILES IDX 19 1 18 2 17 3 15 4 16 5 14 7 9 8 10 9 96 10 11 11 13 12
REMARK SMILES IDX 12 13 91 14 90 15 7 16 8 17 6 18 5 19 1 20 2 21 3 22 99 23
REMARK SMILES IDX 4 24 97 25 98 27 92 28 93 29 94 30 95 31 20 32 21 33 22 34
REMARK SMILES IDX 23 36 24 37 25 38 89 39 26 40 88 41 27 42 28 43 29 44 82 45
REMARK SMILES IDX 30 46 87 47 81 48 83 49 31 50 86 51 80 52 79 53 32 55 66 56
REMARK SMILES IDX 45 57 65 58 46 59 49 60 64 61 84 62 47 63 48 64 63 66 85 67
REMARK SMILES IDX 50 68 33 69 34 70 43 71 35 72 36 73 42 74 44 75 37 76 38 77
REMARK SMILES IDX 39 78 40 79 41 80 67 81 68 82 77 83 69 84 70 85 76 86 78 87
REMARK SMILES IDX 71 88 72 89 73 90 74 91 75 92 51 93 52 94 61 95 53 96 54 97
REMARK SMILES IDX 60 98 62 99 55 100 56 101 57 102 58 103 59 104
REMARK H PARENT 17 6 99 26 21 35 83 54 49 65
REMARK Flexibility Score: inf
ROOT
ATOM      1  C   UNL A   1      33.603  29.834  27.324  1.00  0.00     0.042 C 
ENDROOT
BRANCH   1   2
ATOM      2  C   UNL A   1      32.912  30.017  25.967  1.00  0.00     0.118 C 
BRANCH   2   3
ATOM      3  N   UNL A   1      33.695  29.514  24.845  1.00  0.00    -0.351 N 
ATOM      4  C   UNL A   1      33.299  28.910  23.664  1.00  0.00     0.272 C 
ATOM      5  O   UNL A   1      34.158  28.684  22.820  1.00  0.00    -0.267 OA
ATOM      6  H   UNL A   1      34.669  29.622  24.943  1.00  0.00     0.163 HD
BRANCH   4   7
ATOM      7  C   UNL A   1      31.889  28.543  23.437  1.00  0.00     0.155 A 
ATOM      8  N   UNL A   1      30.572  25.267  24.846  1.00  0.00    -0.338 N 
ATOM      9  C   UNL A   1      29.221  25.807  25.078  1.00  0.00     0.126 C 
ATOM     10  C   UNL A   1      31.656  26.286  24.860  1.00  0.00     0.159 C 
ATOM     11  C   UNL A   1      28.765  26.669  23.889  1.00  0.00     0.078 C 
ATOM     12  C   UNL A   1      31.196  27.420  23.980  1.00  0.00     0.026 A 
ATOM     13  C   UNL A   1      29.888  27.574  23.551  1.00  0.00     0.046 A 
ATOM     14  N   UNL A   1      29.856  28.679  22.770  1.00  0.00    -0.268 N 
ATOM     15  N   UNL A   1      31.052  29.272  22.673  1.00  0.00    -0.167 NA
BRANCH   8  16
ATOM     16  C   UNL A   1      30.915  23.943  24.641  1.00  0.00     0.227 C 
ATOM     17  O   UNL A   1      30.654  23.086  25.492  1.00  0.00    -0.275 OA
BRANCH  16  18
ATOM     18  C   UNL A   1      31.890  23.553  23.510  1.00  0.00     0.143 C 
BRANCH  18  19
ATOM     19  C   UNL A   1      33.139  22.798  23.808  1.00  0.00     0.045 A 
ATOM     20  C   UNL A   1      36.622  20.829  25.165  1.00  0.00     0.087 C 
ATOM     21  C   UNL A   1      35.380  21.473  24.626  1.00  0.00     0.105 A 
ATOM     22  N   UNL A   1      34.297  20.786  24.457  1.00  0.00    -0.243 NA
ATOM     23  N   UNL A   1      35.474  22.807  24.351  1.00  0.00    -0.311 N 
ATOM     24  C   UNL A   1      33.194  21.476  24.031  1.00  0.00     0.123 A 
ATOM     25  C   UNL A   1      34.416  23.535  23.890  1.00  0.00     0.254 A 
ATOM     26  H   UNL A   1      36.337  23.259  24.492  1.00  0.00     0.171 HD
ATOM     27  O   UNL A   1      34.519  24.717  23.594  1.00  0.00    -0.269 OA
ENDBRANCH  18  19
ENDBRANCH  16  18
ENDBRANCH   8  16
BRANCH  14  28
ATOM     28  C   UNL A   1      28.732  29.237  22.033  1.00  0.00     0.148 C 
BRANCH  28  29
ATOM     29  C   UNL A   1      28.910  30.663  21.587  1.00  0.00     0.011 C 
ATOM     30  C   UNL A   1      27.870  31.469  20.835  1.00  0.00     0.006 C 
ATOM     31  C   UNL A   1      28.134  31.758  22.283  1.00  0.00     0.006 C 
ENDBRANCH  28  29
ENDBRANCH  14  28
ENDBRANCH   4   7
ENDBRANCH   2   3
ENDBRANCH   1   2
BRANCH   1  32
ATOM     32  C   UNL A   1      34.703  30.864  27.514  1.00  0.00     0.118 C 
BRANCH  32  33
ATOM     33  N   UNL A   1      34.513  31.699  28.720  1.00  0.00    -0.352 N 
ATOM     34  C   UNL A   1      35.180  31.679  29.941  1.00  0.00     0.251 C 
ATOM     35  H   UNL A   1      33.802  32.375  28.647  1.00  0.00     0.163 HD
ATOM     36  O   UNL A   1      34.702  32.234  30.921  1.00  0.00    -0.269 OA
BRANCH  34  37
ATOM     37  C   UNL A   1      36.478  30.985  30.030  1.00  0.00     0.039 A 
ATOM     38  C   UNL A   1      36.647  29.599  29.932  1.00  0.00     0.014 A 
ATOM     39  C   UNL A   1      37.581  31.801  30.168  1.00  0.00     0.014 A 
ATOM     40  C   UNL A   1      37.947  29.087  29.980  1.00  0.00     0.010 A 
ATOM     41  C   UNL A   1      38.776  31.340  29.738  1.00  0.00     0.010 A 
ATOM     42  C   UNL A   1      39.007  29.993  29.912  1.00  0.00    -0.014 A 
BRANCH  42  43
ATOM     43  C   UNL A   1      40.418  29.658  29.978  1.00  0.00     0.031 A 
ATOM     44  C   UNL A   1      40.878  29.332  31.343  1.00  0.00     0.074 A 
ATOM     45  C   UNL A   1      41.087  29.294  28.858  1.00  0.00     0.049 A 
ATOM     46  N   UNL A   1      41.603  30.065  32.120  1.00  0.00    -0.248 NA
ATOM     47  C   UNL A   1      40.266  28.174  32.022  1.00  0.00     0.031 C 
ATOM     48  C   UNL A   1      40.589  29.210  27.475  1.00  0.00     0.029 A 
ATOM     49  N   UNL A   1      42.336  28.762  28.750  1.00  0.00    -0.354 N 
ATOM     50  C   UNL A   1      41.771  29.306  33.273  1.00  0.00     0.074 A 
ATOM     51  C   UNL A   1      40.689  28.363  33.273  1.00  0.00     0.031 C 
ATOM     52  C   UNL A   1      41.431  28.460  26.731  1.00  0.00     0.029 A 
ATOM     53  C   UNL A   1      42.584  28.113  27.536  1.00  0.00     0.049 A 
ATOM     54  H   UNL A   1      43.007  28.828  29.467  1.00  0.00     0.167 HD
ATOM     55  C   UNL A   1      42.960  29.291  33.941  1.00  0.00     0.037 A 
ATOM     56  C   UNL A   1      43.630  27.275  27.298  1.00  0.00     0.037 A 
ATOM     57  C   UNL A   1      43.830  30.335  33.440  1.00  0.00     0.049 A 
ATOM     58  C   UNL A   1      44.667  27.613  28.325  1.00  0.00     0.074 A 
ATOM     59  C   UNL A   1      43.707  31.704  33.284  1.00  0.00     0.029 A 
ATOM     60  N   UNL A   1      44.859  29.958  32.604  1.00  0.00    -0.354 N 
ATOM     61  N   UNL A   1      45.256  28.783  28.393  1.00  0.00    -0.248 NA
ATOM     62  C   UNL A   1      44.635  26.867  29.578  1.00  0.00     0.031 C 
ATOM     63  C   UNL A   1      44.289  31.980  32.011  1.00  0.00     0.029 A 
ATOM     64  C   UNL A   1      44.831  30.793  31.515  1.00  0.00     0.049 A 
ATOM     65  H   UNL A   1      45.498  29.225  32.759  1.00  0.00     0.167 HD
ATOM     66  C   UNL A   1      45.278  29.100  29.748  1.00  0.00     0.074 A 
ATOM     67  C   UNL A   1      44.931  27.854  30.431  1.00  0.00     0.031 C 
ATOM     68  C   UNL A   1      45.256  30.397  30.186  1.00  0.00     0.037 A 
BRANCH  55  69
ATOM     69  C   UNL A   1      43.506  28.116  34.732  1.00  0.00     0.058 A 
ATOM     70  C   UNL A   1      43.985  28.359  36.038  1.00  0.00     0.135 A 
ATOM     71  C   UNL A   1      43.831  26.846  34.203  1.00  0.00     0.135 A 
ATOM     72  F   UNL A   1      43.711  29.515  36.664  1.00  0.00    -0.206 F 
ATOM     73  C   UNL A   1      44.822  27.469  36.709  1.00  0.00     0.059 A 
ATOM     74  C   UNL A   1      44.620  25.922  34.878  1.00  0.00     0.059 A 
ATOM     75  F   UNL A   1      43.484  26.452  32.976  1.00  0.00    -0.206 F 
ATOM     76  C   UNL A   1      45.154  26.262  36.107  1.00  0.00     0.060 A 
BRANCH  76  77
ATOM     77  S   UNL A   1      46.330  25.165  36.912  1.00  0.00     0.124 S 
ATOM     78  O   UNL A   1      46.556  25.861  38.173  1.00  0.00    -0.237 OA
ATOM     79  O   UNL A   1      45.574  23.921  36.992  1.00  0.00    -0.237 OA
ATOM     80  O   UNL A   1      47.460  25.148  35.987  1.00  0.00    -0.744 OA
ENDBRANCH  76  77
ENDBRANCH  55  69
BRANCH  56  81
ATOM     81  C   UNL A   1      43.574  25.973  26.561  1.00  0.00     0.058 A 
ATOM     82  C   UNL A   1      44.371  25.722  25.427  1.00  0.00     0.135 A 
ATOM     83  C   UNL A   1      42.917  24.845  27.101  1.00  0.00     0.135 A 
ATOM     84  F   UNL A   1      45.051  26.723  24.847  1.00  0.00    -0.206 F 
ATOM     85  C   UNL A   1      44.541  24.431  24.896  1.00  0.00     0.059 A 
ATOM     86  C   UNL A   1      43.057  23.558  26.581  1.00  0.00     0.059 A 
ATOM     87  F   UNL A   1      42.181  24.933  28.217  1.00  0.00    -0.206 F 
ATOM     88  C   UNL A   1      43.893  23.351  25.496  1.00  0.00     0.060 A 
BRANCH  88  89
ATOM     89  S   UNL A   1      44.245  21.661  24.949  1.00  0.00     0.124 S 
ATOM     90  O   UNL A   1      44.326  21.821  23.501  1.00  0.00    -0.237 OA
ATOM     91  O   UNL A   1      45.503  21.372  25.629  1.00  0.00    -0.237 OA
ATOM     92  O   UNL A   1      43.094  20.902  25.431  1.00  0.00    -0.744 OA
ENDBRANCH  88  89
ENDBRANCH  56  81
BRANCH  68  93
ATOM     93  C   UNL A   1      45.449  31.523  29.195  1.00  0.00     0.058 A 
ATOM     94  C   UNL A   1      46.697  31.958  28.712  1.00  0.00     0.135 A 
ATOM     95  C   UNL A   1      44.311  32.035  28.551  1.00  0.00     0.135 A 
ATOM     96  F   UNL A   1      47.836  31.442  29.188  1.00  0.00    -0.206 F 
ATOM     97  C   UNL A   1      46.810  32.879  27.667  1.00  0.00     0.059 A 
ATOM     98  C   UNL A   1      44.399  32.929  27.486  1.00  0.00     0.059 A 
ATOM     99  F   UNL A   1      43.088  31.613  28.913  1.00  0.00    -0.206 F 
ATOM    100  C   UNL A   1      45.652  33.357  27.056  1.00  0.00     0.060 A 
BRANCH 100 101
ATOM    101  S   UNL A   1      45.797  34.491  25.658  1.00  0.00     0.124 S 
ATOM    102  O   UNL A   1      47.213  34.381  25.322  1.00  0.00    -0.237 OA
ATOM    103  O   UNL A   1      44.868  33.921  24.687  1.00  0.00    -0.237 OA
ATOM    104  O   UNL A   1      45.389  35.777  26.218  1.00  0.00    -0.744 OA
ENDBRANCH 100 101
ENDBRANCH  68  93
ENDBRANCH  42  43
ENDBRANCH  34  37
ENDBRANCH  32  33
ENDBRANCH   1  32
TORSDOF 18
ENDMDL
