MODEL 1
REMARK VINA RESULT:     -12.5      0.000      0.000
REMARK SMILES Cc1cc(C(=O)NCCCNC(=O)c2ccc(-c3c4nc(c(-c5c(F)cc(S(=O)(=O)[O-])cc5F)c5ccc([nH]5)c(-c5c(F)cc(S(=O)(=O)[O-])cc5F)c5nc(c(-c6c(F)cc(S(=O)(=O)[O-])cc6F)c6ccc3[nH]6)C=C5)C=C4)cc2)ccc1NC(=O)N1C[C@@H](C)[C@H](C)C1
REMARK SMILES IDX 10 1 9 2 8 3 7 4 5 5 6 6 4 8 1 9 2 10 3 11 82 12 81 13 80 14
REMARK SMILES IDX 83 15 84 16 85 18 86 19 87 20 92 21 88 22 90 23 89 24 91 25
REMARK SMILES IDX 11 26 12 27 13 29 14 30 15 31 79 32 16 33 78 34 17 35 18 36
REMARK SMILES IDX 19 37 72 38 20 39 77 40 71 41 73 42 21 43 76 44 70 45 69 46
REMARK SMILES IDX 22 48 56 49 35 50 55 51 36 52 39 53 54 54 74 55 37 56 38 57
REMARK SMILES IDX 53 59 75 60 40 61 23 62 24 63 33 64 25 65 26 66 32 67 34 68
REMARK SMILES IDX 27 69 28 70 29 71 30 72 31 73 57 74 58 75 67 76 59 77 60 78
REMARK SMILES IDX 66 79 68 80 61 81 62 82 63 83 64 84 65 85 41 86 42 87 51 88
REMARK SMILES IDX 43 89 44 90 50 91 52 92 45 93 46 94 47 95 48 96 49 97
REMARK H PARENT 7 7 83 17 11 28 73 47 39 58
REMARK Flexibility Score: inf
ROOT
ATOM      1  C   UNL A   1      41.207  20.214  26.120  1.00  0.00     0.118 C 
ENDROOT
BRANCH   1   2
ATOM      2  C   UNL A   1      39.693  19.934  25.687  1.00  0.00     0.042 C 
BRANCH   2   3
ATOM      3  C   UNL A   1      38.612  21.111  25.938  1.00  0.00     0.118 C 
BRANCH   3   4
ATOM      4  N   UNL A   1      37.996  21.849  24.809  1.00  0.00    -0.352 N 
ATOM      5  C   UNL A   1      36.782  22.461  24.553  1.00  0.00     0.251 C 
ATOM      6  O   UNL A   1      36.624  23.321  23.688  1.00  0.00    -0.269 OA
ATOM      7  H   UNL A   1      38.610  21.921  24.043  1.00  0.00     0.163 HD
BRANCH   5   8
ATOM      8  C   UNL A   1      35.616  22.058  25.339  1.00  0.00     0.040 A 
ATOM      9  C   UNL A   1      32.684  19.673  25.172  1.00  0.00     0.046 C 
ATOM     10  C   UNL A   1      33.512  20.877  25.524  1.00  0.00    -0.027 A 
ATOM     11  C   UNL A   1      34.790  20.996  24.954  1.00  0.00     0.019 A 
ATOM     12  C   UNL A   1      33.106  21.887  26.415  1.00  0.00     0.045 A 
ATOM     13  C   UNL A   1      34.074  22.703  27.012  1.00  0.00     0.027 A 
ATOM     14  C   UNL A   1      35.344  22.776  26.487  1.00  0.00     0.016 A 
BRANCH  12  15
ATOM     15  N   UNL A   1      31.742  22.120  26.676  1.00  0.00    -0.308 N 
ATOM     16  C   UNL A   1      31.061  23.306  26.650  1.00  0.00     0.321 C 
ATOM     17  H   UNL A   1      31.210  21.325  26.909  1.00  0.00     0.171 HD
ATOM     18  O   UNL A   1      30.053  23.431  27.346  1.00  0.00    -0.248 OA
ATOM     19  N   UNL A   1      31.506  24.312  25.827  1.00  0.00    -0.324 N 
ATOM     20  C   UNL A   1      31.364  25.705  26.193  1.00  0.00     0.125 C 
ATOM     21  C   UNL A   1      31.763  24.163  24.396  1.00  0.00     0.125 C 
ATOM     22  C   UNL A   1      31.161  26.453  24.881  1.00  0.00     0.010 C 
ATOM     23  C   UNL A   1      31.919  25.591  23.854  1.00  0.00     0.010 C 
ATOM     24  C   UNL A   1      31.677  27.885  24.950  1.00  0.00     0.010 C 
ATOM     25  C   UNL A   1      31.397  25.772  22.429  1.00  0.00     0.010 C 
ENDBRANCH  12  15
ENDBRANCH   5   8
ENDBRANCH   3   4
ENDBRANCH   2   3
ENDBRANCH   1   2
BRANCH   1  26
ATOM     26  N   UNL A   1      42.029  21.501  25.760  1.00  0.00    -0.352 N 
ATOM     27  C   UNL A   1      42.210  22.793  26.408  1.00  0.00     0.251 C 
ATOM     28  H   UNL A   1      42.529  21.419  24.917  1.00  0.00     0.163 HD
ATOM     29  O   UNL A   1      43.307  22.930  26.975  1.00  0.00    -0.269 OA
BRANCH  27  30
ATOM     30  C   UNL A   1      41.305  24.095  26.428  1.00  0.00     0.039 A 
ATOM     31  C   UNL A   1      41.747  25.303  25.794  1.00  0.00     0.014 A 
ATOM     32  C   UNL A   1      40.133  24.267  27.154  1.00  0.00     0.014 A 
ATOM     33  C   UNL A   1      41.373  26.612  26.311  1.00  0.00     0.010 A 
ATOM     34  C   UNL A   1      39.766  25.557  27.669  1.00  0.00     0.010 A 
ATOM     35  C   UNL A   1      40.533  26.711  27.436  1.00  0.00    -0.014 A 
BRANCH  35  36
ATOM     36  C   UNL A   1      40.653  27.795  28.516  1.00  0.00     0.031 A 
ATOM     37  C   UNL A   1      39.703  28.900  28.622  1.00  0.00     0.074 A 
ATOM     38  C   UNL A   1      41.484  27.821  29.604  1.00  0.00     0.049 A 
ATOM     39  N   UNL A   1      40.029  30.143  28.784  1.00  0.00    -0.248 NA
ATOM     40  C   UNL A   1      38.281  28.628  28.697  1.00  0.00     0.031 C 
ATOM     41  C   UNL A   1      41.594  28.677  30.800  1.00  0.00     0.029 A 
ATOM     42  N   UNL A   1      42.465  26.919  29.929  1.00  0.00    -0.354 N 
ATOM     43  C   UNL A   1      38.909  30.749  29.317  1.00  0.00     0.074 A 
ATOM     44  C   UNL A   1      37.818  29.832  29.038  1.00  0.00     0.031 C 
ATOM     45  C   UNL A   1      42.781  28.460  31.418  1.00  0.00     0.029 A 
ATOM     46  C   UNL A   1      43.518  27.491  30.636  1.00  0.00     0.049 A 
ATOM     47  H   UNL A   1      42.428  25.966  29.688  1.00  0.00     0.167 HD
ATOM     48  C   UNL A   1      38.998  31.792  30.202  1.00  0.00     0.037 A 
ATOM     49  C   UNL A   1      44.752  27.560  30.033  1.00  0.00     0.037 A 
ATOM     50  C   UNL A   1      40.377  31.989  30.702  1.00  0.00     0.049 A 
ATOM     51  C   UNL A   1      45.007  28.986  29.609  1.00  0.00     0.074 A 
ATOM     52  C   UNL A   1      40.983  31.840  31.946  1.00  0.00     0.029 A 
ATOM     53  N   UNL A   1      41.431  32.119  29.812  1.00  0.00    -0.354 N 
ATOM     54  N   UNL A   1      44.329  29.985  30.095  1.00  0.00    -0.248 NA
ATOM     55  C   UNL A   1      45.951  29.423  28.581  1.00  0.00     0.031 C 
ATOM     56  C   UNL A   1      42.400  31.906  31.781  1.00  0.00     0.029 A 
ATOM     57  C   UNL A   1      42.665  32.114  30.442  1.00  0.00     0.049 A 
ATOM     58  H   UNL A   1      41.315  32.206  28.838  1.00  0.00     0.167 HD
ATOM     59  C   UNL A   1      44.589  31.123  29.399  1.00  0.00     0.074 A 
ATOM     60  C   UNL A   1      45.661  30.737  28.495  1.00  0.00     0.031 C 
ATOM     61  C   UNL A   1      43.865  32.261  29.621  1.00  0.00     0.037 A 
BRANCH  48  62
ATOM     62  C   UNL A   1      37.770  32.434  30.845  1.00  0.00     0.058 A 
ATOM     63  C   UNL A   1      37.227  31.975  32.063  1.00  0.00     0.135 A 
ATOM     64  C   UNL A   1      37.110  33.571  30.321  1.00  0.00     0.135 A 
ATOM     65  F   UNL A   1      37.827  31.018  32.784  1.00  0.00    -0.206 F 
ATOM     66  C   UNL A   1      36.066  32.510  32.636  1.00  0.00     0.059 A 
ATOM     67  C   UNL A   1      35.906  34.071  30.824  1.00  0.00     0.059 A 
ATOM     68  F   UNL A   1      37.657  34.306  29.341  1.00  0.00    -0.206 F 
ATOM     69  C   UNL A   1      35.392  33.538  31.993  1.00  0.00     0.060 A 
BRANCH  69  70
ATOM     70  S   UNL A   1      33.914  34.238  32.751  1.00  0.00     0.124 S 
ATOM     71  O   UNL A   1      33.253  34.877  31.619  1.00  0.00    -0.237 OA
ATOM     72  O   UNL A   1      33.257  33.049  33.283  1.00  0.00    -0.237 OA
ATOM     73  O   UNL A   1      34.447  35.155  33.756  1.00  0.00    -0.744 OA
ENDBRANCH  69  70
ENDBRANCH  48  62
BRANCH  49  74
ATOM     74  C   UNL A   1      45.191  26.283  29.265  1.00  0.00     0.058 A 
ATOM     75  C   UNL A   1      45.591  26.549  27.938  1.00  0.00     0.135 A 
ATOM     76  C   UNL A   1      46.126  25.537  29.959  1.00  0.00     0.135 A 
ATOM     77  F   UNL A   1      44.662  26.687  26.984  1.00  0.00    -0.206 F 
ATOM     78  C   UNL A   1      46.929  26.800  27.606  1.00  0.00     0.059 A 
ATOM     79  C   UNL A   1      47.467  25.805  29.651  1.00  0.00     0.059 A 
ATOM     80  F   UNL A   1      45.822  25.051  31.175  1.00  0.00    -0.206 F 
ATOM     81  C   UNL A   1      47.865  26.611  28.600  1.00  0.00     0.060 A 
BRANCH  81  82
ATOM     82  S   UNL A   1      49.478  27.698  28.708  1.00  0.00     0.124 S 
ATOM     83  O   UNL A   1      50.459  26.677  28.918  1.00  0.00    -0.237 OA
ATOM     84  O   UNL A   1      49.619  28.333  27.403  1.00  0.00    -0.237 OA
ATOM     85  O   UNL A   1      49.309  28.624  29.812  1.00  0.00    -0.744 OA
ENDBRANCH  81  82
ENDBRANCH  49  74
BRANCH  61  86
ATOM     86  C   UNL A   1      44.198  33.613  29.049  1.00  0.00     0.058 A 
ATOM     87  C   UNL A   1      44.155  33.885  27.672  1.00  0.00     0.135 A 
ATOM     88  C   UNL A   1      44.716  34.652  29.858  1.00  0.00     0.135 A 
ATOM     89  F   UNL A   1      43.838  32.932  26.784  1.00  0.00    -0.206 F 
ATOM     90  C   UNL A   1      44.483  35.137  27.153  1.00  0.00     0.059 A 
ATOM     91  C   UNL A   1      45.089  35.891  29.358  1.00  0.00     0.059 A 
ATOM     92  F   UNL A   1      44.887  34.520  31.179  1.00  0.00    -0.206 F 
ATOM     93  C   UNL A   1      44.932  36.140  28.008  1.00  0.00     0.060 A 
BRANCH  93  94
ATOM     94  S   UNL A   1      45.330  37.761  27.345  1.00  0.00     0.124 S 
ATOM     95  O   UNL A   1      45.888  38.445  28.508  1.00  0.00    -0.237 OA
ATOM     96  O   UNL A   1      46.284  37.417  26.296  1.00  0.00    -0.237 OA
ATOM     97  O   UNL A   1      44.044  38.269  26.883  1.00  0.00    -0.744 OA
ENDBRANCH  93  94
ENDBRANCH  61  86
ENDBRANCH  35  36
ENDBRANCH  27  30
ENDBRANCH   1  26
TORSDOF 14
ENDMDL
MODEL 2
REMARK VINA RESULT:     -12.5      3.996     10.092
REMARK SMILES Cc1cc(C(=O)NCCCNC(=O)c2ccc(-c3c4nc(c(-c5c(F)cc(S(=O)(=O)[O-])cc5F)c5ccc([nH]5)c(-c5c(F)cc(S(=O)(=O)[O-])cc5F)c5nc(c(-c6c(F)cc(S(=O)(=O)[O-])cc6F)c6ccc3[nH]6)C=C5)C=C4)cc2)ccc1NC(=O)N1C[C@@H](C)[C@H](C)C1
REMARK SMILES IDX 10 1 9 2 8 3 7 4 5 5 6 6 4 8 1 9 2 10 3 11 82 12 81 13 80 14
REMARK SMILES IDX 83 15 84 16 85 18 86 19 87 20 92 21 88 22 90 23 89 24 91 25
REMARK SMILES IDX 11 26 12 27 13 29 14 30 15 31 79 32 16 33 78 34 17 35 18 36
REMARK SMILES IDX 19 37 72 38 20 39 77 40 71 41 73 42 21 43 76 44 70 45 69 46
REMARK SMILES IDX 22 48 56 49 35 50 55 51 36 52 39 53 54 54 74 55 37 56 38 57
REMARK SMILES IDX 53 59 75 60 40 61 23 62 24 63 33 64 25 65 26 66 32 67 34 68
REMARK SMILES IDX 27 69 28 70 29 71 30 72 31 73 57 74 58 75 67 76 59 77 60 78
REMARK SMILES IDX 66 79 68 80 61 81 62 82 63 83 64 84 65 85 41 86 42 87 51 88
REMARK SMILES IDX 43 89 44 90 50 91 52 92 45 93 46 94 47 95 48 96 49 97
REMARK H PARENT 7 7 83 17 11 28 73 47 39 58
REMARK Flexibility Score: inf
ROOT
ATOM      1  C   UNL A   1      33.705  33.977  29.083  1.00  0.00     0.118 C 
ENDROOT
BRANCH   1   2
ATOM      2  C   UNL A   1      32.902  33.359  27.846  1.00  0.00     0.042 C 
BRANCH   2   3
ATOM      3  C   UNL A   1      33.458  31.984  27.203  1.00  0.00     0.118 C 
BRANCH   3   4
ATOM      4  N   UNL A   1      32.941  30.663  27.635  1.00  0.00    -0.352 N 
ATOM      5  C   UNL A   1      32.786  29.411  27.068  1.00  0.00     0.251 C 
ATOM      6  O   UNL A   1      32.671  28.378  27.724  1.00  0.00    -0.269 OA
ATOM      7  H   UNL A   1      32.625  30.683  28.567  1.00  0.00     0.163 HD
BRANCH   5   8
ATOM      8  C   UNL A   1      32.740  29.305  25.610  1.00  0.00     0.040 A 
ATOM      9  C   UNL A   1      30.237  29.308  22.774  1.00  0.00     0.046 C 
ATOM     10  C   UNL A   1      31.485  29.021  23.561  1.00  0.00    -0.027 A 
ATOM     11  C   UNL A   1      31.554  29.476  24.888  1.00  0.00     0.019 A 
ATOM     12  C   UNL A   1      32.609  28.349  23.049  1.00  0.00     0.045 A 
ATOM     13  C   UNL A   1      33.850  28.515  23.675  1.00  0.00     0.027 A 
ATOM     14  C   UNL A   1      33.922  29.014  24.956  1.00  0.00     0.016 A 
BRANCH  12  15
ATOM     15  N   UNL A   1      32.497  27.477  21.949  1.00  0.00    -0.308 N 
ATOM     16  C   UNL A   1      32.880  26.167  21.859  1.00  0.00     0.321 C 
ATOM     17  H   UNL A   1      32.090  27.861  21.139  1.00  0.00     0.171 HD
ATOM     18  O   UNL A   1      33.167  25.704  20.754  1.00  0.00    -0.248 OA
ATOM     19  N   UNL A   1      32.905  25.400  22.998  1.00  0.00    -0.324 N 
ATOM     20  C   UNL A   1      33.880  24.345  23.176  1.00  0.00     0.125 C 
ATOM     21  C   UNL A   1      31.784  25.248  23.923  1.00  0.00     0.125 C 
ATOM     22  C   UNL A   1      33.175  23.273  23.999  1.00  0.00     0.010 C 
ATOM     23  C   UNL A   1      32.159  24.072  24.837  1.00  0.00     0.010 C 
ATOM     24  C   UNL A   1      34.149  22.472  24.854  1.00  0.00     0.010 C 
ATOM     25  C   UNL A   1      30.964  23.229  25.281  1.00  0.00     0.010 C 
ENDBRANCH  12  15
ENDBRANCH   5   8
ENDBRANCH   3   4
ENDBRANCH   2   3
ENDBRANCH   1   2
BRANCH   1  26
ATOM     26  N   UNL A   1      34.268  33.159  30.298  1.00  0.00    -0.352 N 
ATOM     27  C   UNL A   1      35.524  32.467  30.549  1.00  0.00     0.251 C 
ATOM     28  H   UNL A   1      33.637  33.101  31.051  1.00  0.00     0.163 HD
ATOM     29  O   UNL A   1      36.293  33.069  31.318  1.00  0.00    -0.269 OA
BRANCH  27  30
ATOM     30  C   UNL A   1      36.042  31.036  30.106  1.00  0.00     0.039 A 
ATOM     31  C   UNL A   1      36.374  30.042  31.085  1.00  0.00     0.014 A 
ATOM     32  C   UNL A   1      36.378  30.650  28.814  1.00  0.00     0.014 A 
ATOM     33  C   UNL A   1      37.424  29.062  30.847  1.00  0.00     0.010 A 
ATOM     34  C   UNL A   1      37.418  29.687  28.577  1.00  0.00     0.010 A 
ATOM     35  C   UNL A   1      38.115  29.055  29.621  1.00  0.00    -0.014 A 
BRANCH  35  36
ATOM     36  C   UNL A   1      39.605  28.717  29.467  1.00  0.00     0.031 A 
ATOM     37  C   UNL A   1      40.066  27.395  29.051  1.00  0.00     0.074 A 
ATOM     38  C   UNL A   1      40.676  29.569  29.498  1.00  0.00     0.049 A 
ATOM     39  N   UNL A   1      41.023  26.732  29.619  1.00  0.00    -0.248 NA
ATOM     40  C   UNL A   1      39.546  26.795  27.838  1.00  0.00     0.031 C 
ATOM     41  C   UNL A   1      42.114  29.433  29.196  1.00  0.00     0.029 A 
ATOM     42  N   UNL A   1      40.668  30.915  29.764  1.00  0.00    -0.354 N 
ATOM     43  C   UNL A   1      41.457  25.829  28.670  1.00  0.00     0.074 A 
ATOM     44  C   UNL A   1      40.384  25.766  27.693  1.00  0.00     0.031 C 
ATOM     45  C   UNL A   1      42.792  30.502  29.681  1.00  0.00     0.029 A 
ATOM     46  C   UNL A   1      41.844  31.360  30.358  1.00  0.00     0.049 A 
ATOM     47  H   UNL A   1      39.908  31.505  29.555  1.00  0.00     0.167 HD
ATOM     48  C   UNL A   1      42.767  25.433  28.588  1.00  0.00     0.037 A 
ATOM     49  C   UNL A   1      41.794  31.811  31.656  1.00  0.00     0.037 A 
ATOM     50  C   UNL A   1      43.660  26.268  29.421  1.00  0.00     0.049 A 
ATOM     51  C   UNL A   1      42.401  30.765  32.559  1.00  0.00     0.074 A 
ATOM     52  C   UNL A   1      44.678  27.173  29.136  1.00  0.00     0.029 A 
ATOM     53  N   UNL A   1      43.379  26.467  30.763  1.00  0.00    -0.354 N 
ATOM     54  N   UNL A   1      43.162  29.813  32.102  1.00  0.00    -0.248 NA
ATOM     55  C   UNL A   1      42.167  30.626  33.996  1.00  0.00     0.031 C 
ATOM     56  C   UNL A   1      45.007  27.889  30.328  1.00  0.00     0.029 A 
ATOM     57  C   UNL A   1      44.206  27.413  31.347  1.00  0.00     0.049 A 
ATOM     58  H   UNL A   1      42.668  25.989  31.248  1.00  0.00     0.167 HD
ATOM     59  C   UNL A   1      43.396  28.883  33.065  1.00  0.00     0.074 A 
ATOM     60  C   UNL A   1      42.801  29.465  34.258  1.00  0.00     0.031 C 
ATOM     61  C   UNL A   1      44.029  27.710  32.767  1.00  0.00     0.037 A 
BRANCH  48  62
ATOM     62  C   UNL A   1      43.273  24.479  27.507  1.00  0.00     0.058 A 
ATOM     63  C   UNL A   1      43.117  23.079  27.600  1.00  0.00     0.135 A 
ATOM     64  C   UNL A   1      43.878  24.904  26.301  1.00  0.00     0.135 A 
ATOM     65  F   UNL A   1      42.416  22.515  28.592  1.00  0.00    -0.206 F 
ATOM     66  C   UNL A   1      43.629  22.186  26.651  1.00  0.00     0.059 A 
ATOM     67  C   UNL A   1      44.469  24.036  25.380  1.00  0.00     0.059 A 
ATOM     68  F   UNL A   1      43.843  26.190  25.918  1.00  0.00    -0.206 F 
ATOM     69  C   UNL A   1      44.333  22.671  25.558  1.00  0.00     0.060 A 
BRANCH  69  70
ATOM     70  S   UNL A   1      44.963  21.514  24.327  1.00  0.00     0.124 S 
ATOM     71  O   UNL A   1      44.203  20.303  24.618  1.00  0.00    -0.237 OA
ATOM     72  O   UNL A   1      44.626  22.191  23.079  1.00  0.00    -0.237 OA
ATOM     73  O   UNL A   1      46.390  21.438  24.628  1.00  0.00    -0.744 OA
ENDBRANCH  69  70
ENDBRANCH  48  62
BRANCH  49  74
ATOM     74  C   UNL A   1      40.586  32.727  31.997  1.00  0.00     0.058 A 
ATOM     75  C   UNL A   1      39.947  32.368  33.204  1.00  0.00     0.135 A 
ATOM     76  C   UNL A   1      40.904  34.071  31.947  1.00  0.00     0.135 A 
ATOM     77  F   UNL A   1      39.063  31.362  33.209  1.00  0.00    -0.206 F 
ATOM     78  C   UNL A   1      40.302  32.950  34.429  1.00  0.00     0.059 A 
ATOM     79  C   UNL A   1      41.286  34.651  33.164  1.00  0.00     0.059 A 
ATOM     80  F   UNL A   1      41.356  34.607  30.800  1.00  0.00    -0.206 F 
ATOM     81  C   UNL A   1      41.183  34.009  34.385  1.00  0.00     0.060 A 
BRANCH  81  82
ATOM     82  S   UNL A   1      42.465  34.333  35.815  1.00  0.00     0.124 S 
ATOM     83  O   UNL A   1      42.637  35.749  35.686  1.00  0.00    -0.237 OA
ATOM     84  O   UNL A   1      41.781  33.976  37.053  1.00  0.00    -0.237 OA
ATOM     85  O   UNL A   1      43.647  33.542  35.532  1.00  0.00    -0.744 OA
ENDBRANCH  81  82
ENDBRANCH  49  74
BRANCH  61  86
ATOM     86  C   UNL A   1      44.504  26.709  33.787  1.00  0.00     0.058 A 
ATOM     87  C   UNL A   1      43.622  25.958  34.580  1.00  0.00     0.135 A 
ATOM     88  C   UNL A   1      45.875  26.575  34.109  1.00  0.00     0.135 A 
ATOM     89  F   UNL A   1      42.293  26.116  34.485  1.00  0.00    -0.206 F 
ATOM     90  C   UNL A   1      44.075  25.047  35.534  1.00  0.00     0.059 A 
ATOM     91  C   UNL A   1      46.346  25.707  35.083  1.00  0.00     0.059 A 
ATOM     92  F   UNL A   1      46.833  27.278  33.493  1.00  0.00    -0.206 F 
ATOM     93  C   UNL A   1      45.441  24.916  35.765  1.00  0.00     0.060 A 
BRANCH  93  94
ATOM     94  S   UNL A   1      46.027  23.725  36.975  1.00  0.00     0.124 S 
ATOM     95  O   UNL A   1      47.470  23.951  36.962  1.00  0.00    -0.237 OA
ATOM     96  O   UNL A   1      45.329  24.169  38.178  1.00  0.00    -0.237 OA
ATOM     97  O   UNL A   1      45.594  22.443  36.434  1.00  0.00    -0.744 OA
ENDBRANCH  93  94
ENDBRANCH  61  86
ENDBRANCH  35  36
ENDBRANCH  27  30
ENDBRANCH   1  26
TORSDOF 14
ENDMDL
MODEL 3
REMARK VINA RESULT:     -12.4      4.072      9.667
REMARK SMILES Cc1cc(C(=O)NCCCNC(=O)c2ccc(-c3c4nc(c(-c5c(F)cc(S(=O)(=O)[O-])cc5F)c5ccc([nH]5)c(-c5c(F)cc(S(=O)(=O)[O-])cc5F)c5nc(c(-c6c(F)cc(S(=O)(=O)[O-])cc6F)c6ccc3[nH]6)C=C5)C=C4)cc2)ccc1NC(=O)N1C[C@@H](C)[C@H](C)C1
REMARK SMILES IDX 10 1 9 2 8 3 7 4 5 5 6 6 4 8 1 9 2 10 3 11 82 12 81 13 80 14
REMARK SMILES IDX 83 15 84 16 85 18 86 19 87 20 92 21 88 22 90 23 89 24 91 25
REMARK SMILES IDX 11 26 12 27 13 29 14 30 15 31 79 32 16 33 78 34 17 35 18 36
REMARK SMILES IDX 19 37 72 38 20 39 77 40 71 41 73 42 21 43 76 44 70 45 69 46
REMARK SMILES IDX 22 48 56 49 35 50 55 51 36 52 39 53 54 54 74 55 37 56 38 57
REMARK SMILES IDX 53 59 75 60 40 61 23 62 24 63 33 64 25 65 26 66 32 67 34 68
REMARK SMILES IDX 27 69 28 70 29 71 30 72 31 73 57 74 58 75 67 76 59 77 60 78
REMARK SMILES IDX 66 79 68 80 61 81 62 82 63 83 64 84 65 85 41 86 42 87 51 88
REMARK SMILES IDX 43 89 44 90 50 91 52 92 45 93 46 94 47 95 48 96 49 97
REMARK H PARENT 7 7 83 17 11 28 73 47 39 58
REMARK Flexibility Score: inf
ROOT
ATOM      1  C   UNL A   1      38.725  24.040  26.881  1.00  0.00     0.118 C 
ENDROOT
BRANCH   1   2
ATOM      2  C   UNL A   1      39.275  22.556  26.645  1.00  0.00     0.042 C 
BRANCH   2   3
ATOM      3  C   UNL A   1      38.447  21.602  25.637  1.00  0.00     0.118 C 
BRANCH   3   4
ATOM      4  N   UNL A   1      37.754  22.150  24.446  1.00  0.00    -0.352 N 
ATOM      5  C   UNL A   1      36.489  22.626  24.150  1.00  0.00     0.251 C 
ATOM      6  O   UNL A   1      36.245  23.363  23.197  1.00  0.00    -0.269 OA
ATOM      7  H   UNL A   1      38.349  22.185  23.662  1.00  0.00     0.163 HD
BRANCH   5   8
ATOM      8  C   UNL A   1      35.373  22.219  25.005  1.00  0.00     0.040 A 
ATOM      9  C   UNL A   1      32.474  19.789  25.038  1.00  0.00     0.046 C 
ATOM     10  C   UNL A   1      33.300  21.012  25.323  1.00  0.00    -0.027 A 
ATOM     11  C   UNL A   1      34.544  21.139  24.683  1.00  0.00     0.019 A 
ATOM     12  C   UNL A   1      32.926  22.032  26.217  1.00  0.00     0.045 A 
ATOM     13  C   UNL A   1      33.912  22.873  26.747  1.00  0.00     0.027 A 
ATOM     14  C   UNL A   1      35.150  22.955  26.152  1.00  0.00     0.016 A 
BRANCH  12  15
ATOM     15  N   UNL A   1      31.575  22.250  26.547  1.00  0.00    -0.308 N 
ATOM     16  C   UNL A   1      30.899  23.437  26.626  1.00  0.00     0.321 C 
ATOM     17  H   UNL A   1      31.048  21.443  26.746  1.00  0.00     0.171 HD
ATOM     18  O   UNL A   1      29.919  23.516  27.368  1.00  0.00    -0.248 OA
ATOM     19  N   UNL A   1      31.316  24.495  25.855  1.00  0.00    -0.324 N 
ATOM     20  C   UNL A   1      31.194  25.860  26.319  1.00  0.00     0.125 C 
ATOM     21  C   UNL A   1      31.516  24.440  24.408  1.00  0.00     0.125 C 
ATOM     22  C   UNL A   1      30.944  26.695  25.068  1.00  0.00     0.010 C 
ATOM     23  C   UNL A   1      31.657  25.902  23.957  1.00  0.00     0.010 C 
ATOM     24  C   UNL A   1      31.469  28.117  25.212  1.00  0.00     0.010 C 
ATOM     25  C   UNL A   1      31.081  26.178  22.569  1.00  0.00     0.010 C 
ENDBRANCH  12  15
ENDBRANCH   5   8
ENDBRANCH   3   4
ENDBRANCH   2   3
ENDBRANCH   1   2
BRANCH   1  26
ATOM     26  N   UNL A   1      39.616  25.309  27.120  1.00  0.00    -0.352 N 
ATOM     27  C   UNL A   1      40.038  26.033  28.311  1.00  0.00     0.251 C 
ATOM     28  H   UNL A   1      39.965  25.700  26.287  1.00  0.00     0.163 HD
ATOM     29  O   UNL A   1      41.219  25.831  28.640  1.00  0.00    -0.269 OA
BRANCH  27  30
ATOM     30  C   UNL A   1      39.295  27.115  29.202  1.00  0.00     0.039 A 
ATOM     31  C   UNL A   1      38.810  28.332  28.620  1.00  0.00     0.014 A 
ATOM     32  C   UNL A   1      39.181  27.098  30.586  1.00  0.00     0.014 A 
ATOM     33  C   UNL A   1      38.766  29.572  29.381  1.00  0.00     0.010 A 
ATOM     34  C   UNL A   1      39.142  28.321  31.339  1.00  0.00     0.010 A 
ATOM     35  C   UNL A   1      39.172  29.586  30.728  1.00  0.00    -0.014 A 
BRANCH  35  36
ATOM     36  C   UNL A   1      39.902  30.757  31.402  1.00  0.00     0.031 A 
ATOM     37  C   UNL A   1      41.098  30.564  32.219  1.00  0.00     0.074 A 
ATOM     38  C   UNL A   1      39.702  32.099  31.221  1.00  0.00     0.049 A 
ATOM     39  N   UNL A   1      41.298  31.107  33.379  1.00  0.00    -0.248 NA
ATOM     40  C   UNL A   1      42.232  29.836  31.684  1.00  0.00     0.031 C 
ATOM     41  C   UNL A   1      40.419  33.317  31.645  1.00  0.00     0.029 A 
ATOM     42  N   UNL A   1      38.738  32.706  30.457  1.00  0.00    -0.354 N 
ATOM     43  C   UNL A   1      42.665  31.086  33.562  1.00  0.00     0.074 A 
ATOM     44  C   UNL A   1      43.158  30.111  32.605  1.00  0.00     0.031 C 
ATOM     45  C   UNL A   1      39.634  34.406  31.457  1.00  0.00     0.029 A 
ATOM     46  C   UNL A   1      38.358  33.951  30.948  1.00  0.00     0.049 A 
ATOM     47  H   UNL A   1      38.356  32.303  29.645  1.00  0.00     0.167 HD
ATOM     48  C   UNL A   1      43.321  32.070  34.257  1.00  0.00     0.037 A 
ATOM     49  C   UNL A   1      37.081  34.103  31.434  1.00  0.00     0.037 A 
ATOM     50  C   UNL A   1      42.456  33.240  34.526  1.00  0.00     0.049 A 
ATOM     51  C   UNL A   1      37.136  34.156  32.941  1.00  0.00     0.074 A 
ATOM     52  C   UNL A   1      42.457  34.561  34.091  1.00  0.00     0.029 A 
ATOM     53  N   UNL A   1      41.220  33.070  35.130  1.00  0.00    -0.354 N 
ATOM     54  N   UNL A   1      38.241  34.400  33.585  1.00  0.00    -0.248 NA
ATOM     55  C   UNL A   1      36.030  33.873  33.854  1.00  0.00     0.031 C 
ATOM     56  C   UNL A   1      41.221  35.172  34.464  1.00  0.00     0.029 A 
ATOM     57  C   UNL A   1      40.469  34.234  35.143  1.00  0.00     0.049 A 
ATOM     58  H   UNL A   1      40.910  32.216  35.508  1.00  0.00     0.167 HD
ATOM     59  C   UNL A   1      38.079  34.174  34.915  1.00  0.00     0.074 A 
ATOM     60  C   UNL A   1      36.656  33.903  35.048  1.00  0.00     0.031 C 
ATOM     61  C   UNL A   1      39.147  34.202  35.766  1.00  0.00     0.037 A 
BRANCH  48  62
ATOM     62  C   UNL A   1      44.840  32.091  34.418  1.00  0.00     0.058 A 
ATOM     63  C   UNL A   1      45.494  31.461  35.499  1.00  0.00     0.135 A 
ATOM     64  C   UNL A   1      45.724  32.678  33.483  1.00  0.00     0.135 A 
ATOM     65  F   UNL A   1      44.826  30.712  36.386  1.00  0.00    -0.206 F 
ATOM     66  C   UNL A   1      46.879  31.522  35.698  1.00  0.00     0.059 A 
ATOM     67  C   UNL A   1      47.097  32.826  33.698  1.00  0.00     0.059 A 
ATOM     68  F   UNL A   1      45.302  33.061  32.268  1.00  0.00    -0.206 F 
ATOM     69  C   UNL A   1      47.671  32.234  34.809  1.00  0.00     0.060 A 
BRANCH  69  70
ATOM     70  S   UNL A   1      49.456  32.284  35.058  1.00  0.00     0.124 S 
ATOM     71  O   UNL A   1      49.928  32.896  33.821  1.00  0.00    -0.237 OA
ATOM     72  O   UNL A   1      49.570  33.107  36.258  1.00  0.00    -0.237 OA
ATOM     73  O   UNL A   1      49.817  30.879  35.231  1.00  0.00    -0.744 OA
ENDBRANCH  69  70
ENDBRANCH  48  62
BRANCH  49  74
ATOM     74  C   UNL A   1      35.961  33.446  30.580  1.00  0.00     0.058 A 
ATOM     75  C   UNL A   1      34.872  32.992  31.356  1.00  0.00     0.135 A 
ATOM     76  C   UNL A   1      35.560  34.240  29.522  1.00  0.00     0.135 A 
ATOM     77  F   UNL A   1      34.955  31.812  31.983  1.00  0.00    -0.206 F 
ATOM     78  C   UNL A   1      33.750  33.797  31.597  1.00  0.00     0.059 A 
ATOM     79  C   UNL A   1      34.456  35.068  29.766  1.00  0.00     0.059 A 
ATOM     80  F   UNL A   1      36.455  34.608  28.588  1.00  0.00    -0.206 F 
ATOM     81  C   UNL A   1      33.677  34.988  30.906  1.00  0.00     0.060 A 
BRANCH  81  82
ATOM     82  S   UNL A   1      32.843  36.570  31.679  1.00  0.00     0.124 S 
ATOM     83  O   UNL A   1      33.722  36.806  32.784  1.00  0.00    -0.237 OA
ATOM     84  O   UNL A   1      32.946  37.612  30.664  1.00  0.00    -0.237 OA
ATOM     85  O   UNL A   1      31.483  36.216  32.040  1.00  0.00    -0.744 OA
ENDBRANCH  81  82
ENDBRANCH  49  74
BRANCH  61  86
ATOM     86  C   UNL A   1      39.048  34.157  37.268  1.00  0.00     0.058 A 
ATOM     87  C   UNL A   1      38.589  33.028  37.964  1.00  0.00     0.135 A 
ATOM     88  C   UNL A   1      39.277  35.308  38.059  1.00  0.00     0.135 A 
ATOM     89  F   UNL A   1      38.183  31.927  37.315  1.00  0.00    -0.206 F 
ATOM     90  C   UNL A   1      38.485  33.006  39.355  1.00  0.00     0.059 A 
ATOM     91  C   UNL A   1      39.139  35.322  39.439  1.00  0.00     0.059 A 
ATOM     92  F   UNL A   1      39.648  36.481  37.534  1.00  0.00    -0.206 F 
ATOM     93  C   UNL A   1      38.780  34.154  40.085  1.00  0.00     0.060 A 
BRANCH  93  94
ATOM     94  S   UNL A   1      38.672  34.120  41.877  1.00  0.00     0.124 S 
ATOM     95  O   UNL A   1      40.047  34.404  42.278  1.00  0.00    -0.237 OA
ATOM     96  O   UNL A   1      37.707  35.186  42.128  1.00  0.00    -0.237 OA
ATOM     97  O   UNL A   1      38.206  32.769  42.168  1.00  0.00    -0.744 OA
ENDBRANCH  93  94
ENDBRANCH  61  86
ENDBRANCH  35  36
ENDBRANCH  27  30
ENDBRANCH   1  26
TORSDOF 14
ENDMDL
