MODEL 1
REMARK VINA RESULT:     -12.2      0.000      0.000
REMARK SMILES C[C@@H]1CCCN(C(=O)NC2(CC(=O)NCCCNC(=O)c3ccc(-c4c5nc(c(-c6c(F)cc(S(=O)(=O)[O-])cc6F)c6ccc([nH]6)c(-c6c(F)cc(S(=O)(=O)[O-])cc6F)c6nc(c(-c7c(F)cc(S(=O)(=O)[O-])cc7F)c7ccc4[nH]7)C=C6)C=C5)cc3)CCC2)[C@@H]1C
REMARK SMILES IDX 16 1 15 2 14 3 12 4 13 5 11 7 10 8 87 9 89 10 88 11 9 12
REMARK SMILES IDX 7 13 8 14 6 16 1 17 2 18 3 19 90 20 4 21 91 22 5 23 17 24
REMARK SMILES IDX 18 25 19 26 20 28 21 29 22 30 86 31 23 32 85 33 24 34 25 35
REMARK SMILES IDX 26 36 79 37 27 38 84 39 78 40 80 41 28 42 83 43 77 44 76 45
REMARK SMILES IDX 29 47 63 48 42 49 62 50 43 51 46 52 61 53 81 54 44 55 45 56
REMARK SMILES IDX 60 58 82 59 47 60 30 61 31 62 40 63 32 64 33 65 39 66 41 67
REMARK SMILES IDX 34 68 35 69 36 70 37 71 38 72 64 73 65 74 74 75 66 76 67 77
REMARK SMILES IDX 73 78 75 79 68 80 69 81 70 82 71 83 72 84 48 85 49 86 58 87
REMARK SMILES IDX 50 88 51 89 57 90 59 91 52 92 53 93 54 94 55 95 56 96
REMARK H PARENT 14 6 9 15 18 27 80 46 46 57
REMARK Flexibility Score: inf
ROOT
ATOM      1  C   UNL A   1      37.939  24.087  26.093  1.00  0.00     0.042 C 
ENDROOT
BRANCH   1   2
ATOM      2  C   UNL A   1      37.049  23.004  25.488  1.00  0.00     0.117 C 
BRANCH   2   3
ATOM      3  N   UNL A   1      36.267  22.361  26.524  1.00  0.00    -0.356 N 
ATOM      4  C   UNL A   1      35.039  21.786  26.429  1.00  0.00     0.222 C 
ATOM      5  O   UNL A   1      34.404  21.578  27.464  1.00  0.00    -0.275 OA
ATOM      6  H   UNL A   1      36.681  22.340  27.418  1.00  0.00     0.163 HD
BRANCH   4   7
ATOM      7  C   UNL A   1      34.485  21.361  25.091  1.00  0.00     0.128 C 
BRANCH   7   8
ATOM      8  C   UNL A   1      33.030  21.771  24.746  1.00  0.00     0.051 C 
ATOM      9  C   UNL A   1      32.247  20.463  24.511  1.00  0.00     0.029 C 
ATOM     10  C   UNL A   1      32.804  22.152  23.266  1.00  0.00     0.029 C 
ATOM     11  C   UNL A   1      32.243  20.744  22.999  1.00  0.00     0.005 C 
BRANCH   8  12
ATOM     12  N   UNL A   1      32.507  22.695  25.778  1.00  0.00    -0.332 N 
ATOM     13  C   UNL A   1      31.898  23.882  25.981  1.00  0.00     0.318 C 
ATOM     14  O   UNL A   1      31.549  24.006  27.161  1.00  0.00    -0.249 OA
ATOM     15  H   UNL A   1      32.663  22.283  26.658  1.00  0.00     0.165 HD
BRANCH  13  16
ATOM     16  N   UNL A   1      31.659  24.859  25.060  1.00  0.00    -0.322 N 
ATOM     17  C   UNL A   1      31.588  27.312  26.877  1.00  0.00     0.010 C 
ATOM     18  C   UNL A   1      31.881  27.313  25.372  1.00  0.00     0.008 C 
ATOM     19  C   UNL A   1      30.593  27.521  24.552  1.00  0.00     0.007 C 
ATOM     20  C   UNL A   1      32.588  26.016  24.896  1.00  0.00     0.086 C 
ATOM     21  C   UNL A   1      29.711  26.275  24.530  1.00  0.00     0.022 C 
ATOM     22  C   UNL A   1      34.026  25.919  25.410  1.00  0.00     0.031 C 
ATOM     23  C   UNL A   1      30.512  25.018  24.182  1.00  0.00     0.121 C 
ENDBRANCH  13  16
ENDBRANCH   8  12
ENDBRANCH   7   8
ENDBRANCH   4   7
ENDBRANCH   2   3
ENDBRANCH   1   2
BRANCH   1  24
ATOM     24  C   UNL A   1      39.107  23.530  26.889  1.00  0.00     0.118 C 
BRANCH  24  25
ATOM     25  N   UNL A   1      40.376  23.854  26.261  1.00  0.00    -0.352 N 
ATOM     26  C   UNL A   1      41.142  24.988  26.357  1.00  0.00     0.251 C 
ATOM     27  H   UNL A   1      40.743  23.152  25.675  1.00  0.00     0.163 HD
ATOM     28  O   UNL A   1      42.029  25.175  25.529  1.00  0.00    -0.269 OA
BRANCH  26  29
ATOM     29  C   UNL A   1      40.913  25.976  27.438  1.00  0.00     0.039 A 
ATOM     30  C   UNL A   1      41.685  27.143  27.451  1.00  0.00     0.014 A 
ATOM     31  C   UNL A   1      40.009  25.735  28.476  1.00  0.00     0.014 A 
ATOM     32  C   UNL A   1      41.537  28.067  28.489  1.00  0.00     0.010 A 
ATOM     33  C   UNL A   1      39.799  26.695  29.463  1.00  0.00     0.010 A 
ATOM     34  C   UNL A   1      40.584  27.856  29.498  1.00  0.00    -0.014 A 
BRANCH  34  35
ATOM     35  C   UNL A   1      40.438  28.811  30.626  1.00  0.00     0.031 A 
ATOM     36  C   UNL A   1      41.297  28.659  31.855  1.00  0.00     0.074 A 
ATOM     37  C   UNL A   1      39.505  29.782  30.565  1.00  0.00     0.049 A 
ATOM     38  N   UNL A   1      41.285  29.355  32.963  1.00  0.00    -0.248 NA
ATOM     39  C   UNL A   1      42.277  27.560  31.854  1.00  0.00     0.031 C 
ATOM     40  C   UNL A   1      38.573  29.991  29.454  1.00  0.00     0.029 A 
ATOM     41  N   UNL A   1      39.181  30.769  31.461  1.00  0.00    -0.354 N 
ATOM     42  C   UNL A   1      42.230  28.763  33.795  1.00  0.00     0.074 A 
ATOM     43  C   UNL A   1      42.765  27.625  33.083  1.00  0.00     0.031 C 
ATOM     44  C   UNL A   1      37.795  31.051  29.728  1.00  0.00     0.029 A 
ATOM     45  C   UNL A   1      38.153  31.579  31.041  1.00  0.00     0.049 A 
ATOM     46  H   UNL A   1      39.643  30.886  32.322  1.00  0.00     0.167 HD
ATOM     47  C   UNL A   1      42.631  29.149  35.030  1.00  0.00     0.037 A 
ATOM     48  C   UNL A   1      37.565  32.627  31.648  1.00  0.00     0.037 A 
ATOM     49  C   UNL A   1      42.133  30.315  35.710  1.00  0.00     0.049 A 
ATOM     50  C   UNL A   1      38.074  33.074  32.992  1.00  0.00     0.074 A 
ATOM     51  C   UNL A   1      42.527  30.835  36.930  1.00  0.00     0.029 A 
ATOM     52  N   UNL A   1      41.135  31.147  35.223  1.00  0.00    -0.354 N 
ATOM     53  N   UNL A   1      39.017  32.542  33.733  1.00  0.00    -0.248 NA
ATOM     54  C   UNL A   1      37.455  34.273  33.572  1.00  0.00     0.031 C 
ATOM     55  C   UNL A   1      41.749  31.966  37.195  1.00  0.00     0.029 A 
ATOM     56  C   UNL A   1      40.898  32.174  36.121  1.00  0.00     0.049 A 
ATOM     57  H   UNL A   1      40.667  31.026  34.366  1.00  0.00     0.167 HD
ATOM     58  C   UNL A   1      39.121  33.357  34.855  1.00  0.00     0.074 A 
ATOM     59  C   UNL A   1      38.157  34.424  34.686  1.00  0.00     0.031 C 
ATOM     60  C   UNL A   1      39.942  33.234  35.927  1.00  0.00     0.037 A 
BRANCH  47  61
ATOM     61  C   UNL A   1      43.672  28.312  35.723  1.00  0.00     0.058 A 
ATOM     62  C   UNL A   1      43.320  27.271  36.598  1.00  0.00     0.135 A 
ATOM     63  C   UNL A   1      45.038  28.521  35.471  1.00  0.00     0.135 A 
ATOM     64  F   UNL A   1      42.030  27.040  36.888  1.00  0.00    -0.206 F 
ATOM     65  C   UNL A   1      44.285  26.482  37.214  1.00  0.00     0.059 A 
ATOM     66  C   UNL A   1      46.019  27.726  36.057  1.00  0.00     0.059 A 
ATOM     67  F   UNL A   1      45.431  29.503  34.645  1.00  0.00    -0.206 F 
ATOM     68  C   UNL A   1      45.632  26.715  36.936  1.00  0.00     0.060 A 
BRANCH  68  69
ATOM     69  S   UNL A   1      46.871  25.663  37.723  1.00  0.00     0.124 S 
ATOM     70  O   UNL A   1      48.054  26.515  37.669  1.00  0.00    -0.237 OA
ATOM     71  O   UNL A   1      46.304  25.450  39.050  1.00  0.00    -0.237 OA
ATOM     72  O   UNL A   1      46.909  24.482  36.865  1.00  0.00    -0.744 OA
ENDBRANCH  68  69
ENDBRANCH  47  61
BRANCH  48  73
ATOM     73  C   UNL A   1      36.448  33.345  30.978  1.00  0.00     0.058 A 
ATOM     74  C   UNL A   1      35.130  33.230  31.443  1.00  0.00     0.135 A 
ATOM     75  C   UNL A   1      36.679  34.165  29.862  1.00  0.00     0.135 A 
ATOM     76  F   UNL A   1      34.860  32.455  32.505  1.00  0.00    -0.206 F 
ATOM     77  C   UNL A   1      34.075  33.879  30.813  1.00  0.00     0.059 A 
ATOM     78  C   UNL A   1      35.643  34.845  29.230  1.00  0.00     0.059 A 
ATOM     79  F   UNL A   1      37.924  34.327  29.392  1.00  0.00    -0.206 F 
ATOM     80  C   UNL A   1      34.341  34.686  29.705  1.00  0.00     0.060 A 
BRANCH  80  81
ATOM     81  S   UNL A   1      32.971  35.559  28.914  1.00  0.00     0.124 S 
ATOM     82  O   UNL A   1      33.677  36.582  28.152  1.00  0.00    -0.237 OA
ATOM     83  O   UNL A   1      32.342  34.499  28.132  1.00  0.00    -0.237 OA
ATOM     84  O   UNL A   1      32.185  36.040  30.046  1.00  0.00    -0.744 OA
ENDBRANCH  80  81
ENDBRANCH  48  73
BRANCH  60  85
ATOM     85  C   UNL A   1      39.862  34.305  36.979  1.00  0.00     0.058 A 
ATOM     86  C   UNL A   1      40.531  35.530  36.839  1.00  0.00     0.135 A 
ATOM     87  C   UNL A   1      39.079  34.111  38.128  1.00  0.00     0.135 A 
ATOM     88  F   UNL A   1      41.295  35.763  35.760  1.00  0.00    -0.206 F 
ATOM     89  C   UNL A   1      40.457  36.513  37.820  1.00  0.00     0.059 A 
ATOM     90  C   UNL A   1      38.969  35.090  39.109  1.00  0.00     0.059 A 
ATOM     91  F   UNL A   1      38.407  32.961  38.302  1.00  0.00    -0.206 F 
ATOM     92  C   UNL A   1      39.676  36.281  38.955  1.00  0.00     0.060 A 
BRANCH  92  93
ATOM     93  S   UNL A   1      39.580  37.565  40.219  1.00  0.00     0.124 S 
ATOM     94  O   UNL A   1      40.983  37.935  40.369  1.00  0.00    -0.237 OA
ATOM     95  O   UNL A   1      38.723  38.565  39.589  1.00  0.00    -0.237 OA
ATOM     96  O   UNL A   1      38.988  36.872  41.360  1.00  0.00    -0.744 OA
ENDBRANCH  92  93
ENDBRANCH  60  85
ENDBRANCH  34  35
ENDBRANCH  26  29
ENDBRANCH  24  25
ENDBRANCH   1  24
TORSDOF 16
ENDMDL
MODEL 2
REMARK VINA RESULT:     -12.1      1.052      2.243
REMARK SMILES C[C@@H]1CCCN(C(=O)NC2(CC(=O)NCCCNC(=O)c3ccc(-c4c5nc(c(-c6c(F)cc(S(=O)(=O)[O-])cc6F)c6ccc([nH]6)c(-c6c(F)cc(S(=O)(=O)[O-])cc6F)c6nc(c(-c7c(F)cc(S(=O)(=O)[O-])cc7F)c7ccc4[nH]7)C=C6)C=C5)cc3)CCC2)[C@@H]1C
REMARK SMILES IDX 16 1 15 2 14 3 12 4 13 5 11 7 10 8 87 9 89 10 88 11 9 12
REMARK SMILES IDX 7 13 8 14 6 16 1 17 2 18 3 19 90 20 4 21 91 22 5 23 17 24
REMARK SMILES IDX 18 25 19 26 20 28 21 29 22 30 86 31 23 32 85 33 24 34 25 35
REMARK SMILES IDX 26 36 79 37 27 38 84 39 78 40 80 41 28 42 83 43 77 44 76 45
REMARK SMILES IDX 29 47 63 48 42 49 62 50 43 51 46 52 61 53 81 54 44 55 45 56
REMARK SMILES IDX 60 58 82 59 47 60 30 61 31 62 40 63 32 64 33 65 39 66 41 67
REMARK SMILES IDX 34 68 35 69 36 70 37 71 38 72 64 73 65 74 74 75 66 76 67 77
REMARK SMILES IDX 73 78 75 79 68 80 69 81 70 82 71 83 72 84 48 85 49 86 58 87
REMARK SMILES IDX 50 88 51 89 57 90 59 91 52 92 53 93 54 94 55 95 56 96
REMARK H PARENT 14 6 9 15 18 27 80 46 46 57
REMARK Flexibility Score: inf
ROOT
ATOM      1  C   UNL A   1      38.775  23.399  26.732  1.00  0.00     0.042 C 
ENDROOT
BRANCH   1   2
ATOM      2  C   UNL A   1      38.353  22.329  25.728  1.00  0.00     0.117 C 
BRANCH   2   3
ATOM      3  N   UNL A   1      37.688  22.939  24.594  1.00  0.00    -0.356 N 
ATOM      4  C   UNL A   1      36.555  22.540  23.958  1.00  0.00     0.222 C 
ATOM      5  O   UNL A   1      36.320  22.991  22.835  1.00  0.00    -0.275 OA
ATOM      6  H   UNL A   1      38.116  23.751  24.237  1.00  0.00     0.163 HD
BRANCH   4   7
ATOM      7  C   UNL A   1      35.577  21.608  24.630  1.00  0.00     0.128 C 
BRANCH   7   8
ATOM      8  C   UNL A   1      34.354  22.236  25.347  1.00  0.00     0.051 C 
ATOM      9  C   UNL A   1      34.845  22.697  26.735  1.00  0.00     0.029 C 
ATOM     10  C   UNL A   1      33.420  21.216  26.036  1.00  0.00     0.029 C 
ATOM     11  C   UNL A   1      34.097  21.521  27.384  1.00  0.00     0.005 C 
BRANCH   8  12
ATOM     12  N   UNL A   1      33.729  23.258  24.479  1.00  0.00    -0.332 N 
ATOM     13  C   UNL A   1      33.209  24.503  24.449  1.00  0.00     0.318 C 
ATOM     14  O   UNL A   1      33.002  24.871  23.285  1.00  0.00    -0.249 OA
ATOM     15  H   UNL A   1      33.670  22.887  23.569  1.00  0.00     0.165 HD
BRANCH  13  16
ATOM     16  N   UNL A   1      32.927  25.310  25.511  1.00  0.00    -0.322 N 
ATOM     17  C   UNL A   1      30.278  26.517  24.592  1.00  0.00     0.010 C 
ATOM     18  C   UNL A   1      30.763  26.407  26.043  1.00  0.00     0.008 C 
ATOM     19  C   UNL A   1      31.526  27.675  26.474  1.00  0.00     0.007 C 
ATOM     20  C   UNL A   1      31.659  25.164  26.285  1.00  0.00     0.086 C 
ATOM     21  C   UNL A   1      32.920  27.752  25.856  1.00  0.00     0.022 C 
ATOM     22  C   UNL A   1      30.866  23.856  26.209  1.00  0.00     0.031 C 
ATOM     23  C   UNL A   1      33.688  26.439  26.021  1.00  0.00     0.121 C 
ENDBRANCH  13  16
ENDBRANCH   8  12
ENDBRANCH   7   8
ENDBRANCH   4   7
ENDBRANCH   2   3
ENDBRANCH   1   2
BRANCH   1  24
ATOM     24  C   UNL A   1      40.225  23.274  27.170  1.00  0.00     0.118 C 
BRANCH  24  25
ATOM     25  N   UNL A   1      41.118  23.929  26.229  1.00  0.00    -0.352 N 
ATOM     26  C   UNL A   1      41.466  25.252  26.122  1.00  0.00     0.251 C 
ATOM     27  H   UNL A   1      41.537  23.333  25.567  1.00  0.00     0.163 HD
ATOM     28  O   UNL A   1      42.006  25.639  25.090  1.00  0.00    -0.269 OA
BRANCH  26  29
ATOM     29  C   UNL A   1      41.202  26.205  27.226  1.00  0.00     0.039 A 
ATOM     30  C   UNL A   1      42.003  27.347  27.329  1.00  0.00     0.014 A 
ATOM     31  C   UNL A   1      40.233  25.951  28.201  1.00  0.00     0.014 A 
ATOM     32  C   UNL A   1      41.820  28.236  28.391  1.00  0.00     0.010 A 
ATOM     33  C   UNL A   1      39.992  26.880  29.211  1.00  0.00     0.010 A 
ATOM     34  C   UNL A   1      40.805  28.015  29.336  1.00  0.00    -0.014 A 
BRANCH  34  35
ATOM     35  C   UNL A   1      40.620  28.931  30.490  1.00  0.00     0.031 A 
ATOM     36  C   UNL A   1      41.468  28.764  31.725  1.00  0.00     0.074 A 
ATOM     37  C   UNL A   1      39.663  29.878  30.447  1.00  0.00     0.049 A 
ATOM     38  N   UNL A   1      41.424  29.425  32.854  1.00  0.00    -0.248 NA
ATOM     39  C   UNL A   1      42.477  27.692  31.703  1.00  0.00     0.031 C 
ATOM     40  C   UNL A   1      38.739  30.097  29.331  1.00  0.00     0.029 A 
ATOM     41  N   UNL A   1      39.301  30.829  31.367  1.00  0.00    -0.354 N 
ATOM     42  C   UNL A   1      42.374  28.834  33.679  1.00  0.00     0.074 A 
ATOM     43  C   UNL A   1      42.948  27.732  32.940  1.00  0.00     0.031 C 
ATOM     44  C   UNL A   1      37.929  31.127  29.627  1.00  0.00     0.029 A 
ATOM     45  C   UNL A   1      38.257  31.624  30.959  1.00  0.00     0.049 A 
ATOM     46  H   UNL A   1      39.749  30.932  32.237  1.00  0.00     0.167 HD
ATOM     47  C   UNL A   1      42.750  29.192  34.930  1.00  0.00     0.037 A 
ATOM     48  C   UNL A   1      37.634  32.637  31.590  1.00  0.00     0.037 A 
ATOM     49  C   UNL A   1      42.213  30.323  35.639  1.00  0.00     0.049 A 
ATOM     50  C   UNL A   1      38.114  33.056  32.953  1.00  0.00     0.074 A 
ATOM     51  C   UNL A   1      42.578  30.816  36.879  1.00  0.00     0.029 A 
ATOM     52  N   UNL A   1      41.199  31.143  35.165  1.00  0.00    -0.354 N 
ATOM     53  N   UNL A   1      39.062  32.527  33.690  1.00  0.00    -0.248 NA
ATOM     54  C   UNL A   1      37.457  34.220  33.561  1.00  0.00     0.031 C 
ATOM     55  C   UNL A   1      41.766  31.918  37.168  1.00  0.00     0.029 A 
ATOM     56  C   UNL A   1      40.923  32.136  36.090  1.00  0.00     0.049 A 
ATOM     57  H   UNL A   1      40.744  31.036  34.298  1.00  0.00     0.167 HD
ATOM     58  C   UNL A   1      39.131  33.310  34.838  1.00  0.00     0.074 A 
ATOM     59  C   UNL A   1      38.140  34.356  34.688  1.00  0.00     0.031 C 
ATOM     60  C   UNL A   1      39.942  33.176  35.916  1.00  0.00     0.037 A 
BRANCH  47  61
ATOM     61  C   UNL A   1      43.804  28.362  35.611  1.00  0.00     0.058 A 
ATOM     62  C   UNL A   1      45.174  28.627  35.444  1.00  0.00     0.135 A 
ATOM     63  C   UNL A   1      43.441  27.321  36.481  1.00  0.00     0.135 A 
ATOM     64  F   UNL A   1      45.578  29.599  34.611  1.00  0.00    -0.206 F 
ATOM     65  C   UNL A   1      46.145  27.876  36.099  1.00  0.00     0.059 A 
ATOM     66  C   UNL A   1      44.396  26.574  37.166  1.00  0.00     0.059 A 
ATOM     67  F   UNL A   1      42.147  27.023  36.676  1.00  0.00    -0.206 F 
ATOM     68  C   UNL A   1      45.746  26.853  36.960  1.00  0.00     0.060 A 
BRANCH  68  69
ATOM     69  S   UNL A   1      47.019  25.906  37.822  1.00  0.00     0.124 S 
ATOM     70  O   UNL A   1      46.843  24.582  37.235  1.00  0.00    -0.237 OA
ATOM     71  O   UNL A   1      48.241  26.608  37.447  1.00  0.00    -0.237 OA
ATOM     72  O   UNL A   1      46.638  26.025  39.227  1.00  0.00    -0.744 OA
ENDBRANCH  68  69
ENDBRANCH  47  61
BRANCH  48  73
ATOM     73  C   UNL A   1      36.507  33.346  30.927  1.00  0.00     0.058 A 
ATOM     74  C   UNL A   1      36.728  34.192  29.831  1.00  0.00     0.135 A 
ATOM     75  C   UNL A   1      35.186  33.185  31.373  1.00  0.00     0.135 A 
ATOM     76  F   UNL A   1      37.975  34.379  29.370  1.00  0.00    -0.206 F 
ATOM     77  C   UNL A   1      35.685  34.876  29.215  1.00  0.00     0.059 A 
ATOM     78  C   UNL A   1      34.123  33.838  30.758  1.00  0.00     0.059 A 
ATOM     79  F   UNL A   1      34.918  32.369  32.404  1.00  0.00    -0.206 F 
ATOM     80  C   UNL A   1      34.384  34.693  29.687  1.00  0.00     0.060 A 
BRANCH  80  81
ATOM     81  S   UNL A   1      33.029  35.553  28.858  1.00  0.00     0.124 S 
ATOM     82  O   UNL A   1      32.246  36.028  29.993  1.00  0.00    -0.237 OA
ATOM     83  O   UNL A   1      33.735  36.578  28.096  1.00  0.00    -0.237 OA
ATOM     84  O   UNL A   1      32.409  34.503  28.056  1.00  0.00    -0.744 OA
ENDBRANCH  80  81
ENDBRANCH  48  73
BRANCH  60  85
ATOM     85  C   UNL A   1      39.820  34.211  36.998  1.00  0.00     0.058 A 
ATOM     86  C   UNL A   1      39.025  34.003  38.134  1.00  0.00     0.135 A 
ATOM     87  C   UNL A   1      40.534  35.416  36.908  1.00  0.00     0.135 A 
ATOM     88  F   UNL A   1      38.319  32.868  38.267  1.00  0.00    -0.206 F 
ATOM     89  C   UNL A   1      38.912  34.970  39.129  1.00  0.00     0.059 A 
ATOM     90  C   UNL A   1      40.458  36.386  37.901  1.00  0.00     0.059 A 
ATOM     91  F   UNL A   1      41.321  35.659  35.846  1.00  0.00    -0.206 F 
ATOM     92  C   UNL A   1      39.630  36.161  39.000  1.00  0.00     0.060 A 
BRANCH  92  93
ATOM     93  S   UNL A   1      39.484  37.406  40.297  1.00  0.00     0.124 S 
ATOM     94  O   UNL A   1      38.611  38.389  39.664  1.00  0.00    -0.237 OA
ATOM     95  O   UNL A   1      38.894  36.649  41.398  1.00  0.00    -0.237 OA
ATOM     96  O   UNL A   1      40.863  37.836  40.511  1.00  0.00    -0.744 OA
ENDBRANCH  92  93
ENDBRANCH  60  85
ENDBRANCH  34  35
ENDBRANCH  26  29
ENDBRANCH  24  25
ENDBRANCH   1  24
TORSDOF 16
ENDMDL
MODEL 3
REMARK VINA RESULT:     -12.0      6.673     12.207
REMARK SMILES C[C@@H]1CCCN(C(=O)NC2(CC(=O)NCCCNC(=O)c3ccc(-c4c5nc(c(-c6c(F)cc(S(=O)(=O)[O-])cc6F)c6ccc([nH]6)c(-c6c(F)cc(S(=O)(=O)[O-])cc6F)c6nc(c(-c7c(F)cc(S(=O)(=O)[O-])cc7F)c7ccc4[nH]7)C=C6)C=C5)cc3)CCC2)[C@@H]1C
REMARK SMILES IDX 16 1 15 2 14 3 12 4 13 5 11 7 10 8 87 9 89 10 88 11 9 12
REMARK SMILES IDX 7 13 8 14 6 16 1 17 2 18 3 19 90 20 4 21 91 22 5 23 17 24
REMARK SMILES IDX 18 25 19 26 20 28 21 29 22 30 86 31 23 32 85 33 24 34 25 35
REMARK SMILES IDX 26 36 79 37 27 38 84 39 78 40 80 41 28 42 83 43 77 44 76 45
REMARK SMILES IDX 29 47 63 48 42 49 62 50 43 51 46 52 61 53 81 54 44 55 45 56
REMARK SMILES IDX 60 58 82 59 47 60 30 61 31 62 40 63 32 64 33 65 39 66 41 67
REMARK SMILES IDX 34 68 35 69 36 70 37 71 38 72 64 73 65 74 74 75 66 76 67 77
REMARK SMILES IDX 73 78 75 79 68 80 69 81 70 82 71 83 72 84 48 85 49 86 58 87
REMARK SMILES IDX 50 88 51 89 57 90 59 91 52 92 53 93 54 94 55 95 56 96
REMARK H PARENT 14 6 9 15 18 27 80 46 46 57
REMARK Flexibility Score: inf
ROOT
ATOM      1  C   UNL A   1      33.911  30.246  27.600  1.00  0.00     0.042 C 
ENDROOT
BRANCH   1   2
ATOM      2  C   UNL A   1      33.862  28.984  26.741  1.00  0.00     0.117 C 
BRANCH   2   3
ATOM      3  N   UNL A   1      34.050  29.321  25.345  1.00  0.00    -0.356 N 
ATOM      4  C   UNL A   1      33.279  28.983  24.277  1.00  0.00     0.222 C 
ATOM      5  O   UNL A   1      33.759  29.086  23.148  1.00  0.00    -0.275 OA
ATOM      6  H   UNL A   1      34.844  29.867  25.142  1.00  0.00     0.163 HD
BRANCH   4   7
ATOM      7  C   UNL A   1      31.849  28.541  24.465  1.00  0.00     0.128 C 
BRANCH   7   8
ATOM      8  C   UNL A   1      31.225  27.624  23.380  1.00  0.00     0.051 C 
ATOM      9  C   UNL A   1      30.344  28.527  22.493  1.00  0.00     0.029 C 
ATOM     10  C   UNL A   1      29.960  26.863  23.832  1.00  0.00     0.029 C 
ATOM     11  C   UNL A   1      29.086  27.921  23.136  1.00  0.00     0.005 C 
BRANCH   8  12
ATOM     12  N   UNL A   1      32.288  26.846  22.705  1.00  0.00    -0.332 N 
ATOM     13  C   UNL A   1      32.861  25.628  22.605  1.00  0.00     0.318 C 
ATOM     14  O   UNL A   1      33.652  25.586  21.654  1.00  0.00    -0.249 OA
ATOM     15  H   UNL A   1      32.760  27.451  22.089  1.00  0.00     0.165 HD
BRANCH  13  16
ATOM     16  N   UNL A   1      32.644  24.542  23.400  1.00  0.00    -0.322 N 
ATOM     17  C   UNL A   1      35.399  23.231  23.294  1.00  0.00     0.010 C 
ATOM     18  C   UNL A   1      34.349  23.034  24.394  1.00  0.00     0.008 C 
ATOM     19  C   UNL A   1      33.440  21.826  24.090  1.00  0.00     0.007 C 
ATOM     20  C   UNL A   1      33.470  24.292  24.618  1.00  0.00     0.086 C 
ATOM     21  C   UNL A   1      32.436  22.121  22.978  1.00  0.00     0.022 C 
ATOM     22  C   UNL A   1      34.256  25.441  25.255  1.00  0.00     0.031 C 
ATOM     23  C   UNL A   1      31.707  23.447  23.206  1.00  0.00     0.121 C 
ENDBRANCH  13  16
ENDBRANCH   8  12
ENDBRANCH   7   8
ENDBRANCH   4   7
ENDBRANCH   2   3
ENDBRANCH   1   2
BRANCH   1  24
ATOM     24  C   UNL A   1      35.324  30.666  27.969  1.00  0.00     0.118 C 
BRANCH  24  25
ATOM     25  N   UNL A   1      35.428  30.982  29.383  1.00  0.00    -0.352 N 
ATOM     26  C   UNL A   1      36.403  30.649  30.289  1.00  0.00     0.251 C 
ATOM     27  H   UNL A   1      34.685  31.516  29.747  1.00  0.00     0.163 HD
ATOM     28  O   UNL A   1      36.162  30.768  31.487  1.00  0.00    -0.269 OA
BRANCH  26  29
ATOM     29  C   UNL A   1      37.728  30.156  29.843  1.00  0.00     0.039 A 
ATOM     30  C   UNL A   1      38.647  29.738  30.811  1.00  0.00     0.014 A 
ATOM     31  C   UNL A   1      38.103  30.173  28.496  1.00  0.00     0.014 A 
ATOM     32  C   UNL A   1      39.925  29.324  30.429  1.00  0.00     0.010 A 
ATOM     33  C   UNL A   1      39.346  29.678  28.108  1.00  0.00     0.010 A 
ATOM     34  C   UNL A   1      40.282  29.280  29.071  1.00  0.00    -0.014 A 
BRANCH  34  35
ATOM     35  C   UNL A   1      41.647  28.875  28.651  1.00  0.00     0.031 A 
ATOM     36  C   UNL A   1      42.744  29.906  28.567  1.00  0.00     0.074 A 
ATOM     37  C   UNL A   1      41.889  27.596  28.301  1.00  0.00     0.049 A 
ATOM     38  N   UNL A   1      43.984  29.763  28.172  1.00  0.00    -0.248 NA
ATOM     39  C   UNL A   1      42.395  31.285  28.945  1.00  0.00     0.031 C 
ATOM     40  C   UNL A   1      40.893  26.521  28.283  1.00  0.00     0.029 A 
ATOM     41  N   UNL A   1      43.044  26.985  27.885  1.00  0.00    -0.354 N 
ATOM     42  C   UNL A   1      44.549  31.033  28.228  1.00  0.00     0.074 A 
ATOM     43  C   UNL A   1      43.508  31.941  28.651  1.00  0.00     0.031 C 
ATOM     44  C   UNL A   1      41.486  25.380  27.893  1.00  0.00     0.029 A 
ATOM     45  C   UNL A   1      42.892  25.647  27.609  1.00  0.00     0.049 A 
ATOM     46  H   UNL A   1      43.901  27.460  27.795  1.00  0.00     0.167 HD
ATOM     47  C   UNL A   1      45.827  31.402  27.973  1.00  0.00     0.037 A 
ATOM     48  C   UNL A   1      43.786  24.739  27.174  1.00  0.00     0.037 A 
ATOM     49  C   UNL A   1      46.872  30.484  27.605  1.00  0.00     0.049 A 
ATOM     50  C   UNL A   1      45.214  25.163  26.961  1.00  0.00     0.074 A 
ATOM     51  C   UNL A   1      48.215  30.745  27.398  1.00  0.00     0.029 A 
ATOM     52  N   UNL A   1      46.692  29.124  27.397  1.00  0.00    -0.354 N 
ATOM     53  N   UNL A   1      45.746  26.356  27.085  1.00  0.00    -0.248 NA
ATOM     54  C   UNL A   1      46.167  24.116  26.568  1.00  0.00     0.031 C 
ATOM     55  C   UNL A   1      48.842  29.548  27.036  1.00  0.00     0.029 A 
ATOM     56  C   UNL A   1      47.898  28.534  27.058  1.00  0.00     0.049 A 
ATOM     57  H   UNL A   1      45.833  28.650  27.479  1.00  0.00     0.167 HD
ATOM     58  C   UNL A   1      47.101  26.197  26.811  1.00  0.00     0.074 A 
ATOM     59  C   UNL A   1      47.306  24.792  26.530  1.00  0.00     0.031 C 
ATOM     60  C   UNL A   1      48.084  27.130  26.795  1.00  0.00     0.037 A 
BRANCH  47  61
ATOM     61  C   UNL A   1      46.174  32.861  28.097  1.00  0.00     0.058 A 
ATOM     62  C   UNL A   1      46.664  33.404  29.296  1.00  0.00     0.135 A 
ATOM     63  C   UNL A   1      46.063  33.718  26.989  1.00  0.00     0.135 A 
ATOM     64  F   UNL A   1      46.774  32.635  30.391  1.00  0.00    -0.206 F 
ATOM     65  C   UNL A   1      47.012  34.747  29.398  1.00  0.00     0.059 A 
ATOM     66  C   UNL A   1      46.429  35.059  27.062  1.00  0.00     0.059 A 
ATOM     67  F   UNL A   1      45.598  33.252  25.819  1.00  0.00    -0.206 F 
ATOM     68  C   UNL A   1      46.893  35.566  28.275  1.00  0.00     0.060 A 
BRANCH  68  69
ATOM     69  S   UNL A   1      47.374  37.301  28.418  1.00  0.00     0.124 S 
ATOM     70  O   UNL A   1      46.762  37.871  27.222  1.00  0.00    -0.237 OA
ATOM     71  O   UNL A   1      46.770  37.691  29.687  1.00  0.00    -0.237 OA
ATOM     72  O   UNL A   1      48.834  37.250  28.412  1.00  0.00    -0.744 OA
ENDBRANCH  68  69
ENDBRANCH  47  61
BRANCH  48  73
ATOM     73  C   UNL A   1      43.365  23.332  26.940  1.00  0.00     0.058 A 
ATOM     74  C   UNL A   1      43.257  22.815  25.641  1.00  0.00     0.135 A 
ATOM     75  C   UNL A   1      43.068  22.476  28.012  1.00  0.00     0.135 A 
ATOM     76  F   UNL A   1      43.529  23.597  24.584  1.00  0.00    -0.206 F 
ATOM     77  C   UNL A   1      42.844  21.508  25.408  1.00  0.00     0.059 A 
ATOM     78  C   UNL A   1      42.677  21.157  27.805  1.00  0.00     0.059 A 
ATOM     79  F   UNL A   1      43.177  22.915  29.274  1.00  0.00    -0.206 F 
ATOM     80  C   UNL A   1      42.555  20.685  26.498  1.00  0.00     0.060 A 
BRANCH  80  81
ATOM     81  S   UNL A   1      42.058  18.976  26.191  1.00  0.00     0.124 S 
ATOM     82  O   UNL A   1      42.286  18.365  27.495  1.00  0.00    -0.237 OA
ATOM     83  O   UNL A   1      40.662  19.129  25.792  1.00  0.00    -0.237 OA
ATOM     84  O   UNL A   1      42.961  18.552  25.125  1.00  0.00    -0.744 OA
ENDBRANCH  80  81
ENDBRANCH  48  73
BRANCH  60  85
ATOM     85  C   UNL A   1      49.479  26.651  26.506  1.00  0.00     0.058 A 
ATOM     86  C   UNL A   1      50.282  26.073  27.499  1.00  0.00     0.135 A 
ATOM     87  C   UNL A   1      50.004  26.747  25.208  1.00  0.00     0.135 A 
ATOM     88  F   UNL A   1      49.827  25.962  28.757  1.00  0.00    -0.206 F 
ATOM     89  C   UNL A   1      51.575  25.639  27.224  1.00  0.00     0.059 A 
ATOM     90  C   UNL A   1      51.283  26.296  24.904  1.00  0.00     0.059 A 
ATOM     91  F   UNL A   1      49.269  27.281  24.218  1.00  0.00    -0.206 F 
ATOM     92  C   UNL A   1      52.069  25.759  25.923  1.00  0.00     0.060 A 
BRANCH  92  93
ATOM     93  S   UNL A   1      53.744  25.186  25.574  1.00  0.00     0.124 S 
ATOM     94  O   UNL A   1      53.539  23.749  25.436  1.00  0.00    -0.237 OA
ATOM     95  O   UNL A   1      54.072  25.901  24.343  1.00  0.00    -0.237 OA
ATOM     96  O   UNL A   1      54.497  25.604  26.753  1.00  0.00    -0.744 OA
ENDBRANCH  92  93
ENDBRANCH  60  85
ENDBRANCH  34  35
ENDBRANCH  26  29
ENDBRANCH  24  25
ENDBRANCH   1  24
TORSDOF 16
ENDMDL
