MODEL 1
REMARK VINA RESULT:     -12.0      0.000      0.000
REMARK SMILES CC[C@H]1SC[C@H](C(=O)NCCCNC(=O)c2ccc(-c3c4nc(c(-c5c(F)cc(S(=O)(=O)[O-])cc5F)c5ccc([nH]5)c(-c5c(F)cc(S(=O)(=O)[O-])cc5F)c5nc(c(-c6c(F)cc(S(=O)(=O)[O-])cc6F)c6ccc3[nH]6)C=C5)C=C4)cc2)N1C(=O)Cc1ccc(F)c(F)c1
REMARK SMILES IDX 11 1 10 2 9 3 7 4 8 5 6 7 3 8 4 9 82 10 5 11 2 12 1 13 83 14
REMARK SMILES IDX 84 15 85 16 86 17 87 18 93 19 88 20 91 21 89 22 92 23 90 24
REMARK SMILES IDX 12 25 13 26 14 27 15 29 16 30 17 31 81 32 18 33 80 34 19 35
REMARK SMILES IDX 20 36 21 37 74 38 22 39 79 40 73 41 75 42 23 43 78 44 72 45
REMARK SMILES IDX 71 46 24 48 58 49 37 50 57 51 38 52 41 53 56 54 76 55 39 56
REMARK SMILES IDX 40 57 55 59 77 60 42 61 25 62 26 63 35 64 27 65 28 66 34 67
REMARK SMILES IDX 36 68 29 69 30 70 31 71 32 72 33 73 59 74 60 75 69 76 61 77
REMARK SMILES IDX 62 78 68 79 70 80 63 81 64 82 65 83 66 84 67 85 43 86 44 87
REMARK SMILES IDX 53 88 45 89 46 90 52 91 54 92 47 93 48 94 49 95 50 96 51 97
REMARK H PARENT 9 6 13 28 75 47 41 58
REMARK Flexibility Score: inf
ROOT
ATOM      1  C   UNL A   1      34.144  30.493  27.519  1.00  0.00     0.042 C 
ENDROOT
BRANCH   1   2
ATOM      2  C   UNL A   1      34.023  29.154  26.832  1.00  0.00     0.117 C 
BRANCH   2   3
ATOM      3  N   UNL A   1      34.201  29.226  25.397  1.00  0.00    -0.354 N 
ATOM      4  C   UNL A   1      33.520  28.640  24.373  1.00  0.00     0.243 C 
ATOM      5  O   UNL A   1      33.923  28.888  23.230  1.00  0.00    -0.273 OA
ATOM      6  H   UNL A   1      34.947  29.801  25.109  1.00  0.00     0.163 HD
BRANCH   4   7
ATOM      7  C   UNL A   1      32.444  27.549  24.582  1.00  0.00     0.185 C 
ATOM      8  C   UNL A   1      31.271  26.073  22.971  1.00  0.00     0.143 C 
ATOM      9  S   UNL A   1      30.414  27.671  22.860  1.00  0.00    -0.134 SA
ATOM     10  N   UNL A   1      32.506  26.371  23.705  1.00  0.00    -0.318 N 
ATOM     11  C   UNL A   1      31.085  28.240  24.440  1.00  0.00     0.107 C 
BRANCH   8  12
ATOM     12  C   UNL A   1      30.465  24.943  23.655  1.00  0.00     0.033 C 
ATOM     13  C   UNL A   1      30.873  23.494  23.422  1.00  0.00     0.007 C 
ENDBRANCH   8  12
BRANCH  10  14
ATOM     14  C   UNL A   1      33.677  25.630  23.689  1.00  0.00     0.228 C 
ATOM     15  O   UNL A   1      34.153  25.209  22.632  1.00  0.00    -0.274 OA
BRANCH  14  16
ATOM     16  C   UNL A   1      34.295  25.211  25.019  1.00  0.00     0.135 C 
BRANCH  16  17
ATOM     17  C   UNL A   1      34.869  23.822  25.054  1.00  0.00    -0.036 A 
ATOM     18  C   UNL A   1      34.039  22.691  25.099  1.00  0.00     0.007 A 
ATOM     19  C   UNL A   1      36.263  23.650  25.079  1.00  0.00     0.046 A 
ATOM     20  C   UNL A   1      34.590  21.410  25.069  1.00  0.00     0.043 A 
ATOM     21  C   UNL A   1      36.803  22.368  25.073  1.00  0.00     0.159 A 
ATOM     22  C   UNL A   1      35.971  21.256  25.050  1.00  0.00     0.158 A 
ATOM     23  F   UNL A   1      38.134  22.216  25.080  1.00  0.00    -0.204 F 
ATOM     24  F   UNL A   1      36.492  20.023  25.008  1.00  0.00    -0.204 F 
ENDBRANCH  16  17
ENDBRANCH  14  16
ENDBRANCH  10  14
ENDBRANCH   4   7
ENDBRANCH   2   3
ENDBRANCH   1   2
BRANCH   1  25
ATOM     25  C   UNL A   1      35.519  30.734  28.098  1.00  0.00     0.118 C 
BRANCH  25  26
ATOM     26  N   UNL A   1      35.513  30.746  29.558  1.00  0.00    -0.352 N 
ATOM     27  C   UNL A   1      36.426  30.231  30.448  1.00  0.00     0.251 C 
ATOM     28  H   UNL A   1      34.738  31.191  29.969  1.00  0.00     0.163 HD
ATOM     29  O   UNL A   1      36.131  30.139  31.636  1.00  0.00    -0.269 OA
BRANCH  27  30
ATOM     30  C   UNL A   1      37.742  29.771  29.962  1.00  0.00     0.039 A 
ATOM     31  C   UNL A   1      38.092  29.958  28.624  1.00  0.00     0.014 A 
ATOM     32  C   UNL A   1      38.640  29.164  30.841  1.00  0.00     0.014 A 
ATOM     33  C   UNL A   1      39.369  29.592  28.191  1.00  0.00     0.010 A 
ATOM     34  C   UNL A   1      39.950  28.945  30.449  1.00  0.00     0.010 A 
ATOM     35  C   UNL A   1      40.320  29.116  29.109  1.00  0.00    -0.014 A 
BRANCH  35  36
ATOM     36  C   UNL A   1      41.685  28.711  28.694  1.00  0.00     0.031 A 
ATOM     37  C   UNL A   1      42.777  29.750  28.639  1.00  0.00     0.074 A 
ATOM     38  C   UNL A   1      41.925  27.444  28.302  1.00  0.00     0.049 A 
ATOM     39  N   UNL A   1      44.004  29.639  28.203  1.00  0.00    -0.248 NA
ATOM     40  C   UNL A   1      42.427  31.111  29.090  1.00  0.00     0.031 C 
ATOM     41  C   UNL A   1      40.933  26.366  28.255  1.00  0.00     0.029 A 
ATOM     42  N   UNL A   1      43.079  26.851  27.859  1.00  0.00    -0.354 N 
ATOM     43  C   UNL A   1      44.556  30.912  28.303  1.00  0.00     0.074 A 
ATOM     44  C   UNL A   1      43.510  31.796  28.761  1.00  0.00     0.031 C 
ATOM     45  C   UNL A   1      41.531  25.237  27.843  1.00  0.00     0.029 A 
ATOM     46  C   UNL A   1      42.933  25.518  27.556  1.00  0.00     0.049 A 
ATOM     47  H   UNL A   1      43.931  27.334  27.768  1.00  0.00     0.167 HD
ATOM     48  C   UNL A   1      45.830  31.304  28.072  1.00  0.00     0.037 A 
ATOM     49  C   UNL A   1      43.832  24.626  27.095  1.00  0.00     0.037 A 
ATOM     50  C   UNL A   1      46.875  30.405  27.666  1.00  0.00     0.049 A 
ATOM     51  C   UNL A   1      45.249  25.080  26.866  1.00  0.00     0.074 A 
ATOM     52  C   UNL A   1      48.216  30.679  27.465  1.00  0.00     0.029 A 
ATOM     53  N   UNL A   1      46.698  29.053  27.410  1.00  0.00    -0.354 N 
ATOM     54  N   UNL A   1      45.770  26.274  27.023  1.00  0.00    -0.248 NA
ATOM     55  C   UNL A   1      46.206  24.062  26.408  1.00  0.00     0.031 C 
ATOM     56  C   UNL A   1      48.841  29.500  27.045  1.00  0.00     0.029 A 
ATOM     57  C   UNL A   1      47.901  28.481  27.039  1.00  0.00     0.049 A 
ATOM     58  H   UNL A   1      45.841  28.572  27.480  1.00  0.00     0.167 HD
ATOM     59  C   UNL A   1      47.121  26.144  26.718  1.00  0.00     0.074 A 
ATOM     60  C   UNL A   1      47.337  24.754  26.376  1.00  0.00     0.031 C 
ATOM     61  C   UNL A   1      48.094  27.088  26.721  1.00  0.00     0.037 A 
BRANCH  48  62
ATOM     62  C   UNL A   1      46.162  32.758  28.274  1.00  0.00     0.058 A 
ATOM     63  C   UNL A   1      46.587  33.254  29.517  1.00  0.00     0.135 A 
ATOM     64  C   UNL A   1      46.077  33.665  27.205  1.00  0.00     0.135 A 
ATOM     65  F   UNL A   1      46.667  32.436  30.581  1.00  0.00    -0.206 F 
ATOM     66  C   UNL A   1      46.883  34.599  29.703  1.00  0.00     0.059 A 
ATOM     67  C   UNL A   1      46.401  35.010  27.360  1.00  0.00     0.059 A 
ATOM     68  F   UNL A   1      45.672  33.248  25.995  1.00  0.00    -0.206 F 
ATOM     69  C   UNL A   1      46.789  35.470  28.617  1.00  0.00     0.060 A 
BRANCH  69  70
ATOM     70  S   UNL A   1      47.191  37.210  28.874  1.00  0.00     0.124 S 
ATOM     71  O   UNL A   1      48.633  37.212  28.642  1.00  0.00    -0.237 OA
ATOM     72  O   UNL A   1      46.385  37.870  27.853  1.00  0.00    -0.237 OA
ATOM     73  O   UNL A   1      46.778  37.456  30.252  1.00  0.00    -0.744 OA
ENDBRANCH  69  70
ENDBRANCH  48  62
BRANCH  49  74
ATOM     74  C   UNL A   1      43.430  23.213  26.857  1.00  0.00     0.058 A 
ATOM     75  C   UNL A   1      43.180  22.345  27.930  1.00  0.00     0.135 A 
ATOM     76  C   UNL A   1      43.282  22.704  25.558  1.00  0.00     0.135 A 
ATOM     77  F   UNL A   1      43.309  22.783  29.192  1.00  0.00    -0.206 F 
ATOM     78  C   UNL A   1      42.821  21.016  27.727  1.00  0.00     0.059 A 
ATOM     79  C   UNL A   1      42.898  21.387  25.328  1.00  0.00     0.059 A 
ATOM     80  F   UNL A   1      43.490  23.498  24.496  1.00  0.00    -0.206 F 
ATOM     81  C   UNL A   1      42.682  20.546  26.419  1.00  0.00     0.060 A 
BRANCH  81  82
ATOM     82  S   UNL A   1      42.183  18.829  26.167  1.00  0.00     0.124 S 
ATOM     83  O   UNL A   1      40.793  18.985  25.753  1.00  0.00    -0.237 OA
ATOM     84  O   UNL A   1      43.113  18.389  25.132  1.00  0.00    -0.237 OA
ATOM     85  O   UNL A   1      42.387  18.224  27.480  1.00  0.00    -0.744 OA
ENDBRANCH  81  82
ENDBRANCH  49  74
BRANCH  61  86
ATOM     86  C   UNL A   1      49.493  26.642  26.398  1.00  0.00     0.058 A 
ATOM     87  C   UNL A   1      50.329  26.063  27.363  1.00  0.00     0.135 A 
ATOM     88  C   UNL A   1      49.979  26.746  25.084  1.00  0.00     0.135 A 
ATOM     89  F   UNL A   1      49.914  25.945  28.635  1.00  0.00    -0.206 F 
ATOM     90  C   UNL A   1      51.610  25.624  27.044  1.00  0.00     0.059 A 
ATOM     91  C   UNL A   1      51.244  26.285  24.736  1.00  0.00     0.059 A 
ATOM     92  F   UNL A   1      49.213  27.281  24.119  1.00  0.00    -0.206 F 
ATOM     93  C   UNL A   1      52.057  25.738  25.726  1.00  0.00     0.060 A 
BRANCH  93  94
ATOM     94  S   UNL A   1      53.708  25.134  25.319  1.00  0.00     0.124 S 
ATOM     95  O   UNL A   1      54.503  25.703  26.402  1.00  0.00    -0.237 OA
ATOM     96  O   UNL A   1      53.529  23.686  25.358  1.00  0.00    -0.237 OA
ATOM     97  O   UNL A   1      53.958  25.694  23.994  1.00  0.00    -0.744 OA
ENDBRANCH  93  94
ENDBRANCH  61  86
ENDBRANCH  35  36
ENDBRANCH  27  30
ENDBRANCH  25  26
ENDBRANCH   1  25
TORSDOF 17
ENDMDL
MODEL 2
REMARK VINA RESULT:     -12.0      2.525      8.325
REMARK SMILES CC[C@H]1SC[C@H](C(=O)NCCCNC(=O)c2ccc(-c3c4nc(c(-c5c(F)cc(S(=O)(=O)[O-])cc5F)c5ccc([nH]5)c(-c5c(F)cc(S(=O)(=O)[O-])cc5F)c5nc(c(-c6c(F)cc(S(=O)(=O)[O-])cc6F)c6ccc3[nH]6)C=C5)C=C4)cc2)N1C(=O)Cc1ccc(F)c(F)c1
REMARK SMILES IDX 11 1 10 2 9 3 7 4 8 5 6 7 3 8 4 9 82 10 5 11 2 12 1 13 83 14
REMARK SMILES IDX 84 15 85 16 86 17 87 18 93 19 88 20 91 21 89 22 92 23 90 24
REMARK SMILES IDX 12 25 13 26 14 27 15 29 16 30 17 31 81 32 18 33 80 34 19 35
REMARK SMILES IDX 20 36 21 37 74 38 22 39 79 40 73 41 75 42 23 43 78 44 72 45
REMARK SMILES IDX 71 46 24 48 58 49 37 50 57 51 38 52 41 53 56 54 76 55 39 56
REMARK SMILES IDX 40 57 55 59 77 60 42 61 25 62 26 63 35 64 27 65 28 66 34 67
REMARK SMILES IDX 36 68 29 69 30 70 31 71 32 72 33 73 59 74 60 75 69 76 61 77
REMARK SMILES IDX 62 78 68 79 70 80 63 81 64 82 65 83 66 84 67 85 43 86 44 87
REMARK SMILES IDX 53 88 45 89 46 90 52 91 54 92 47 93 48 94 49 95 50 96 51 97
REMARK H PARENT 9 6 13 28 75 47 41 58
REMARK Flexibility Score: inf
ROOT
ATOM      1  C   UNL A   1      38.225  20.128  25.098  1.00  0.00     0.042 C 
ENDROOT
BRANCH   1   2
ATOM      2  C   UNL A   1      37.047  21.058  25.261  1.00  0.00     0.117 C 
BRANCH   2   3
ATOM      3  N   UNL A   1      36.725  21.794  24.056  1.00  0.00    -0.354 N 
ATOM      4  C   UNL A   1      35.793  22.756  23.809  1.00  0.00     0.243 C 
ATOM      5  O   UNL A   1      35.748  23.196  22.653  1.00  0.00    -0.273 OA
ATOM      6  H   UNL A   1      37.278  21.557  23.276  1.00  0.00     0.163 HD
BRANCH   4   7
ATOM      7  C   UNL A   1      34.687  23.148  24.816  1.00  0.00     0.185 C 
ATOM      8  C   UNL A   1      32.675  24.578  24.570  1.00  0.00     0.143 C 
ATOM      9  S   UNL A   1      34.056  25.736  24.797  1.00  0.00    -0.134 SA
ATOM     10  N   UNL A   1      33.322  23.290  24.290  1.00  0.00    -0.318 N 
ATOM     11  C   UNL A   1      35.137  24.455  25.475  1.00  0.00     0.107 C 
BRANCH   8  12
ATOM     12  C   UNL A   1      31.704  24.474  25.770  1.00  0.00     0.033 C 
ATOM     13  C   UNL A   1      30.372  25.212  25.713  1.00  0.00     0.007 C 
ENDBRANCH   8  12
BRANCH  10  14
ATOM     14  C   UNL A   1      32.756  22.205  23.640  1.00  0.00     0.228 C 
ATOM     15  O   UNL A   1      32.528  22.233  22.428  1.00  0.00    -0.274 OA
BRANCH  14  16
ATOM     16  C   UNL A   1      32.277  21.021  24.475  1.00  0.00     0.135 C 
BRANCH  16  17
ATOM     17  C   UNL A   1      32.828  19.682  24.069  1.00  0.00    -0.036 A 
ATOM     18  C   UNL A   1      32.154  18.864  23.150  1.00  0.00     0.007 A 
ATOM     19  C   UNL A   1      34.023  19.224  24.648  1.00  0.00     0.046 A 
ATOM     20  C   UNL A   1      32.713  17.653  22.742  1.00  0.00     0.043 A 
ATOM     21  C   UNL A   1      34.561  18.003  24.251  1.00  0.00     0.159 A 
ATOM     22  C   UNL A   1      33.918  17.232  23.291  1.00  0.00     0.158 A 
ATOM     23  F   UNL A   1      35.710  17.583  24.797  1.00  0.00    -0.204 F 
ATOM     24  F   UNL A   1      34.454  16.075  22.884  1.00  0.00    -0.204 F 
ENDBRANCH  16  17
ENDBRANCH  14  16
ENDBRANCH  10  14
ENDBRANCH   4   7
ENDBRANCH   2   3
ENDBRANCH   1   2
BRANCH   1  25
ATOM     25  C   UNL A   1      39.352  20.432  26.057  1.00  0.00     0.118 C 
BRANCH  25  26
ATOM     26  N   UNL A   1      40.361  19.377  26.083  1.00  0.00    -0.352 N 
ATOM     27  C   UNL A   1      41.732  19.468  26.085  1.00  0.00     0.251 C 
ATOM     28  H   UNL A   1      40.005  18.460  26.102  1.00  0.00     0.163 HD
ATOM     29  O   UNL A   1      42.409  18.465  25.877  1.00  0.00    -0.269 OA
BRANCH  27  30
ATOM     30  C   UNL A   1      42.378  20.776  26.315  1.00  0.00     0.039 A 
ATOM     31  C   UNL A   1      42.742  21.571  25.226  1.00  0.00     0.014 A 
ATOM     32  C   UNL A   1      42.613  21.222  27.615  1.00  0.00     0.014 A 
ATOM     33  C   UNL A   1      43.280  22.839  25.452  1.00  0.00     0.010 A 
ATOM     34  C   UNL A   1      43.002  22.532  27.837  1.00  0.00     0.010 A 
ATOM     35  C   UNL A   1      43.381  23.344  26.760  1.00  0.00    -0.014 A 
BRANCH  35  36
ATOM     36  C   UNL A   1      43.951  24.683  27.049  1.00  0.00     0.031 A 
ATOM     37  C   UNL A   1      43.036  25.788  27.515  1.00  0.00     0.074 A 
ATOM     38  C   UNL A   1      45.258  24.924  26.826  1.00  0.00     0.049 A 
ATOM     39  N   UNL A   1      43.301  27.052  27.717  1.00  0.00    -0.248 NA
ATOM     40  C   UNL A   1      41.621  25.434  27.736  1.00  0.00     0.031 C 
ATOM     41  C   UNL A   1      46.228  23.949  26.319  1.00  0.00     0.029 A 
ATOM     42  N   UNL A   1      45.995  26.068  26.990  1.00  0.00    -0.354 N 
ATOM     43  C   UNL A   1      42.088  27.640  28.060  1.00  0.00     0.074 A 
ATOM     44  C   UNL A   1      41.073  26.618  27.959  1.00  0.00     0.031 C 
ATOM     45  C   UNL A   1      47.437  24.529  26.248  1.00  0.00     0.029 A 
ATOM     46  C   UNL A   1      47.322  25.923  26.662  1.00  0.00     0.049 A 
ATOM     47  H   UNL A   1      45.609  26.914  27.314  1.00  0.00     0.167 HD
ATOM     48  C   UNL A   1      41.846  28.909  28.462  1.00  0.00     0.037 A 
ATOM     49  C   UNL A   1      48.329  26.818  26.692  1.00  0.00     0.037 A 
ATOM     50  C   UNL A   1      42.872  29.904  28.609  1.00  0.00     0.049 A 
ATOM     51  C   UNL A   1      48.040  28.218  27.163  1.00  0.00     0.074 A 
ATOM     52  C   UNL A   1      42.752  31.203  29.070  1.00  0.00     0.029 A 
ATOM     53  N   UNL A   1      44.212  29.707  28.308  1.00  0.00    -0.354 N 
ATOM     54  N   UNL A   1      46.899  28.743  27.542  1.00  0.00    -0.248 NA
ATOM     55  C   UNL A   1      49.178  29.146  27.222  1.00  0.00     0.031 C 
ATOM     56  C   UNL A   1      44.013  31.804  29.006  1.00  0.00     0.029 A 
ATOM     57  C   UNL A   1      44.928  30.863  28.559  1.00  0.00     0.049 A 
ATOM     58  H   UNL A   1      44.596  28.867  27.964  1.00  0.00     0.167 HD
ATOM     59  C   UNL A   1      47.187  30.050  27.918  1.00  0.00     0.074 A 
ATOM     60  C   UNL A   1      48.611  30.233  27.729  1.00  0.00     0.031 C 
ATOM     61  C   UNL A   1      46.351  31.013  28.380  1.00  0.00     0.037 A 
BRANCH  48  62
ATOM     62  C   UNL A   1      40.424  29.280  28.789  1.00  0.00     0.058 A 
ATOM     63  C   UNL A   1      39.474  29.524  27.784  1.00  0.00     0.135 A 
ATOM     64  C   UNL A   1      39.999  29.369  30.124  1.00  0.00     0.135 A 
ATOM     65  F   UNL A   1      39.829  29.472  26.489  1.00  0.00    -0.206 F 
ATOM     66  C   UNL A   1      38.164  29.875  28.090  1.00  0.00     0.059 A 
ATOM     67  C   UNL A   1      38.684  29.687  30.453  1.00  0.00     0.059 A 
ATOM     68  F   UNL A   1      40.865  29.151  31.126  1.00  0.00    -0.206 F 
ATOM     69  C   UNL A   1      37.778  29.953  29.428  1.00  0.00     0.060 A 
BRANCH  69  70
ATOM     70  S   UNL A   1      36.070  30.397  29.805  1.00  0.00     0.124 S 
ATOM     71  O   UNL A   1      35.341  29.627  28.800  1.00  0.00    -0.237 OA
ATOM     72  O   UNL A   1      35.926  29.937  31.182  1.00  0.00    -0.237 OA
ATOM     73  O   UNL A   1      36.046  31.844  29.624  1.00  0.00    -0.744 OA
ENDBRANCH  69  70
ENDBRANCH  48  62
BRANCH  49  74
ATOM     74  C   UNL A   1      49.705  26.408  26.299  1.00  0.00     0.058 A 
ATOM     75  C   UNL A   1      50.202  26.687  25.017  1.00  0.00     0.135 A 
ATOM     76  C   UNL A   1      50.551  25.737  27.195  1.00  0.00     0.135 A 
ATOM     77  F   UNL A   1      49.430  27.325  24.123  1.00  0.00    -0.206 F 
ATOM     78  C   UNL A   1      51.478  26.295  24.627  1.00  0.00     0.059 A 
ATOM     79  C   UNL A   1      51.842  25.360  26.838  1.00  0.00     0.059 A 
ATOM     80  F   UNL A   1      50.133  25.464  28.441  1.00  0.00    -0.206 F 
ATOM     81  C   UNL A   1      52.293  25.631  25.547  1.00  0.00     0.060 A 
BRANCH  81  82
ATOM     82  S   UNL A   1      53.960  25.159  25.041  1.00  0.00     0.124 S 
ATOM     83  O   UNL A   1      54.752  25.613  26.178  1.00  0.00    -0.237 OA
ATOM     84  O   UNL A   1      53.834  23.713  24.886  1.00  0.00    -0.237 OA
ATOM     85  O   UNL A   1      54.156  25.900  23.798  1.00  0.00    -0.744 OA
ENDBRANCH  81  82
ENDBRANCH  49  74
BRANCH  61  86
ATOM     86  C   UNL A   1      46.959  32.333  28.765  1.00  0.00     0.058 A 
ATOM     87  C   UNL A   1      47.438  32.579  30.060  1.00  0.00     0.135 A 
ATOM     88  C   UNL A   1      47.114  33.345  27.803  1.00  0.00     0.135 A 
ATOM     89  F   UNL A   1      47.310  31.647  31.018  1.00  0.00    -0.206 F 
ATOM     90  C   UNL A   1      48.028  33.793  30.396  1.00  0.00     0.059 A 
ATOM     91  C   UNL A   1      47.730  34.553  28.109  1.00  0.00     0.059 A 
ATOM     92  F   UNL A   1      46.684  33.154  26.545  1.00  0.00    -0.206 F 
ATOM     93  C   UNL A   1      48.172  34.773  29.411  1.00  0.00     0.060 A 
BRANCH  93  94
ATOM     94  S   UNL A   1      48.970  36.330  29.852  1.00  0.00     0.124 S 
ATOM     95  O   UNL A   1      48.136  36.783  30.961  1.00  0.00    -0.237 OA
ATOM     96  O   UNL A   1      50.318  35.901  30.207  1.00  0.00    -0.237 OA
ATOM     97  O   UNL A   1      48.872  37.121  28.629  1.00  0.00    -0.744 OA
ENDBRANCH  93  94
ENDBRANCH  61  86
ENDBRANCH  35  36
ENDBRANCH  27  30
ENDBRANCH  25  26
ENDBRANCH   1  25
TORSDOF 17
ENDMDL
MODEL 3
REMARK VINA RESULT:     -11.9      2.480      8.719
REMARK SMILES CC[C@H]1SC[C@H](C(=O)NCCCNC(=O)c2ccc(-c3c4nc(c(-c5c(F)cc(S(=O)(=O)[O-])cc5F)c5ccc([nH]5)c(-c5c(F)cc(S(=O)(=O)[O-])cc5F)c5nc(c(-c6c(F)cc(S(=O)(=O)[O-])cc6F)c6ccc3[nH]6)C=C5)C=C4)cc2)N1C(=O)Cc1ccc(F)c(F)c1
REMARK SMILES IDX 11 1 10 2 9 3 7 4 8 5 6 7 3 8 4 9 82 10 5 11 2 12 1 13 83 14
REMARK SMILES IDX 84 15 85 16 86 17 87 18 93 19 88 20 91 21 89 22 92 23 90 24
REMARK SMILES IDX 12 25 13 26 14 27 15 29 16 30 17 31 81 32 18 33 80 34 19 35
REMARK SMILES IDX 20 36 21 37 74 38 22 39 79 40 73 41 75 42 23 43 78 44 72 45
REMARK SMILES IDX 71 46 24 48 58 49 37 50 57 51 38 52 41 53 56 54 76 55 39 56
REMARK SMILES IDX 40 57 55 59 77 60 42 61 25 62 26 63 35 64 27 65 28 66 34 67
REMARK SMILES IDX 36 68 29 69 30 70 31 71 32 72 33 73 59 74 60 75 69 76 61 77
REMARK SMILES IDX 62 78 68 79 70 80 63 81 64 82 65 83 66 84 67 85 43 86 44 87
REMARK SMILES IDX 53 88 45 89 46 90 52 91 54 92 47 93 48 94 49 95 50 96 51 97
REMARK H PARENT 9 6 13 28 75 47 41 58
REMARK Flexibility Score: inf
ROOT
ATOM      1  C   UNL A   1      38.147  20.053  25.173  1.00  0.00     0.042 C 
ENDROOT
BRANCH   1   2
ATOM      2  C   UNL A   1      36.929  20.937  25.304  1.00  0.00     0.117 C 
BRANCH   2   3
ATOM      3  N   UNL A   1      36.675  21.742  24.127  1.00  0.00    -0.354 N 
ATOM      4  C   UNL A   1      35.791  22.754  23.902  1.00  0.00     0.243 C 
ATOM      5  O   UNL A   1      35.800  23.251  22.768  1.00  0.00    -0.273 OA
ATOM      6  H   UNL A   1      37.241  21.520  23.353  1.00  0.00     0.163 HD
BRANCH   4   7
ATOM      7  C   UNL A   1      34.673  23.145  24.895  1.00  0.00     0.185 C 
ATOM      8  C   UNL A   1      32.669  24.582  24.628  1.00  0.00     0.143 C 
ATOM      9  S   UNL A   1      34.050  25.735  24.881  1.00  0.00    -0.134 SA
ATOM     10  N   UNL A   1      33.316  23.294  24.350  1.00  0.00    -0.318 N 
ATOM     11  C   UNL A   1      35.117  24.447  25.568  1.00  0.00     0.107 C 
BRANCH   8  12
ATOM     12  C   UNL A   1      31.681  24.475  25.813  1.00  0.00     0.033 C 
ATOM     13  C   UNL A   1      30.715  25.624  26.081  1.00  0.00     0.007 C 
ENDBRANCH   8  12
BRANCH  10  14
ATOM     14  C   UNL A   1      32.755  22.215  23.687  1.00  0.00     0.228 C 
ATOM     15  O   UNL A   1      32.534  22.254  22.474  1.00  0.00    -0.274 OA
BRANCH  14  16
ATOM     16  C   UNL A   1      32.274  21.022  24.507  1.00  0.00     0.135 C 
BRANCH  16  17
ATOM     17  C   UNL A   1      32.812  19.685  24.077  1.00  0.00    -0.036 A 
ATOM     18  C   UNL A   1      32.151  18.908  23.114  1.00  0.00     0.007 A 
ATOM     19  C   UNL A   1      33.981  19.186  24.676  1.00  0.00     0.046 A 
ATOM     20  C   UNL A   1      32.699  17.699  22.686  1.00  0.00     0.043 A 
ATOM     21  C   UNL A   1      34.507  17.968  24.257  1.00  0.00     0.159 A 
ATOM     22  C   UNL A   1      33.879  17.239  23.256  1.00  0.00     0.158 A 
ATOM     23  F   UNL A   1      35.632  17.509  24.823  1.00  0.00    -0.204 F 
ATOM     24  F   UNL A   1      34.406  16.084  22.830  1.00  0.00    -0.204 F 
ENDBRANCH  16  17
ENDBRANCH  14  16
ENDBRANCH  10  14
ENDBRANCH   4   7
ENDBRANCH   2   3
ENDBRANCH   1   2
BRANCH   1  25
ATOM     25  C   UNL A   1      39.301  20.512  26.034  1.00  0.00     0.118 C 
BRANCH  25  26
ATOM     26  N   UNL A   1      40.363  19.514  26.118  1.00  0.00    -0.352 N 
ATOM     27  C   UNL A   1      41.727  19.679  26.161  1.00  0.00     0.251 C 
ATOM     28  H   UNL A   1      40.056  18.580  26.150  1.00  0.00     0.163 HD
ATOM     29  O   UNL A   1      42.462  18.709  26.001  1.00  0.00    -0.269 OA
BRANCH  27  30
ATOM     30  C   UNL A   1      42.295  21.024  26.378  1.00  0.00     0.039 A 
ATOM     31  C   UNL A   1      42.587  21.839  25.282  1.00  0.00     0.014 A 
ATOM     32  C   UNL A   1      42.527  21.487  27.674  1.00  0.00     0.014 A 
ATOM     33  C   UNL A   1      43.050  23.139  25.497  1.00  0.00     0.010 A 
ATOM     34  C   UNL A   1      42.838  22.819  27.886  1.00  0.00     0.010 A 
ATOM     35  C   UNL A   1      43.144  23.651  26.802  1.00  0.00    -0.014 A 
BRANCH  35  36
ATOM     36  C   UNL A   1      43.636  25.023  27.079  1.00  0.00     0.031 A 
ATOM     37  C   UNL A   1      45.099  25.334  26.883  1.00  0.00     0.074 A 
ATOM     38  C   UNL A   1      42.797  25.955  27.571  1.00  0.00     0.049 A 
ATOM     39  N   UNL A   1      45.757  26.427  27.168  1.00  0.00    -0.248 NA
ATOM     40  C   UNL A   1      45.944  24.256  26.338  1.00  0.00     0.031 C 
ATOM     41  C   UNL A   1      41.374  25.752  27.858  1.00  0.00     0.029 A 
ATOM     42  N   UNL A   1      43.021  27.261  27.923  1.00  0.00    -0.354 N 
ATOM     43  C   UNL A   1      47.087  26.155  26.863  1.00  0.00     0.074 A 
ATOM     44  C   UNL A   1      47.157  24.773  26.451  1.00  0.00     0.031 C 
ATOM     45  C   UNL A   1      40.848  26.903  28.309  1.00  0.00     0.029 A 
ATOM     46  C   UNL A   1      41.900  27.910  28.383  1.00  0.00     0.049 A 
ATOM     47  H   UNL A   1      43.903  27.693  27.852  1.00  0.00     0.167 HD
ATOM     48  C   UNL A   1      48.149  26.992  26.886  1.00  0.00     0.037 A 
ATOM     49  C   UNL A   1      41.743  29.176  28.817  1.00  0.00     0.037 A 
ATOM     50  C   UNL A   1      48.059  28.380  27.248  1.00  0.00     0.049 A 
ATOM     51  C   UNL A   1      42.936  30.096  28.814  1.00  0.00     0.074 A 
ATOM     52  C   UNL A   1      49.057  29.337  27.246  1.00  0.00     0.029 A 
ATOM     53  N   UNL A   1      46.897  29.011  27.668  1.00  0.00    -0.354 N 
ATOM     54  N   UNL A   1      44.175  29.840  28.465  1.00  0.00    -0.248 NA
ATOM     55  C   UNL A   1      42.707  31.480  29.251  1.00  0.00     0.031 C 
ATOM     56  C   UNL A   1      48.507  30.538  27.706  1.00  0.00     0.029 A 
ATOM     57  C   UNL A   1      47.155  30.343  27.940  1.00  0.00     0.049 A 
ATOM     58  H   UNL A   1      46.018  28.576  27.759  1.00  0.00     0.167 HD
ATOM     59  C   UNL A   1      44.865  31.039  28.607  1.00  0.00     0.074 A 
ATOM     60  C   UNL A   1      43.904  32.020  29.064  1.00  0.00     0.031 C 
ATOM     61  C   UNL A   1      46.175  31.305  28.378  1.00  0.00     0.037 A 
BRANCH  48  62
ATOM     62  C   UNL A   1      49.489  26.432  26.489  1.00  0.00     0.058 A 
ATOM     63  C   UNL A   1      49.952  26.490  25.165  1.00  0.00     0.135 A 
ATOM     64  C   UNL A   1      50.333  25.851  27.450  1.00  0.00     0.135 A 
ATOM     65  F   UNL A   1      49.179  27.016  24.200  1.00  0.00    -0.206 F 
ATOM     66  C   UNL A   1      51.186  25.963  24.799  1.00  0.00     0.059 A 
ATOM     67  C   UNL A   1      51.586  25.348  27.113  1.00  0.00     0.059 A 
ATOM     68  F   UNL A   1      49.941  25.765  28.731  1.00  0.00    -0.206 F 
ATOM     69  C   UNL A   1      51.997  25.395  25.782  1.00  0.00     0.060 A 
BRANCH  69  70
ATOM     70  S   UNL A   1      53.601  24.729  25.292  1.00  0.00     0.124 S 
ATOM     71  O   UNL A   1      53.917  25.557  24.131  1.00  0.00    -0.237 OA
ATOM     72  O   UNL A   1      54.413  24.967  26.480  1.00  0.00    -0.237 OA
ATOM     73  O   UNL A   1      53.314  23.328  25.001  1.00  0.00    -0.744 OA
ENDBRANCH  69  70
ENDBRANCH  48  62
BRANCH  49  74
ATOM     74  C   UNL A   1      40.405  29.657  29.254  1.00  0.00     0.058 A 
ATOM     75  C   UNL A   1      40.129  29.890  30.610  1.00  0.00     0.135 A 
ATOM     76  C   UNL A   1      39.377  29.898  28.329  1.00  0.00     0.135 A 
ATOM     77  F   UNL A   1      41.079  29.672  31.533  1.00  0.00    -0.206 F 
ATOM     78  C   UNL A   1      38.878  30.321  31.038  1.00  0.00     0.059 A 
ATOM     79  C   UNL A   1      38.125  30.357  28.730  1.00  0.00     0.059 A 
ATOM     80  F   UNL A   1      39.593  29.711  27.018  1.00  0.00    -0.206 F 
ATOM     81  C   UNL A   1      37.881  30.553  30.088  1.00  0.00     0.060 A 
BRANCH  81  82
ATOM     82  S   UNL A   1      36.272  31.146  30.652  1.00  0.00     0.124 S 
ATOM     83  O   UNL A   1      35.479  31.052  29.432  1.00  0.00    -0.237 OA
ATOM     84  O   UNL A   1      35.945  30.188  31.704  1.00  0.00    -0.237 OA
ATOM     85  O   UNL A   1      36.558  32.501  31.116  1.00  0.00    -0.744 OA
ENDBRANCH  81  82
ENDBRANCH  49  74
BRANCH  61  86
ATOM     86  C   UNL A   1      46.637  32.723  28.565  1.00  0.00     0.058 A 
ATOM     87  C   UNL A   1      46.603  33.659  27.521  1.00  0.00     0.135 A 
ATOM     88  C   UNL A   1      47.067  33.163  29.829  1.00  0.00     0.135 A 
ATOM     89  F   UNL A   1      46.205  33.288  26.293  1.00  0.00    -0.206 F 
ATOM     90  C   UNL A   1      47.002  34.977  27.715  1.00  0.00     0.059 A 
ATOM     91  C   UNL A   1      47.441  34.483  30.053  1.00  0.00     0.059 A 
ATOM     92  F   UNL A   1      47.106  32.310  30.865  1.00  0.00    -0.206 F 
ATOM     93  C   UNL A   1      47.418  35.380  28.987  1.00  0.00     0.060 A 
BRANCH  93  94
ATOM     94  S   UNL A   1      47.900  37.101  29.232  1.00  0.00     0.124 S 
ATOM     95  O   UNL A   1      47.097  37.468  30.393  1.00  0.00    -0.237 OA
ATOM     96  O   UNL A   1      49.337  36.993  29.464  1.00  0.00    -0.237 OA
ATOM     97  O   UNL A   1      47.520  37.743  27.977  1.00  0.00    -0.744 OA
ENDBRANCH  93  94
ENDBRANCH  61  86
ENDBRANCH  35  36
ENDBRANCH  27  30
ENDBRANCH  25  26
ENDBRANCH   1  25
TORSDOF 17
ENDMDL
