MODEL 1
REMARK VINA RESULT:     -11.9      0.000      0.000
REMARK SMILES C[C@H](Nc1cccc(C(=O)NCCCNC(=O)c2ccc(-c3c4nc(c(-c5c(F)cc(S(=O)(=O)[O-])cc5F)c5ccc([nH]5)c(-c5c(F)cc(S(=O)(=O)[O-])cc5F)c5nc(c(-c6c(F)cc(S(=O)(=O)[O-])cc6F)c6ccc3[nH]6)C=C5)C=C4)cc2)c1)C1CC[NH+](C)CC1
REMARK SMILES IDX 13 1 12 2 11 3 9 4 10 5 8 7 4 8 5 9 84 10 6 11 7 12 3 13
REMARK SMILES IDX 2 15 1 16 85 17 86 18 91 19 87 20 90 21 88 22 89 23 14 25
REMARK SMILES IDX 15 26 16 27 17 29 18 30 19 31 83 32 20 33 82 34 21 35 22 36
REMARK SMILES IDX 23 37 76 38 24 39 81 40 75 41 77 42 25 43 80 44 74 45 73 46
REMARK SMILES IDX 26 48 60 49 39 50 59 51 40 52 43 53 58 54 78 55 41 56 42 57
REMARK SMILES IDX 57 59 79 60 44 61 27 62 28 63 37 64 29 65 30 66 36 67 38 68
REMARK SMILES IDX 31 69 32 70 33 71 34 72 35 73 61 74 62 75 71 76 63 77 64 78
REMARK SMILES IDX 70 79 72 80 65 81 66 82 67 83 68 84 69 85 45 86 46 87 55 88
REMARK SMILES IDX 47 89 48 90 54 91 56 92 49 93 50 94 51 95 52 96 53 97
REMARK H PARENT 11 6 3 14 88 24 15 28 77 47 43 58
REMARK Flexibility Score: inf
ROOT
ATOM      1  C   UNL A   1      34.598  29.225  27.446  1.00  0.00     0.042 C 
ENDROOT
BRANCH   1   2
ATOM      2  C   UNL A   1      33.407  29.371  26.511  1.00  0.00     0.118 C 
BRANCH   2   3
ATOM      3  N   UNL A   1      33.755  29.369  25.095  1.00  0.00    -0.352 N 
ATOM      4  C   UNL A   1      33.101  28.948  23.959  1.00  0.00     0.251 C 
ATOM      5  O   UNL A   1      33.691  29.067  22.884  1.00  0.00    -0.269 OA
ATOM      6  H   UNL A   1      34.645  29.750  24.913  1.00  0.00     0.163 HD
BRANCH   4   7
ATOM      7  C   UNL A   1      31.756  28.309  23.969  1.00  0.00     0.041 A 
ATOM      8  C   UNL A   1      30.287  26.424  24.488  1.00  0.00     0.035 A 
ATOM      9  C   UNL A   1      29.287  27.037  23.724  1.00  0.00     0.026 A 
ATOM     10  C   UNL A   1      31.469  27.143  24.683  1.00  0.00     0.039 A 
ATOM     11  C   UNL A   1      29.485  28.292  23.141  1.00  0.00     0.003 A 
ATOM     12  C   UNL A   1      30.731  28.910  23.234  1.00  0.00     0.014 A 
BRANCH   8  13
ATOM     13  N   UNL A   1      30.101  25.129  24.940  1.00  0.00    -0.382 N 
ATOM     14  H   UNL A   1      29.195  24.879  25.231  1.00  0.00     0.160 HD
BRANCH  13  15
ATOM     15  C   UNL A   1      31.135  24.100  25.024  1.00  0.00     0.079 C 
ATOM     16  C   UNL A   1      30.674  23.086  26.076  1.00  0.00     0.031 C 
BRANCH  15  17
ATOM     17  C   UNL A   1      31.457  23.389  23.671  1.00  0.00     0.022 C 
ATOM     18  C   UNL A   1      32.192  22.052  23.915  1.00  0.00     0.067 C 
ATOM     19  C   UNL A   1      32.253  24.181  22.622  1.00  0.00     0.067 C 
ATOM     20  C   UNL A   1      33.672  22.254  24.240  1.00  0.00     0.262 C 
ATOM     21  C   UNL A   1      33.749  24.293  22.935  1.00  0.00     0.262 C 
ATOM     22  N   UNL A   1      34.355  22.976  23.167  1.00  0.00    -0.337 N 
ATOM     23  C   UNL A   1      35.780  23.118  23.474  1.00  0.00     0.332 C 
ATOM     24  H   UNL A   1      34.253  22.431  22.310  1.00  0.00     0.347 HD
ENDBRANCH  15  17
ENDBRANCH  13  15
ENDBRANCH   8  13
ENDBRANCH   4   7
ENDBRANCH   2   3
ENDBRANCH   1   2
BRANCH   1  25
ATOM     25  C   UNL A   1      35.316  30.527  27.753  1.00  0.00     0.118 C 
BRANCH  25  26
ATOM     26  N   UNL A   1      35.317  30.839  29.179  1.00  0.00    -0.352 N 
ATOM     27  C   UNL A   1      36.260  30.628  30.158  1.00  0.00     0.251 C 
ATOM     28  H   UNL A   1      34.496  31.278  29.497  1.00  0.00     0.163 HD
ATOM     29  O   UNL A   1      35.927  30.756  31.334  1.00  0.00    -0.269 OA
BRANCH  27  30
ATOM     30  C   UNL A   1      37.652  30.244  29.823  1.00  0.00     0.039 A 
ATOM     31  C   UNL A   1      38.537  29.913  30.858  1.00  0.00     0.014 A 
ATOM     32  C   UNL A   1      38.116  30.265  28.509  1.00  0.00     0.014 A 
ATOM     33  C   UNL A   1      39.854  29.543  30.563  1.00  0.00     0.010 A 
ATOM     34  C   UNL A   1      39.389  29.794  28.208  1.00  0.00     0.010 A 
ATOM     35  C   UNL A   1      40.282  29.444  29.230  1.00  0.00    -0.014 A 
BRANCH  35  36
ATOM     36  C   UNL A   1      41.659  29.017  28.868  1.00  0.00     0.031 A 
ATOM     37  C   UNL A   1      42.773  30.033  28.837  1.00  0.00     0.074 A 
ATOM     38  C   UNL A   1      41.891  27.747  28.481  1.00  0.00     0.049 A 
ATOM     39  N   UNL A   1      44.001  29.903  28.405  1.00  0.00    -0.248 NA
ATOM     40  C   UNL A   1      42.450  31.387  29.319  1.00  0.00     0.031 C 
ATOM     41  C   UNL A   1      40.889  26.680  28.425  1.00  0.00     0.029 A 
ATOM     42  N   UNL A   1      43.042  27.141  28.042  1.00  0.00    -0.354 N 
ATOM     43  C   UNL A   1      44.583  31.160  28.534  1.00  0.00     0.074 A 
ATOM     44  C   UNL A   1      43.560  32.051  29.031  1.00  0.00     0.031 C 
ATOM     45  C   UNL A   1      41.473  25.548  27.998  1.00  0.00     0.029 A 
ATOM     46  C   UNL A   1      42.878  25.817  27.706  1.00  0.00     0.049 A 
ATOM     47  H   UNL A   1      43.905  27.610  27.974  1.00  0.00     0.167 HD
ATOM     48  C   UNL A   1      45.862  31.533  28.285  1.00  0.00     0.037 A 
ATOM     49  C   UNL A   1      43.755  24.925  27.208  1.00  0.00     0.037 A 
ATOM     50  C   UNL A   1      46.887  30.630  27.834  1.00  0.00     0.049 A 
ATOM     51  C   UNL A   1      45.174  25.358  26.954  1.00  0.00     0.074 A 
ATOM     52  C   UNL A   1      48.227  30.891  27.608  1.00  0.00     0.029 A 
ATOM     53  N   UNL A   1      46.688  29.287  27.548  1.00  0.00    -0.354 N 
ATOM     54  N   UNL A   1      45.718  26.539  27.124  1.00  0.00    -0.248 NA
ATOM     55  C   UNL A   1      46.100  24.337  26.446  1.00  0.00     0.031 C 
ATOM     56  C   UNL A   1      48.831  29.715  27.151  1.00  0.00     0.029 A 
ATOM     57  C   UNL A   1      47.878  28.709  27.138  1.00  0.00     0.049 A 
ATOM     58  H   UNL A   1      45.828  28.814  27.624  1.00  0.00     0.167 HD
ATOM     59  C   UNL A   1      47.058  26.395  26.777  1.00  0.00     0.074 A 
ATOM     60  C   UNL A   1      47.241  25.010  26.392  1.00  0.00     0.031 C 
ATOM     61  C   UNL A   1      48.045  27.323  26.777  1.00  0.00     0.037 A 
BRANCH  48  62
ATOM     62  C   UNL A   1      46.225  32.977  28.508  1.00  0.00     0.058 A 
ATOM     63  C   UNL A   1      46.122  33.930  27.482  1.00  0.00     0.135 A 
ATOM     64  C   UNL A   1      46.653  33.421  29.770  1.00  0.00     0.135 A 
ATOM     65  F   UNL A   1      45.733  33.559  26.251  1.00  0.00    -0.206 F 
ATOM     66  C   UNL A   1      46.465  35.263  27.687  1.00  0.00     0.059 A 
ATOM     67  C   UNL A   1      46.972  34.755  30.006  1.00  0.00     0.059 A 
ATOM     68  F   UNL A   1      46.769  32.554  30.789  1.00  0.00    -0.206 F 
ATOM     69  C   UNL A   1      46.891  35.666  28.953  1.00  0.00     0.060 A 
BRANCH  69  70
ATOM     70  S   UNL A   1      47.329  37.399  29.202  1.00  0.00     0.124 S 
ATOM     71  O   UNL A   1      48.680  37.438  28.654  1.00  0.00    -0.237 OA
ATOM     72  O   UNL A   1      46.308  38.095  28.425  1.00  0.00    -0.237 OA
ATOM     73  O   UNL A   1      47.234  37.569  30.651  1.00  0.00    -0.744 OA
ENDBRANCH  69  70
ENDBRANCH  48  62
BRANCH  49  74
ATOM     74  C   UNL A   1      43.324  23.526  26.942  1.00  0.00     0.058 A 
ATOM     75  C   UNL A   1      43.119  22.625  27.998  1.00  0.00     0.135 A 
ATOM     76  C   UNL A   1      43.098  23.063  25.637  1.00  0.00     0.135 A 
ATOM     77  F   UNL A   1      43.329  23.018  29.264  1.00  0.00    -0.206 F 
ATOM     78  C   UNL A   1      42.726  21.310  27.770  1.00  0.00     0.059 A 
ATOM     79  C   UNL A   1      42.677  21.760  25.385  1.00  0.00     0.059 A 
ATOM     80  F   UNL A   1      43.261  23.890  24.592  1.00  0.00    -0.206 F 
ATOM     81  C   UNL A   1      42.506  20.888  26.459  1.00  0.00     0.060 A 
BRANCH  81  82
ATOM     82  S   UNL A   1      41.957  19.190  26.178  1.00  0.00     0.124 S 
ATOM     83  O   UNL A   1      42.333  18.548  27.433  1.00  0.00    -0.237 OA
ATOM     84  O   UNL A   1      40.525  19.363  25.953  1.00  0.00    -0.237 OA
ATOM     85  O   UNL A   1      42.722  18.780  25.006  1.00  0.00    -0.744 OA
ENDBRANCH  81  82
ENDBRANCH  49  74
BRANCH  61  86
ATOM     86  C   UNL A   1      49.425  26.867  26.397  1.00  0.00     0.058 A 
ATOM     87  C   UNL A   1      50.302  26.303  27.335  1.00  0.00     0.135 A 
ATOM     88  C   UNL A   1      49.850  26.938  25.060  1.00  0.00     0.135 A 
ATOM     89  F   UNL A   1      49.946  26.217  28.626  1.00  0.00    -0.206 F 
ATOM     90  C   UNL A   1      51.561  25.842  26.965  1.00  0.00     0.059 A 
ATOM     91  C   UNL A   1      51.094  26.459  24.664  1.00  0.00     0.059 A 
ATOM     92  F   UNL A   1      49.044  27.460  24.121  1.00  0.00    -0.206 F 
ATOM     93  C   UNL A   1      51.947  25.922  25.625  1.00  0.00     0.060 A 
BRANCH  93  94
ATOM     94  S   UNL A   1      53.567  25.281  25.151  1.00  0.00     0.124 S 
ATOM     95  O   UNL A   1      53.380  23.846  25.334  1.00  0.00    -0.237 OA
ATOM     96  O   UNL A   1      53.690  25.734  23.769  1.00  0.00    -0.237 OA
ATOM     97  O   UNL A   1      54.475  25.922  26.098  1.00  0.00    -0.744 OA
ENDBRANCH  93  94
ENDBRANCH  61  86
ENDBRANCH  35  36
ENDBRANCH  27  30
ENDBRANCH  25  26
ENDBRANCH   1  25
TORSDOF 16
ENDMDL
MODEL 2
REMARK VINA RESULT:     -11.9      6.423     11.918
REMARK SMILES C[C@H](Nc1cccc(C(=O)NCCCNC(=O)c2ccc(-c3c4nc(c(-c5c(F)cc(S(=O)(=O)[O-])cc5F)c5ccc([nH]5)c(-c5c(F)cc(S(=O)(=O)[O-])cc5F)c5nc(c(-c6c(F)cc(S(=O)(=O)[O-])cc6F)c6ccc3[nH]6)C=C5)C=C4)cc2)c1)C1CC[NH+](C)CC1
REMARK SMILES IDX 13 1 12 2 11 3 9 4 10 5 8 7 4 8 5 9 84 10 6 11 7 12 3 13
REMARK SMILES IDX 2 15 1 16 85 17 86 18 91 19 87 20 90 21 88 22 89 23 14 25
REMARK SMILES IDX 15 26 16 27 17 29 18 30 19 31 83 32 20 33 82 34 21 35 22 36
REMARK SMILES IDX 23 37 76 38 24 39 81 40 75 41 77 42 25 43 80 44 74 45 73 46
REMARK SMILES IDX 26 48 60 49 39 50 59 51 40 52 43 53 58 54 78 55 41 56 42 57
REMARK SMILES IDX 57 59 79 60 44 61 27 62 28 63 37 64 29 65 30 66 36 67 38 68
REMARK SMILES IDX 31 69 32 70 33 71 34 72 35 73 61 74 62 75 71 76 63 77 64 78
REMARK SMILES IDX 70 79 72 80 65 81 66 82 67 83 68 84 69 85 45 86 46 87 55 88
REMARK SMILES IDX 47 89 48 90 54 91 56 92 49 93 50 94 51 95 52 96 53 97
REMARK H PARENT 11 6 3 14 88 24 15 28 77 47 43 58
REMARK Flexibility Score: inf
ROOT
ATOM      1  C   UNL A   1      39.391  22.054  26.434  1.00  0.00     0.042 C 
ENDROOT
BRANCH   1   2
ATOM      2  C   UNL A   1      38.058  22.715  26.114  1.00  0.00     0.118 C 
BRANCH   2   3
ATOM      3  N   UNL A   1      37.736  22.754  24.693  1.00  0.00    -0.352 N 
ATOM      4  C   UNL A   1      36.601  23.082  23.986  1.00  0.00     0.251 C 
ATOM      5  O   UNL A   1      36.645  22.988  22.758  1.00  0.00    -0.269 OA
ATOM      6  H   UNL A   1      38.490  22.490  24.116  1.00  0.00     0.163 HD
BRANCH   4   7
ATOM      7  C   UNL A   1      35.317  23.483  24.627  1.00  0.00     0.041 A 
ATOM      8  C   UNL A   1      33.865  25.173  25.634  1.00  0.00     0.035 A 
ATOM      9  C   UNL A   1      33.022  24.142  26.066  1.00  0.00     0.026 A 
ATOM     10  C   UNL A   1      34.942  24.815  24.819  1.00  0.00     0.039 A 
ATOM     11  C   UNL A   1      33.279  22.808  25.736  1.00  0.00     0.003 A 
ATOM     12  C   UNL A   1      34.444  22.476  25.049  1.00  0.00     0.014 A 
BRANCH   8  13
ATOM     13  N   UNL A   1      33.650  26.464  26.086  1.00  0.00    -0.382 N 
ATOM     14  H   UNL A   1      34.316  26.841  26.706  1.00  0.00     0.160 HD
BRANCH  13  15
ATOM     15  C   UNL A   1      32.520  27.316  25.725  1.00  0.00     0.079 C 
ATOM     16  C   UNL A   1      31.636  27.440  26.970  1.00  0.00     0.031 C 
BRANCH  15  17
ATOM     17  C   UNL A   1      32.916  28.726  25.181  1.00  0.00     0.022 C 
ATOM     18  C   UNL A   1      31.755  29.729  25.363  1.00  0.00     0.067 C 
ATOM     19  C   UNL A   1      33.396  28.819  23.724  1.00  0.00     0.067 C 
ATOM     20  C   UNL A   1      30.664  29.553  24.308  1.00  0.00     0.262 C 
ATOM     21  C   UNL A   1      32.267  28.723  22.693  1.00  0.00     0.262 C 
ATOM     22  N   UNL A   1      31.206  29.703  22.957  1.00  0.00    -0.337 N 
ATOM     23  C   UNL A   1      30.138  29.578  21.963  1.00  0.00     0.332 C 
ATOM     24  H   UNL A   1      31.617  30.634  22.888  1.00  0.00     0.347 HD
ENDBRANCH  15  17
ENDBRANCH  13  15
ENDBRANCH   8  13
ENDBRANCH   4   7
ENDBRANCH   2   3
ENDBRANCH   1   2
BRANCH   1  25
ATOM     25  C   UNL A   1      40.405  22.977  27.086  1.00  0.00     0.118 C 
BRANCH  25  26
ATOM     26  N   UNL A   1      41.252  23.654  26.108  1.00  0.00    -0.352 N 
ATOM     27  C   UNL A   1      41.690  24.955  26.026  1.00  0.00     0.251 C 
ATOM     28  H   UNL A   1      41.565  23.075  25.377  1.00  0.00     0.163 HD
ATOM     29  O   UNL A   1      42.192  25.342  24.973  1.00  0.00    -0.269 OA
BRANCH  27  30
ATOM     30  C   UNL A   1      41.559  25.890  27.168  1.00  0.00     0.039 A 
ATOM     31  C   UNL A   1      42.538  26.873  27.361  1.00  0.00     0.014 A 
ATOM     32  C   UNL A   1      40.519  25.772  28.089  1.00  0.00     0.014 A 
ATOM     33  C   UNL A   1      42.431  27.769  28.432  1.00  0.00     0.010 A 
ATOM     34  C   UNL A   1      40.354  26.727  29.086  1.00  0.00     0.010 A 
ATOM     35  C   UNL A   1      41.316  27.727  29.283  1.00  0.00    -0.014 A 
BRANCH  35  36
ATOM     36  C   UNL A   1      41.140  28.684  30.408  1.00  0.00     0.031 A 
ATOM     37  C   UNL A   1      42.007  28.561  31.636  1.00  0.00     0.074 A 
ATOM     38  C   UNL A   1      40.150  29.597  30.368  1.00  0.00     0.049 A 
ATOM     39  N   UNL A   1      41.917  29.189  32.781  1.00  0.00    -0.248 NA
ATOM     40  C   UNL A   1      43.096  27.571  31.583  1.00  0.00     0.031 C 
ATOM     41  C   UNL A   1      39.214  29.786  29.256  1.00  0.00     0.029 A 
ATOM     42  N   UNL A   1      39.750  30.526  31.296  1.00  0.00    -0.354 N 
ATOM     43  C   UNL A   1      42.912  28.649  33.588  1.00  0.00     0.074 A 
ATOM     44  C   UNL A   1      43.557  27.606  32.824  1.00  0.00     0.031 C 
ATOM     45  C   UNL A   1      38.366  30.783  29.559  1.00  0.00     0.029 A 
ATOM     46  C   UNL A   1      38.665  31.272  30.901  1.00  0.00     0.049 A 
ATOM     47  H   UNL A   1      40.199  30.646  32.164  1.00  0.00     0.167 HD
ATOM     48  C   UNL A   1      43.273  29.007  34.845  1.00  0.00     0.037 A 
ATOM     49  C   UNL A   1      37.980  32.233  31.551  1.00  0.00     0.037 A 
ATOM     50  C   UNL A   1      42.655  30.077  35.582  1.00  0.00     0.049 A 
ATOM     51  C   UNL A   1      38.409  32.625  32.939  1.00  0.00     0.074 A 
ATOM     52  C   UNL A   1      42.983  30.561  36.836  1.00  0.00     0.029 A 
ATOM     53  N   UNL A   1      41.587  30.838  35.127  1.00  0.00    -0.354 N 
ATOM     54  N   UNL A   1      39.381  32.136  33.671  1.00  0.00    -0.248 NA
ATOM     55  C   UNL A   1      37.652  33.704  33.589  1.00  0.00     0.031 C 
ATOM     56  C   UNL A   1      42.090  31.590  37.155  1.00  0.00     0.029 A 
ATOM     57  C   UNL A   1      41.237  31.779  36.080  1.00  0.00     0.049 A 
ATOM     58  H   UNL A   1      41.143  30.724  34.255  1.00  0.00     0.167 HD
ATOM     59  C   UNL A   1      39.374  32.868  34.854  1.00  0.00     0.074 A 
ATOM     60  C   UNL A   1      38.305  33.838  34.736  1.00  0.00     0.031 C 
ATOM     61  C   UNL A   1      40.180  32.750  35.937  1.00  0.00     0.037 A 
BRANCH  48  62
ATOM     62  C   UNL A   1      44.394  28.242  35.494  1.00  0.00     0.058 A 
ATOM     63  C   UNL A   1      44.156  27.078  36.243  1.00  0.00     0.135 A 
ATOM     64  C   UNL A   1      45.727  28.660  35.345  1.00  0.00     0.135 A 
ATOM     65  F   UNL A   1      42.900  26.640  36.432  1.00  0.00    -0.206 F 
ATOM     66  C   UNL A   1      45.194  26.376  36.849  1.00  0.00     0.059 A 
ATOM     67  C   UNL A   1      46.783  27.957  35.917  1.00  0.00     0.059 A 
ATOM     68  F   UNL A   1      46.014  29.766  34.640  1.00  0.00    -0.206 F 
ATOM     69  C   UNL A   1      46.504  26.824  36.682  1.00  0.00     0.060 A 
BRANCH  69  70
ATOM     70  S   UNL A   1      47.838  25.900  37.473  1.00  0.00     0.124 S 
ATOM     71  O   UNL A   1      48.487  25.284  36.321  1.00  0.00    -0.237 OA
ATOM     72  O   UNL A   1      48.595  26.954  38.140  1.00  0.00    -0.237 OA
ATOM     73  O   UNL A   1      47.132  24.980  38.363  1.00  0.00    -0.744 OA
ENDBRANCH  69  70
ENDBRANCH  48  62
BRANCH  49  74
ATOM     74  C   UNL A   1      36.834  32.910  30.885  1.00  0.00     0.058 A 
ATOM     75  C   UNL A   1      35.514  32.623  31.261  1.00  0.00     0.135 A 
ATOM     76  C   UNL A   1      37.032  33.861  29.873  1.00  0.00     0.135 A 
ATOM     77  F   UNL A   1      35.272  31.715  32.220  1.00  0.00    -0.206 F 
ATOM     78  C   UNL A   1      34.428  33.238  30.645  1.00  0.00     0.059 A 
ATOM     79  C   UNL A   1      35.964  34.510  29.260  1.00  0.00     0.059 A 
ATOM     80  F   UNL A   1      38.277  34.186  29.489  1.00  0.00    -0.206 F 
ATOM     81  C   UNL A   1      34.665  34.182  29.645  1.00  0.00     0.060 A 
BRANCH  81  82
ATOM     82  S   UNL A   1      33.250  35.003  28.879  1.00  0.00     0.124 S 
ATOM     83  O   UNL A   1      32.388  35.239  30.033  1.00  0.00    -0.237 OA
ATOM     84  O   UNL A   1      33.865  36.188  28.288  1.00  0.00    -0.237 OA
ATOM     85  O   UNL A   1      32.766  34.014  27.922  1.00  0.00    -0.744 OA
ENDBRANCH  81  82
ENDBRANCH  49  74
BRANCH  61  86
ATOM     86  C   UNL A   1      39.974  33.722  37.064  1.00  0.00     0.058 A 
ATOM     87  C   UNL A   1      40.613  34.970  37.089  1.00  0.00     0.135 A 
ATOM     88  C   UNL A   1      39.073  33.423  38.099  1.00  0.00     0.135 A 
ATOM     89  F   UNL A   1      41.487  35.302  36.127  1.00  0.00    -0.206 F 
ATOM     90  C   UNL A   1      40.381  35.882  38.114  1.00  0.00     0.059 A 
ATOM     91  C   UNL A   1      38.807  34.330  39.119  1.00  0.00     0.059 A 
ATOM     92  F   UNL A   1      38.428  32.246  38.115  1.00  0.00    -0.206 F 
ATOM     93  C   UNL A   1      39.473  35.554  39.123  1.00  0.00     0.060 A 
BRANCH  93  94
ATOM     94  S   UNL A   1      39.149  36.764  40.424  1.00  0.00     0.124 S 
ATOM     95  O   UNL A   1      38.258  36.017  41.304  1.00  0.00    -0.237 OA
ATOM     96  O   UNL A   1      40.486  37.025  40.947  1.00  0.00    -0.237 OA
ATOM     97  O   UNL A   1      38.536  37.878  39.705  1.00  0.00    -0.744 OA
ENDBRANCH  93  94
ENDBRANCH  61  86
ENDBRANCH  35  36
ENDBRANCH  27  30
ENDBRANCH  25  26
ENDBRANCH   1  25
TORSDOF 16
ENDMDL
MODEL 3
REMARK VINA RESULT:     -11.9      2.567      3.499
REMARK SMILES C[C@H](Nc1cccc(C(=O)NCCCNC(=O)c2ccc(-c3c4nc(c(-c5c(F)cc(S(=O)(=O)[O-])cc5F)c5ccc([nH]5)c(-c5c(F)cc(S(=O)(=O)[O-])cc5F)c5nc(c(-c6c(F)cc(S(=O)(=O)[O-])cc6F)c6ccc3[nH]6)C=C5)C=C4)cc2)c1)C1CC[NH+](C)CC1
REMARK SMILES IDX 13 1 12 2 11 3 9 4 10 5 8 7 4 8 5 9 84 10 6 11 7 12 3 13
REMARK SMILES IDX 2 15 1 16 85 17 86 18 91 19 87 20 90 21 88 22 89 23 14 25
REMARK SMILES IDX 15 26 16 27 17 29 18 30 19 31 83 32 20 33 82 34 21 35 22 36
REMARK SMILES IDX 23 37 76 38 24 39 81 40 75 41 77 42 25 43 80 44 74 45 73 46
REMARK SMILES IDX 26 48 60 49 39 50 59 51 40 52 43 53 58 54 78 55 41 56 42 57
REMARK SMILES IDX 57 59 79 60 44 61 27 62 28 63 37 64 29 65 30 66 36 67 38 68
REMARK SMILES IDX 31 69 32 70 33 71 34 72 35 73 61 74 62 75 71 76 63 77 64 78
REMARK SMILES IDX 70 79 72 80 65 81 66 82 67 83 68 84 69 85 45 86 46 87 55 88
REMARK SMILES IDX 47 89 48 90 54 91 56 92 49 93 50 94 51 95 52 96 53 97
REMARK H PARENT 11 6 3 14 88 24 15 28 77 47 43 58
REMARK Flexibility Score: inf
ROOT
ATOM      1  C   UNL A   1      34.011  27.794  26.093  1.00  0.00     0.042 C 
ENDROOT
BRANCH   1   2
ATOM      2  C   UNL A   1      33.933  28.838  24.989  1.00  0.00     0.118 C 
BRANCH   2   3
ATOM      3  N   UNL A   1      34.039  28.292  23.642  1.00  0.00    -0.352 N 
ATOM      4  C   UNL A   1      33.230  27.476  22.883  1.00  0.00     0.251 C 
ATOM      5  O   UNL A   1      33.625  27.169  21.757  1.00  0.00    -0.269 OA
ATOM      6  H   UNL A   1      34.863  28.565  23.176  1.00  0.00     0.163 HD
BRANCH   4   7
ATOM      7  C   UNL A   1      31.945  26.903  23.372  1.00  0.00     0.041 A 
ATOM      8  C   UNL A   1      30.635  25.042  24.264  1.00  0.00     0.035 A 
ATOM      9  C   UNL A   1      29.474  25.785  24.019  1.00  0.00     0.026 A 
ATOM     10  C   UNL A   1      31.858  25.677  24.035  1.00  0.00     0.039 A 
ATOM     11  C   UNL A   1      29.540  27.088  23.517  1.00  0.00     0.003 A 
ATOM     12  C   UNL A   1      30.772  27.632  23.160  1.00  0.00     0.014 A 
BRANCH   8  13
ATOM     13  N   UNL A   1      30.527  23.713  24.639  1.00  0.00    -0.382 N 
ATOM     14  H   UNL A   1      30.019  23.117  24.042  1.00  0.00     0.160 HD
BRANCH  13  15
ATOM     15  C   UNL A   1      31.100  23.119  25.843  1.00  0.00     0.079 C 
ATOM     16  C   UNL A   1      29.939  22.841  26.804  1.00  0.00     0.031 C 
BRANCH  15  17
ATOM     17  C   UNL A   1      31.937  21.823  25.595  1.00  0.00     0.022 C 
ATOM     18  C   UNL A   1      33.322  21.925  26.273  1.00  0.00     0.067 C 
ATOM     19  C   UNL A   1      32.156  21.384  24.138  1.00  0.00     0.067 C 
ATOM     20  C   UNL A   1      34.297  22.790  25.474  1.00  0.00     0.262 C 
ATOM     21  C   UNL A   1      33.201  22.219  23.391  1.00  0.00     0.262 C 
ATOM     22  N   UNL A   1      34.475  22.270  24.118  1.00  0.00    -0.337 N 
ATOM     23  C   UNL A   1      35.448  23.084  23.385  1.00  0.00     0.332 C 
ATOM     24  H   UNL A   1      34.830  21.317  24.194  1.00  0.00     0.347 HD
ENDBRANCH  15  17
ENDBRANCH  13  15
ENDBRANCH   8  13
ENDBRANCH   4   7
ENDBRANCH   2   3
ENDBRANCH   1   2
BRANCH   1  25
ATOM     25  C   UNL A   1      33.402  28.233  27.413  1.00  0.00     0.118 C 
BRANCH  25  26
ATOM     26  N   UNL A   1      33.377  29.685  27.558  1.00  0.00    -0.352 N 
ATOM     27  C   UNL A   1      34.307  30.568  28.056  1.00  0.00     0.251 C 
ATOM     28  H   UNL A   1      32.546  30.108  27.244  1.00  0.00     0.163 HD
ATOM     29  O   UNL A   1      33.954  31.720  28.300  1.00  0.00    -0.269 OA
BRANCH  27  30
ATOM     30  C   UNL A   1      35.708  30.158  28.310  1.00  0.00     0.039 A 
ATOM     31  C   UNL A   1      36.632  30.195  27.258  1.00  0.00     0.014 A 
ATOM     32  C   UNL A   1      36.110  29.676  29.554  1.00  0.00     0.014 A 
ATOM     33  C   UNL A   1      37.961  29.815  27.478  1.00  0.00     0.010 A 
ATOM     34  C   UNL A   1      37.451  29.402  29.800  1.00  0.00     0.010 A 
ATOM     35  C   UNL A   1      38.391  29.450  28.763  1.00  0.00    -0.014 A 
BRANCH  35  36
ATOM     36  C   UNL A   1      39.802  29.077  29.052  1.00  0.00     0.031 A 
ATOM     37  C   UNL A   1      40.749  30.111  29.606  1.00  0.00     0.074 A 
ATOM     38  C   UNL A   1      40.253  27.849  28.732  1.00  0.00     0.049 A 
ATOM     39  N   UNL A   1      42.044  30.039  29.784  1.00  0.00    -0.248 NA
ATOM     40  C   UNL A   1      40.169  31.414  29.973  1.00  0.00     0.031 C 
ATOM     41  C   UNL A   1      39.447  26.774  28.148  1.00  0.00     0.029 A 
ATOM     42  N   UNL A   1      41.507  27.301  28.835  1.00  0.00    -0.354 N 
ATOM     43  C   UNL A   1      42.433  31.289  30.251  1.00  0.00     0.074 A 
ATOM     44  C   UNL A   1      41.250  32.119  30.276  1.00  0.00     0.031 C 
ATOM     45  C   UNL A   1      40.222  25.692  27.964  1.00  0.00     0.029 A 
ATOM     46  C   UNL A   1      41.587  26.008  28.374  1.00  0.00     0.049 A 
ATOM     47  H   UNL A   1      42.279  27.789  29.205  1.00  0.00     0.167 HD
ATOM     48  C   UNL A   1      43.661  31.704  30.646  1.00  0.00     0.037 A 
ATOM     49  C   UNL A   1      42.642  25.175  28.279  1.00  0.00     0.037 A 
ATOM     50  C   UNL A   1      44.826  30.859  30.661  1.00  0.00     0.049 A 
ATOM     51  C   UNL A   1      43.993  25.651  28.739  1.00  0.00     0.074 A 
ATOM     52  C   UNL A   1      46.104  31.160  31.098  1.00  0.00     0.029 A 
ATOM     53  N   UNL A   1      44.853  29.541  30.226  1.00  0.00    -0.354 N 
ATOM     54  N   UNL A   1      44.335  26.823  29.220  1.00  0.00    -0.248 NA
ATOM     55  C   UNL A   1      45.102  24.692  28.650  1.00  0.00     0.031 C 
ATOM     56  C   UNL A   1      46.912  30.037  30.895  1.00  0.00     0.029 A 
ATOM     57  C   UNL A   1      46.127  29.020  30.375  1.00  0.00     0.049 A 
ATOM     58  H   UNL A   1      44.080  29.050  29.865  1.00  0.00     0.167 HD
ATOM     59  C   UNL A   1      45.689  26.731  29.522  1.00  0.00     0.074 A 
ATOM     60  C   UNL A   1      46.103  25.387  29.174  1.00  0.00     0.031 C 
ATOM     61  C   UNL A   1      46.515  27.672  30.041  1.00  0.00     0.037 A 
BRANCH  48  62
ATOM     62  C   UNL A   1      43.803  33.129  31.108  1.00  0.00     0.058 A 
ATOM     63  C   UNL A   1      43.681  33.482  32.462  1.00  0.00     0.135 A 
ATOM     64  C   UNL A   1      44.094  34.153  30.191  1.00  0.00     0.135 A 
ATOM     65  F   UNL A   1      43.388  32.547  33.380  1.00  0.00    -0.206 F 
ATOM     66  C   UNL A   1      43.806  34.801  32.886  1.00  0.00     0.059 A 
ATOM     67  C   UNL A   1      44.253  35.475  30.597  1.00  0.00     0.059 A 
ATOM     68  F   UNL A   1      44.222  33.874  28.884  1.00  0.00    -0.206 F 
ATOM     69  C   UNL A   1      44.090  35.792  31.945  1.00  0.00     0.060 A 
BRANCH  69  70
ATOM     70  S   UNL A   1      44.251  37.498  32.514  1.00  0.00     0.124 S 
ATOM     71  O   UNL A   1      43.985  38.239  31.285  1.00  0.00    -0.237 OA
ATOM     72  O   UNL A   1      43.219  37.583  33.542  1.00  0.00    -0.237 OA
ATOM     73  O   UNL A   1      45.626  37.565  33.002  1.00  0.00    -0.744 OA
ENDBRANCH  69  70
ENDBRANCH  48  62
BRANCH  49  74
ATOM     74  C   UNL A   1      42.456  23.796  27.751  1.00  0.00     0.058 A 
ATOM     75  C   UNL A   1      42.384  23.560  26.370  1.00  0.00     0.135 A 
ATOM     76  C   UNL A   1      42.360  22.690  28.609  1.00  0.00     0.135 A 
ATOM     77  F   UNL A   1      42.465  24.587  25.509  1.00  0.00    -0.206 F 
ATOM     78  C   UNL A   1      42.201  22.280  25.857  1.00  0.00     0.059 A 
ATOM     79  C   UNL A   1      42.204  21.396  28.118  1.00  0.00     0.059 A 
ATOM     80  F   UNL A   1      42.442  22.859  29.938  1.00  0.00    -0.206 F 
ATOM     81  C   UNL A   1      42.114  21.203  26.740  1.00  0.00     0.060 A 
BRANCH  81  82
ATOM     82  S   UNL A   1      41.917  19.541  26.061  1.00  0.00     0.124 S 
ATOM     83  O   UNL A   1      40.482  19.500  25.796  1.00  0.00    -0.237 OA
ATOM     84  O   UNL A   1      42.782  19.584  24.887  1.00  0.00    -0.237 OA
ATOM     85  O   UNL A   1      42.383  18.680  27.143  1.00  0.00    -0.744 OA
ENDBRANCH  81  82
ENDBRANCH  49  74
BRANCH  61  86
ATOM     86  C   UNL A   1      47.938  27.273  30.312  1.00  0.00     0.058 A 
ATOM     87  C   UNL A   1      48.962  27.508  29.384  1.00  0.00     0.135 A 
ATOM     88  C   UNL A   1      48.288  26.704  31.548  1.00  0.00     0.135 A 
ATOM     89  F   UNL A   1      48.679  28.044  28.186  1.00  0.00    -0.206 F 
ATOM     90  C   UNL A   1      50.284  27.176  29.663  1.00  0.00     0.059 A 
ATOM     91  C   UNL A   1      49.607  26.389  31.858  1.00  0.00     0.059 A 
ATOM     92  F   UNL A   1      47.347  26.468  32.476  1.00  0.00    -0.206 F 
ATOM     93  C   UNL A   1      50.597  26.620  30.905  1.00  0.00     0.060 A 
BRANCH  93  94
ATOM     94  S   UNL A   1      52.322  26.232  31.270  1.00  0.00     0.124 S 
ATOM     95  O   UNL A   1      52.201  24.929  31.914  1.00  0.00    -0.237 OA
ATOM     96  O   UNL A   1      52.930  26.231  29.943  1.00  0.00    -0.237 OA
ATOM     97  O   UNL A   1      52.738  27.328  32.142  1.00  0.00    -0.744 OA
ENDBRANCH  93  94
ENDBRANCH  61  86
ENDBRANCH  35  36
ENDBRANCH  27  30
ENDBRANCH  25  26
ENDBRANCH   1  25
TORSDOF 16
ENDMDL
