MODEL 1
REMARK VINA RESULT:     -13.6      0.000      0.000
REMARK SMILES Cc1cccc(C[C@H](C(=O)NCCCNC(=O)c2ccc(-c3c4nc(c(-c5c(F)cc(S(=O)(=O)[O-])cc5F)c5ccc([nH]5)c(-c5c(F)cc(S(=O)(=O)[O-])cc5F)c5nc(c(-c6c(F)cc(S(=O)(=O)[O-])cc6F)c6ccc3[nH]6)C=C5)C=C4)cc2)[C@@H]2CCCC[C@@H]2O)c1
REMARK SMILES IDX 13 1 12 2 11 3 9 4 10 5 8 7 7 8 6 9 1 10 2 11 3 12 91 13
REMARK SMILES IDX 4 14 5 15 84 16 85 17 89 18 86 19 88 20 87 21 90 22 14 24
REMARK SMILES IDX 15 25 16 26 17 28 18 29 19 30 83 31 20 32 82 33 21 34 22 35
REMARK SMILES IDX 23 36 76 37 24 38 81 39 75 40 77 41 25 42 80 43 74 44 73 45
REMARK SMILES IDX 26 47 60 48 39 49 59 50 40 51 43 52 58 53 78 54 41 55 42 56
REMARK SMILES IDX 57 58 79 59 44 60 27 61 28 62 37 63 29 64 30 65 36 66 38 67
REMARK SMILES IDX 31 68 32 69 33 70 34 71 35 72 61 73 62 74 71 75 63 76 64 77
REMARK SMILES IDX 70 78 72 79 65 80 66 81 67 82 68 83 69 84 45 85 46 86 55 87
REMARK SMILES IDX 47 88 48 89 54 90 56 91 49 92 50 93 51 94 52 95 53 96
REMARK H PARENT 11 6 90 23 15 27 77 46 43 57
REMARK Flexibility Score: inf
ROOT
ATOM      1  C   UNL A   1      32.987  30.089  26.391  1.00  0.00     0.042 C 
ENDROOT
BRANCH   1   2
ATOM      2  C   UNL A   1      32.955  29.391  25.028  1.00  0.00     0.117 C 
BRANCH   2   3
ATOM      3  N   UNL A   1      31.648  28.880  24.624  1.00  0.00    -0.356 N 
ATOM      4  C   UNL A   1      31.229  27.601  24.368  1.00  0.00     0.223 C 
ATOM      5  O   UNL A   1      30.021  27.431  24.180  1.00  0.00    -0.275 OA
ATOM      6  H   UNL A   1      30.952  29.569  24.519  1.00  0.00     0.163 HD
BRANCH   4   7
ATOM      7  C   UNL A   1      32.237  26.420  24.276  1.00  0.00     0.088 C 
BRANCH   7   8
ATOM      8  C   UNL A   1      32.366  25.817  25.713  1.00  0.00     0.049 C 
BRANCH   8   9
ATOM      9  C   UNL A   1      33.349  24.702  26.016  1.00  0.00    -0.047 A 
ATOM     10  C   UNL A   1      36.938  23.771  25.033  1.00  0.00     0.044 C 
ATOM     11  C   UNL A   1      35.595  23.760  25.702  1.00  0.00    -0.051 A 
ATOM     12  C   UNL A   1      35.294  22.750  26.618  1.00  0.00     0.003 A 
ATOM     13  C   UNL A   1      34.630  24.743  25.429  1.00  0.00     0.007 A 
ATOM     14  C   UNL A   1      34.019  22.668  27.166  1.00  0.00     0.001 A 
ATOM     15  C   UNL A   1      33.045  23.609  26.821  1.00  0.00     0.004 A 
ENDBRANCH   8   9
ENDBRANCH   7   8
BRANCH   7  16
ATOM     16  C   UNL A   1      31.741  25.466  23.131  1.00  0.00     0.030 C 
ATOM     17  C   UNL A   1      30.749  24.353  23.497  1.00  0.00     0.007 C 
ATOM     18  C   UNL A   1      32.759  25.005  22.057  1.00  0.00     0.118 C 
ATOM     19  C   UNL A   1      31.384  22.994  23.737  1.00  0.00     0.001 C 
ATOM     20  C   UNL A   1      33.326  23.598  22.220  1.00  0.00     0.032 C 
ATOM     21  C   UNL A   1      32.271  22.563  22.577  1.00  0.00     0.003 C 
BRANCH  18  22
ATOM     22  O   UNL A   1      33.811  25.937  21.844  1.00  0.00    -0.393 OA
ATOM     23  H   UNL A   1      34.060  25.934  20.906  1.00  0.00     0.210 HD
ENDBRANCH  18  22
ENDBRANCH   7  16
ENDBRANCH   4   7
ENDBRANCH   2   3
ENDBRANCH   1   2
BRANCH   1  24
ATOM     24  C   UNL A   1      34.120  29.648  27.312  1.00  0.00     0.118 C 
BRANCH  24  25
ATOM     25  N   UNL A   1      34.757  30.813  27.938  1.00  0.00    -0.352 N 
ATOM     26  C   UNL A   1      35.986  30.911  28.560  1.00  0.00     0.251 C 
ATOM     27  H   UNL A   1      34.233  31.647  27.909  1.00  0.00     0.163 HD
ATOM     28  O   UNL A   1      36.385  31.930  29.092  1.00  0.00    -0.269 OA
BRANCH  26  29
ATOM     29  C   UNL A   1      36.836  29.713  28.490  1.00  0.00     0.039 A 
ATOM     30  C   UNL A   1      37.035  29.001  29.678  1.00  0.00     0.014 A 
ATOM     31  C   UNL A   1      37.668  29.562  27.386  1.00  0.00     0.014 A 
ATOM     32  C   UNL A   1      38.205  28.267  29.831  1.00  0.00     0.010 A 
ATOM     33  C   UNL A   1      38.863  28.898  27.573  1.00  0.00     0.010 A 
ATOM     34  C   UNL A   1      39.157  28.303  28.813  1.00  0.00    -0.014 A 
BRANCH  34  35
ATOM     35  C   UNL A   1      40.523  27.819  28.974  1.00  0.00     0.031 A 
ATOM     36  C   UNL A   1      40.851  26.428  28.592  1.00  0.00     0.074 A 
ATOM     37  C   UNL A   1      41.501  28.658  29.377  1.00  0.00     0.049 A 
ATOM     38  N   UNL A   1      41.940  25.812  28.901  1.00  0.00    -0.248 NA
ATOM     39  C   UNL A   1      39.910  25.593  27.859  1.00  0.00     0.031 C 
ATOM     40  C   UNL A   1      42.941  28.448  29.269  1.00  0.00     0.029 A 
ATOM     41  N   UNL A   1      41.376  29.799  30.175  1.00  0.00    -0.354 N 
ATOM     42  C   UNL A   1      41.970  24.621  28.209  1.00  0.00     0.074 A 
ATOM     43  C   UNL A   1      40.653  24.509  27.630  1.00  0.00     0.031 C 
ATOM     44  C   UNL A   1      43.563  29.236  30.158  1.00  0.00     0.029 A 
ATOM     45  C   UNL A   1      42.541  29.871  30.970  1.00  0.00     0.049 A 
ATOM     46  H   UNL A   1      40.620  30.430  30.182  1.00  0.00     0.167 HD
ATOM     47  C   UNL A   1      43.148  23.933  28.127  1.00  0.00     0.037 A 
ATOM     48  C   UNL A   1      42.452  29.770  32.331  1.00  0.00     0.037 A 
ATOM     49  C   UNL A   1      44.146  24.499  29.041  1.00  0.00     0.049 A 
ATOM     50  C   UNL A   1      43.081  28.519  32.911  1.00  0.00     0.074 A 
ATOM     51  C   UNL A   1      45.212  25.373  28.904  1.00  0.00     0.029 A 
ATOM     52  N   UNL A   1      43.923  24.385  30.403  1.00  0.00    -0.354 N 
ATOM     53  N   UNL A   1      43.690  27.601  32.211  1.00  0.00    -0.248 NA
ATOM     54  C   UNL A   1      43.007  28.169  34.333  1.00  0.00     0.031 C 
ATOM     55  C   UNL A   1      45.569  25.844  30.204  1.00  0.00     0.029 A 
ATOM     56  C   UNL A   1      44.731  25.244  31.126  1.00  0.00     0.049 A 
ATOM     57  H   UNL A   1      43.270  23.770  30.807  1.00  0.00     0.167 HD
ATOM     58  C   UNL A   1      43.995  26.540  33.021  1.00  0.00     0.074 A 
ATOM     59  C   UNL A   1      43.581  26.954  34.348  1.00  0.00     0.031 C 
ATOM     60  C   UNL A   1      44.518  25.370  32.559  1.00  0.00     0.037 A 
BRANCH  47  61
ATOM     61  C   UNL A   1      43.471  22.896  27.062  1.00  0.00     0.058 A 
ATOM     62  C   UNL A   1      42.841  21.630  27.085  1.00  0.00     0.135 A 
ATOM     63  C   UNL A   1      44.438  23.036  26.045  1.00  0.00     0.135 A 
ATOM     64  F   UNL A   1      41.835  21.364  27.929  1.00  0.00    -0.206 F 
ATOM     65  C   UNL A   1      43.219  20.571  26.253  1.00  0.00     0.059 A 
ATOM     66  C   UNL A   1      44.871  21.980  25.239  1.00  0.00     0.059 A 
ATOM     67  F   UNL A   1      44.970  24.219  25.731  1.00  0.00    -0.206 F 
ATOM     68  C   UNL A   1      44.265  20.742  25.358  1.00  0.00     0.060 A 
BRANCH  68  69
ATOM     69  S   UNL A   1      44.804  19.353  24.347  1.00  0.00     0.124 S 
ATOM     70  O   UNL A   1      46.233  19.298  24.640  1.00  0.00    -0.237 OA
ATOM     71  O   UNL A   1      44.001  18.258  24.880  1.00  0.00    -0.237 OA
ATOM     72  O   UNL A   1      44.467  19.769  22.988  1.00  0.00    -0.744 OA
ENDBRANCH  68  69
ENDBRANCH  47  61
BRANCH  48  73
ATOM     73  C   UNL A   1      41.262  30.482  32.870  1.00  0.00     0.058 A 
ATOM     74  C   UNL A   1      40.122  29.704  33.157  1.00  0.00     0.135 A 
ATOM     75  C   UNL A   1      41.380  31.723  33.508  1.00  0.00     0.135 A 
ATOM     76  F   UNL A   1      39.952  28.514  32.556  1.00  0.00    -0.206 F 
ATOM     77  C   UNL A   1      39.237  30.054  34.168  1.00  0.00     0.059 A 
ATOM     78  C   UNL A   1      40.496  32.100  34.521  1.00  0.00     0.059 A 
ATOM     79  F   UNL A   1      42.440  32.510  33.268  1.00  0.00    -0.206 F 
ATOM     80  C   UNL A   1      39.476  31.221  34.891  1.00  0.00     0.060 A 
BRANCH  80  81
ATOM     81  S   UNL A   1      38.563  31.451  36.435  1.00  0.00     0.124 S 
ATOM     82  O   UNL A   1      38.207  30.081  36.783  1.00  0.00    -0.237 OA
ATOM     83  O   UNL A   1      39.574  32.075  37.288  1.00  0.00    -0.237 OA
ATOM     84  O   UNL A   1      37.456  32.314  36.043  1.00  0.00    -0.744 OA
ENDBRANCH  80  81
ENDBRANCH  48  73
BRANCH  60  85
ATOM     85  C   UNL A   1      44.868  24.238  33.472  1.00  0.00     0.058 A 
ATOM     86  C   UNL A   1      46.192  24.012  33.879  1.00  0.00     0.135 A 
ATOM     87  C   UNL A   1      43.912  23.277  33.852  1.00  0.00     0.135 A 
ATOM     88  F   UNL A   1      47.165  24.875  33.542  1.00  0.00    -0.206 F 
ATOM     89  C   UNL A   1      46.550  22.894  34.630  1.00  0.00     0.059 A 
ATOM     90  C   UNL A   1      44.254  22.133  34.568  1.00  0.00     0.059 A 
ATOM     91  F   UNL A   1      42.615  23.438  33.549  1.00  0.00    -0.206 F 
ATOM     92  C   UNL A   1      45.575  21.956  34.963  1.00  0.00     0.060 A 
BRANCH  92  93
ATOM     93  S   UNL A   1      46.040  20.478  35.888  1.00  0.00     0.124 S 
ATOM     94  O   UNL A   1      47.476  20.379  35.640  1.00  0.00    -0.237 OA
ATOM     95  O   UNL A   1      45.660  20.854  37.246  1.00  0.00    -0.237 OA
ATOM     96  O   UNL A   1      45.232  19.430  35.273  1.00  0.00    -0.744 OA
ENDBRANCH  92  93
ENDBRANCH  60  85
ENDBRANCH  34  35
ENDBRANCH  26  29
ENDBRANCH  24  25
ENDBRANCH   1  24
TORSDOF 17
ENDMDL
MODEL 2
REMARK VINA RESULT:     -13.4      1.358      2.977
REMARK SMILES Cc1cccc(C[C@H](C(=O)NCCCNC(=O)c2ccc(-c3c4nc(c(-c5c(F)cc(S(=O)(=O)[O-])cc5F)c5ccc([nH]5)c(-c5c(F)cc(S(=O)(=O)[O-])cc5F)c5nc(c(-c6c(F)cc(S(=O)(=O)[O-])cc6F)c6ccc3[nH]6)C=C5)C=C4)cc2)[C@@H]2CCCC[C@@H]2O)c1
REMARK SMILES IDX 13 1 12 2 11 3 9 4 10 5 8 7 7 8 6 9 1 10 2 11 3 12 91 13
REMARK SMILES IDX 4 14 5 15 84 16 85 17 89 18 86 19 88 20 87 21 90 22 14 24
REMARK SMILES IDX 15 25 16 26 17 28 18 29 19 30 83 31 20 32 82 33 21 34 22 35
REMARK SMILES IDX 23 36 76 37 24 38 81 39 75 40 77 41 25 42 80 43 74 44 73 45
REMARK SMILES IDX 26 47 60 48 39 49 59 50 40 51 43 52 58 53 78 54 41 55 42 56
REMARK SMILES IDX 57 58 79 59 44 60 27 61 28 62 37 63 29 64 30 65 36 66 38 67
REMARK SMILES IDX 31 68 32 69 33 70 34 71 35 72 61 73 62 74 71 75 63 76 64 77
REMARK SMILES IDX 70 78 72 79 65 80 66 81 67 82 68 83 69 84 45 85 46 86 55 87
REMARK SMILES IDX 47 88 48 89 54 90 56 91 49 92 50 93 51 94 52 95 53 96
REMARK H PARENT 11 6 90 23 15 27 77 46 43 57
REMARK Flexibility Score: inf
ROOT
ATOM      1  C   UNL A   1      32.967  30.099  27.125  1.00  0.00     0.042 C 
ENDROOT
BRANCH   1   2
ATOM      2  C   UNL A   1      32.356  29.860  25.741  1.00  0.00     0.117 C 
BRANCH   2   3
ATOM      3  N   UNL A   1      33.301  29.446  24.708  1.00  0.00    -0.356 N 
ATOM      4  C   UNL A   1      33.189  28.507  23.718  1.00  0.00     0.223 C 
ATOM      5  O   UNL A   1      34.096  28.457  22.882  1.00  0.00    -0.275 OA
ATOM      6  H   UNL A   1      34.163  29.923  24.726  1.00  0.00     0.163 HD
BRANCH   4   7
ATOM      7  C   UNL A   1      31.990  27.516  23.672  1.00  0.00     0.088 C 
BRANCH   7   8
ATOM      8  C   UNL A   1      31.118  27.911  22.435  1.00  0.00     0.049 C 
BRANCH   8   9
ATOM      9  C   UNL A   1      29.817  28.674  22.597  1.00  0.00    -0.047 A 
ATOM     10  C   UNL A   1      28.556  32.247  22.000  1.00  0.00     0.044 C 
ATOM     11  C   UNL A   1      28.589  30.783  22.329  1.00  0.00    -0.051 A 
ATOM     12  C   UNL A   1      27.416  30.146  22.736  1.00  0.00     0.003 A 
ATOM     13  C   UNL A   1      29.775  30.036  22.236  1.00  0.00     0.007 A 
ATOM     14  C   UNL A   1      27.453  28.817  23.142  1.00  0.00     0.001 A 
ATOM     15  C   UNL A   1      28.658  28.110  23.121  1.00  0.00     0.004 A 
ENDBRANCH   8   9
ENDBRANCH   7   8
BRANCH   7  16
ATOM     16  C   UNL A   1      32.580  26.061  23.708  1.00  0.00     0.030 C 
ATOM     17  C   UNL A   1      31.987  25.017  22.752  1.00  0.00     0.007 C 
ATOM     18  C   UNL A   1      32.952  25.446  25.081  1.00  0.00     0.118 C 
ATOM     19  C   UNL A   1      30.931  24.118  23.374  1.00  0.00     0.001 C 
ATOM     20  C   UNL A   1      31.954  24.454  25.672  1.00  0.00     0.032 C 
ATOM     21  C   UNL A   1      31.424  23.457  24.654  1.00  0.00     0.003 C 
BRANCH  18  22
ATOM     22  O   UNL A   1      33.313  26.418  26.052  1.00  0.00    -0.393 OA
ATOM     23  H   UNL A   1      33.019  26.125  26.929  1.00  0.00     0.210 HD
ENDBRANCH  18  22
ENDBRANCH   7  16
ENDBRANCH   4   7
ENDBRANCH   2   3
ENDBRANCH   1   2
BRANCH   1  24
ATOM     24  C   UNL A   1      34.482  29.932  27.197  1.00  0.00     0.118 C 
BRANCH  24  25
ATOM     25  N   UNL A   1      35.082  31.018  27.980  1.00  0.00    -0.352 N 
ATOM     26  C   UNL A   1      36.273  31.039  28.682  1.00  0.00     0.251 C 
ATOM     27  H   UNL A   1      34.563  31.854  28.011  1.00  0.00     0.163 HD
ATOM     28  O   UNL A   1      36.641  31.991  29.342  1.00  0.00    -0.269 OA
BRANCH  26  29
ATOM     29  C   UNL A   1      37.123  29.849  28.533  1.00  0.00     0.039 A 
ATOM     30  C   UNL A   1      37.259  29.019  29.651  1.00  0.00     0.014 A 
ATOM     31  C   UNL A   1      38.010  29.805  27.464  1.00  0.00     0.014 A 
ATOM     32  C   UNL A   1      38.419  28.265  29.788  1.00  0.00     0.010 A 
ATOM     33  C   UNL A   1      39.194  29.118  27.643  1.00  0.00     0.010 A 
ATOM     34  C   UNL A   1      39.422  28.398  28.829  1.00  0.00    -0.014 A 
BRANCH  34  35
ATOM     35  C   UNL A   1      40.777  27.890  29.010  1.00  0.00     0.031 A 
ATOM     36  C   UNL A   1      41.093  26.502  28.609  1.00  0.00     0.074 A 
ATOM     37  C   UNL A   1      41.759  28.707  29.449  1.00  0.00     0.049 A 
ATOM     38  N   UNL A   1      42.167  25.865  28.930  1.00  0.00    -0.248 NA
ATOM     39  C   UNL A   1      40.157  25.695  27.841  1.00  0.00     0.031 C 
ATOM     40  C   UNL A   1      43.198  28.478  29.368  1.00  0.00     0.029 A 
ATOM     41  N   UNL A   1      41.633  29.835  30.265  1.00  0.00    -0.354 N 
ATOM     42  C   UNL A   1      42.194  24.686  28.217  1.00  0.00     0.074 A 
ATOM     43  C   UNL A   1      40.888  24.604  27.608  1.00  0.00     0.031 C 
ATOM     44  C   UNL A   1      43.812  29.240  30.284  1.00  0.00     0.029 A 
ATOM     45  C   UNL A   1      42.782  29.876  31.086  1.00  0.00     0.049 A 
ATOM     46  H   UNL A   1      40.886  30.477  30.268  1.00  0.00     0.167 HD
ATOM     47  C   UNL A   1      43.363  23.982  28.146  1.00  0.00     0.037 A 
ATOM     48  C   UNL A   1      42.663  29.751  32.442  1.00  0.00     0.037 A 
ATOM     49  C   UNL A   1      44.350  24.516  29.092  1.00  0.00     0.049 A 
ATOM     50  C   UNL A   1      43.261  28.480  33.013  1.00  0.00     0.074 A 
ATOM     51  C   UNL A   1      45.432  25.377  28.994  1.00  0.00     0.029 A 
ATOM     52  N   UNL A   1      44.096  24.381  30.447  1.00  0.00    -0.354 N 
ATOM     53  N   UNL A   1      43.871  27.567  32.309  1.00  0.00    -0.248 NA
ATOM     54  C   UNL A   1      43.152  28.106  34.426  1.00  0.00     0.031 C 
ATOM     55  C   UNL A   1      45.767  25.819  30.309  1.00  0.00     0.029 A 
ATOM     56  C   UNL A   1      44.901  25.215  31.202  1.00  0.00     0.049 A 
ATOM     57  H   UNL A   1      43.426  23.769  30.825  1.00  0.00     0.167 HD
ATOM     58  C   UNL A   1      44.144  26.487  33.104  1.00  0.00     0.074 A 
ATOM     59  C   UNL A   1      43.708  26.883  34.430  1.00  0.00     0.031 C 
ATOM     60  C   UNL A   1      44.660  25.318  32.632  1.00  0.00     0.037 A 
BRANCH  47  61
ATOM     61  C   UNL A   1      43.695  22.960  27.070  1.00  0.00     0.058 A 
ATOM     62  C   UNL A   1      42.970  21.748  26.990  1.00  0.00     0.135 A 
ATOM     63  C   UNL A   1      44.751  23.058  26.141  1.00  0.00     0.135 A 
ATOM     64  F   UNL A   1      41.879  21.535  27.738  1.00  0.00    -0.206 F 
ATOM     65  C   UNL A   1      43.334  20.691  26.149  1.00  0.00     0.059 A 
ATOM     66  C   UNL A   1      45.168  21.999  25.329  1.00  0.00     0.059 A 
ATOM     67  F   UNL A   1      45.395  24.205  25.919  1.00  0.00    -0.206 F 
ATOM     68  C   UNL A   1      44.461  20.810  25.348  1.00  0.00     0.060 A 
BRANCH  68  69
ATOM     69  S   UNL A   1      44.975  19.418  24.328  1.00  0.00     0.124 S 
ATOM     70  O   UNL A   1      44.448  19.789  23.018  1.00  0.00    -0.237 OA
ATOM     71  O   UNL A   1      46.426  19.457  24.466  1.00  0.00    -0.237 OA
ATOM     72  O   UNL A   1      44.319  18.274  24.957  1.00  0.00    -0.744 OA
ENDBRANCH  68  69
ENDBRANCH  47  61
BRANCH  48  73
ATOM     73  C   UNL A   1      41.471  30.471  32.969  1.00  0.00     0.058 A 
ATOM     74  C   UNL A   1      40.309  29.708  33.202  1.00  0.00     0.135 A 
ATOM     75  C   UNL A   1      41.596  31.690  33.648  1.00  0.00     0.135 A 
ATOM     76  F   UNL A   1      40.133  28.540  32.561  1.00  0.00    -0.206 F 
ATOM     77  C   UNL A   1      39.403  30.046  34.198  1.00  0.00     0.059 A 
ATOM     78  C   UNL A   1      40.691  32.055  34.647  1.00  0.00     0.059 A 
ATOM     79  F   UNL A   1      42.677  32.462  33.460  1.00  0.00    -0.206 F 
ATOM     80  C   UNL A   1      39.644  31.186  34.962  1.00  0.00     0.060 A 
BRANCH  80  81
ATOM     81  S   UNL A   1      38.692  31.389  36.486  1.00  0.00     0.124 S 
ATOM     82  O   UNL A   1      37.627  32.290  36.060  1.00  0.00    -0.237 OA
ATOM     83  O   UNL A   1      38.280  30.014  36.765  1.00  0.00    -0.237 OA
ATOM     84  O   UNL A   1      39.664  31.951  37.415  1.00  0.00    -0.744 OA
ENDBRANCH  80  81
ENDBRANCH  48  73
BRANCH  60  85
ATOM     85  C   UNL A   1      44.974  24.165  33.531  1.00  0.00     0.058 A 
ATOM     86  C   UNL A   1      46.290  23.896  33.940  1.00  0.00     0.135 A 
ATOM     87  C   UNL A   1      43.990  23.226  33.894  1.00  0.00     0.135 A 
ATOM     88  F   UNL A   1      47.287  24.736  33.618  1.00  0.00    -0.206 F 
ATOM     89  C   UNL A   1      46.613  22.758  34.677  1.00  0.00     0.059 A 
ATOM     90  C   UNL A   1      44.296  22.063  34.596  1.00  0.00     0.059 A 
ATOM     91  F   UNL A   1      42.699  23.427  33.589  1.00  0.00    -0.206 F 
ATOM     92  C   UNL A   1      45.610  21.844  34.995  1.00  0.00     0.060 A 
BRANCH  92  93
ATOM     93  S   UNL A   1      46.030  20.341  35.900  1.00  0.00     0.124 S 
ATOM     94  O   UNL A   1      45.643  20.669  37.270  1.00  0.00    -0.237 OA
ATOM     95  O   UNL A   1      45.190  19.354  35.228  1.00  0.00    -0.237 OA
ATOM     96  O   UNL A   1      47.465  20.205  35.678  1.00  0.00    -0.744 OA
ENDBRANCH  92  93
ENDBRANCH  60  85
ENDBRANCH  34  35
ENDBRANCH  26  29
ENDBRANCH  24  25
ENDBRANCH   1  24
TORSDOF 17
ENDMDL
MODEL 3
REMARK VINA RESULT:     -13.4      0.950      1.508
REMARK SMILES Cc1cccc(C[C@H](C(=O)NCCCNC(=O)c2ccc(-c3c4nc(c(-c5c(F)cc(S(=O)(=O)[O-])cc5F)c5ccc([nH]5)c(-c5c(F)cc(S(=O)(=O)[O-])cc5F)c5nc(c(-c6c(F)cc(S(=O)(=O)[O-])cc6F)c6ccc3[nH]6)C=C5)C=C4)cc2)[C@@H]2CCCC[C@@H]2O)c1
REMARK SMILES IDX 13 1 12 2 11 3 9 4 10 5 8 7 7 8 6 9 1 10 2 11 3 12 91 13
REMARK SMILES IDX 4 14 5 15 84 16 85 17 89 18 86 19 88 20 87 21 90 22 14 24
REMARK SMILES IDX 15 25 16 26 17 28 18 29 19 30 83 31 20 32 82 33 21 34 22 35
REMARK SMILES IDX 23 36 76 37 24 38 81 39 75 40 77 41 25 42 80 43 74 44 73 45
REMARK SMILES IDX 26 47 60 48 39 49 59 50 40 51 43 52 58 53 78 54 41 55 42 56
REMARK SMILES IDX 57 58 79 59 44 60 27 61 28 62 37 63 29 64 30 65 36 66 38 67
REMARK SMILES IDX 31 68 32 69 33 70 34 71 35 72 61 73 62 74 71 75 63 76 64 77
REMARK SMILES IDX 70 78 72 79 65 80 66 81 67 82 68 83 69 84 45 85 46 86 55 87
REMARK SMILES IDX 47 88 48 89 54 90 56 91 49 92 50 93 51 94 52 95 53 96
REMARK H PARENT 11 6 90 23 15 27 77 46 43 57
REMARK Flexibility Score: inf
ROOT
ATOM      1  C   UNL A   1      33.100  29.906  26.781  1.00  0.00     0.042 C 
ENDROOT
BRANCH   1   2
ATOM      2  C   UNL A   1      33.208  29.290  25.383  1.00  0.00     0.117 C 
BRANCH   2   3
ATOM      3  N   UNL A   1      31.936  28.919  24.768  1.00  0.00    -0.356 N 
ATOM      4  C   UNL A   1      31.476  27.707  24.327  1.00  0.00     0.223 C 
ATOM      5  O   UNL A   1      30.295  27.646  23.974  1.00  0.00    -0.275 OA
ATOM      6  H   UNL A   1      31.304  29.665  24.652  1.00  0.00     0.163 HD
BRANCH   4   7
ATOM      7  C   UNL A   1      32.413  26.468  24.235  1.00  0.00     0.088 C 
BRANCH   7   8
ATOM      8  C   UNL A   1      32.516  25.865  25.675  1.00  0.00     0.049 C 
BRANCH   8   9
ATOM      9  C   UNL A   1      33.467  24.726  25.988  1.00  0.00    -0.047 A 
ATOM     10  C   UNL A   1      37.035  23.695  25.028  1.00  0.00     0.044 C 
ATOM     11  C   UNL A   1      35.689  23.723  25.689  1.00  0.00    -0.051 A 
ATOM     12  C   UNL A   1      35.356  22.726  26.607  1.00  0.00     0.003 A 
ATOM     13  C   UNL A   1      34.752  24.731  25.407  1.00  0.00     0.007 A 
ATOM     14  C   UNL A   1      34.077  22.680  27.149  1.00  0.00     0.001 A 
ATOM     15  C   UNL A   1      33.130  23.645  26.795  1.00  0.00     0.004 A 
ENDBRANCH   8   9
ENDBRANCH   7   8
BRANCH   7  16
ATOM     16  C   UNL A   1      31.855  25.539  23.098  1.00  0.00     0.030 C 
ATOM     17  C   UNL A   1      30.836  24.458  23.484  1.00  0.00     0.007 C 
ATOM     18  C   UNL A   1      32.828  25.052  21.995  1.00  0.00     0.118 C 
ATOM     19  C   UNL A   1      31.431  23.077  23.699  1.00  0.00     0.001 C 
ATOM     20  C   UNL A   1      33.351  23.625  22.133  1.00  0.00     0.032 C 
ATOM     21  C   UNL A   1      32.272  22.624  22.513  1.00  0.00     0.003 C 
BRANCH  18  22
ATOM     22  O   UNL A   1      33.904  25.950  21.758  1.00  0.00    -0.393 OA
ATOM     23  H   UNL A   1      33.607  26.663  21.171  1.00  0.00     0.210 HD
ENDBRANCH  18  22
ENDBRANCH   7  16
ENDBRANCH   4   7
ENDBRANCH   2   3
ENDBRANCH   1   2
BRANCH   1  24
ATOM     24  C   UNL A   1      34.227  29.532  27.737  1.00  0.00     0.118 C 
BRANCH  24  25
ATOM     25  N   UNL A   1      34.920  30.736  28.211  1.00  0.00    -0.352 N 
ATOM     26  C   UNL A   1      36.191  30.866  28.738  1.00  0.00     0.251 C 
ATOM     27  H   UNL A   1      34.406  31.573  28.143  1.00  0.00     0.163 HD
ATOM     28  O   UNL A   1      36.638  31.921  29.148  1.00  0.00    -0.269 OA
BRANCH  26  29
ATOM     29  C   UNL A   1      37.019  29.652  28.719  1.00  0.00     0.039 A 
ATOM     30  C   UNL A   1      37.247  29.015  29.943  1.00  0.00     0.014 A 
ATOM     31  C   UNL A   1      37.810  29.414  27.600  1.00  0.00     0.014 A 
ATOM     32  C   UNL A   1      38.410  28.272  30.106  1.00  0.00     0.010 A 
ATOM     33  C   UNL A   1      39.001  28.744  27.791  1.00  0.00     0.010 A 
ATOM     34  C   UNL A   1      39.327  28.225  29.057  1.00  0.00    -0.014 A 
BRANCH  34  35
ATOM     35  C   UNL A   1      40.690  27.728  29.204  1.00  0.00     0.031 A 
ATOM     36  C   UNL A   1      41.013  26.352  28.770  1.00  0.00     0.074 A 
ATOM     37  C   UNL A   1      41.671  28.546  29.644  1.00  0.00     0.049 A 
ATOM     38  N   UNL A   1      42.099  25.719  29.059  1.00  0.00    -0.248 NA
ATOM     39  C   UNL A   1      40.072  25.551  28.000  1.00  0.00     0.031 C 
ATOM     40  C   UNL A   1      43.110  28.333  29.534  1.00  0.00     0.029 A 
ATOM     41  N   UNL A   1      41.547  29.656  30.485  1.00  0.00    -0.354 N 
ATOM     42  C   UNL A   1      42.126  24.556  28.321  1.00  0.00     0.074 A 
ATOM     43  C   UNL A   1      40.810  24.473  27.732  1.00  0.00     0.031 C 
ATOM     44  C   UNL A   1      43.732  29.083  30.455  1.00  0.00     0.029 A 
ATOM     45  C   UNL A   1      42.709  29.691  31.287  1.00  0.00     0.049 A 
ATOM     46  H   UNL A   1      40.794  30.289  30.514  1.00  0.00     0.167 HD
ATOM     47  C   UNL A   1      43.300  23.866  28.216  1.00  0.00     0.037 A 
ATOM     48  C   UNL A   1      42.615  29.537  32.643  1.00  0.00     0.037 A 
ATOM     49  C   UNL A   1      44.298  24.390  29.157  1.00  0.00     0.049 A 
ATOM     50  C   UNL A   1      43.235  28.261  33.176  1.00  0.00     0.074 A 
ATOM     51  C   UNL A   1      45.368  25.265  29.058  1.00  0.00     0.029 A 
ATOM     52  N   UNL A   1      44.068  24.225  30.512  1.00  0.00    -0.354 N 
ATOM     53  N   UNL A   1      43.842  27.369  32.444  1.00  0.00    -0.248 NA
ATOM     54  C   UNL A   1      43.154  27.857  34.583  1.00  0.00     0.031 C 
ATOM     55  C   UNL A   1      45.722  25.682  30.377  1.00  0.00     0.029 A 
ATOM     56  C   UNL A   1      44.877  25.051  31.271  1.00  0.00     0.049 A 
ATOM     57  H   UNL A   1      43.410  23.598  30.889  1.00  0.00     0.167 HD
ATOM     58  C   UNL A   1      44.139  26.276  33.212  1.00  0.00     0.074 A 
ATOM     59  C   UNL A   1      43.721  26.640  34.553  1.00  0.00     0.031 C 
ATOM     60  C   UNL A   1      44.659  25.122  32.707  1.00  0.00     0.037 A 
BRANCH  47  61
ATOM     61  C   UNL A   1      43.624  22.870  27.114  1.00  0.00     0.058 A 
ATOM     62  C   UNL A   1      42.926  21.642  27.035  1.00  0.00     0.135 A 
ATOM     63  C   UNL A   1      44.649  23.009  26.156  1.00  0.00     0.135 A 
ATOM     64  F   UNL A   1      41.864  21.390  27.811  1.00  0.00    -0.206 F 
ATOM     65  C   UNL A   1      43.290  20.608  26.165  1.00  0.00     0.059 A 
ATOM     66  C   UNL A   1      45.067  21.973  25.315  1.00  0.00     0.059 A 
ATOM     67  F   UNL A   1      45.259  24.174  25.934  1.00  0.00    -0.206 F 
ATOM     68  C   UNL A   1      44.390  20.767  25.334  1.00  0.00     0.060 A 
BRANCH  68  69
ATOM     69  S   UNL A   1      44.905  19.405  24.276  1.00  0.00     0.124 S 
ATOM     70  O   UNL A   1      44.457  19.853  22.961  1.00  0.00    -0.237 OA
ATOM     71  O   UNL A   1      46.349  19.385  24.485  1.00  0.00    -0.237 OA
ATOM     72  O   UNL A   1      44.181  18.258  24.819  1.00  0.00    -0.744 OA
ENDBRANCH  68  69
ENDBRANCH  47  61
BRANCH  48  73
ATOM     73  C   UNL A   1      41.425  30.234  33.204  1.00  0.00     0.058 A 
ATOM     74  C   UNL A   1      41.508  31.634  33.349  1.00  0.00     0.135 A 
ATOM     75  C   UNL A   1      40.149  29.660  33.149  1.00  0.00     0.135 A 
ATOM     76  F   UNL A   1      42.709  32.231  33.427  1.00  0.00    -0.206 F 
ATOM     77  C   UNL A   1      40.384  32.443  33.256  1.00  0.00     0.059 A 
ATOM     78  C   UNL A   1      39.004  30.455  33.063  1.00  0.00     0.059 A 
ATOM     79  F   UNL A   1      40.009  28.332  33.019  1.00  0.00    -0.206 F 
ATOM     80  C   UNL A   1      39.144  31.844  33.041  1.00  0.00     0.060 A 
BRANCH  80  81
ATOM     81  S   UNL A   1      37.775  32.910  32.531  1.00  0.00     0.124 S 
ATOM     82  O   UNL A   1      36.722  31.940  32.258  1.00  0.00    -0.237 OA
ATOM     83  O   UNL A   1      37.580  33.733  33.724  1.00  0.00    -0.237 OA
ATOM     84  O   UNL A   1      38.311  33.608  31.369  1.00  0.00    -0.744 OA
ENDBRANCH  80  81
ENDBRANCH  48  73
BRANCH  60  85
ATOM     85  C   UNL A   1      45.000  23.954  33.576  1.00  0.00     0.058 A 
ATOM     86  C   UNL A   1      46.320  23.711  33.987  1.00  0.00     0.135 A 
ATOM     87  C   UNL A   1      44.040  22.978  33.906  1.00  0.00     0.135 A 
ATOM     88  F   UNL A   1      47.295  24.587  33.696  1.00  0.00    -0.206 F 
ATOM     89  C   UNL A   1      46.670  22.563  34.696  1.00  0.00     0.059 A 
ATOM     90  C   UNL A   1      44.374  21.805  34.579  1.00  0.00     0.059 A 
ATOM     91  F   UNL A   1      42.746  23.151  33.597  1.00  0.00    -0.206 F 
ATOM     92  C   UNL A   1      45.692  21.612  34.981  1.00  0.00     0.060 A 
BRANCH  92  93
ATOM     93  S   UNL A   1      46.148  20.097  35.848  1.00  0.00     0.124 S 
ATOM     94  O   UNL A   1      45.382  19.075  35.139  1.00  0.00    -0.237 OA
ATOM     95  O   UNL A   1      47.591  20.064  35.633  1.00  0.00    -0.237 OA
ATOM     96  O   UNL A   1      45.718  20.354  37.219  1.00  0.00    -0.744 OA
ENDBRANCH  92  93
ENDBRANCH  60  85
ENDBRANCH  34  35
ENDBRANCH  26  29
ENDBRANCH  24  25
ENDBRANCH   1  24
TORSDOF 17
ENDMDL
