MODEL 1
REMARK VINA RESULT:     -12.7      0.000      0.000
REMARK SMILES CCOC(=O)c1c(NC(=O)[C@H]2[C@@H]3CC[C@@H](C3)[C@@H]2C(=O)NCCCNC(=O)c2ccc(-c3c4nc(c(-c5c(F)cc(S(=O)(=O)[O-])cc5F)c5ccc([nH]5)c(-c5c(F)cc(S(=O)(=O)[O-])cc5F)c5nc(c(-c6c(F)cc(S(=O)(=O)[O-])cc6F)c6ccc3[nH]6)C=C5)C=C4)cc2)sc2c1CCCC2
REMARK SMILES IDX 21 1 20 2 18 3 19 4 17 6 11 7 12 8 13 9 16 10 15 11 14 12
REMARK SMILES IDX 9 13 8 14 10 16 7 17 6 18 95 19 93 20 94 21 96 22 99 23
REMARK SMILES IDX 97 24 98 25 4 26 5 27 3 28 2 29 1 30 22 31 23 32 24 33 25 34
REMARK SMILES IDX 26 36 27 37 28 38 92 39 29 40 91 41 30 42 31 43 32 44 85 45
REMARK SMILES IDX 33 46 90 47 84 48 86 49 34 50 89 51 83 52 82 53 35 55 69 56
REMARK SMILES IDX 48 57 68 58 49 59 52 60 67 61 87 62 50 63 51 64 66 66 88 67
REMARK SMILES IDX 53 68 36 69 37 70 46 71 38 72 39 73 45 74 47 75 40 76 41 77
REMARK SMILES IDX 42 78 43 79 44 80 70 81 71 82 80 83 72 84 73 85 79 86 81 87
REMARK SMILES IDX 74 88 75 89 76 90 77 91 78 92 54 93 55 94 64 95 56 96 57 97
REMARK SMILES IDX 63 98 65 99 58 100 59 101 60 102 61 103 62 104
REMARK H PARENT 20 5 8 15 24 35 86 54 52 65
REMARK Flexibility Score: inf
ROOT
ATOM      1  C   UNL A   1      34.180  29.282  27.170  1.00  0.00     0.117 C 
ENDROOT
BRANCH   1   2
ATOM      2  N   UNL A   1      32.971  28.779  27.791  1.00  0.00    -0.356 N 
ATOM      3  C   UNL A   1      31.822  28.267  27.318  1.00  0.00     0.224 C 
ATOM      4  O   UNL A   1      31.053  27.829  28.186  1.00  0.00    -0.275 OA
ATOM      5  H   UNL A   1      32.997  28.822  28.774  1.00  0.00     0.163 HD
BRANCH   3   6
ATOM      6  C   UNL A   1      31.374  28.198  25.870  1.00  0.00     0.094 C 
ATOM      7  C   UNL A   1      31.794  26.941  25.080  1.00  0.00     0.094 C 
ATOM      8  C   UNL A   1      31.704  27.459  23.596  1.00  0.00     0.002 C 
ATOM      9  C   UNL A   1      33.033  28.127  23.250  1.00  0.00     0.005 C 
ATOM     10  C   UNL A   1      30.811  28.707  23.678  1.00  0.00     0.009 C 
ATOM     11  C   UNL A   1      31.611  29.314  24.838  1.00  0.00     0.002 C 
ATOM     12  C   UNL A   1      33.040  29.307  24.223  1.00  0.00     0.005 C 
BRANCH   7  13
ATOM     13  C   UNL A   1      30.894  25.740  25.288  1.00  0.00     0.229 C 
ATOM     14  N   UNL A   1      31.326  24.453  25.262  1.00  0.00    -0.317 N 
ATOM     15  H   UNL A   1      30.594  23.809  25.394  1.00  0.00     0.170 HD
ATOM     16  O   UNL A   1      29.690  25.905  25.531  1.00  0.00    -0.274 OA
BRANCH  14  17
ATOM     17  C   UNL A   1      32.545  23.836  25.095  1.00  0.00     0.110 A 
ATOM     18  C   UNL A   1      33.158  22.876  24.305  1.00  0.00     0.098 A 
ATOM     19  C   UNL A   1      34.599  22.932  24.465  1.00  0.00    -0.017 A 
ATOM     20  S   UNL A   1      33.642  24.485  26.253  1.00  0.00    -0.122 S 
ATOM     21  C   UNL A   1      34.970  23.730  25.527  1.00  0.00     0.011 A 
ATOM     22  C   UNL A   1      35.620  22.205  23.636  1.00  0.00     0.038 C 
ATOM     23  C   UNL A   1      36.364  23.892  26.045  1.00  0.00     0.047 C 
ATOM     24  C   UNL A   1      36.968  22.082  24.361  1.00  0.00     0.005 C 
ATOM     25  C   UNL A   1      37.388  23.408  25.008  1.00  0.00     0.006 C 
BRANCH  18  26
ATOM     26  C   UNL A   1      32.526  21.903  23.431  1.00  0.00     0.341 C 
ATOM     27  O   UNL A   1      32.496  22.006  22.210  1.00  0.00    -0.246 OA
BRANCH  26  28
ATOM     28  O   UNL A   1      32.089  20.810  24.123  1.00  0.00    -0.462 OA
BRANCH  28  29
ATOM     29  C   UNL A   1      32.674  19.570  23.708  1.00  0.00     0.230 C 
ATOM     30  C   UNL A   1      33.745  19.196  24.713  1.00  0.00     0.049 C 
ENDBRANCH  28  29
ENDBRANCH  26  28
ENDBRANCH  18  26
ENDBRANCH  14  17
ENDBRANCH   7  13
ENDBRANCH   3   6
ENDBRANCH   1   2
BRANCH   1  31
ATOM     31  C   UNL A   1      34.313  30.798  27.253  1.00  0.00     0.042 C 
BRANCH  31  32
ATOM     32  C   UNL A   1      35.495  31.273  28.090  1.00  0.00     0.118 C 
BRANCH  32  33
ATOM     33  N   UNL A   1      35.396  30.925  29.500  1.00  0.00    -0.352 N 
ATOM     34  C   UNL A   1      36.322  30.436  30.394  1.00  0.00     0.251 C 
ATOM     35  H   UNL A   1      34.502  31.066  29.887  1.00  0.00     0.163 HD
ATOM     36  O   UNL A   1      35.950  30.129  31.526  1.00  0.00    -0.269 OA
BRANCH  34  37
ATOM     37  C   UNL A   1      37.738  30.212  30.008  1.00  0.00     0.039 A 
ATOM     38  C   UNL A   1      38.693  30.051  31.018  1.00  0.00     0.014 A 
ATOM     39  C   UNL A   1      38.150  30.175  28.678  1.00  0.00     0.014 A 
ATOM     40  C   UNL A   1      40.022  29.755  30.690  1.00  0.00     0.010 A 
ATOM     41  C   UNL A   1      39.440  29.759  28.354  1.00  0.00     0.010 A 
ATOM     42  C   UNL A   1      40.396  29.542  29.355  1.00  0.00    -0.014 A 
BRANCH  42  43
ATOM     43  C   UNL A   1      41.767  29.098  28.973  1.00  0.00     0.031 A 
ATOM     44  C   UNL A   1      42.904  30.090  28.930  1.00  0.00     0.074 A 
ATOM     45  C   UNL A   1      41.974  27.829  28.561  1.00  0.00     0.049 A 
ATOM     46  N   UNL A   1      44.118  29.939  28.465  1.00  0.00    -0.248 NA
ATOM     47  C   UNL A   1      42.624  31.444  29.437  1.00  0.00     0.031 C 
ATOM     48  C   UNL A   1      40.953  26.782  28.489  1.00  0.00     0.029 A 
ATOM     49  N   UNL A   1      43.113  27.209  28.110  1.00  0.00    -0.354 N 
ATOM     50  C   UNL A   1      44.725  31.186  28.576  1.00  0.00     0.074 A 
ATOM     51  C   UNL A   1      43.732  32.092  29.110  1.00  0.00     0.031 C 
ATOM     52  C   UNL A   1      41.516  25.643  28.052  1.00  0.00     0.029 A 
ATOM     53  C   UNL A   1      42.925  25.889  27.768  1.00  0.00     0.049 A 
ATOM     54  H   UNL A   1      43.982  27.665  28.038  1.00  0.00     0.167 HD
ATOM     55  C   UNL A   1      46.000  31.541  28.285  1.00  0.00     0.037 A 
ATOM     56  C   UNL A   1      43.787  24.979  27.274  1.00  0.00     0.037 A 
ATOM     57  C   UNL A   1      47.009  30.623  27.826  1.00  0.00     0.049 A 
ATOM     58  C   UNL A   1      45.213  25.380  27.017  1.00  0.00     0.074 A 
ATOM     59  C   UNL A   1      48.350  30.865  27.590  1.00  0.00     0.029 A 
ATOM     60  N   UNL A   1      46.790  29.282  27.550  1.00  0.00    -0.354 N 
ATOM     61  N   UNL A   1      45.780  26.552  27.174  1.00  0.00    -0.248 NA
ATOM     62  C   UNL A   1      46.118  24.335  26.517  1.00  0.00     0.031 C 
ATOM     63  C   UNL A   1      48.939  29.674  27.149  1.00  0.00     0.029 A 
ATOM     64  C   UNL A   1      47.970  28.685  27.141  1.00  0.00     0.049 A 
ATOM     65  H   UNL A   1      45.923  28.822  27.633  1.00  0.00     0.167 HD
ATOM     66  C   UNL A   1      47.111  26.381  26.809  1.00  0.00     0.074 A 
ATOM     67  C   UNL A   1      47.269  24.990  26.438  1.00  0.00     0.031 C 
ATOM     68  C   UNL A   1      48.111  27.295  26.783  1.00  0.00     0.037 A 
BRANCH  55  69
ATOM     69  C   UNL A   1      46.381  32.984  28.478  1.00  0.00     0.058 A 
ATOM     70  C   UNL A   1      46.853  33.462  29.711  1.00  0.00     0.135 A 
ATOM     71  C   UNL A   1      46.290  33.896  27.414  1.00  0.00     0.135 A 
ATOM     72  F   UNL A   1      46.948  32.636  30.765  1.00  0.00    -0.206 F 
ATOM     73  C   UNL A   1      47.182  34.801  29.895  1.00  0.00     0.059 A 
ATOM     74  C   UNL A   1      46.640  35.235  27.568  1.00  0.00     0.059 A 
ATOM     75  F   UNL A   1      45.848  33.492  26.213  1.00  0.00    -0.206 F 
ATOM     76  C   UNL A   1      47.066  35.681  28.819  1.00  0.00     0.060 A 
BRANCH  76  77
ATOM     77  S   UNL A   1      47.485  37.419  29.075  1.00  0.00     0.124 S 
ATOM     78  O   UNL A   1      46.195  38.063  28.844  1.00  0.00    -0.237 OA
ATOM     79  O   UNL A   1      47.958  37.430  30.455  1.00  0.00    -0.237 OA
ATOM     80  O   UNL A   1      48.504  37.675  28.063  1.00  0.00    -0.744 OA
ENDBRANCH  76  77
ENDBRANCH  55  69
BRANCH  56  81
ATOM     81  C   UNL A   1      43.331  23.588  27.017  1.00  0.00     0.058 A 
ATOM     82  C   UNL A   1      43.082  23.148  25.707  1.00  0.00     0.135 A 
ATOM     83  C   UNL A   1      43.154  22.668  28.061  1.00  0.00     0.135 A 
ATOM     84  F   UNL A   1      43.232  23.994  24.677  1.00  0.00    -0.206 F 
ATOM     85  C   UNL A   1      42.661  21.850  25.443  1.00  0.00     0.059 A 
ATOM     86  C   UNL A   1      42.753  21.357  27.819  1.00  0.00     0.059 A 
ATOM     87  F   UNL A   1      43.397  23.036  29.329  1.00  0.00    -0.206 F 
ATOM     88  C   UNL A   1      42.501  20.960  26.507  1.00  0.00     0.060 A 
BRANCH  88  89
ATOM     89  S   UNL A   1      42.007  19.261  26.148  1.00  0.00     0.124 S 
ATOM     90  O   UNL A   1      42.399  18.576  27.375  1.00  0.00    -0.237 OA
ATOM     91  O   UNL A   1      40.572  19.396  25.922  1.00  0.00    -0.237 OA
ATOM     92  O   UNL A   1      42.790  18.929  24.961  1.00  0.00    -0.744 OA
ENDBRANCH  88  89
ENDBRANCH  56  81
BRANCH  68  93
ATOM     93  C   UNL A   1      49.470  26.818  26.361  1.00  0.00     0.058 A 
ATOM     94  C   UNL A   1      50.320  26.147  27.253  1.00  0.00     0.135 A 
ATOM     95  C   UNL A   1      49.905  26.988  25.036  1.00  0.00     0.135 A 
ATOM     96  F   UNL A   1      49.953  25.968  28.531  1.00  0.00    -0.206 F 
ATOM     97  C   UNL A   1      51.565  25.673  26.849  1.00  0.00     0.059 A 
ATOM     98  C   UNL A   1      51.135  26.503  24.606  1.00  0.00     0.059 A 
ATOM     99  F   UNL A   1      49.122  27.616  24.144  1.00  0.00    -0.206 F 
ATOM    100  C   UNL A   1      51.962  25.855  25.524  1.00  0.00     0.060 A 
BRANCH 100 101
ATOM    101  S   UNL A   1      53.562  25.201  25.000  1.00  0.00     0.124 S 
ATOM    102  O   UNL A   1      53.405  23.779  25.289  1.00  0.00    -0.237 OA
ATOM    103  O   UNL A   1      53.602  25.560  23.586  1.00  0.00    -0.237 OA
ATOM    104  O   UNL A   1      54.513  25.914  25.849  1.00  0.00    -0.744 OA
ENDBRANCH 100 101
ENDBRANCH  68  93
ENDBRANCH  42  43
ENDBRANCH  34  37
ENDBRANCH  32  33
ENDBRANCH  31  32
ENDBRANCH   1  31
TORSDOF 18
ENDMDL
MODEL 2
REMARK VINA RESULT:     -12.5      6.214     11.860
REMARK SMILES CCOC(=O)c1c(NC(=O)[C@H]2[C@@H]3CC[C@@H](C3)[C@@H]2C(=O)NCCCNC(=O)c2ccc(-c3c4nc(c(-c5c(F)cc(S(=O)(=O)[O-])cc5F)c5ccc([nH]5)c(-c5c(F)cc(S(=O)(=O)[O-])cc5F)c5nc(c(-c6c(F)cc(S(=O)(=O)[O-])cc6F)c6ccc3[nH]6)C=C5)C=C4)cc2)sc2c1CCCC2
REMARK SMILES IDX 21 1 20 2 18 3 19 4 17 6 11 7 12 8 13 9 16 10 15 11 14 12
REMARK SMILES IDX 9 13 8 14 10 16 7 17 6 18 95 19 93 20 94 21 96 22 99 23
REMARK SMILES IDX 97 24 98 25 4 26 5 27 3 28 2 29 1 30 22 31 23 32 24 33 25 34
REMARK SMILES IDX 26 36 27 37 28 38 92 39 29 40 91 41 30 42 31 43 32 44 85 45
REMARK SMILES IDX 33 46 90 47 84 48 86 49 34 50 89 51 83 52 82 53 35 55 69 56
REMARK SMILES IDX 48 57 68 58 49 59 52 60 67 61 87 62 50 63 51 64 66 66 88 67
REMARK SMILES IDX 53 68 36 69 37 70 46 71 38 72 39 73 45 74 47 75 40 76 41 77
REMARK SMILES IDX 42 78 43 79 44 80 70 81 71 82 80 83 72 84 73 85 79 86 81 87
REMARK SMILES IDX 74 88 75 89 76 90 77 91 78 92 54 93 55 94 64 95 56 96 57 97
REMARK SMILES IDX 63 98 65 99 58 100 59 101 60 102 61 103 62 104
REMARK H PARENT 20 5 8 15 24 35 86 54 52 65
REMARK Flexibility Score: inf
ROOT
ATOM      1  C   UNL A   1      37.979  21.781  25.483  1.00  0.00     0.117 C 
ENDROOT
BRANCH   1   2
ATOM      2  N   UNL A   1      37.590  22.517  24.297  1.00  0.00    -0.356 N 
ATOM      3  C   UNL A   1      36.419  22.729  23.672  1.00  0.00     0.224 C 
ATOM      4  O   UNL A   1      36.472  23.530  22.728  1.00  0.00    -0.275 OA
ATOM      5  H   UNL A   1      38.349  22.958  23.852  1.00  0.00     0.163 HD
BRANCH   3   6
ATOM      6  C   UNL A   1      35.083  22.082  23.981  1.00  0.00     0.094 C 
ATOM      7  C   UNL A   1      33.910  23.037  24.287  1.00  0.00     0.094 C 
ATOM      8  C   UNL A   1      32.942  22.097  25.099  1.00  0.00     0.002 C 
ATOM      9  C   UNL A   1      33.366  22.138  26.565  1.00  0.00     0.005 C 
ATOM     10  C   UNL A   1      33.403  20.674  24.745  1.00  0.00     0.009 C 
ATOM     11  C   UNL A   1      34.878  20.982  25.038  1.00  0.00     0.002 C 
ATOM     12  C   UNL A   1      34.765  21.522  26.492  1.00  0.00     0.005 C 
BRANCH   7  13
ATOM     13  C   UNL A   1      33.219  23.595  23.060  1.00  0.00     0.229 C 
ATOM     14  N   UNL A   1      32.568  24.787  23.031  1.00  0.00    -0.317 N 
ATOM     15  H   UNL A   1      32.161  24.970  22.153  1.00  0.00     0.170 HD
ATOM     16  O   UNL A   1      33.255  22.968  21.992  1.00  0.00    -0.274 OA
BRANCH  14  17
ATOM     17  C   UNL A   1      32.343  25.799  23.936  1.00  0.00     0.110 A 
ATOM     18  C   UNL A   1      31.543  26.098  25.028  1.00  0.00     0.098 A 
ATOM     19  C   UNL A   1      32.056  27.260  25.728  1.00  0.00    -0.017 A 
ATOM     20  S   UNL A   1      33.413  27.098  23.571  1.00  0.00    -0.122 S 
ATOM     21  C   UNL A   1      33.034  27.910  25.005  1.00  0.00     0.011 A 
ATOM     22  C   UNL A   1      31.598  27.774  27.065  1.00  0.00     0.038 C 
ATOM     23  C   UNL A   1      33.670  29.211  25.379  1.00  0.00     0.047 C 
ATOM     24  C   UNL A   1      31.972  29.247  27.274  1.00  0.00     0.005 C 
ATOM     25  C   UNL A   1      33.422  29.531  26.861  1.00  0.00     0.006 C 
BRANCH  18  26
ATOM     26  C   UNL A   1      30.339  25.416  25.465  1.00  0.00     0.341 C 
ATOM     27  O   UNL A   1      30.346  24.387  26.133  1.00  0.00    -0.246 OA
BRANCH  26  28
ATOM     28  O   UNL A   1      29.213  26.124  25.154  1.00  0.00    -0.462 OA
BRANCH  28  29
ATOM     29  C   UNL A   1      28.972  26.272  23.750  1.00  0.00     0.230 C 
ATOM     30  C   UNL A   1      29.008  27.752  23.421  1.00  0.00     0.049 C 
ENDBRANCH  28  29
ENDBRANCH  26  28
ENDBRANCH  18  26
ENDBRANCH  14  17
ENDBRANCH   7  13
ENDBRANCH   3   6
ENDBRANCH   1   2
BRANCH   1  31
ATOM     31  C   UNL A   1      38.398  22.682  26.638  1.00  0.00     0.042 C 
BRANCH  31  32
ATOM     32  C   UNL A   1      38.982  24.021  26.201  1.00  0.00     0.118 C 
BRANCH  32  33
ATOM     33  N   UNL A   1      40.425  24.000  26.009  1.00  0.00    -0.352 N 
ATOM     34  C   UNL A   1      41.431  24.796  26.507  1.00  0.00     0.251 C 
ATOM     35  H   UNL A   1      40.740  23.283  25.412  1.00  0.00     0.163 HD
ATOM     36  O   UNL A   1      42.580  24.623  26.104  1.00  0.00    -0.269 OA
BRANCH  34  37
ATOM     37  C   UNL A   1      41.155  25.895  27.467  1.00  0.00     0.039 A 
ATOM     38  C   UNL A   1      40.171  25.702  28.444  1.00  0.00     0.014 A 
ATOM     39  C   UNL A   1      41.825  27.115  27.417  1.00  0.00     0.014 A 
ATOM     40  C   UNL A   1      39.943  26.683  29.417  1.00  0.00     0.010 A 
ATOM     41  C   UNL A   1      41.687  28.035  28.454  1.00  0.00     0.010 A 
ATOM     42  C   UNL A   1      40.744  27.834  29.471  1.00  0.00    -0.014 A 
BRANCH  42  43
ATOM     43  C   UNL A   1      40.622  28.839  30.564  1.00  0.00     0.031 A 
ATOM     44  C   UNL A   1      41.490  28.734  31.795  1.00  0.00     0.074 A 
ATOM     45  C   UNL A   1      39.660  29.784  30.506  1.00  0.00     0.049 A 
ATOM     46  N   UNL A   1      41.418  29.401  32.919  1.00  0.00    -0.248 NA
ATOM     47  C   UNL A   1      42.550  27.712  31.775  1.00  0.00     0.031 C 
ATOM     48  C   UNL A   1      38.707  29.962  29.408  1.00  0.00     0.029 A 
ATOM     49  N   UNL A   1      39.315  30.767  31.402  1.00  0.00    -0.354 N 
ATOM     50  C   UNL A   1      42.385  28.847  33.752  1.00  0.00     0.074 A 
ATOM     51  C   UNL A   1      42.998  27.760  33.021  1.00  0.00     0.031 C 
ATOM     52  C   UNL A   1      37.908  31.007  29.679  1.00  0.00     0.029 A 
ATOM     53  C   UNL A   1      38.258  31.545  30.988  1.00  0.00     0.049 A 
ATOM     54  H   UNL A   1      39.780  30.902  32.259  1.00  0.00     0.167 HD
ATOM     55  C   UNL A   1      42.749  29.223  35.001  1.00  0.00     0.037 A 
ATOM     56  C   UNL A   1      37.633  32.572  31.597  1.00  0.00     0.037 A 
ATOM     57  C   UNL A   1      42.192  30.352  35.699  1.00  0.00     0.049 A 
ATOM     58  C   UNL A   1      38.095  33.012  32.958  1.00  0.00     0.074 A 
ATOM     59  C   UNL A   1      42.556  30.869  36.930  1.00  0.00     0.029 A 
ATOM     60  N   UNL A   1      41.164  31.150  35.218  1.00  0.00    -0.354 N 
ATOM     61  N   UNL A   1      39.043  32.505  33.709  1.00  0.00    -0.248 NA
ATOM     62  C   UNL A   1      37.404  34.164  33.555  1.00  0.00     0.031 C 
ATOM     63  C   UNL A   1      41.731  31.968  37.204  1.00  0.00     0.029 A 
ATOM     64  C   UNL A   1      40.877  32.151  36.130  1.00  0.00     0.049 A 
ATOM     65  H   UNL A   1      40.706  31.022  34.355  1.00  0.00     0.167 HD
ATOM     66  C   UNL A   1      39.074  33.287  34.859  1.00  0.00     0.074 A 
ATOM     67  C   UNL A   1      38.060  34.309  34.698  1.00  0.00     0.031 C 
ATOM     68  C   UNL A   1      39.869  33.166  35.949  1.00  0.00     0.037 A 
BRANCH  55  69
ATOM     69  C   UNL A   1      43.818  28.417  35.686  1.00  0.00     0.058 A 
ATOM     70  C   UNL A   1      45.182  28.706  35.514  1.00  0.00     0.135 A 
ATOM     71  C   UNL A   1      43.478  27.354  36.539  1.00  0.00     0.135 A 
ATOM     72  F   UNL A   1      45.564  29.702  34.700  1.00  0.00    -0.206 F 
ATOM     73  C   UNL A   1      46.171  27.944  36.128  1.00  0.00     0.059 A 
ATOM     74  C   UNL A   1      44.450  26.596  37.187  1.00  0.00     0.059 A 
ATOM     75  F   UNL A   1      42.190  27.037  36.742  1.00  0.00    -0.206 F 
ATOM     76  C   UNL A   1      45.795  26.887  36.958  1.00  0.00     0.060 A 
BRANCH  76  77
ATOM     77  S   UNL A   1      47.089  25.899  37.740  1.00  0.00     0.124 S 
ATOM     78  O   UNL A   1      48.291  26.608  37.312  1.00  0.00    -0.237 OA
ATOM     79  O   UNL A   1      46.759  26.013  39.157  1.00  0.00    -0.237 OA
ATOM     80  O   UNL A   1      46.901  24.574  37.159  1.00  0.00    -0.744 OA
ENDBRANCH  76  77
ENDBRANCH  55  69
BRANCH  56  81
ATOM     81  C   UNL A   1      36.519  33.276  30.908  1.00  0.00     0.058 A 
ATOM     82  C   UNL A   1      35.195  33.115  31.343  1.00  0.00     0.135 A 
ATOM     83  C   UNL A   1      36.752  34.134  29.823  1.00  0.00     0.135 A 
ATOM     84  F   UNL A   1      34.923  32.299  32.373  1.00  0.00    -0.206 F 
ATOM     85  C   UNL A   1      34.139  33.768  30.718  1.00  0.00     0.059 A 
ATOM     86  C   UNL A   1      35.714  34.815  29.195  1.00  0.00     0.059 A 
ATOM     87  F   UNL A   1      38.004  34.336  29.383  1.00  0.00    -0.206 F 
ATOM     88  C   UNL A   1      34.408  34.618  29.645  1.00  0.00     0.060 A 
BRANCH  88  89
ATOM     89  S   UNL A   1      33.036  35.505  28.876  1.00  0.00     0.124 S 
ATOM     90  O   UNL A   1      32.295  35.968  30.043  1.00  0.00    -0.237 OA
ATOM     91  O   UNL A   1      33.726  36.536  28.107  1.00  0.00    -0.237 OA
ATOM     92  O   UNL A   1      32.380  34.475  28.076  1.00  0.00    -0.744 OA
ENDBRANCH  88  89
ENDBRANCH  56  81
BRANCH  68  93
ATOM     93  C   UNL A   1      39.694  34.178  37.045  1.00  0.00     0.058 A 
ATOM     94  C   UNL A   1      38.868  33.924  38.151  1.00  0.00     0.135 A 
ATOM     95  C   UNL A   1      40.401  35.391  37.014  1.00  0.00     0.135 A 
ATOM     96  F   UNL A   1      38.166  32.783  38.221  1.00  0.00    -0.206 F 
ATOM     97  C   UNL A   1      38.736  34.848  39.183  1.00  0.00     0.059 A 
ATOM     98  C   UNL A   1      40.300  36.318  38.045  1.00  0.00     0.059 A 
ATOM     99  F   UNL A   1      41.211  35.675  35.981  1.00  0.00    -0.206 F 
ATOM    100  C   UNL A   1      39.457  36.041  39.121  1.00  0.00     0.060 A 
BRANCH 100 101
ATOM    101  S   UNL A   1      39.310  37.215  40.485  1.00  0.00     0.124 S 
ATOM    102  O   UNL A   1      38.330  38.157  39.957  1.00  0.00    -0.237 OA
ATOM    103  O   UNL A   1      38.849  36.368  41.582  1.00  0.00    -0.237 OA
ATOM    104  O   UNL A   1      40.667  37.735  40.632  1.00  0.00    -0.744 OA
ENDBRANCH 100 101
ENDBRANCH  68  93
ENDBRANCH  42  43
ENDBRANCH  34  37
ENDBRANCH  32  33
ENDBRANCH  31  32
ENDBRANCH   1  31
TORSDOF 18
ENDMDL
MODEL 3
REMARK VINA RESULT:     -12.5      6.232     11.732
REMARK SMILES CCOC(=O)c1c(NC(=O)[C@H]2[C@@H]3CC[C@@H](C3)[C@@H]2C(=O)NCCCNC(=O)c2ccc(-c3c4nc(c(-c5c(F)cc(S(=O)(=O)[O-])cc5F)c5ccc([nH]5)c(-c5c(F)cc(S(=O)(=O)[O-])cc5F)c5nc(c(-c6c(F)cc(S(=O)(=O)[O-])cc6F)c6ccc3[nH]6)C=C5)C=C4)cc2)sc2c1CCCC2
REMARK SMILES IDX 21 1 20 2 18 3 19 4 17 6 11 7 12 8 13 9 16 10 15 11 14 12
REMARK SMILES IDX 9 13 8 14 10 16 7 17 6 18 95 19 93 20 94 21 96 22 99 23
REMARK SMILES IDX 97 24 98 25 4 26 5 27 3 28 2 29 1 30 22 31 23 32 24 33 25 34
REMARK SMILES IDX 26 36 27 37 28 38 92 39 29 40 91 41 30 42 31 43 32 44 85 45
REMARK SMILES IDX 33 46 90 47 84 48 86 49 34 50 89 51 83 52 82 53 35 55 69 56
REMARK SMILES IDX 48 57 68 58 49 59 52 60 67 61 87 62 50 63 51 64 66 66 88 67
REMARK SMILES IDX 53 68 36 69 37 70 46 71 38 72 39 73 45 74 47 75 40 76 41 77
REMARK SMILES IDX 42 78 43 79 44 80 70 81 71 82 80 83 72 84 73 85 79 86 81 87
REMARK SMILES IDX 74 88 75 89 76 90 77 91 78 92 54 93 55 94 64 95 56 96 57 97
REMARK SMILES IDX 63 98 65 99 58 100 59 101 60 102 61 103 62 104
REMARK H PARENT 20 5 8 15 24 35 86 54 52 65
REMARK Flexibility Score: inf
ROOT
ATOM      1  C   UNL A   1      37.743  22.366  25.374  1.00  0.00     0.117 C 
ENDROOT
BRANCH   1   2
ATOM      2  N   UNL A   1      37.052  22.844  24.193  1.00  0.00    -0.356 N 
ATOM      3  C   UNL A   1      35.763  22.870  23.813  1.00  0.00     0.224 C 
ATOM      4  O   UNL A   1      35.546  23.483  22.757  1.00  0.00    -0.275 OA
ATOM      5  H   UNL A   1      37.659  23.236  23.525  1.00  0.00     0.163 HD
BRANCH   3   6
ATOM      6  C   UNL A   1      34.585  22.219  24.512  1.00  0.00     0.094 C 
ATOM      7  C   UNL A   1      33.243  22.979  24.450  1.00  0.00     0.094 C 
ATOM      8  C   UNL A   1      32.485  22.378  25.693  1.00  0.00     0.002 C 
ATOM      9  C   UNL A   1      32.890  23.183  26.925  1.00  0.00     0.005 C 
ATOM     10  C   UNL A   1      33.225  21.066  25.996  1.00  0.00     0.009 C 
ATOM     11  C   UNL A   1      34.607  21.734  25.972  1.00  0.00     0.002 C 
ATOM     12  C   UNL A   1      34.385  22.867  27.013  1.00  0.00     0.005 C 
BRANCH   7  13
ATOM     13  C   UNL A   1      32.454  22.755  23.176  1.00  0.00     0.229 C 
ATOM     14  N   UNL A   1      31.694  23.707  22.577  1.00  0.00    -0.317 N 
ATOM     15  H   UNL A   1      31.237  23.371  21.773  1.00  0.00     0.170 HD
ATOM     16  O   UNL A   1      32.508  21.660  22.600  1.00  0.00    -0.274 OA
BRANCH  14  17
ATOM     17  C   UNL A   1      31.409  25.031  22.828  1.00  0.00     0.110 A 
ATOM     18  C   UNL A   1      32.015  26.277  22.807  1.00  0.00     0.098 A 
ATOM     19  C   UNL A   1      31.018  27.327  22.892  1.00  0.00    -0.017 A 
ATOM     20  S   UNL A   1      29.763  25.145  23.321  1.00  0.00    -0.122 S 
ATOM     21  C   UNL A   1      29.773  26.832  23.220  1.00  0.00     0.011 A 
ATOM     22  C   UNL A   1      31.249  28.799  22.695  1.00  0.00     0.038 C 
ATOM     23  C   UNL A   1      28.562  27.659  23.518  1.00  0.00     0.047 C 
ATOM     24  C   UNL A   1      30.139  29.647  23.331  1.00  0.00     0.005 C 
ATOM     25  C   UNL A   1      28.745  29.095  23.006  1.00  0.00     0.006 C 
BRANCH  18  26
ATOM     26  C   UNL A   1      33.433  26.578  22.737  1.00  0.00     0.341 C 
ATOM     27  O   UNL A   1      33.961  27.142  21.783  1.00  0.00    -0.246 OA
BRANCH  26  28
ATOM     28  O   UNL A   1      34.075  26.276  23.904  1.00  0.00    -0.462 OA
BRANCH  28  29
ATOM     29  C   UNL A   1      33.485  26.854  25.074  1.00  0.00     0.230 C 
ATOM     30  C   UNL A   1      34.008  28.271  25.213  1.00  0.00     0.049 C 
ENDBRANCH  28  29
ENDBRANCH  26  28
ENDBRANCH  18  26
ENDBRANCH  14  17
ENDBRANCH   7  13
ENDBRANCH   3   6
ENDBRANCH   1   2
BRANCH   1  31
ATOM     31  C   UNL A   1      38.211  23.488  26.292  1.00  0.00     0.042 C 
BRANCH  31  32
ATOM     32  C   UNL A   1      39.612  23.284  26.858  1.00  0.00     0.118 C 
BRANCH  32  33
ATOM     33  N   UNL A   1      40.671  23.823  26.018  1.00  0.00    -0.352 N 
ATOM     34  C   UNL A   1      41.498  24.913  26.165  1.00  0.00     0.251 C 
ATOM     35  H   UNL A   1      40.827  23.311  25.191  1.00  0.00     0.163 HD
ATOM     36  O   UNL A   1      42.259  25.210  25.245  1.00  0.00    -0.269 OA
BRANCH  34  37
ATOM     37  C   UNL A   1      41.449  25.772  27.375  1.00  0.00     0.039 A 
ATOM     38  C   UNL A   1      42.463  26.717  27.571  1.00  0.00     0.014 A 
ATOM     39  C   UNL A   1      40.442  25.657  28.331  1.00  0.00     0.014 A 
ATOM     40  C   UNL A   1      42.403  27.601  28.656  1.00  0.00     0.010 A 
ATOM     41  C   UNL A   1      40.315  26.613  29.337  1.00  0.00     0.010 A 
ATOM     42  C   UNL A   1      41.294  27.599  29.515  1.00  0.00    -0.014 A 
BRANCH  42  43
ATOM     43  C   UNL A   1      41.128  28.606  30.602  1.00  0.00     0.031 A 
ATOM     44  C   UNL A   1      41.995  28.542  31.837  1.00  0.00     0.074 A 
ATOM     45  C   UNL A   1      40.131  29.513  30.535  1.00  0.00     0.049 A 
ATOM     46  N   UNL A   1      41.893  29.213  32.956  1.00  0.00    -0.248 NA
ATOM     47  C   UNL A   1      43.093  27.562  31.828  1.00  0.00     0.031 C 
ATOM     48  C   UNL A   1      39.177  29.647  29.431  1.00  0.00     0.029 A 
ATOM     49  N   UNL A   1      39.744  30.487  31.422  1.00  0.00    -0.354 N 
ATOM     50  C   UNL A   1      42.876  28.702  33.796  1.00  0.00     0.074 A 
ATOM     51  C   UNL A   1      43.534  27.635  33.075  1.00  0.00     0.031 C 
ATOM     52  C   UNL A   1      38.337  30.661  29.692  1.00  0.00     0.029 A 
ATOM     53  C   UNL A   1      38.660  31.221  31.000  1.00  0.00     0.049 A 
ATOM     54  H   UNL A   1      40.200  30.645  32.280  1.00  0.00     0.167 HD
ATOM     55  C   UNL A   1      43.220  29.100  35.045  1.00  0.00     0.037 A 
ATOM     56  C   UNL A   1      37.993  32.227  31.599  1.00  0.00     0.037 A 
ATOM     57  C   UNL A   1      42.617  30.210  35.734  1.00  0.00     0.049 A 
ATOM     58  C   UNL A   1      38.432  32.692  32.959  1.00  0.00     0.074 A 
ATOM     59  C   UNL A   1      42.955  30.749  36.962  1.00  0.00     0.029 A 
ATOM     60  N   UNL A   1      41.561  30.965  35.244  1.00  0.00    -0.354 N 
ATOM     61  N   UNL A   1      39.395  32.227  33.717  1.00  0.00    -0.248 NA
ATOM     62  C   UNL A   1      37.694  33.820  33.546  1.00  0.00     0.031 C 
ATOM     63  C   UNL A   1      42.088  31.816  37.226  1.00  0.00     0.029 A 
ATOM     64  C   UNL A   1      41.231  31.960  36.148  1.00  0.00     0.049 A 
ATOM     65  H   UNL A   1      41.112  30.813  34.380  1.00  0.00     0.167 HD
ATOM     66  C   UNL A   1      39.391  33.017  34.862  1.00  0.00     0.074 A 
ATOM     67  C   UNL A   1      38.340  33.998  34.691  1.00  0.00     0.031 C 
ATOM     68  C   UNL A   1      40.186  32.934  35.957  1.00  0.00     0.037 A 
BRANCH  55  69
ATOM     69  C   UNL A   1      44.317  28.340  35.740  1.00  0.00     0.058 A 
ATOM     70  C   UNL A   1      44.038  27.255  36.587  1.00  0.00     0.135 A 
ATOM     71  C   UNL A   1      45.664  28.687  35.543  1.00  0.00     0.135 A 
ATOM     72  F   UNL A   1      42.768  26.889  36.821  1.00  0.00    -0.206 F 
ATOM     73  C   UNL A   1      45.052  26.568  37.248  1.00  0.00     0.059 A 
ATOM     74  C   UNL A   1      46.696  27.995  36.172  1.00  0.00     0.059 A 
ATOM     75  F   UNL A   1      45.987  29.712  34.741  1.00  0.00    -0.206 F 
ATOM     76  C   UNL A   1      46.377  26.950  37.039  1.00  0.00     0.060 A 
BRANCH  76  77
ATOM     77  S   UNL A   1      47.682  26.058  37.913  1.00  0.00     0.124 S 
ATOM     78  O   UNL A   1      47.243  26.189  39.299  1.00  0.00    -0.237 OA
ATOM     79  O   UNL A   1      47.583  24.718  37.343  1.00  0.00    -0.237 OA
ATOM     80  O   UNL A   1      48.890  26.797  37.564  1.00  0.00    -0.744 OA
ENDBRANCH  76  77
ENDBRANCH  55  69
BRANCH  56  81
ATOM     81  C   UNL A   1      36.856  32.883  30.902  1.00  0.00     0.058 A 
ATOM     82  C   UNL A   1      35.531  32.576  31.250  1.00  0.00     0.135 A 
ATOM     83  C   UNL A   1      37.064  33.837  29.895  1.00  0.00     0.135 A 
ATOM     84  F   UNL A   1      35.284  31.665  32.203  1.00  0.00    -0.206 F 
ATOM     85  C   UNL A   1      34.453  33.182  30.615  1.00  0.00     0.059 A 
ATOM     86  C   UNL A   1      36.001  34.472  29.260  1.00  0.00     0.059 A 
ATOM     87  F   UNL A   1      38.313  34.178  29.540  1.00  0.00    -0.206 F 
ATOM     88  C   UNL A   1      34.698  34.131  29.622  1.00  0.00     0.060 A 
BRANCH  88  89
ATOM     89  S   UNL A   1      33.291  34.953  28.843  1.00  0.00     0.124 S 
ATOM     90  O   UNL A   1      32.462  35.275  29.998  1.00  0.00    -0.237 OA
ATOM     91  O   UNL A   1      33.925  36.085  28.175  1.00  0.00    -0.237 OA
ATOM     92  O   UNL A   1      32.759  33.928  27.949  1.00  0.00    -0.744 OA
ENDBRANCH  88  89
ENDBRANCH  56  81
BRANCH  68  93
ATOM     93  C   UNL A   1      39.967  33.944  37.046  1.00  0.00     0.058 A 
ATOM     94  C   UNL A   1      40.543  35.222  36.986  1.00  0.00     0.135 A 
ATOM     95  C   UNL A   1      39.130  33.648  38.134  1.00  0.00     0.135 A 
ATOM     96  F   UNL A   1      41.357  35.550  35.970  1.00  0.00    -0.206 F 
ATOM     97  C   UNL A   1      40.309  36.169  37.978  1.00  0.00     0.059 A 
ATOM     98  C   UNL A   1      38.865  34.587  39.125  1.00  0.00     0.059 A 
ATOM     99  F   UNL A   1      38.549  32.441  38.230  1.00  0.00    -0.206 F 
ATOM    100  C   UNL A   1      39.467  35.842  39.043  1.00  0.00     0.060 A 
BRANCH 100 101
ATOM    101  S   UNL A   1      39.138  37.092  40.303  1.00  0.00     0.124 S 
ATOM    102  O   UNL A   1      38.542  38.160  39.508  1.00  0.00    -0.237 OA
ATOM    103  O   UNL A   1      38.231  36.394  41.210  1.00  0.00    -0.237 OA
ATOM    104  O   UNL A   1      40.462  37.378  40.850  1.00  0.00    -0.744 OA
ENDBRANCH 100 101
ENDBRANCH  68  93
ENDBRANCH  42  43
ENDBRANCH  34  37
ENDBRANCH  32  33
ENDBRANCH  31  32
ENDBRANCH   1  31
TORSDOF 18
ENDMDL
