MODEL 1
REMARK VINA RESULT:     -11.6      0.000      0.000
REMARK SMILES CC1=C(C)C[C@@H](C(=O)N[C@H](C)C(C)(C)C)[C@@H](C(=O)NCCCNC(=O)c2ccc(-c3c4nc(c(-c5c(F)cc(S(=O)(=O)[O-])cc5F)c5ccc([nH]5)c(-c5c(F)cc(S(=O)(=O)[O-])cc5F)c5nc(c(-c6c(F)cc(S(=O)(=O)[O-])cc6F)c6ccc3[nH]6)C=C5)C=C4)cc2)C1
REMARK SMILES IDX 21 1 20 2 19 3 17 4 18 5 16 7 1 8 2 9 3 10 92 11 4 12 5 13
REMARK SMILES IDX 6 14 7 15 8 16 9 17 10 19 11 20 12 21 13 22 14 23 15 24
REMARK SMILES IDX 22 25 23 26 24 27 25 29 26 30 27 31 91 32 28 33 90 34 29 35
REMARK SMILES IDX 30 36 31 37 84 38 32 39 89 40 83 41 85 42 33 43 88 44 82 45
REMARK SMILES IDX 81 46 34 48 68 49 47 50 67 51 48 52 51 53 66 54 86 55 49 56
REMARK SMILES IDX 50 57 65 59 87 60 52 61 35 62 36 63 45 64 37 65 38 66 44 67
REMARK SMILES IDX 46 68 39 69 40 70 41 71 42 72 43 73 69 74 70 75 79 76 71 77
REMARK SMILES IDX 72 78 78 79 80 80 73 81 74 82 75 83 76 84 77 85 53 86 54 87
REMARK SMILES IDX 63 88 55 89 56 90 62 91 64 92 57 93 58 94 59 95 60 96 61 97
REMARK H PARENT 19 6 9 18 23 28 85 47 51 58
REMARK Flexibility Score: inf
ROOT
ATOM      1  C   UNL A   1      31.560  32.091  26.562  1.00  0.00     0.042 C 
ENDROOT
BRANCH   1   2
ATOM      2  C   UNL A   1      31.642  30.574  26.406  1.00  0.00     0.117 C 
BRANCH   2   3
ATOM      3  N   UNL A   1      32.589  30.151  25.385  1.00  0.00    -0.356 N 
ATOM      4  C   UNL A   1      32.961  28.850  25.218  1.00  0.00     0.224 C 
ATOM      5  O   UNL A   1      34.078  28.510  25.611  1.00  0.00    -0.275 OA
ATOM      6  H   UNL A   1      32.976  30.832  24.789  1.00  0.00     0.163 HD
BRANCH   4   7
ATOM      7  C   UNL A   1      32.114  27.915  24.358  1.00  0.00     0.095 C 
ATOM      8  C   UNL A   1      32.937  24.974  21.880  1.00  0.00     0.039 C 
ATOM      9  C   UNL A   1      32.146  25.761  22.897  1.00  0.00    -0.074 C 
ATOM     10  C   UNL A   1      30.975  25.350  23.431  1.00  0.00    -0.074 C 
ATOM     11  C   UNL A   1      32.834  27.050  23.320  1.00  0.00     0.045 C 
ATOM     12  C   UNL A   1      30.221  24.103  23.031  1.00  0.00     0.039 C 
ATOM     13  C   UNL A   1      30.287  26.124  24.532  1.00  0.00     0.045 C 
ATOM     14  C   UNL A   1      31.145  27.148  25.274  1.00  0.00     0.095 C 
BRANCH  14  15
ATOM     15  C   UNL A   1      31.637  26.693  26.664  1.00  0.00     0.224 C 
ATOM     16  O   UNL A   1      31.547  27.477  27.618  1.00  0.00    -0.275 OA
ATOM     17  N   UNL A   1      32.148  25.473  26.973  1.00  0.00    -0.353 N 
ATOM     18  H   UNL A   1      32.543  25.425  27.873  1.00  0.00     0.163 HD
BRANCH  17  19
ATOM     19  C   UNL A   1      32.222  24.224  26.227  1.00  0.00     0.084 C 
ATOM     20  C   UNL A   1      31.400  23.145  26.942  1.00  0.00     0.031 C 
BRANCH  19  21
ATOM     21  C   UNL A   1      33.691  23.760  25.914  1.00  0.00    -0.018 C 
ATOM     22  C   UNL A   1      34.255  23.019  27.146  1.00  0.00     0.013 C 
ATOM     23  C   UNL A   1      33.728  22.772  24.733  1.00  0.00     0.013 C 
ATOM     24  C   UNL A   1      34.630  24.931  25.563  1.00  0.00     0.013 C 
ENDBRANCH  19  21
ENDBRANCH  17  19
ENDBRANCH  14  15
ENDBRANCH   4   7
ENDBRANCH   2   3
ENDBRANCH   1   2
BRANCH   1  25
ATOM     25  C   UNL A   1      32.703  32.737  27.342  1.00  0.00     0.118 C 
BRANCH  25  26
ATOM     26  N   UNL A   1      32.453  34.124  27.710  1.00  0.00    -0.352 N 
ATOM     27  C   UNL A   1      33.070  34.924  28.647  1.00  0.00     0.251 C 
ATOM     28  H   UNL A   1      31.726  34.559  27.210  1.00  0.00     0.163 HD
ATOM     29  O   UNL A   1      32.618  36.046  28.858  1.00  0.00    -0.269 OA
BRANCH  27  30
ATOM     30  C   UNL A   1      34.237  34.440  29.426  1.00  0.00     0.039 A 
ATOM     31  C   UNL A   1      34.013  33.915  30.704  1.00  0.00     0.014 A 
ATOM     32  C   UNL A   1      35.542  34.510  28.933  1.00  0.00     0.014 A 
ATOM     33  C   UNL A   1      35.077  33.386  31.442  1.00  0.00     0.010 A 
ATOM     34  C   UNL A   1      36.591  33.911  29.637  1.00  0.00     0.010 A 
ATOM     35  C   UNL A   1      36.370  33.332  30.896  1.00  0.00    -0.014 A 
BRANCH  35  36
ATOM     36  C   UNL A   1      37.484  32.651  31.615  1.00  0.00     0.031 A 
ATOM     37  C   UNL A   1      37.981  33.177  32.937  1.00  0.00     0.074 A 
ATOM     38  C   UNL A   1      38.085  31.582  31.052  1.00  0.00     0.049 A 
ATOM     39  N   UNL A   1      38.983  32.756  33.669  1.00  0.00    -0.248 NA
ATOM     40  C   UNL A   1      37.273  34.336  33.505  1.00  0.00     0.031 C 
ATOM     41  C   UNL A   1      37.731  30.996  29.756  1.00  0.00     0.029 A 
ATOM     42  N   UNL A   1      39.131  30.802  31.488  1.00  0.00    -0.354 N 
ATOM     43  C   UNL A   1      39.023  33.591  34.779  1.00  0.00     0.074 A 
ATOM     44  C   UNL A   1      37.982  34.580  34.598  1.00  0.00     0.031 C 
ATOM     45  C   UNL A   1      38.530  29.945  29.511  1.00  0.00     0.029 A 
ATOM     46  C   UNL A   1      39.484  29.805  30.607  1.00  0.00     0.049 A 
ATOM     47  H   UNL A   1      39.583  30.943  32.351  1.00  0.00     0.167 HD
ATOM     48  C   UNL A   1      39.833  33.525  35.864  1.00  0.00     0.037 A 
ATOM     49  C   UNL A   1      40.475  28.893  30.662  1.00  0.00     0.037 A 
ATOM     50  C   UNL A   1      40.863  32.535  36.050  1.00  0.00     0.049 A 
ATOM     51  C   UNL A   1      41.384  28.865  31.864  1.00  0.00     0.074 A 
ATOM     52  C   UNL A   1      41.717  32.375  37.129  1.00  0.00     0.029 A 
ATOM     53  N   UNL A   1      41.178  31.534  35.142  1.00  0.00    -0.354 N 
ATOM     54  N   UNL A   1      41.371  29.633  32.928  1.00  0.00    -0.248 NA
ATOM     55  C   UNL A   1      42.438  27.841  31.879  1.00  0.00     0.031 C 
ATOM     56  C   UNL A   1      42.576  31.306  36.855  1.00  0.00     0.029 A 
ATOM     57  C   UNL A   1      42.223  30.764  35.631  1.00  0.00     0.049 A 
ATOM     58  H   UNL A   1      40.728  31.392  34.279  1.00  0.00     0.167 HD
ATOM     59  C   UNL A   1      42.389  29.162  33.750  1.00  0.00     0.074 A 
ATOM     60  C   UNL A   1      42.987  28.033  33.071  1.00  0.00     0.031 C 
ATOM     61  C   UNL A   1      42.796  29.627  34.957  1.00  0.00     0.037 A 
BRANCH  48  62
ATOM     62  C   UNL A   1      39.629  34.536  36.960  1.00  0.00     0.058 A 
ATOM     63  C   UNL A   1      38.853  34.237  38.092  1.00  0.00     0.135 A 
ATOM     64  C   UNL A   1      40.281  35.780  36.925  1.00  0.00     0.135 A 
ATOM     65  F   UNL A   1      38.194  33.071  38.171  1.00  0.00    -0.206 F 
ATOM     66  C   UNL A   1      38.723  35.137  39.144  1.00  0.00     0.059 A 
ATOM     67  C   UNL A   1      40.188  36.684  37.980  1.00  0.00     0.059 A 
ATOM     68  F   UNL A   1      41.035  36.117  35.868  1.00  0.00    -0.206 F 
ATOM     69  C   UNL A   1      39.403  36.356  39.083  1.00  0.00     0.060 A 
BRANCH  69  70
ATOM     70  S   UNL A   1      39.258  37.488  40.481  1.00  0.00     0.124 S 
ATOM     71  O   UNL A   1      38.249  38.425  39.996  1.00  0.00    -0.237 OA
ATOM     72  O   UNL A   1      38.832  36.600  41.558  1.00  0.00    -0.237 OA
ATOM     73  O   UNL A   1      40.605  38.035  40.618  1.00  0.00    -0.744 OA
ENDBRANCH  69  70
ENDBRANCH  48  62
BRANCH  49  74
ATOM     74  C   UNL A   1      40.680  27.929  29.544  1.00  0.00     0.058 A 
ATOM     75  C   UNL A   1      39.866  26.796  29.402  1.00  0.00     0.135 A 
ATOM     76  C   UNL A   1      41.724  28.100  28.620  1.00  0.00     0.135 A 
ATOM     77  F   UNL A   1      38.856  26.584  30.260  1.00  0.00    -0.206 F 
ATOM     78  C   UNL A   1      40.104  25.843  28.416  1.00  0.00     0.059 A 
ATOM     79  C   UNL A   1      41.962  27.179  27.605  1.00  0.00     0.059 A 
ATOM     80  F   UNL A   1      42.522  29.176  28.697  1.00  0.00    -0.206 F 
ATOM     81  C   UNL A   1      41.161  26.041  27.526  1.00  0.00     0.060 A 
BRANCH  81  82
ATOM     82  S   UNL A   1      41.468  24.798  26.252  1.00  0.00     0.124 S 
ATOM     83  O   UNL A   1      42.767  24.275  26.659  1.00  0.00    -0.237 OA
ATOM     84  O   UNL A   1      40.333  23.896  26.423  1.00  0.00    -0.237 OA
ATOM     85  O   UNL A   1      41.458  25.576  25.017  1.00  0.00    -0.744 OA
ENDBRANCH  81  82
ENDBRANCH  49  74
BRANCH  61  86
ATOM     86  C   UNL A   1      43.907  28.883  35.651  1.00  0.00     0.058 A 
ATOM     87  C   UNL A   1      45.257  29.218  35.460  1.00  0.00     0.135 A 
ATOM     88  C   UNL A   1      43.612  27.847  36.551  1.00  0.00     0.135 A 
ATOM     89  F   UNL A   1      45.595  30.197  34.606  1.00  0.00    -0.206 F 
ATOM     90  C   UNL A   1      46.275  28.533  36.115  1.00  0.00     0.059 A 
ATOM     91  C   UNL A   1      44.612  27.170  37.242  1.00  0.00     0.059 A 
ATOM     92  F   UNL A   1      42.337  27.492  36.780  1.00  0.00    -0.206 F 
ATOM     93  C   UNL A   1      45.943  27.511  37.006  1.00  0.00     0.060 A 
BRANCH  93  94
ATOM     94  S   UNL A   1      47.274  26.649  37.869  1.00  0.00     0.124 S 
ATOM     95  O   UNL A   1      47.019  27.025  39.255  1.00  0.00    -0.237 OA
ATOM     96  O   UNL A   1      47.011  25.253  37.531  1.00  0.00    -0.237 OA
ATOM     97  O   UNL A   1      48.484  27.213  37.278  1.00  0.00    -0.744 OA
ENDBRANCH  93  94
ENDBRANCH  61  86
ENDBRANCH  35  36
ENDBRANCH  27  30
ENDBRANCH  25  26
ENDBRANCH   1  25
TORSDOF 16
ENDMDL
MODEL 2
REMARK VINA RESULT:     -11.4      4.559      5.939
REMARK SMILES CC1=C(C)C[C@@H](C(=O)N[C@H](C)C(C)(C)C)[C@@H](C(=O)NCCCNC(=O)c2ccc(-c3c4nc(c(-c5c(F)cc(S(=O)(=O)[O-])cc5F)c5ccc([nH]5)c(-c5c(F)cc(S(=O)(=O)[O-])cc5F)c5nc(c(-c6c(F)cc(S(=O)(=O)[O-])cc6F)c6ccc3[nH]6)C=C5)C=C4)cc2)C1
REMARK SMILES IDX 21 1 20 2 19 3 17 4 18 5 16 7 1 8 2 9 3 10 92 11 4 12 5 13
REMARK SMILES IDX 6 14 7 15 8 16 9 17 10 19 11 20 12 21 13 22 14 23 15 24
REMARK SMILES IDX 22 25 23 26 24 27 25 29 26 30 27 31 91 32 28 33 90 34 29 35
REMARK SMILES IDX 30 36 31 37 84 38 32 39 89 40 83 41 85 42 33 43 88 44 82 45
REMARK SMILES IDX 81 46 34 48 68 49 47 50 67 51 48 52 51 53 66 54 86 55 49 56
REMARK SMILES IDX 50 57 65 59 87 60 52 61 35 62 36 63 45 64 37 65 38 66 44 67
REMARK SMILES IDX 46 68 39 69 40 70 41 71 42 72 43 73 69 74 70 75 79 76 71 77
REMARK SMILES IDX 72 78 78 79 80 80 73 81 74 82 75 83 76 84 77 85 53 86 54 87
REMARK SMILES IDX 63 88 55 89 56 90 62 91 64 92 57 93 58 94 59 95 60 96 61 97
REMARK H PARENT 19 6 9 18 23 28 85 47 51 58
REMARK Flexibility Score: inf
ROOT
ATOM      1  C   UNL A   1      33.238  27.753  26.887  1.00  0.00     0.042 C 
ENDROOT
BRANCH   1   2
ATOM      2  C   UNL A   1      31.815  27.480  26.405  1.00  0.00     0.117 C 
BRANCH   2   3
ATOM      3  N   UNL A   1      31.316  26.170  26.796  1.00  0.00    -0.356 N 
ATOM      4  C   UNL A   1      30.267  25.563  26.171  1.00  0.00     0.224 C 
ATOM      5  O   UNL A   1      29.180  25.540  26.749  1.00  0.00    -0.275 OA
ATOM      6  H   UNL A   1      31.754  25.702  27.544  1.00  0.00     0.163 HD
BRANCH   4   7
ATOM      7  C   UNL A   1      30.502  24.735  24.909  1.00  0.00     0.095 C 
ATOM      8  C   UNL A   1      32.785  25.164  21.737  1.00  0.00     0.039 C 
ATOM      9  C   UNL A   1      32.019  24.438  22.816  1.00  0.00    -0.074 C 
ATOM     10  C   UNL A   1      32.011  23.095  22.968  1.00  0.00    -0.074 C 
ATOM     11  C   UNL A   1      31.299  25.377  23.771  1.00  0.00     0.045 C 
ATOM     12  C   UNL A   1      32.673  22.106  22.038  1.00  0.00     0.039 C 
ATOM     13  C   UNL A   1      31.322  22.431  24.138  1.00  0.00     0.045 C 
ATOM     14  C   UNL A   1      30.985  23.335  25.324  1.00  0.00     0.095 C 
BRANCH  14  15
ATOM     15  C   UNL A   1      31.940  23.202  26.528  1.00  0.00     0.224 C 
ATOM     16  O   UNL A   1      31.478  23.299  27.673  1.00  0.00    -0.275 OA
ATOM     17  N   UNL A   1      33.274  22.954  26.470  1.00  0.00    -0.353 N 
ATOM     18  H   UNL A   1      33.735  23.055  27.334  1.00  0.00     0.163 HD
BRANCH  17  19
ATOM     19  C   UNL A   1      34.152  22.566  25.374  1.00  0.00     0.084 C 
ATOM     20  C   UNL A   1      34.714  21.164  25.633  1.00  0.00     0.031 C 
BRANCH  19  21
ATOM     21  C   UNL A   1      35.273  23.622  25.058  1.00  0.00    -0.018 C 
ATOM     22  C   UNL A   1      35.806  23.373  23.629  1.00  0.00     0.013 C 
ATOM     23  C   UNL A   1      34.717  25.058  25.092  1.00  0.00     0.013 C 
ATOM     24  C   UNL A   1      36.452  23.562  26.048  1.00  0.00     0.013 C 
ENDBRANCH  19  21
ENDBRANCH  17  19
ENDBRANCH  14  15
ENDBRANCH   4   7
ENDBRANCH   2   3
ENDBRANCH   1   2
BRANCH   1  25
ATOM     25  C   UNL A   1      33.906  28.996  26.303  1.00  0.00     0.118 C 
BRANCH  25  26
ATOM     26  N   UNL A   1      33.725  30.194  27.112  1.00  0.00    -0.352 N 
ATOM     27  C   UNL A   1      34.559  30.777  28.041  1.00  0.00     0.251 C 
ATOM     28  H   UNL A   1      32.872  30.662  26.972  1.00  0.00     0.163 HD
ATOM     29  O   UNL A   1      34.150  31.740  28.682  1.00  0.00    -0.269 OA
BRANCH  27  30
ATOM     30  C   UNL A   1      35.917  30.237  28.306  1.00  0.00     0.039 A 
ATOM     31  C   UNL A   1      36.850  30.243  27.264  1.00  0.00     0.014 A 
ATOM     32  C   UNL A   1      36.279  29.711  29.548  1.00  0.00     0.014 A 
ATOM     33  C   UNL A   1      38.160  29.807  27.492  1.00  0.00     0.010 A 
ATOM     34  C   UNL A   1      37.605  29.349  29.797  1.00  0.00     0.010 A 
ATOM     35  C   UNL A   1      38.566  29.402  28.775  1.00  0.00    -0.014 A 
BRANCH  35  36
ATOM     36  C   UNL A   1      39.989  29.062  29.064  1.00  0.00     0.031 A 
ATOM     37  C   UNL A   1      40.927  30.098  29.628  1.00  0.00     0.074 A 
ATOM     38  C   UNL A   1      40.451  27.829  28.772  1.00  0.00     0.049 A 
ATOM     39  N   UNL A   1      42.210  30.001  29.875  1.00  0.00    -0.248 NA
ATOM     40  C   UNL A   1      40.357  31.419  29.939  1.00  0.00     0.031 C 
ATOM     41  C   UNL A   1      39.660  26.745  28.183  1.00  0.00     0.029 A 
ATOM     42  N   UNL A   1      41.703  27.277  28.916  1.00  0.00    -0.354 N 
ATOM     43  C   UNL A   1      42.598  31.240  30.372  1.00  0.00     0.074 A 
ATOM     44  C   UNL A   1      41.428  32.091  30.338  1.00  0.00     0.031 C 
ATOM     45  C   UNL A   1      40.436  25.660  28.033  1.00  0.00     0.029 A 
ATOM     46  C   UNL A   1      41.792  25.978  28.470  1.00  0.00     0.049 A 
ATOM     47  H   UNL A   1      42.464  27.767  29.304  1.00  0.00     0.167 HD
ATOM     48  C   UNL A   1      43.809  31.627  30.842  1.00  0.00     0.037 A 
ATOM     49  C   UNL A   1      42.847  25.142  28.401  1.00  0.00     0.037 A 
ATOM     50  C   UNL A   1      44.972  30.777  30.886  1.00  0.00     0.049 A 
ATOM     51  C   UNL A   1      44.191  25.611  28.896  1.00  0.00     0.074 A 
ATOM     52  C   UNL A   1      46.237  31.075  31.367  1.00  0.00     0.029 A 
ATOM     53  N   UNL A   1      45.017  29.464  30.439  1.00  0.00    -0.354 N 
ATOM     54  N   UNL A   1      44.523  26.771  29.411  1.00  0.00    -0.248 NA
ATOM     55  C   UNL A   1      45.304  24.654  28.811  1.00  0.00     0.031 C 
ATOM     56  C   UNL A   1      47.056  29.959  31.172  1.00  0.00     0.029 A 
ATOM     57  C   UNL A   1      46.289  28.945  30.621  1.00  0.00     0.049 A 
ATOM     58  H   UNL A   1      44.257  28.974  30.051  1.00  0.00     0.167 HD
ATOM     59  C   UNL A   1      45.871  26.669  29.741  1.00  0.00     0.074 A 
ATOM     60  C   UNL A   1      46.289  25.330  29.385  1.00  0.00     0.031 C 
ATOM     61  C   UNL A   1      46.690  27.603  30.285  1.00  0.00     0.037 A 
BRANCH  48  62
ATOM     62  C   UNL A   1      43.945  33.027  31.375  1.00  0.00     0.058 A 
ATOM     63  C   UNL A   1      44.251  34.103  30.526  1.00  0.00     0.135 A 
ATOM     64  C   UNL A   1      43.684  33.314  32.726  1.00  0.00     0.135 A 
ATOM     65  F   UNL A   1      44.525  33.886  29.231  1.00  0.00    -0.206 F 
ATOM     66  C   UNL A   1      44.302  35.411  30.998  1.00  0.00     0.059 A 
ATOM     67  C   UNL A   1      43.702  34.618  33.213  1.00  0.00     0.059 A 
ATOM     68  F   UNL A   1      43.387  32.324  33.581  1.00  0.00    -0.206 F 
ATOM     69  C   UNL A   1      44.016  35.660  32.342  1.00  0.00     0.060 A 
BRANCH  69  70
ATOM     70  S   UNL A   1      44.042  37.369  32.921  1.00  0.00     0.124 S 
ATOM     71  O   UNL A   1      43.838  38.104  31.676  1.00  0.00    -0.237 OA
ATOM     72  O   UNL A   1      42.926  37.395  33.861  1.00  0.00    -0.237 OA
ATOM     73  O   UNL A   1      45.366  37.507  33.519  1.00  0.00    -0.744 OA
ENDBRANCH  69  70
ENDBRANCH  48  62
BRANCH  49  74
ATOM     74  C   UNL A   1      42.693  23.774  27.830  1.00  0.00     0.058 A 
ATOM     75  C   UNL A   1      42.694  23.561  26.443  1.00  0.00     0.135 A 
ATOM     76  C   UNL A   1      42.496  22.658  28.659  1.00  0.00     0.135 A 
ATOM     77  F   UNL A   1      42.875  24.594  25.606  1.00  0.00    -0.206 F 
ATOM     78  C   UNL A   1      42.460  22.303  25.898  1.00  0.00     0.059 A 
ATOM     79  C   UNL A   1      42.294  21.385  28.138  1.00  0.00     0.059 A 
ATOM     80  F   UNL A   1      42.504  22.802  29.994  1.00  0.00    -0.206 F 
ATOM     81  C   UNL A   1      42.254  21.221  26.755  1.00  0.00     0.060 A 
BRANCH  81  82
ATOM     82  S   UNL A   1      41.947  19.591  26.040  1.00  0.00     0.124 S 
ATOM     83  O   UNL A   1      42.364  18.711  27.125  1.00  0.00    -0.237 OA
ATOM     84  O   UNL A   1      40.513  19.639  25.771  1.00  0.00    -0.237 OA
ATOM     85  O   UNL A   1      42.798  19.581  24.854  1.00  0.00    -0.744 OA
ENDBRANCH  81  82
ENDBRANCH  49  74
BRANCH  61  86
ATOM     86  C   UNL A   1      48.109  27.196  30.581  1.00  0.00     0.058 A 
ATOM     87  C   UNL A   1      49.173  27.539  29.731  1.00  0.00     0.135 A 
ATOM     88  C   UNL A   1      48.413  26.488  31.755  1.00  0.00     0.135 A 
ATOM     89  F   UNL A   1      48.938  28.210  28.593  1.00  0.00    -0.206 F 
ATOM     90  C   UNL A   1      50.483  27.168  30.021  1.00  0.00     0.059 A 
ATOM     91  C   UNL A   1      49.719  26.136  32.081  1.00  0.00     0.059 A 
ATOM     92  F   UNL A   1      47.436  26.144  32.610  1.00  0.00    -0.206 F 
ATOM     93  C   UNL A   1      50.747  26.468  31.199  1.00  0.00     0.060 A 
BRANCH  93  94
ATOM     94  S   UNL A   1      52.454  26.018  31.574  1.00  0.00     0.124 S 
ATOM     95  O   UNL A   1      53.052  25.994  30.244  1.00  0.00    -0.237 OA
ATOM     96  O   UNL A   1      52.881  27.112  32.442  1.00  0.00    -0.237 OA
ATOM     97  O   UNL A   1      52.327  24.719  32.229  1.00  0.00    -0.744 OA
ENDBRANCH  93  94
ENDBRANCH  61  86
ENDBRANCH  35  36
ENDBRANCH  27  30
ENDBRANCH  25  26
ENDBRANCH   1  25
TORSDOF 16
ENDMDL
MODEL 3
REMARK VINA RESULT:     -11.4      6.290      8.547
REMARK SMILES CC1=C(C)C[C@@H](C(=O)N[C@H](C)C(C)(C)C)[C@@H](C(=O)NCCCNC(=O)c2ccc(-c3c4nc(c(-c5c(F)cc(S(=O)(=O)[O-])cc5F)c5ccc([nH]5)c(-c5c(F)cc(S(=O)(=O)[O-])cc5F)c5nc(c(-c6c(F)cc(S(=O)(=O)[O-])cc6F)c6ccc3[nH]6)C=C5)C=C4)cc2)C1
REMARK SMILES IDX 21 1 20 2 19 3 17 4 18 5 16 7 1 8 2 9 3 10 92 11 4 12 5 13
REMARK SMILES IDX 6 14 7 15 8 16 9 17 10 19 11 20 12 21 13 22 14 23 15 24
REMARK SMILES IDX 22 25 23 26 24 27 25 29 26 30 27 31 91 32 28 33 90 34 29 35
REMARK SMILES IDX 30 36 31 37 84 38 32 39 89 40 83 41 85 42 33 43 88 44 82 45
REMARK SMILES IDX 81 46 34 48 68 49 47 50 67 51 48 52 51 53 66 54 86 55 49 56
REMARK SMILES IDX 50 57 65 59 87 60 52 61 35 62 36 63 45 64 37 65 38 66 44 67
REMARK SMILES IDX 46 68 39 69 40 70 41 71 42 72 43 73 69 74 70 75 79 76 71 77
REMARK SMILES IDX 72 78 78 79 80 80 73 81 74 82 75 83 76 84 77 85 53 86 54 87
REMARK SMILES IDX 63 88 55 89 56 90 62 91 64 92 57 93 58 94 59 95 60 96 61 97
REMARK H PARENT 19 6 9 18 23 28 85 47 51 58
REMARK Flexibility Score: inf
ROOT
ATOM      1  C   UNL A   1      34.099  29.315  27.369  1.00  0.00     0.042 C 
ENDROOT
BRANCH   1   2
ATOM      2  C   UNL A   1      33.188  29.633  26.186  1.00  0.00     0.117 C 
BRANCH   2   3
ATOM      3  N   UNL A   1      31.894  28.972  26.263  1.00  0.00    -0.356 N 
ATOM      4  C   UNL A   1      31.640  27.775  25.663  1.00  0.00     0.224 C 
ATOM      5  O   UNL A   1      30.963  27.772  24.634  1.00  0.00    -0.275 OA
ATOM      6  H   UNL A   1      31.171  29.409  26.769  1.00  0.00     0.163 HD
BRANCH   4   7
ATOM      7  C   UNL A   1      31.981  26.471  26.381  1.00  0.00     0.095 C 
ATOM      8  C   UNL A   1      30.292  22.926  26.576  1.00  0.00     0.039 C 
ATOM      9  C   UNL A   1      31.411  23.939  26.574  1.00  0.00    -0.074 C 
ATOM     10  C   UNL A   1      32.722  23.623  26.652  1.00  0.00    -0.074 C 
ATOM     11  C   UNL A   1      30.919  25.369  26.407  1.00  0.00     0.045 C 
ATOM     12  C   UNL A   1      33.275  22.231  26.854  1.00  0.00     0.039 C 
ATOM     13  C   UNL A   1      33.803  24.672  26.526  1.00  0.00     0.045 C 
ATOM     14  C   UNL A   1      33.376  26.010  25.925  1.00  0.00     0.095 C 
BRANCH  14  15
ATOM     15  C   UNL A   1      33.783  26.215  24.451  1.00  0.00     0.224 C 
ATOM     16  O   UNL A   1      34.074  27.354  24.061  1.00  0.00    -0.275 OA
ATOM     17  N   UNL A   1      33.890  25.244  23.506  1.00  0.00    -0.353 N 
ATOM     18  H   UNL A   1      34.014  25.590  22.593  1.00  0.00     0.163 HD
BRANCH  17  19
ATOM     19  C   UNL A   1      33.856  23.790  23.588  1.00  0.00     0.084 C 
ATOM     20  C   UNL A   1      35.228  23.219  23.213  1.00  0.00     0.031 C 
BRANCH  19  21
ATOM     21  C   UNL A   1      32.682  23.138  22.770  1.00  0.00    -0.018 C 
ATOM     22  C   UNL A   1      31.404  23.983  22.970  1.00  0.00     0.013 C 
ATOM     23  C   UNL A   1      32.988  23.128  21.261  1.00  0.00     0.013 C 
ATOM     24  C   UNL A   1      32.391  21.684  23.190  1.00  0.00     0.013 C 
ENDBRANCH  19  21
ENDBRANCH  17  19
ENDBRANCH  14  15
ENDBRANCH   4   7
ENDBRANCH   2   3
ENDBRANCH   1   2
BRANCH   1  25
ATOM     25  C   UNL A   1      35.180  30.353  27.668  1.00  0.00     0.118 C 
BRANCH  25  26
ATOM     26  N   UNL A   1      35.219  30.776  29.061  1.00  0.00    -0.352 N 
ATOM     27  C   UNL A   1      36.213  30.645  30.006  1.00  0.00     0.251 C 
ATOM     28  H   UNL A   1      34.404  31.227  29.379  1.00  0.00     0.163 HD
ATOM     29  O   UNL A   1      35.982  30.991  31.161  1.00  0.00    -0.269 OA
BRANCH  27  30
ATOM     30  C   UNL A   1      37.533  30.059  29.661  1.00  0.00     0.039 A 
ATOM     31  C   UNL A   1      37.911  30.016  28.315  1.00  0.00     0.014 A 
ATOM     32  C   UNL A   1      38.392  29.537  30.631  1.00  0.00     0.014 A 
ATOM     33  C   UNL A   1      39.174  29.535  27.955  1.00  0.00     0.010 A 
ATOM     34  C   UNL A   1      39.681  29.130  30.281  1.00  0.00     0.010 A 
ATOM     35  C   UNL A   1      40.094  29.133  28.939  1.00  0.00    -0.014 A 
BRANCH  35  36
ATOM     36  C   UNL A   1      41.488  28.746  28.581  1.00  0.00     0.031 A 
ATOM     37  C   UNL A   1      42.582  29.780  28.519  1.00  0.00     0.074 A 
ATOM     38  C   UNL A   1      41.761  27.464  28.262  1.00  0.00     0.049 A 
ATOM     39  N   UNL A   1      43.834  29.637  28.159  1.00  0.00    -0.248 NA
ATOM     40  C   UNL A   1      42.223  31.158  28.893  1.00  0.00     0.031 C 
ATOM     41  C   UNL A   1      40.786  26.369  28.241  1.00  0.00     0.029 A 
ATOM     42  N   UNL A   1      42.937  26.859  27.882  1.00  0.00    -0.354 N 
ATOM     43  C   UNL A   1      44.409  30.898  28.267  1.00  0.00     0.074 A 
ATOM     44  C   UNL A   1      43.357  31.806  28.670  1.00  0.00     0.031 C 
ATOM     45  C   UNL A   1      41.404  25.232  27.884  1.00  0.00     0.029 A 
ATOM     46  C   UNL A   1      42.808  25.517  27.607  1.00  0.00     0.049 A 
ATOM     47  H   UNL A   1      43.792  27.343  27.814  1.00  0.00     0.167 HD
ATOM     48  C   UNL A   1      45.700  31.263  28.077  1.00  0.00     0.037 A 
ATOM     49  C   UNL A   1      43.711  24.619  27.164  1.00  0.00     0.037 A 
ATOM     50  C   UNL A   1      46.751  30.357  27.685  1.00  0.00     0.049 A 
ATOM     51  C   UNL A   1      45.132  25.060  26.925  1.00  0.00     0.074 A 
ATOM     52  C   UNL A   1      48.095  30.631  27.491  1.00  0.00     0.029 A 
ATOM     53  N   UNL A   1      46.582  29.003  27.432  1.00  0.00    -0.354 N 
ATOM     54  N   UNL A   1      45.666  26.248  27.084  1.00  0.00    -0.248 NA
ATOM     55  C   UNL A   1      46.077  24.037  26.456  1.00  0.00     0.031 C 
ATOM     56  C   UNL A   1      48.729  29.456  27.080  1.00  0.00     0.029 A 
ATOM     57  C   UNL A   1      47.794  28.435  27.071  1.00  0.00     0.049 A 
ATOM     58  H   UNL A   1      45.728  28.519  27.499  1.00  0.00     0.167 HD
ATOM     59  C   UNL A   1      47.013  26.105  26.767  1.00  0.00     0.074 A 
ATOM     60  C   UNL A   1      47.217  24.714  26.426  1.00  0.00     0.031 C 
ATOM     61  C   UNL A   1      47.992  27.043  26.755  1.00  0.00     0.037 A 
BRANCH  48  62
ATOM     62  C   UNL A   1      46.070  32.702  28.312  1.00  0.00     0.058 A 
ATOM     63  C   UNL A   1      46.001  33.650  27.278  1.00  0.00     0.135 A 
ATOM     64  C   UNL A   1      46.410  33.159  29.596  1.00  0.00     0.135 A 
ATOM     65  F   UNL A   1      45.698  33.267  26.029  1.00  0.00    -0.206 F 
ATOM     66  C   UNL A   1      46.266  34.997  27.506  1.00  0.00     0.059 A 
ATOM     67  C   UNL A   1      46.650  34.507  29.853  1.00  0.00     0.059 A 
ATOM     68  F   UNL A   1      46.489  32.297  30.621  1.00  0.00    -0.206 F 
ATOM     69  C   UNL A   1      46.581  35.417  28.800  1.00  0.00     0.060 A 
BRANCH  69  70
ATOM     70  S   UNL A   1      46.874  37.176  29.081  1.00  0.00     0.124 S 
ATOM     71  O   UNL A   1      45.518  37.713  29.014  1.00  0.00    -0.237 OA
ATOM     72  O   UNL A   1      47.491  37.180  30.404  1.00  0.00    -0.237 OA
ATOM     73  O   UNL A   1      47.754  37.556  27.980  1.00  0.00    -0.744 OA
ENDBRANCH  69  70
ENDBRANCH  48  62
BRANCH  49  74
ATOM     74  C   UNL A   1      43.308  23.209  26.900  1.00  0.00     0.058 A 
ATOM     75  C   UNL A   1      43.055  22.315  27.952  1.00  0.00     0.135 A 
ATOM     76  C   UNL A   1      43.211  22.713  25.590  1.00  0.00     0.135 A 
ATOM     77  F   UNL A   1      43.138  22.736  29.224  1.00  0.00    -0.206 F 
ATOM     78  C   UNL A   1      42.768  20.974  27.719  1.00  0.00     0.059 A 
ATOM     79  C   UNL A   1      42.891  21.385  25.330  1.00  0.00     0.059 A 
ATOM     80  F   UNL A   1      43.423  23.528  24.544  1.00  0.00    -0.206 F 
ATOM     81  C   UNL A   1      42.694  20.517  26.402  1.00  0.00     0.060 A 
BRANCH  81  82
ATOM     82  S   UNL A   1      42.324  18.774  26.107  1.00  0.00     0.124 S 
ATOM     83  O   UNL A   1      40.916  18.832  25.735  1.00  0.00    -0.237 OA
ATOM     84  O   UNL A   1      43.256  18.440  25.034  1.00  0.00    -0.237 OA
ATOM     85  O   UNL A   1      42.613  18.148  27.394  1.00  0.00    -0.744 OA
ENDBRANCH  81  82
ENDBRANCH  49  74
BRANCH  61  86
ATOM     86  C   UNL A   1      49.386  26.589  26.414  1.00  0.00     0.058 A 
ATOM     87  C   UNL A   1      50.218  25.971  27.361  1.00  0.00     0.135 A 
ATOM     88  C   UNL A   1      49.881  26.739  25.108  1.00  0.00     0.135 A 
ATOM     89  F   UNL A   1      49.798  25.808  28.625  1.00  0.00    -0.206 F 
ATOM     90  C   UNL A   1      51.502  25.544  27.032  1.00  0.00     0.059 A 
ATOM     91  C   UNL A   1      51.148  26.291  24.749  1.00  0.00     0.059 A 
ATOM     92  F   UNL A   1      49.124  27.314  24.159  1.00  0.00    -0.206 F 
ATOM     93  C   UNL A   1      51.958  25.707  25.723  1.00  0.00     0.060 A 
BRANCH  93  94
ATOM     94  S   UNL A   1      53.614  25.124  25.306  1.00  0.00     0.124 S 
ATOM     95  O   UNL A   1      53.794  25.678  23.969  1.00  0.00    -0.237 OA
ATOM     96  O   UNL A   1      54.430  25.724  26.357  1.00  0.00    -0.237 OA
ATOM     97  O   UNL A   1      53.490  23.670  25.370  1.00  0.00    -0.744 OA
ENDBRANCH  93  94
ENDBRANCH  61  86
ENDBRANCH  35  36
ENDBRANCH  27  30
ENDBRANCH  25  26
ENDBRANCH   1  25
TORSDOF 16
ENDMDL
