MODEL 1
REMARK VINA RESULT:     -12.1      0.000      0.000
REMARK SMILES CCOc1ccc(-c2cnc(N)cc2C(=O)NCCCNC(=O)c2ccc(-c3c4nc(c(-c5c(F)cc(S(=O)(=O)[O-])cc5F)c5ccc([nH]5)c(-c5c(F)cc(S(=O)(=O)[O-])cc5F)c5nc(c(-c6c(F)cc(S(=O)(=O)[O-])cc6F)c6ccc3[nH]6)C=C5)C=C4)cc2)c(Cl)c1
REMARK SMILES IDX 19 1 18 2 17 3 15 4 16 5 14 7 8 8 9 9 10 10 13 11 11 12 7 13
REMARK SMILES IDX 4 14 5 15 92 16 6 17 90 18 91 19 3 20 2 21 1 22 12 23 20 26
REMARK SMILES IDX 21 27 22 28 23 30 24 31 25 32 89 33 26 34 88 35 27 36 28 37
REMARK SMILES IDX 29 38 82 39 30 40 87 41 81 42 83 43 31 44 86 45 80 46 79 47
REMARK SMILES IDX 32 49 66 50 45 51 65 52 46 53 49 54 64 55 84 56 47 57 48 58
REMARK SMILES IDX 63 60 85 61 50 62 33 63 34 64 43 65 35 66 36 67 42 68 44 69
REMARK SMILES IDX 37 70 38 71 39 72 40 73 41 74 67 75 68 76 77 77 69 78 70 79
REMARK SMILES IDX 76 80 78 81 71 82 72 83 73 84 74 85 75 86 51 87 52 88 61 89
REMARK SMILES IDX 53 90 54 91 60 92 62 93 55 94 56 95 57 96 58 97 59 98
REMARK H PARENT 17 6 12 24 12 25 21 29 83 48 49 59
REMARK Flexibility Score: inf
ROOT
ATOM      1  C   UNL A   1      34.453  30.981  27.456  1.00  0.00     0.042 C 
ENDROOT
BRANCH   1   2
ATOM      2  C   UNL A   1      34.466  29.472  27.213  1.00  0.00     0.118 C 
BRANCH   2   3
ATOM      3  N   UNL A   1      33.281  28.828  27.746  1.00  0.00    -0.352 N 
ATOM      4  C   UNL A   1      32.143  28.271  27.222  1.00  0.00     0.252 C 
ATOM      5  O   UNL A   1      31.436  27.710  28.061  1.00  0.00    -0.269 OA
ATOM      6  H   UNL A   1      33.298  28.779  28.730  1.00  0.00     0.163 HD
BRANCH   4   7
ATOM      7  C   UNL A   1      31.766  28.255  25.764  1.00  0.00     0.052 A 
ATOM      8  C   UNL A   1      32.174  27.190  24.928  1.00  0.00     0.014 A 
ATOM      9  C   UNL A   1      31.898  27.326  23.562  1.00  0.00     0.123 A 
ATOM     10  N   UNL A   1      31.285  28.382  22.987  1.00  0.00    -0.239 NA
ATOM     11  C   UNL A   1      31.027  29.289  25.179  1.00  0.00     0.061 A 
ATOM     12  C   UNL A   1      30.856  29.344  23.804  1.00  0.00     0.124 A 
BRANCH   8  13
ATOM     13  C   UNL A   1      32.858  25.955  25.355  1.00  0.00     0.003 A 
ATOM     14  C   UNL A   1      34.254  23.610  26.063  1.00  0.00     0.120 A 
ATOM     15  C   UNL A   1      34.922  24.655  25.433  1.00  0.00     0.047 A 
ATOM     16  C   UNL A   1      32.886  23.698  26.301  1.00  0.00     0.067 A 
ATOM     17  C   UNL A   1      34.237  25.823  25.103  1.00  0.00     0.014 A 
ATOM     18  C   UNL A   1      32.189  24.857  25.939  1.00  0.00     0.052 A 
ATOM     19  Cl  UNL A   1      30.473  24.862  26.183  1.00  0.00    -0.084 Cl
BRANCH  14  20
ATOM     20  O   UNL A   1      34.887  22.432  26.348  1.00  0.00    -0.494 OA
BRANCH  20  21
ATOM     21  C   UNL A   1      36.194  22.342  25.766  1.00  0.00     0.226 C 
ATOM     22  C   UNL A   1      36.513  20.914  25.353  1.00  0.00     0.049 C 
ENDBRANCH  20  21
ENDBRANCH  14  20
ENDBRANCH   8  13
BRANCH  12  23
ATOM     23  N   UNL A   1      30.183  30.394  23.217  1.00  0.00    -0.384 N 
ATOM     24  H   UNL A   1      29.965  31.197  23.744  1.00  0.00     0.158 HD
ATOM     25  H   UNL A   1      29.920  30.342  22.269  1.00  0.00     0.158 HD
ENDBRANCH  12  23
ENDBRANCH   4   7
ENDBRANCH   2   3
ENDBRANCH   1   2
BRANCH   1  26
ATOM     26  C   UNL A   1      35.674  31.491  28.225  1.00  0.00     0.118 C 
BRANCH  26  27
ATOM     27  N   UNL A   1      35.594  31.174  29.644  1.00  0.00    -0.352 N 
ATOM     28  C   UNL A   1      36.432  30.448  30.449  1.00  0.00     0.251 C 
ATOM     29  H   UNL A   1      34.804  31.542  30.103  1.00  0.00     0.163 HD
ATOM     30  O   UNL A   1      36.021  30.082  31.548  1.00  0.00    -0.269 OA
BRANCH  28  31
ATOM     31  C   UNL A   1      37.812  30.113  30.029  1.00  0.00     0.039 A 
ATOM     32  C   UNL A   1      38.075  29.960  28.664  1.00  0.00     0.014 A 
ATOM     33  C   UNL A   1      38.820  29.848  30.963  1.00  0.00     0.014 A 
ATOM     34  C   UNL A   1      39.346  29.571  28.235  1.00  0.00     0.010 A 
ATOM     35  C   UNL A   1      40.106  29.522  30.531  1.00  0.00     0.010 A 
ATOM     36  C   UNL A   1      40.376  29.361  29.165  1.00  0.00    -0.014 A 
BRANCH  36  37
ATOM     37  C   UNL A   1      41.733  28.954  28.714  1.00  0.00     0.031 A 
ATOM     38  C   UNL A   1      42.846  29.964  28.635  1.00  0.00     0.074 A 
ATOM     39  C   UNL A   1      41.948  27.680  28.333  1.00  0.00     0.049 A 
ATOM     40  N   UNL A   1      44.086  29.798  28.253  1.00  0.00    -0.248 NA
ATOM     41  C   UNL A   1      42.516  31.348  29.011  1.00  0.00     0.031 C 
ATOM     42  C   UNL A   1      40.933  26.626  28.302  1.00  0.00     0.029 A 
ATOM     43  N   UNL A   1      43.088  27.058  27.891  1.00  0.00    -0.354 N 
ATOM     44  C   UNL A   1      44.678  31.055  28.320  1.00  0.00     0.074 A 
ATOM     45  C   UNL A   1      43.648  31.981  28.739  1.00  0.00     0.031 C 
ATOM     46  C   UNL A   1      41.500  25.483  27.882  1.00  0.00     0.029 A 
ATOM     47  C   UNL A   1      42.909  25.728  27.592  1.00  0.00     0.049 A 
ATOM     48  H   UNL A   1      43.952  27.521  27.797  1.00  0.00     0.167 HD
ATOM     49  C   UNL A   1      45.965  31.401  28.075  1.00  0.00     0.037 A 
ATOM     50  C   UNL A   1      43.783  24.810  27.139  1.00  0.00     0.037 A 
ATOM     51  C   UNL A   1      46.993  30.468  27.690  1.00  0.00     0.049 A 
ATOM     52  C   UNL A   1      45.218  25.202  26.930  1.00  0.00     0.074 A 
ATOM     53  C   UNL A   1      48.342  30.703  27.490  1.00  0.00     0.029 A 
ATOM     54  N   UNL A   1      46.784  29.118  27.447  1.00  0.00    -0.354 N 
ATOM     55  N   UNL A   1      45.778  26.380  27.073  1.00  0.00    -0.248 NA
ATOM     56  C   UNL A   1      46.144  24.140  26.517  1.00  0.00     0.031 C 
ATOM     57  C   UNL A   1      48.943  29.503  27.093  1.00  0.00     0.029 A 
ATOM     58  C   UNL A   1      47.976  28.510  27.086  1.00  0.00     0.049 A 
ATOM     59  H   UNL A   1      45.917  28.658  27.520  1.00  0.00     0.167 HD
ATOM     60  C   UNL A   1      47.126  26.198  26.786  1.00  0.00     0.074 A 
ATOM     61  C   UNL A   1      47.298  24.791  26.479  1.00  0.00     0.031 C 
ATOM     62  C   UNL A   1      48.130  27.110  26.778  1.00  0.00     0.037 A 
BRANCH  49  63
ATOM     63  C   UNL A   1      46.332  32.854  28.216  1.00  0.00     0.058 A 
ATOM     64  C   UNL A   1      46.246  33.745  27.133  1.00  0.00     0.135 A 
ATOM     65  C   UNL A   1      46.761  33.367  29.450  1.00  0.00     0.135 A 
ATOM     66  F   UNL A   1      45.854  33.308  25.926  1.00  0.00    -0.206 F 
ATOM     67  C   UNL A   1      46.608  35.083  27.260  1.00  0.00     0.059 A 
ATOM     68  C   UNL A   1      47.103  34.707  29.607  1.00  0.00     0.059 A 
ATOM     69  F   UNL A   1      46.860  32.561  30.520  1.00  0.00    -0.206 F 
ATOM     70  C   UNL A   1      47.042  35.553  28.501  1.00  0.00     0.060 A 
BRANCH  70  71
ATOM     71  S   UNL A   1      47.521  37.288  28.648  1.00  0.00     0.124 S 
ATOM     72  O   UNL A   1      46.364  37.958  28.061  1.00  0.00    -0.237 OA
ATOM     73  O   UNL A   1      47.683  37.450  30.088  1.00  0.00    -0.237 OA
ATOM     74  O   UNL A   1      48.754  37.366  27.869  1.00  0.00    -0.744 OA
ENDBRANCH  70  71
ENDBRANCH  49  63
BRANCH  50  75
ATOM     75  C   UNL A   1      43.322  23.418  26.894  1.00  0.00     0.058 A 
ATOM     76  C   UNL A   1      43.145  22.936  25.589  1.00  0.00     0.135 A 
ATOM     77  C   UNL A   1      43.092  22.531  27.957  1.00  0.00     0.135 A 
ATOM     78  F   UNL A   1      43.350  23.748  24.540  1.00  0.00    -0.206 F 
ATOM     79  C   UNL A   1      42.749  21.625  25.344  1.00  0.00     0.059 A 
ATOM     80  C   UNL A   1      42.717  21.210  27.737  1.00  0.00     0.059 A 
ATOM     81  F   UNL A   1      43.267  22.940  29.223  1.00  0.00    -0.206 F 
ATOM     82  C   UNL A   1      42.542  20.767  26.426  1.00  0.00     0.060 A 
BRANCH  82  83
ATOM     83  S   UNL A   1      42.101  19.047  26.096  1.00  0.00     0.124 S 
ATOM     84  O   UNL A   1      40.681  19.162  25.789  1.00  0.00    -0.237 OA
ATOM     85  O   UNL A   1      42.974  18.715  24.975  1.00  0.00    -0.237 OA
ATOM     86  O   UNL A   1      42.425  18.374  27.351  1.00  0.00    -0.744 OA
ENDBRANCH  82  83
ENDBRANCH  50  75
BRANCH  62  87
ATOM     87  C   UNL A   1      49.507  26.606  26.448  1.00  0.00     0.058 A 
ATOM     88  C   UNL A   1      50.025  26.679  25.145  1.00  0.00     0.135 A 
ATOM     89  C   UNL A   1      50.324  26.061  27.451  1.00  0.00     0.135 A 
ATOM     90  F   UNL A   1      49.282  27.186  24.149  1.00  0.00    -0.206 F 
ATOM     91  C   UNL A   1      51.292  26.192  24.841  1.00  0.00     0.059 A 
ATOM     92  C   UNL A   1      51.604  25.593  27.174  1.00  0.00     0.059 A 
ATOM     93  F   UNL A   1      49.881  25.981  28.716  1.00  0.00    -0.206 F 
ATOM     94  C   UNL A   1      52.072  25.646  25.862  1.00  0.00     0.060 A 
BRANCH  94  95
ATOM     95  S   UNL A   1      53.716  25.018  25.458  1.00  0.00     0.124 S 
ATOM     96  O   UNL A   1      54.014  25.746  24.229  1.00  0.00    -0.237 OA
ATOM     97  O   UNL A   1      54.498  25.405  26.628  1.00  0.00    -0.237 OA
ATOM     98  O   UNL A   1      53.501  23.583  25.303  1.00  0.00    -0.744 OA
ENDBRANCH  94  95
ENDBRANCH  62  87
ENDBRANCH  36  37
ENDBRANCH  28  31
ENDBRANCH  26  27
ENDBRANCH   1  26
TORSDOF 17
ENDMDL
MODEL 2
REMARK VINA RESULT:     -11.9      1.521      3.169
REMARK SMILES CCOc1ccc(-c2cnc(N)cc2C(=O)NCCCNC(=O)c2ccc(-c3c4nc(c(-c5c(F)cc(S(=O)(=O)[O-])cc5F)c5ccc([nH]5)c(-c5c(F)cc(S(=O)(=O)[O-])cc5F)c5nc(c(-c6c(F)cc(S(=O)(=O)[O-])cc6F)c6ccc3[nH]6)C=C5)C=C4)cc2)c(Cl)c1
REMARK SMILES IDX 19 1 18 2 17 3 15 4 16 5 14 7 8 8 9 9 10 10 13 11 11 12 7 13
REMARK SMILES IDX 4 14 5 15 92 16 6 17 90 18 91 19 3 20 2 21 1 22 12 23 20 26
REMARK SMILES IDX 21 27 22 28 23 30 24 31 25 32 89 33 26 34 88 35 27 36 28 37
REMARK SMILES IDX 29 38 82 39 30 40 87 41 81 42 83 43 31 44 86 45 80 46 79 47
REMARK SMILES IDX 32 49 66 50 45 51 65 52 46 53 49 54 64 55 84 56 47 57 48 58
REMARK SMILES IDX 63 60 85 61 50 62 33 63 34 64 43 65 35 66 36 67 42 68 44 69
REMARK SMILES IDX 37 70 38 71 39 72 40 73 41 74 67 75 68 76 77 77 69 78 70 79
REMARK SMILES IDX 76 80 78 81 71 82 72 83 73 84 74 85 75 86 51 87 52 88 61 89
REMARK SMILES IDX 53 90 54 91 60 92 62 93 55 94 56 95 57 96 58 97 59 98
REMARK H PARENT 17 6 12 24 12 25 21 29 83 48 49 59
REMARK Flexibility Score: inf
ROOT
ATOM      1  C   UNL A   1      34.235  30.448  27.377  1.00  0.00     0.042 C 
ENDROOT
BRANCH   1   2
ATOM      2  C   UNL A   1      33.648  29.518  26.316  1.00  0.00     0.118 C 
BRANCH   2   3
ATOM      3  N   UNL A   1      32.491  28.796  26.810  1.00  0.00    -0.352 N 
ATOM      4  C   UNL A   1      31.945  27.554  26.608  1.00  0.00     0.252 C 
ATOM      5  O   UNL A   1      30.995  27.305  27.352  1.00  0.00    -0.269 OA
ATOM      6  H   UNL A   1      31.967  29.331  27.450  1.00  0.00     0.163 HD
BRANCH   4   7
ATOM      7  C   UNL A   1      32.451  26.523  25.634  1.00  0.00     0.052 A 
ATOM      8  C   UNL A   1      31.905  26.434  24.333  1.00  0.00     0.014 A 
ATOM      9  C   UNL A   1      32.337  25.361  23.545  1.00  0.00     0.123 A 
ATOM     10  N   UNL A   1      33.219  24.413  23.926  1.00  0.00    -0.239 NA
ATOM     11  C   UNL A   1      33.452  25.608  25.978  1.00  0.00     0.061 A 
ATOM     12  C   UNL A   1      33.765  24.553  25.134  1.00  0.00     0.124 A 
BRANCH   8  13
ATOM     13  C   UNL A   1      30.929  27.361  23.728  1.00  0.00     0.003 A 
ATOM     14  C   UNL A   1      28.982  29.021  22.546  1.00  0.00     0.120 A 
ATOM     15  C   UNL A   1      28.599  27.845  23.184  1.00  0.00     0.047 A 
ATOM     16  C   UNL A   1      30.328  29.356  22.446  1.00  0.00     0.067 A 
ATOM     17  C   UNL A   1      29.560  27.036  23.789  1.00  0.00     0.014 A 
ATOM     18  C   UNL A   1      31.297  28.526  23.021  1.00  0.00     0.052 A 
ATOM     19  Cl  UNL A   1      32.959  28.957  22.780  1.00  0.00    -0.084 Cl
BRANCH  14  20
ATOM     20  O   UNL A   1      28.069  29.805  21.898  1.00  0.00    -0.494 OA
BRANCH  20  21
ATOM     21  C   UNL A   1      28.143  31.185  22.279  1.00  0.00     0.226 C 
ATOM     22  C   UNL A   1      27.586  31.400  23.677  1.00  0.00     0.049 C 
ENDBRANCH  20  21
ENDBRANCH  14  20
ENDBRANCH   8  13
BRANCH  12  23
ATOM     23  N   UNL A   1      34.707  23.613  25.496  1.00  0.00    -0.384 N 
ATOM     24  H   UNL A   1      35.442  23.860  26.102  1.00  0.00     0.158 HD
ATOM     25  H   UNL A   1      34.643  22.693  25.148  1.00  0.00     0.158 HD
ENDBRANCH  12  23
ENDBRANCH   4   7
ENDBRANCH   2   3
ENDBRANCH   1   2
BRANCH   1  26
ATOM     26  C   UNL A   1      35.354  29.811  28.203  1.00  0.00     0.118 C 
BRANCH  26  27
ATOM     27  N   UNL A   1      35.463  30.412  29.525  1.00  0.00    -0.352 N 
ATOM     28  C   UNL A   1      36.505  30.438  30.415  1.00  0.00     0.251 C 
ATOM     29  H   UNL A   1      34.651  30.877  29.832  1.00  0.00     0.163 HD
ATOM     30  O   UNL A   1      36.277  30.762  31.578  1.00  0.00    -0.269 OA
BRANCH  28  31
ATOM     31  C   UNL A   1      37.885  30.098  30.002  1.00  0.00     0.039 A 
ATOM     32  C   UNL A   1      38.197  30.114  28.638  1.00  0.00     0.014 A 
ATOM     33  C   UNL A   1      38.843  29.667  30.927  1.00  0.00     0.014 A 
ATOM     34  C   UNL A   1      39.467  29.727  28.206  1.00  0.00     0.010 A 
ATOM     35  C   UNL A   1      40.132  29.343  30.500  1.00  0.00     0.010 A 
ATOM     36  C   UNL A   1      40.450  29.350  29.135  1.00  0.00    -0.014 A 
BRANCH  36  37
ATOM     37  C   UNL A   1      41.805  28.944  28.681  1.00  0.00     0.031 A 
ATOM     38  C   UNL A   1      42.916  29.957  28.591  1.00  0.00     0.074 A 
ATOM     39  C   UNL A   1      42.024  27.668  28.308  1.00  0.00     0.049 A 
ATOM     40  N   UNL A   1      44.155  29.792  28.204  1.00  0.00    -0.248 NA
ATOM     41  C   UNL A   1      42.582  31.343  28.958  1.00  0.00     0.031 C 
ATOM     42  C   UNL A   1      41.012  26.610  28.289  1.00  0.00     0.029 A 
ATOM     43  N   UNL A   1      43.163  27.047  27.866  1.00  0.00    -0.354 N 
ATOM     44  C   UNL A   1      44.742  31.051  28.260  1.00  0.00     0.074 A 
ATOM     45  C   UNL A   1      43.711  31.978  28.677  1.00  0.00     0.031 C 
ATOM     46  C   UNL A   1      41.580  25.466  27.874  1.00  0.00     0.029 A 
ATOM     47  C   UNL A   1      42.988  25.714  27.577  1.00  0.00     0.049 A 
ATOM     48  H   UNL A   1      44.026  27.511  27.764  1.00  0.00     0.167 HD
ATOM     49  C   UNL A   1      46.027  31.400  28.007  1.00  0.00     0.037 A 
ATOM     50  C   UNL A   1      43.862  24.795  27.126  1.00  0.00     0.037 A 
ATOM     51  C   UNL A   1      47.056  30.467  27.624  1.00  0.00     0.049 A 
ATOM     52  C   UNL A   1      45.295  25.191  26.908  1.00  0.00     0.074 A 
ATOM     53  C   UNL A   1      48.404  30.706  27.417  1.00  0.00     0.029 A 
ATOM     54  N   UNL A   1      46.851  29.115  27.391  1.00  0.00    -0.354 N 
ATOM     55  N   UNL A   1      45.852  26.372  27.041  1.00  0.00    -0.248 NA
ATOM     56  C   UNL A   1      46.223  24.130  26.499  1.00  0.00     0.031 C 
ATOM     57  C   UNL A   1      49.007  29.505  27.026  1.00  0.00     0.029 A 
ATOM     58  C   UNL A   1      48.043  28.509  27.030  1.00  0.00     0.049 A 
ATOM     59  H   UNL A   1      45.985  28.654  27.472  1.00  0.00     0.167 HD
ATOM     60  C   UNL A   1      47.200  26.192  26.750  1.00  0.00     0.074 A 
ATOM     61  C   UNL A   1      47.375  24.784  26.452  1.00  0.00     0.031 C 
ATOM     62  C   UNL A   1      48.201  27.107  26.731  1.00  0.00     0.037 A 
BRANCH  49  63
ATOM     63  C   UNL A   1      46.390  32.855  28.136  1.00  0.00     0.058 A 
ATOM     64  C   UNL A   1      46.180  33.765  27.086  1.00  0.00     0.135 A 
ATOM     65  C   UNL A   1      46.941  33.352  29.328  1.00  0.00     0.135 A 
ATOM     66  F   UNL A   1      45.668  33.343  25.919  1.00  0.00    -0.206 F 
ATOM     67  C   UNL A   1      46.538  35.105  27.200  1.00  0.00     0.059 A 
ATOM     68  C   UNL A   1      47.282  34.694  29.474  1.00  0.00     0.059 A 
ATOM     69  F   UNL A   1      47.161  32.529  30.366  1.00  0.00    -0.206 F 
ATOM     70  C   UNL A   1      47.095  35.559  28.397  1.00  0.00     0.060 A 
BRANCH  70  71
ATOM     71  S   UNL A   1      47.566  37.297  28.526  1.00  0.00     0.124 S 
ATOM     72  O   UNL A   1      49.022  37.206  28.486  1.00  0.00    -0.237 OA
ATOM     73  O   UNL A   1      46.936  37.883  27.349  1.00  0.00    -0.237 OA
ATOM     74  O   UNL A   1      46.997  37.708  29.807  1.00  0.00    -0.744 OA
ENDBRANCH  70  71
ENDBRANCH  49  63
BRANCH  50  75
ATOM     75  C   UNL A   1      43.405  23.401  26.893  1.00  0.00     0.058 A 
ATOM     76  C   UNL A   1      43.249  22.901  25.592  1.00  0.00     0.135 A 
ATOM     77  C   UNL A   1      43.158  22.528  27.964  1.00  0.00     0.135 A 
ATOM     78  F   UNL A   1      43.471  23.699  24.536  1.00  0.00    -0.206 F 
ATOM     79  C   UNL A   1      42.857  21.587  25.359  1.00  0.00     0.059 A 
ATOM     80  C   UNL A   1      42.786  21.205  27.756  1.00  0.00     0.059 A 
ATOM     81  F   UNL A   1      43.314  22.954  29.227  1.00  0.00    -0.206 F 
ATOM     82  C   UNL A   1      42.632  20.744  26.449  1.00  0.00     0.060 A 
BRANCH  82  83
ATOM     83  S   UNL A   1      42.196  19.019  26.136  1.00  0.00     0.124 S 
ATOM     84  O   UNL A   1      40.784  19.132  25.791  1.00  0.00    -0.237 OA
ATOM     85  O   UNL A   1      43.096  18.668  25.042  1.00  0.00    -0.237 OA
ATOM     86  O   UNL A   1      42.487  18.366  27.408  1.00  0.00    -0.744 OA
ENDBRANCH  82  83
ENDBRANCH  50  75
BRANCH  62  87
ATOM     87  C   UNL A   1      49.578  26.606  26.399  1.00  0.00     0.058 A 
ATOM     88  C   UNL A   1      50.080  26.646  25.088  1.00  0.00     0.135 A 
ATOM     89  C   UNL A   1      50.411  26.096  27.406  1.00  0.00     0.135 A 
ATOM     90  F   UNL A   1      49.321  27.120  24.088  1.00  0.00    -0.206 F 
ATOM     91  C   UNL A   1      51.347  26.162  24.782  1.00  0.00     0.059 A 
ATOM     92  C   UNL A   1      51.692  25.630  27.127  1.00  0.00     0.059 A 
ATOM     93  F   UNL A   1      49.984  26.047  28.678  1.00  0.00    -0.206 F 
ATOM     94  C   UNL A   1      52.144  25.650  25.809  1.00  0.00     0.060 A 
BRANCH  94  95
ATOM     95  S   UNL A   1      53.789  25.025  25.403  1.00  0.00     0.124 S 
ATOM     96  O   UNL A   1      54.010  25.615  24.087  1.00  0.00    -0.237 OA
ATOM     97  O   UNL A   1      54.607  25.563  26.485  1.00  0.00    -0.237 OA
ATOM     98  O   UNL A   1      53.613  23.576  25.421  1.00  0.00    -0.744 OA
ENDBRANCH  94  95
ENDBRANCH  62  87
ENDBRANCH  36  37
ENDBRANCH  28  31
ENDBRANCH  26  27
ENDBRANCH   1  26
TORSDOF 17
ENDMDL
MODEL 3
REMARK VINA RESULT:     -11.6      4.881      6.124
REMARK SMILES CCOc1ccc(-c2cnc(N)cc2C(=O)NCCCNC(=O)c2ccc(-c3c4nc(c(-c5c(F)cc(S(=O)(=O)[O-])cc5F)c5ccc([nH]5)c(-c5c(F)cc(S(=O)(=O)[O-])cc5F)c5nc(c(-c6c(F)cc(S(=O)(=O)[O-])cc6F)c6ccc3[nH]6)C=C5)C=C4)cc2)c(Cl)c1
REMARK SMILES IDX 19 1 18 2 17 3 15 4 16 5 14 7 8 8 9 9 10 10 13 11 11 12 7 13
REMARK SMILES IDX 4 14 5 15 92 16 6 17 90 18 91 19 3 20 2 21 1 22 12 23 20 26
REMARK SMILES IDX 21 27 22 28 23 30 24 31 25 32 89 33 26 34 88 35 27 36 28 37
REMARK SMILES IDX 29 38 82 39 30 40 87 41 81 42 83 43 31 44 86 45 80 46 79 47
REMARK SMILES IDX 32 49 66 50 45 51 65 52 46 53 49 54 64 55 84 56 47 57 48 58
REMARK SMILES IDX 63 60 85 61 50 62 33 63 34 64 43 65 35 66 36 67 42 68 44 69
REMARK SMILES IDX 37 70 38 71 39 72 40 73 41 74 67 75 68 76 77 77 69 78 70 79
REMARK SMILES IDX 76 80 78 81 71 82 72 83 73 84 74 85 75 86 51 87 52 88 61 89
REMARK SMILES IDX 53 90 54 91 60 92 62 93 55 94 56 95 57 96 58 97 59 98
REMARK H PARENT 17 6 12 24 12 25 21 29 83 48 49 59
REMARK Flexibility Score: inf
ROOT
ATOM      1  C   UNL A   1      33.394  27.992  27.212  1.00  0.00     0.042 C 
ENDROOT
BRANCH   1   2
ATOM      2  C   UNL A   1      31.922  28.268  27.513  1.00  0.00     0.118 C 
BRANCH   2   3
ATOM      3  N   UNL A   1      31.060  27.214  27.012  1.00  0.00    -0.352 N 
ATOM      4  C   UNL A   1      30.838  26.616  25.798  1.00  0.00     0.252 C 
ATOM      5  O   UNL A   1      30.079  25.647  25.855  1.00  0.00    -0.269 OA
ATOM      6  H   UNL A   1      30.492  26.833  27.721  1.00  0.00     0.163 HD
BRANCH   4   7
ATOM      7  C   UNL A   1      31.479  27.016  24.495  1.00  0.00     0.052 A 
ATOM      8  C   UNL A   1      32.588  26.298  23.989  1.00  0.00     0.014 A 
ATOM      9  C   UNL A   1      33.203  26.822  22.846  1.00  0.00     0.123 A 
ATOM     10  N   UNL A   1      32.830  27.946  22.200  1.00  0.00    -0.239 NA
ATOM     11  C   UNL A   1      31.026  28.111  23.752  1.00  0.00     0.061 A 
ATOM     12  C   UNL A   1      31.746  28.571  22.660  1.00  0.00     0.124 A 
BRANCH   8  13
ATOM     13  C   UNL A   1      33.153  25.055  24.546  1.00  0.00     0.003 A 
ATOM     14  C   UNL A   1      34.363  22.736  25.599  1.00  0.00     0.120 A 
ATOM     15  C   UNL A   1      34.960  23.979  25.787  1.00  0.00     0.047 A 
ATOM     16  C   UNL A   1      33.196  22.627  24.849  1.00  0.00     0.067 A 
ATOM     17  C   UNL A   1      34.349  25.128  25.286  1.00  0.00     0.014 A 
ATOM     18  C   UNL A   1      32.601  23.776  24.315  1.00  0.00     0.052 A 
ATOM     19  Cl  UNL A   1      31.200  23.557  23.318  1.00  0.00    -0.084 Cl
BRANCH  14  20
ATOM     20  O   UNL A   1      34.966  21.588  26.030  1.00  0.00    -0.494 OA
BRANCH  20  21
ATOM     21  C   UNL A   1      35.555  20.829  24.966  1.00  0.00     0.226 C 
ATOM     22  C   UNL A   1      37.025  21.176  24.792  1.00  0.00     0.049 C 
ENDBRANCH  20  21
ENDBRANCH  14  20
ENDBRANCH   8  13
BRANCH  12  23
ATOM     23  N   UNL A   1      31.338  29.689  21.963  1.00  0.00    -0.384 N 
ATOM     24  H   UNL A   1      30.411  30.010  22.046  1.00  0.00     0.158 HD
ATOM     25  H   UNL A   1      31.974  30.166  21.382  1.00  0.00     0.158 HD
ENDBRANCH  12  23
ENDBRANCH   4   7
ENDBRANCH   2   3
ENDBRANCH   1   2
BRANCH   1  26
ATOM     26  C   UNL A   1      34.018  28.985  26.229  1.00  0.00     0.118 C 
BRANCH  26  27
ATOM     27  N   UNL A   1      33.834  30.364  26.660  1.00  0.00    -0.352 N 
ATOM     28  C   UNL A   1      34.473  31.094  27.627  1.00  0.00     0.251 C 
ATOM     29  H   UNL A   1      33.130  30.854  26.175  1.00  0.00     0.163 HD
ATOM     30  O   UNL A   1      33.963  32.148  28.001  1.00  0.00    -0.269 OA
BRANCH  28  31
ATOM     31  C   UNL A   1      35.757  30.649  28.212  1.00  0.00     0.039 A 
ATOM     32  C   UNL A   1      35.725  29.789  29.316  1.00  0.00     0.014 A 
ATOM     33  C   UNL A   1      36.984  31.143  27.756  1.00  0.00     0.014 A 
ATOM     34  C   UNL A   1      36.914  29.408  29.941  1.00  0.00     0.010 A 
ATOM     35  C   UNL A   1      38.175  30.711  28.340  1.00  0.00     0.010 A 
ATOM     36  C   UNL A   1      38.151  29.855  29.450  1.00  0.00    -0.014 A 
BRANCH  36  37
ATOM     37  C   UNL A   1      39.419  29.446  30.106  1.00  0.00     0.031 A 
ATOM     38  C   UNL A   1      39.915  30.169  31.330  1.00  0.00     0.074 A 
ATOM     39  C   UNL A   1      40.149  28.448  29.571  1.00  0.00     0.049 A 
ATOM     40  N   UNL A   1      41.002  29.964  32.027  1.00  0.00    -0.248 NA
ATOM     41  C   UNL A   1      39.092  31.287  31.820  1.00  0.00     0.031 C 
ATOM     42  C   UNL A   1      39.808  27.715  28.350  1.00  0.00     0.029 A 
ATOM     43  N   UNL A   1      41.332  27.885  29.977  1.00  0.00    -0.354 N 
ATOM     44  C   UNL A   1      41.007  30.936  33.022  1.00  0.00     0.074 A 
ATOM     45  C   UNL A   1      39.835  31.758  32.810  1.00  0.00     0.031 C 
ATOM     46  C   UNL A   1      40.751  26.787  28.117  1.00  0.00     0.029 A 
ATOM     47  C   UNL A   1      41.772  26.874  29.156  1.00  0.00     0.049 A 
ATOM     48  H   UNL A   1      41.819  28.177  30.782  1.00  0.00     0.167 HD
ATOM     49  C   UNL A   1      41.896  31.115  34.029  1.00  0.00     0.037 A 
ATOM     50  C   UNL A   1      42.872  26.102  29.234  1.00  0.00     0.037 A 
ATOM     51  C   UNL A   1      43.042  30.273  34.253  1.00  0.00     0.049 A 
ATOM     52  C   UNL A   1      43.813  26.279  30.392  1.00  0.00     0.074 A 
ATOM     53  C   UNL A   1      43.962  30.323  35.287  1.00  0.00     0.029 A 
ATOM     54  N   UNL A   1      43.427  29.225  33.429  1.00  0.00    -0.354 N 
ATOM     55  N   UNL A   1      43.761  27.155  31.368  1.00  0.00    -0.248 NA
ATOM     56  C   UNL A   1      44.950  25.354  30.472  1.00  0.00     0.031 C 
ATOM     57  C   UNL A   1      44.921  29.327  35.069  1.00  0.00     0.029 A 
ATOM     58  C   UNL A   1      44.577  28.630  33.922  1.00  0.00     0.049 A 
ATOM     59  H   UNL A   1      42.953  28.945  32.613  1.00  0.00     0.167 HD
ATOM     60  C   UNL A   1      44.847  26.874  32.189  1.00  0.00     0.074 A 
ATOM     61  C   UNL A   1      45.526  25.736  31.603  1.00  0.00     0.031 C 
ATOM     62  C   UNL A   1      45.245  27.501  33.324  1.00  0.00     0.037 A 
BRANCH  49  63
ATOM     63  C   UNL A   1      41.660  32.270  34.966  1.00  0.00     0.058 A 
ATOM     64  C   UNL A   1      40.765  32.174  36.045  1.00  0.00     0.135 A 
ATOM     65  C   UNL A   1      42.347  33.482  34.795  1.00  0.00     0.135 A 
ATOM     66  F   UNL A   1      40.070  31.043  36.249  1.00  0.00    -0.206 F 
ATOM     67  C   UNL A   1      40.531  33.251  36.895  1.00  0.00     0.059 A 
ATOM     68  C   UNL A   1      42.149  34.563  35.649  1.00  0.00     0.059 A 
ATOM     69  F   UNL A   1      43.217  33.628  33.783  1.00  0.00    -0.206 F 
ATOM     70  C   UNL A   1      41.224  34.444  36.685  1.00  0.00     0.060 A 
BRANCH  70  71
ATOM     71  S   UNL A   1      40.902  35.837  37.789  1.00  0.00     0.124 S 
ATOM     72  O   UNL A   1      40.581  35.149  39.036  1.00  0.00    -0.237 OA
ATOM     73  O   UNL A   1      42.170  36.555  37.769  1.00  0.00    -0.237 OA
ATOM     74  O   UNL A   1      39.785  36.526  37.147  1.00  0.00    -0.744 OA
ENDBRANCH  70  71
ENDBRANCH  49  63
BRANCH  50  75
ATOM     75  C   UNL A   1      43.114  25.064  28.198  1.00  0.00     0.058 A 
ATOM     76  C   UNL A   1      43.796  25.374  27.013  1.00  0.00     0.135 A 
ATOM     77  C   UNL A   1      42.707  23.736  28.391  1.00  0.00     0.135 A 
ATOM     78  F   UNL A   1      44.203  26.631  26.781  1.00  0.00    -0.206 F 
ATOM     79  C   UNL A   1      44.062  24.404  26.050  1.00  0.00     0.059 A 
ATOM     80  C   UNL A   1      42.979  22.745  27.454  1.00  0.00     0.059 A 
ATOM     81  F   UNL A   1      42.068  23.386  29.519  1.00  0.00    -0.206 F 
ATOM     82  C   UNL A   1      43.652  23.090  26.283  1.00  0.00     0.060 A 
BRANCH  82  83
ATOM     83  S   UNL A   1      44.067  21.824  25.063  1.00  0.00     0.124 S 
ATOM     84  O   UNL A   1      43.835  22.536  23.812  1.00  0.00    -0.237 OA
ATOM     85  O   UNL A   1      45.460  21.532  25.384  1.00  0.00    -0.237 OA
ATOM     86  O   UNL A   1      43.125  20.750  25.364  1.00  0.00    -0.744 OA
ENDBRANCH  82  83
ENDBRANCH  50  75
BRANCH  62  87
ATOM     87  C   UNL A   1      46.460  26.950  34.017  1.00  0.00     0.058 A 
ATOM     88  C   UNL A   1      47.750  27.426  33.732  1.00  0.00     0.135 A 
ATOM     89  C   UNL A   1      46.330  25.947  34.990  1.00  0.00     0.135 A 
ATOM     90  F   UNL A   1      47.928  28.381  32.806  1.00  0.00    -0.206 F 
ATOM     91  C   UNL A   1      48.872  26.899  34.361  1.00  0.00     0.059 A 
ATOM     92  C   UNL A   1      47.437  25.424  35.650  1.00  0.00     0.059 A 
ATOM     93  F   UNL A   1      45.118  25.467  35.310  1.00  0.00    -0.206 F 
ATOM     94  C   UNL A   1      48.706  25.894  35.315  1.00  0.00     0.060 A 
BRANCH  94  95
ATOM     95  S   UNL A   1      50.169  25.216  36.128  1.00  0.00     0.124 S 
ATOM     96  O   UNL A   1      50.786  26.421  36.672  1.00  0.00    -0.237 OA
ATOM     97  O   UNL A   1      49.591  24.303  37.109  1.00  0.00    -0.237 OA
ATOM     98  O   UNL A   1      50.896  24.575  35.037  1.00  0.00    -0.744 OA
ENDBRANCH  94  95
ENDBRANCH  62  87
ENDBRANCH  36  37
ENDBRANCH  28  31
ENDBRANCH  26  27
ENDBRANCH   1  26
TORSDOF 17
ENDMDL
