MODEL 1
REMARK VINA RESULT:     -12.3      0.000      0.000
REMARK SMILES Cc1c(Cc2nc(C(C)(C)C)cs2)cccc1C(=O)NCCCNC(=O)c1ccc(-c2c3nc(c(-c4c(F)cc(S(=O)(=O)[O-])cc4F)c4ccc([nH]4)c(-c4c(F)cc(S(=O)(=O)[O-])cc4F)c4nc(c(-c5c(F)cc(S(=O)(=O)[O-])cc5F)c5ccc2[nH]5)C=C4)C=C3)cc1
REMARK SMILES IDX 22 1 21 2 20 3 18 4 19 5 17 7 1 8 2 9 3 10 14 11 16 12 15 13
REMARK SMILES IDX 4 14 5 15 6 16 13 17 7 18 12 19 8 20 9 21 10 22 11 23 23 24
REMARK SMILES IDX 24 25 25 26 26 28 27 29 28 30 92 31 29 32 91 33 30 34 31 35
REMARK SMILES IDX 32 36 85 37 33 38 90 39 84 40 86 41 34 42 89 43 83 44 82 45
REMARK SMILES IDX 35 47 69 48 48 49 68 50 49 51 52 52 67 53 87 54 50 55 51 56
REMARK SMILES IDX 66 58 88 59 53 60 36 61 37 62 46 63 38 64 39 65 45 66 47 67
REMARK SMILES IDX 40 68 41 69 42 70 43 71 44 72 70 73 71 74 80 75 72 76 73 77
REMARK SMILES IDX 79 78 81 79 74 80 75 81 76 82 77 83 78 84 54 85 55 86 64 87
REMARK SMILES IDX 56 88 57 89 63 90 65 91 58 92 59 93 60 94 61 95 62 96
REMARK H PARENT 20 6 24 27 86 46 52 57
REMARK Flexibility Score: inf
ROOT
ATOM      1  C   UNL A   1      37.285  23.493  25.967  1.00  0.00     0.042 C 
ENDROOT
BRANCH   1   2
ATOM      2  C   UNL A   1      37.391  22.375  24.781  1.00  0.00     0.118 C 
BRANCH   2   3
ATOM      3  N   UNL A   1      36.587  21.127  24.865  1.00  0.00    -0.352 N 
ATOM      4  C   UNL A   1      35.268  20.772  25.080  1.00  0.00     0.251 C 
ATOM      5  O   UNL A   1      34.832  19.654  24.804  1.00  0.00    -0.269 OA
ATOM      6  H   UNL A   1      37.151  20.331  24.730  1.00  0.00     0.163 HD
BRANCH   4   7
ATOM      7  C   UNL A   1      34.309  21.738  25.649  1.00  0.00     0.043 A 
ATOM      8  C   UNL A   1      33.971  22.873  23.417  1.00  0.00     0.045 C 
ATOM      9  C   UNL A   1      33.532  22.549  24.819  1.00  0.00    -0.035 A 
ATOM     10  C   UNL A   1      32.379  23.129  25.359  1.00  0.00    -0.037 A 
ATOM     11  C   UNL A   1      32.252  23.217  26.760  1.00  0.00     0.004 A 
ATOM     12  C   UNL A   1      34.204  21.856  27.045  1.00  0.00     0.014 A 
ATOM     13  C   UNL A   1      33.199  22.642  27.602  1.00  0.00     0.001 A 
BRANCH  10  14
ATOM     14  C   UNL A   1      31.239  23.553  24.453  1.00  0.00     0.103 C 
BRANCH  14  15
ATOM     15  C   UNL A   1      31.169  25.050  24.342  1.00  0.00     0.097 A 
ATOM     16  N   UNL A   1      32.222  25.819  24.494  1.00  0.00    -0.245 NA
ATOM     17  S   UNL A   1      29.687  25.886  24.110  1.00  0.00    -0.127 S 
ATOM     18  C   UNL A   1      31.854  27.147  24.586  1.00  0.00     0.057 A 
ATOM     19  C   UNL A   1      30.514  27.378  24.328  1.00  0.00     0.091 A 
BRANCH  18  20
ATOM     20  C   UNL A   1      32.939  28.145  24.938  1.00  0.00     0.005 C 
ATOM     21  C   UNL A   1      33.812  27.587  26.073  1.00  0.00     0.017 C 
ATOM     22  C   UNL A   1      33.815  28.460  23.712  1.00  0.00     0.017 C 
ATOM     23  C   UNL A   1      32.309  29.478  25.413  1.00  0.00     0.017 C 
ENDBRANCH  18  20
ENDBRANCH  14  15
ENDBRANCH  10  14
ENDBRANCH   4   7
ENDBRANCH   2   3
ENDBRANCH   1   2
BRANCH   1  24
ATOM     24  C   UNL A   1      38.578  23.731  26.875  1.00  0.00     0.118 C 
BRANCH  24  25
ATOM     25  N   UNL A   1      39.447  25.052  26.981  1.00  0.00    -0.352 N 
ATOM     26  C   UNL A   1      39.885  26.000  28.010  1.00  0.00     0.251 C 
ATOM     27  H   UNL A   1      39.794  25.312  26.098  1.00  0.00     0.163 HD
ATOM     28  O   UNL A   1      41.124  26.032  28.139  1.00  0.00    -0.269 OA
BRANCH  26  29
ATOM     29  C   UNL A   1      39.147  27.050  28.948  1.00  0.00     0.039 A 
ATOM     30  C   UNL A   1      38.542  28.237  28.413  1.00  0.00     0.014 A 
ATOM     31  C   UNL A   1      39.067  27.008  30.333  1.00  0.00     0.014 A 
ATOM     32  C   UNL A   1      38.481  29.470  29.189  1.00  0.00     0.010 A 
ATOM     33  C   UNL A   1      39.015  28.218  31.100  1.00  0.00     0.010 A 
ATOM     34  C   UNL A   1      38.987  29.486  30.500  1.00  0.00    -0.014 A 
BRANCH  34  35
ATOM     35  C   UNL A   1      39.743  30.659  31.141  1.00  0.00     0.031 A 
ATOM     36  C   UNL A   1      40.929  30.429  31.960  1.00  0.00     0.074 A 
ATOM     37  C   UNL A   1      39.588  32.011  30.950  1.00  0.00     0.049 A 
ATOM     38  N   UNL A   1      41.142  30.956  33.122  1.00  0.00    -0.248 NA
ATOM     39  C   UNL A   1      42.031  29.654  31.426  1.00  0.00     0.031 C 
ATOM     40  C   UNL A   1      40.365  33.199  31.359  1.00  0.00     0.029 A 
ATOM     41  N   UNL A   1      38.642  32.662  30.191  1.00  0.00    -0.354 N 
ATOM     42  C   UNL A   1      42.503  30.860  33.320  1.00  0.00     0.074 A 
ATOM     43  C   UNL A   1      42.956  29.867  32.363  1.00  0.00     0.031 C 
ATOM     44  C   UNL A   1      39.625  34.321  31.173  1.00  0.00     0.029 A 
ATOM     45  C   UNL A   1      38.321  33.920  30.685  1.00  0.00     0.049 A 
ATOM     46  H   UNL A   1      38.234  32.277  29.383  1.00  0.00     0.167 HD
ATOM     47  C   UNL A   1      43.201  31.805  34.024  1.00  0.00     0.037 A 
ATOM     48  C   UNL A   1      37.059  34.136  31.186  1.00  0.00     0.037 A 
ATOM     49  C   UNL A   1      42.396  33.018  34.280  1.00  0.00     0.049 A 
ATOM     50  C   UNL A   1      37.138  34.219  32.689  1.00  0.00     0.074 A 
ATOM     51  C   UNL A   1      42.461  34.329  33.824  1.00  0.00     0.029 A 
ATOM     52  N   UNL A   1      41.159  32.918  34.894  1.00  0.00    -0.354 N 
ATOM     53  N   UNL A   1      38.253  34.428  33.325  1.00  0.00    -0.248 NA
ATOM     54  C   UNL A   1      36.021  33.980  33.599  1.00  0.00     0.031 C 
ATOM     55  C   UNL A   1      41.259  35.006  34.193  1.00  0.00     0.029 A 
ATOM     56  C   UNL A   1      40.467  34.118  34.894  1.00  0.00     0.049 A 
ATOM     57  H   UNL A   1      40.810  32.085  35.289  1.00  0.00     0.167 HD
ATOM     58  C   UNL A   1      38.080  34.192  34.652  1.00  0.00     0.074 A 
ATOM     59  C   UNL A   1      36.649  33.972  34.789  1.00  0.00     0.031 C 
ATOM     60  C   UNL A   1      39.143  34.156  35.508  1.00  0.00     0.037 A 
BRANCH  47  61
ATOM     61  C   UNL A   1      44.714  31.744  34.203  1.00  0.00     0.058 A 
ATOM     62  C   UNL A   1      45.315  31.064  35.283  1.00  0.00     0.135 A 
ATOM     63  C   UNL A   1      45.639  32.298  33.287  1.00  0.00     0.135 A 
ATOM     64  F   UNL A   1      44.592  30.347  36.152  1.00  0.00    -0.206 F 
ATOM     65  C   UNL A   1      46.697  31.043  35.498  1.00  0.00     0.059 A 
ATOM     66  C   UNL A   1      47.014  32.363  33.521  1.00  0.00     0.059 A 
ATOM     67  F   UNL A   1      45.254  32.723  32.075  1.00  0.00    -0.206 F 
ATOM     68  C   UNL A   1      47.540  31.722  34.628  1.00  0.00     0.060 A 
BRANCH  68  69
ATOM     69  S   UNL A   1      49.320  31.660  34.898  1.00  0.00     0.124 S 
ATOM     70  O   UNL A   1      49.442  30.665  35.958  1.00  0.00    -0.237 OA
ATOM     71  O   UNL A   1      49.810  31.254  33.584  1.00  0.00    -0.237 OA
ATOM     72  O   UNL A   1      49.654  33.027  35.292  1.00  0.00    -0.744 OA
ENDBRANCH  68  69
ENDBRANCH  47  61
BRANCH  48  73
ATOM     73  C   UNL A   1      35.883  33.480  30.411  1.00  0.00     0.058 A 
ATOM     74  C   UNL A   1      34.849  33.013  31.244  1.00  0.00     0.135 A 
ATOM     75  C   UNL A   1      35.418  34.279  29.384  1.00  0.00     0.135 A 
ATOM     76  F   UNL A   1      34.956  31.809  31.822  1.00  0.00    -0.206 F 
ATOM     77  C   UNL A   1      33.747  33.812  31.557  1.00  0.00     0.059 A 
ATOM     78  C   UNL A   1      34.341  35.111  29.705  1.00  0.00     0.059 A 
ATOM     79  F   UNL A   1      36.245  34.650  28.390  1.00  0.00    -0.206 F 
ATOM     80  C   UNL A   1      33.633  35.015  30.886  1.00  0.00     0.060 A 
BRANCH  80  81
ATOM     81  S   UNL A   1      32.905  36.613  31.820  1.00  0.00     0.124 S 
ATOM     82  O   UNL A   1      33.914  36.726  32.856  1.00  0.00    -0.237 OA
ATOM     83  O   UNL A   1      32.955  37.713  30.897  1.00  0.00    -0.237 OA
ATOM     84  O   UNL A   1      31.573  36.279  32.305  1.00  0.00    -0.744 OA
ENDBRANCH  80  81
ENDBRANCH  48  73
BRANCH  60  85
ATOM     85  C   UNL A   1      39.014  34.103  37.005  1.00  0.00     0.058 A 
ATOM     86  C   UNL A   1      38.522  32.974  37.681  1.00  0.00     0.135 A 
ATOM     87  C   UNL A   1      39.250  35.240  37.812  1.00  0.00     0.135 A 
ATOM     88  F   UNL A   1      38.101  31.890  37.011  1.00  0.00    -0.206 F 
ATOM     89  C   UNL A   1      38.403  32.931  39.067  1.00  0.00     0.059 A 
ATOM     90  C   UNL A   1      39.093  35.236  39.190  1.00  0.00     0.059 A 
ATOM     91  F   UNL A   1      39.643  36.414  37.304  1.00  0.00    -0.206 F 
ATOM     92  C   UNL A   1      38.709  34.064  39.815  1.00  0.00     0.060 A 
BRANCH  92  93
ATOM     93  S   UNL A   1      38.567  34.005  41.604  1.00  0.00     0.124 S 
ATOM     94  O   UNL A   1      38.462  32.572  41.861  1.00  0.00    -0.237 OA
ATOM     95  O   UNL A   1      39.820  34.632  42.013  1.00  0.00    -0.237 OA
ATOM     96  O   UNL A   1      37.358  34.777  41.878  1.00  0.00    -0.744 OA
ENDBRANCH  92  93
ENDBRANCH  60  85
ENDBRANCH  34  35
ENDBRANCH  26  29
ENDBRANCH  24  25
ENDBRANCH   1  24
TORSDOF 16
ENDMDL
MODEL 2
REMARK VINA RESULT:     -12.3      0.845      1.877
REMARK SMILES Cc1c(Cc2nc(C(C)(C)C)cs2)cccc1C(=O)NCCCNC(=O)c1ccc(-c2c3nc(c(-c4c(F)cc(S(=O)(=O)[O-])cc4F)c4ccc([nH]4)c(-c4c(F)cc(S(=O)(=O)[O-])cc4F)c4nc(c(-c5c(F)cc(S(=O)(=O)[O-])cc5F)c5ccc2[nH]5)C=C4)C=C3)cc1
REMARK SMILES IDX 22 1 21 2 20 3 18 4 19 5 17 7 1 8 2 9 3 10 14 11 16 12 15 13
REMARK SMILES IDX 4 14 5 15 6 16 13 17 7 18 12 19 8 20 9 21 10 22 11 23 23 24
REMARK SMILES IDX 24 25 25 26 26 28 27 29 28 30 92 31 29 32 91 33 30 34 31 35
REMARK SMILES IDX 32 36 85 37 33 38 90 39 84 40 86 41 34 42 89 43 83 44 82 45
REMARK SMILES IDX 35 47 69 48 48 49 68 50 49 51 52 52 67 53 87 54 50 55 51 56
REMARK SMILES IDX 66 58 88 59 53 60 36 61 37 62 46 63 38 64 39 65 45 66 47 67
REMARK SMILES IDX 40 68 41 69 42 70 43 71 44 72 70 73 71 74 80 75 72 76 73 77
REMARK SMILES IDX 79 78 81 79 74 80 75 81 76 82 77 83 78 84 54 85 55 86 64 87
REMARK SMILES IDX 56 88 57 89 63 90 65 91 58 92 59 93 60 94 61 95 62 96
REMARK H PARENT 20 6 24 27 86 46 52 57
REMARK Flexibility Score: inf
ROOT
ATOM      1  C   UNL A   1      37.373  23.723  25.593  1.00  0.00     0.042 C 
ENDROOT
BRANCH   1   2
ATOM      2  C   UNL A   1      36.530  22.325  25.539  1.00  0.00     0.118 C 
BRANCH   2   3
ATOM      3  N   UNL A   1      35.544  22.011  26.607  1.00  0.00    -0.352 N 
ATOM      4  C   UNL A   1      34.209  21.662  26.697  1.00  0.00     0.251 C 
ATOM      5  O   UNL A   1      33.723  21.174  27.717  1.00  0.00    -0.269 OA
ATOM      6  H   UNL A   1      35.956  22.068  27.500  1.00  0.00     0.163 HD
BRANCH   4   7
ATOM      7  C   UNL A   1      33.300  21.854  25.552  1.00  0.00     0.043 A 
ATOM      8  C   UNL A   1      31.718  23.278  26.914  1.00  0.00     0.045 C 
ATOM      9  C   UNL A   1      32.277  22.804  25.600  1.00  0.00    -0.035 A 
ATOM     10  C   UNL A   1      31.722  23.235  24.390  1.00  0.00    -0.037 A 
ATOM     11  C   UNL A   1      31.906  22.446  23.237  1.00  0.00     0.004 A 
ATOM     12  C   UNL A   1      33.454  21.045  24.414  1.00  0.00     0.014 A 
ATOM     13  C   UNL A   1      32.714  21.314  23.266  1.00  0.00     0.001 A 
BRANCH  10  14
ATOM     14  C   UNL A   1      31.033  24.583  24.301  1.00  0.00     0.103 C 
BRANCH  14  15
ATOM     15  C   UNL A   1      32.016  25.703  24.496  1.00  0.00     0.097 A 
ATOM     16  N   UNL A   1      31.957  26.523  25.519  1.00  0.00    -0.245 NA
ATOM     17  S   UNL A   1      33.235  26.068  23.343  1.00  0.00    -0.127 S 
ATOM     18  C   UNL A   1      32.809  27.595  25.342  1.00  0.00     0.057 A 
ATOM     19  C   UNL A   1      33.638  27.478  24.240  1.00  0.00     0.091 A 
BRANCH  18  20
ATOM     20  C   UNL A   1      32.729  28.721  26.353  1.00  0.00     0.005 C 
ATOM     21  C   UNL A   1      32.233  30.004  25.667  1.00  0.00     0.017 C 
ATOM     22  C   UNL A   1      31.787  28.351  27.514  1.00  0.00     0.017 C 
ATOM     23  C   UNL A   1      34.126  28.998  26.960  1.00  0.00     0.017 C 
ENDBRANCH  18  20
ENDBRANCH  14  15
ENDBRANCH  10  14
ENDBRANCH   4   7
ENDBRANCH   2   3
ENDBRANCH   1   2
BRANCH   1  24
ATOM     24  C   UNL A   1      38.505  23.858  26.712  1.00  0.00     0.118 C 
BRANCH  24  25
ATOM     25  N   UNL A   1      39.456  25.099  26.971  1.00  0.00    -0.352 N 
ATOM     26  C   UNL A   1      39.869  25.955  28.088  1.00  0.00     0.251 C 
ATOM     27  H   UNL A   1      39.900  25.377  26.138  1.00  0.00     0.163 HD
ATOM     28  O   UNL A   1      41.090  25.883  28.325  1.00  0.00    -0.269 OA
BRANCH  26  29
ATOM     29  C   UNL A   1      39.128  27.010  29.019  1.00  0.00     0.039 A 
ATOM     30  C   UNL A   1      38.535  28.200  28.479  1.00  0.00     0.014 A 
ATOM     31  C   UNL A   1      39.036  26.967  30.403  1.00  0.00     0.014 A 
ATOM     32  C   UNL A   1      38.475  29.433  29.254  1.00  0.00     0.010 A 
ATOM     33  C   UNL A   1      38.984  28.177  31.170  1.00  0.00     0.010 A 
ATOM     34  C   UNL A   1      38.969  29.446  30.569  1.00  0.00    -0.014 A 
BRANCH  34  35
ATOM     35  C   UNL A   1      39.726  30.615  31.218  1.00  0.00     0.031 A 
ATOM     36  C   UNL A   1      40.884  30.375  32.073  1.00  0.00     0.074 A 
ATOM     37  C   UNL A   1      39.600  31.967  31.005  1.00  0.00     0.049 A 
ATOM     38  N   UNL A   1      41.072  30.914  33.235  1.00  0.00    -0.248 NA
ATOM     39  C   UNL A   1      41.988  29.575  31.582  1.00  0.00     0.031 C 
ATOM     40  C   UNL A   1      40.385  33.146  31.422  1.00  0.00     0.029 A 
ATOM     41  N   UNL A   1      38.687  32.623  30.211  1.00  0.00    -0.354 N 
ATOM     42  C   UNL A   1      42.425  30.798  33.473  1.00  0.00     0.074 A 
ATOM     43  C   UNL A   1      42.889  29.785  32.542  1.00  0.00     0.031 C 
ATOM     44  C   UNL A   1      39.671  34.278  31.200  1.00  0.00     0.029 A 
ATOM     45  C   UNL A   1      38.374  33.893  30.680  1.00  0.00     0.049 A 
ATOM     46  H   UNL A   1      38.297  32.234  29.396  1.00  0.00     0.167 HD
ATOM     47  C   UNL A   1      43.119  31.740  34.185  1.00  0.00     0.037 A 
ATOM     48  C   UNL A   1      37.102  34.136  31.141  1.00  0.00     0.037 A 
ATOM     49  C   UNL A   1      42.328  32.969  34.403  1.00  0.00     0.049 A 
ATOM     50  C   UNL A   1      37.140  34.238  32.644  1.00  0.00     0.074 A 
ATOM     51  C   UNL A   1      42.428  34.273  33.932  1.00  0.00     0.029 A 
ATOM     52  N   UNL A   1      41.072  32.898  34.982  1.00  0.00    -0.354 N 
ATOM     53  N   UNL A   1      38.239  34.436  33.310  1.00  0.00    -0.248 NA
ATOM     54  C   UNL A   1      35.993  34.029  33.525  1.00  0.00     0.031 C 
ATOM     55  C   UNL A   1      41.228  34.975  34.258  1.00  0.00     0.029 A 
ATOM     56  C   UNL A   1      40.401  34.110  34.946  1.00  0.00     0.049 A 
ATOM     57  H   UNL A   1      40.698  32.076  35.376  1.00  0.00     0.167 HD
ATOM     58  C   UNL A   1      38.024  34.220  34.635  1.00  0.00     0.074 A 
ATOM     59  C   UNL A   1      36.586  34.026  34.733  1.00  0.00     0.031 C 
ATOM     60  C   UNL A   1      39.061  34.178  35.521  1.00  0.00     0.037 A 
BRANCH  47  61
ATOM     61  C   UNL A   1      44.625  31.656  34.409  1.00  0.00     0.058 A 
ATOM     62  C   UNL A   1      45.553  32.056  33.425  1.00  0.00     0.135 A 
ATOM     63  C   UNL A   1      45.220  31.239  35.622  1.00  0.00     0.135 A 
ATOM     64  F   UNL A   1      45.160  32.628  32.280  1.00  0.00    -0.206 F 
ATOM     65  C   UNL A   1      46.937  31.936  33.586  1.00  0.00     0.059 A 
ATOM     66  C   UNL A   1      46.592  31.032  35.780  1.00  0.00     0.059 A 
ATOM     67  F   UNL A   1      44.497  31.100  36.744  1.00  0.00    -0.206 F 
ATOM     68  C   UNL A   1      47.449  31.393  34.757  1.00  0.00     0.060 A 
BRANCH  68  69
ATOM     69  S   UNL A   1      49.234  31.274  34.966  1.00  0.00     0.124 S 
ATOM     70  O   UNL A   1      49.357  30.752  36.323  1.00  0.00    -0.237 OA
ATOM     71  O   UNL A   1      49.603  30.354  33.895  1.00  0.00    -0.237 OA
ATOM     72  O   UNL A   1      49.692  32.650  34.789  1.00  0.00    -0.744 OA
ENDBRANCH  68  69
ENDBRANCH  47  61
BRANCH  48  73
ATOM     73  C   UNL A   1      35.938  33.491  30.341  1.00  0.00     0.058 A 
ATOM     74  C   UNL A   1      34.852  33.094  31.144  1.00  0.00     0.135 A 
ATOM     75  C   UNL A   1      35.548  34.262  29.262  1.00  0.00     0.135 A 
ATOM     76  F   UNL A   1      34.889  31.913  31.774  1.00  0.00    -0.206 F 
ATOM     77  C   UNL A   1      33.768  33.944  31.375  1.00  0.00     0.059 A 
ATOM     78  C   UNL A   1      34.489  35.143  29.502  1.00  0.00     0.059 A 
ATOM     79  F   UNL A   1      36.431  34.562  28.293  1.00  0.00    -0.206 F 
ATOM     80  C   UNL A   1      33.727  35.121  30.652  1.00  0.00     0.060 A 
BRANCH  80  81
ATOM     81  S   UNL A   1      33.018  36.780  31.488  1.00  0.00     0.124 S 
ATOM     82  O   UNL A   1      32.892  37.582  30.286  1.00  0.00    -0.237 OA
ATOM     83  O   UNL A   1      31.739  36.463  32.060  1.00  0.00    -0.237 OA
ATOM     84  O   UNL A   1      34.011  37.263  32.438  1.00  0.00    -0.744 OA
ENDBRANCH  80  81
ENDBRANCH  48  73
BRANCH  60  85
ATOM     85  C   UNL A   1      38.888  34.147  37.014  1.00  0.00     0.058 A 
ATOM     86  C   UNL A   1      39.273  35.216  37.842  1.00  0.00     0.135 A 
ATOM     87  C   UNL A   1      38.454  32.982  37.689  1.00  0.00     0.135 A 
ATOM     88  F   UNL A   1      39.859  36.312  37.336  1.00  0.00    -0.206 F 
ATOM     89  C   UNL A   1      39.111  35.181  39.224  1.00  0.00     0.059 A 
ATOM     90  C   UNL A   1      38.330  32.907  39.067  1.00  0.00     0.059 A 
ATOM     91  F   UNL A   1      38.130  31.856  37.042  1.00  0.00    -0.206 F 
ATOM     92  C   UNL A   1      38.621  34.026  39.826  1.00  0.00     0.060 A 
BRANCH  92  93
ATOM     93  S   UNL A   1      38.401  33.986  41.607  1.00  0.00     0.124 S 
ATOM     94  O   UNL A   1      39.778  33.983  42.092  1.00  0.00    -0.237 OA
ATOM     95  O   UNL A   1      37.653  35.218  41.833  1.00  0.00    -0.237 OA
ATOM     96  O   UNL A   1      37.660  32.749  41.834  1.00  0.00    -0.744 OA
ENDBRANCH  92  93
ENDBRANCH  60  85
ENDBRANCH  34  35
ENDBRANCH  26  29
ENDBRANCH  24  25
ENDBRANCH   1  24
TORSDOF 16
ENDMDL
MODEL 3
REMARK VINA RESULT:     -12.1      4.289      7.679
REMARK SMILES Cc1c(Cc2nc(C(C)(C)C)cs2)cccc1C(=O)NCCCNC(=O)c1ccc(-c2c3nc(c(-c4c(F)cc(S(=O)(=O)[O-])cc4F)c4ccc([nH]4)c(-c4c(F)cc(S(=O)(=O)[O-])cc4F)c4nc(c(-c5c(F)cc(S(=O)(=O)[O-])cc5F)c5ccc2[nH]5)C=C4)C=C3)cc1
REMARK SMILES IDX 22 1 21 2 20 3 18 4 19 5 17 7 1 8 2 9 3 10 14 11 16 12 15 13
REMARK SMILES IDX 4 14 5 15 6 16 13 17 7 18 12 19 8 20 9 21 10 22 11 23 23 24
REMARK SMILES IDX 24 25 25 26 26 28 27 29 28 30 92 31 29 32 91 33 30 34 31 35
REMARK SMILES IDX 32 36 85 37 33 38 90 39 84 40 86 41 34 42 89 43 83 44 82 45
REMARK SMILES IDX 35 47 69 48 48 49 68 50 49 51 52 52 67 53 87 54 50 55 51 56
REMARK SMILES IDX 66 58 88 59 53 60 36 61 37 62 46 63 38 64 39 65 45 66 47 67
REMARK SMILES IDX 40 68 41 69 42 70 43 71 44 72 70 73 71 74 80 75 72 76 73 77
REMARK SMILES IDX 79 78 81 79 74 80 75 81 76 82 77 83 78 84 54 85 55 86 64 87
REMARK SMILES IDX 56 88 57 89 63 90 65 91 58 92 59 93 60 94 61 95 62 96
REMARK H PARENT 20 6 24 27 86 46 52 57
REMARK Flexibility Score: inf
ROOT
ATOM      1  C   UNL A   1      32.296  29.717  25.661  1.00  0.00     0.042 C 
ENDROOT
BRANCH   1   2
ATOM      2  C   UNL A   1      31.031  29.330  24.702  1.00  0.00     0.118 C 
BRANCH   2   3
ATOM      3  N   UNL A   1      31.246  28.486  23.497  1.00  0.00    -0.352 N 
ATOM      4  C   UNL A   1      31.617  27.184  23.212  1.00  0.00     0.251 C 
ATOM      5  O   UNL A   1      31.428  26.673  22.108  1.00  0.00    -0.269 OA
ATOM      6  H   UNL A   1      31.078  28.996  22.671  1.00  0.00     0.163 HD
BRANCH   4   7
ATOM      7  C   UNL A   1      32.253  26.338  24.238  1.00  0.00     0.043 A 
ATOM      8  C   UNL A   1      30.020  25.586  25.150  1.00  0.00     0.045 C 
ATOM      9  C   UNL A   1      31.504  25.415  24.971  1.00  0.00    -0.035 A 
ATOM     10  C   UNL A   1      32.186  24.376  25.613  1.00  0.00    -0.037 A 
ATOM     11  C   UNL A   1      33.571  24.507  25.840  1.00  0.00     0.004 A 
ATOM     12  C   UNL A   1      33.626  26.490  24.494  1.00  0.00     0.014 A 
ATOM     13  C   UNL A   1      34.277  25.598  25.341  1.00  0.00     0.001 A 
BRANCH  10  14
ATOM     14  C   UNL A   1      31.467  23.085  25.956  1.00  0.00     0.103 C 
BRANCH  14  15
ATOM     15  C   UNL A   1      31.746  22.025  24.928  1.00  0.00     0.097 A 
ATOM     16  N   UNL A   1      32.085  20.799  25.253  1.00  0.00    -0.245 NA
ATOM     17  S   UNL A   1      31.746  22.355  23.243  1.00  0.00    -0.127 S 
ATOM     18  C   UNL A   1      32.518  20.097  24.146  1.00  0.00     0.057 A 
ATOM     19  C   UNL A   1      32.336  20.767  22.949  1.00  0.00     0.091 A 
BRANCH  18  20
ATOM     20  C   UNL A   1      33.110  18.722  24.383  1.00  0.00     0.005 C 
ATOM     21  C   UNL A   1      32.506  18.108  25.657  1.00  0.00     0.017 C 
ATOM     22  C   UNL A   1      32.847  17.796  23.181  1.00  0.00     0.017 C 
ATOM     23  C   UNL A   1      34.644  18.821  24.566  1.00  0.00     0.017 C 
ENDBRANCH  18  20
ENDBRANCH  14  15
ENDBRANCH  10  14
ENDBRANCH   4   7
ENDBRANCH   2   3
ENDBRANCH   1   2
BRANCH   1  24
ATOM     24  C   UNL A   1      32.211  31.088  26.476  1.00  0.00     0.118 C 
BRANCH  24  25
ATOM     25  N   UNL A   1      33.252  31.642  27.535  1.00  0.00    -0.352 N 
ATOM     26  C   UNL A   1      34.678  31.510  27.848  1.00  0.00     0.251 C 
ATOM     27  H   UNL A   1      32.812  32.255  28.167  1.00  0.00     0.163 HD
ATOM     28  O   UNL A   1      35.296  32.587  27.747  1.00  0.00    -0.269 OA
BRANCH  26  29
ATOM     29  C   UNL A   1      35.603  30.322  28.359  1.00  0.00     0.039 A 
ATOM     30  C   UNL A   1      35.807  30.079  29.759  1.00  0.00     0.014 A 
ATOM     31  C   UNL A   1      36.360  29.467  27.570  1.00  0.00     0.014 A 
ATOM     32  C   UNL A   1      37.062  29.530  30.256  1.00  0.00     0.010 A 
ATOM     33  C   UNL A   1      37.600  28.932  28.052  1.00  0.00     0.010 A 
ATOM     34  C   UNL A   1      38.078  29.196  29.345  1.00  0.00    -0.014 A 
BRANCH  34  35
ATOM     35  C   UNL A   1      39.582  29.396  29.584  1.00  0.00     0.031 A 
ATOM     36  C   UNL A   1      40.560  28.471  29.020  1.00  0.00     0.074 A 
ATOM     37  C   UNL A   1      40.246  30.457  30.151  1.00  0.00     0.049 A 
ATOM     38  N   UNL A   1      41.541  27.939  29.675  1.00  0.00    -0.248 NA
ATOM     39  C   UNL A   1      40.545  28.187  27.598  1.00  0.00     0.031 C 
ATOM     40  C   UNL A   1      41.670  30.834  30.260  1.00  0.00     0.029 A 
ATOM     41  N   UNL A   1      39.712  31.583  30.736  1.00  0.00    -0.354 N 
ATOM     42  C   UNL A   1      42.441  27.533  28.712  1.00  0.00     0.074 A 
ATOM     43  C   UNL A   1      41.687  27.509  27.473  1.00  0.00     0.031 C 
ATOM     44  C   UNL A   1      41.817  31.823  31.176  1.00  0.00     0.029 A 
ATOM     45  C   UNL A   1      40.514  32.103  31.744  1.00  0.00     0.049 A 
ATOM     46  H   UNL A   1      38.852  31.978  30.468  1.00  0.00     0.167 HD
ATOM     47  C   UNL A   1      43.793  27.543  28.935  1.00  0.00     0.037 A 
ATOM     48  C   UNL A   1      40.061  32.062  33.041  1.00  0.00     0.037 A 
ATOM     49  C   UNL A   1      44.151  28.278  30.166  1.00  0.00     0.049 A 
ATOM     50  C   UNL A   1      40.828  31.004  33.792  1.00  0.00     0.074 A 
ATOM     51  C   UNL A   1      44.813  29.475  30.415  1.00  0.00     0.029 A 
ATOM     52  N   UNL A   1      43.566  27.941  31.375  1.00  0.00    -0.354 N 
ATOM     53  N   UNL A   1      41.954  30.515  33.366  1.00  0.00    -0.248 NA
ATOM     54  C   UNL A   1      40.363  30.340  35.008  1.00  0.00     0.031 C 
ATOM     55  C   UNL A   1      44.630  29.829  31.785  1.00  0.00     0.029 A 
ATOM     56  C   UNL A   1      43.874  28.839  32.384  1.00  0.00     0.049 A 
ATOM     57  H   UNL A   1      42.994  27.149  31.504  1.00  0.00     0.167 HD
ATOM     58  C   UNL A   1      42.283  29.411  34.087  1.00  0.00     0.074 A 
ATOM     59  C   UNL A   1      41.287  29.371  35.147  1.00  0.00     0.031 C 
ATOM     60  C   UNL A   1      43.320  28.606  33.714  1.00  0.00     0.037 A 
BRANCH  47  61
ATOM     61  C   UNL A   1      44.805  27.153  27.863  1.00  0.00     0.058 A 
ATOM     62  C   UNL A   1      45.243  28.063  26.879  1.00  0.00     0.135 A 
ATOM     63  C   UNL A   1      45.433  25.888  27.795  1.00  0.00     0.135 A 
ATOM     64  F   UNL A   1      44.873  29.350  26.895  1.00  0.00    -0.206 F 
ATOM     65  C   UNL A   1      46.127  27.711  25.853  1.00  0.00     0.059 A 
ATOM     66  C   UNL A   1      46.252  25.486  26.737  1.00  0.00     0.059 A 
ATOM     67  F   UNL A   1      45.351  25.011  28.807  1.00  0.00    -0.206 F 
ATOM     68  C   UNL A   1      46.604  26.410  25.771  1.00  0.00     0.060 A 
BRANCH  68  69
ATOM     69  S   UNL A   1      47.767  25.978  24.464  1.00  0.00     0.124 S 
ATOM     70  O   UNL A   1      49.041  25.950  25.176  1.00  0.00    -0.237 OA
ATOM     71  O   UNL A   1      47.256  24.685  24.022  1.00  0.00    -0.237 OA
ATOM     72  O   UNL A   1      47.620  27.067  23.502  1.00  0.00    -0.744 OA
ENDBRANCH  68  69
ENDBRANCH  47  61
BRANCH  48  73
ATOM     73  C   UNL A   1      38.553  32.364  33.260  1.00  0.00     0.058 A 
ATOM     74  C   UNL A   1      37.901  31.423  34.080  1.00  0.00     0.135 A 
ATOM     75  C   UNL A   1      38.329  33.667  33.664  1.00  0.00     0.135 A 
ATOM     76  F   UNL A   1      37.452  30.279  33.550  1.00  0.00    -0.206 F 
ATOM     77  C   UNL A   1      37.789  31.613  35.460  1.00  0.00     0.059 A 
ATOM     78  C   UNL A   1      38.257  33.867  35.046  1.00  0.00     0.059 A 
ATOM     79  F   UNL A   1      38.717  34.691  32.884  1.00  0.00    -0.206 F 
ATOM     80  C   UNL A   1      38.196  32.836  35.961  1.00  0.00     0.060 A 
BRANCH  80  81
ATOM     81  S   UNL A   1      39.082  32.939  37.739  1.00  0.00     0.124 S 
ATOM     82  O   UNL A   1      38.916  34.360  37.972  1.00  0.00    -0.237 OA
ATOM     83  O   UNL A   1      38.306  32.148  38.654  1.00  0.00    -0.237 OA
ATOM     84  O   UNL A   1      40.463  32.507  37.576  1.00  0.00    -0.744 OA
ENDBRANCH  80  81
ENDBRANCH  48  73
BRANCH  60  85
ATOM     85  C   UNL A   1      43.866  27.492  34.564  1.00  0.00     0.058 A 
ATOM     86  C   UNL A   1      43.135  26.324  34.838  1.00  0.00     0.135 A 
ATOM     87  C   UNL A   1      45.095  27.616  35.253  1.00  0.00     0.135 A 
ATOM     88  F   UNL A   1      41.883  26.162  34.383  1.00  0.00    -0.206 F 
ATOM     89  C   UNL A   1      43.644  25.296  35.627  1.00  0.00     0.059 A 
ATOM     90  C   UNL A   1      45.601  26.626  36.081  1.00  0.00     0.059 A 
ATOM     91  F   UNL A   1      45.866  28.706  35.157  1.00  0.00    -0.206 F 
ATOM     92  C   UNL A   1      44.889  25.450  36.231  1.00  0.00     0.060 A 
BRANCH  92  93
ATOM     93  S   UNL A   1      45.551  24.121  37.238  1.00  0.00     0.124 S 
ATOM     94  O   UNL A   1      45.124  22.932  36.506  1.00  0.00    -0.237 OA
ATOM     95  O   UNL A   1      46.981  24.411  37.195  1.00  0.00    -0.237 OA
ATOM     96  O   UNL A   1      44.908  24.318  38.534  1.00  0.00    -0.744 OA
ENDBRANCH  92  93
ENDBRANCH  60  85
ENDBRANCH  34  35
ENDBRANCH  26  29
ENDBRANCH  24  25
ENDBRANCH   1  24
TORSDOF 16
ENDMDL
