MODEL 1
REMARK VINA RESULT:     -12.6      0.000      0.000
REMARK SMILES Cn1ncc(C(=O)NCCCNC(=O)c2ccc(-c3c4nc(c(-c5c(F)cc(S(=O)(=O)[O-])cc5F)c5ccc([nH]5)c(-c5c(F)cc(S(=O)(=O)[O-])cc5F)c5nc(c(-c6c(F)cc(S(=O)(=O)[O-])cc6F)c6ccc3[nH]6)C=C5)C=C4)cc2)c1C(=O)NCC1CC[NH+](Cc2ccccc2)CC1
REMARK SMILES IDX 9 1 8 2 6 3 7 4 5 6 1 7 2 8 3 9 81 10 4 11 82 12 83 13 84 14
REMARK SMILES IDX 85 16 86 17 87 18 98 19 88 20 97 21 89 22 90 24 91 25 92 26
REMARK SMILES IDX 96 27 93 28 95 29 94 30 10 31 11 32 12 33 13 34 14 36 15 37
REMARK SMILES IDX 16 38 80 39 17 40 79 41 18 42 19 43 20 44 73 45 21 46 78 47
REMARK SMILES IDX 72 48 74 49 22 50 77 51 71 52 70 53 23 55 57 56 36 57 56 58
REMARK SMILES IDX 37 59 40 60 55 61 75 62 38 63 39 64 54 66 76 67 41 68 24 69
REMARK SMILES IDX 25 70 34 71 26 72 27 73 33 74 35 75 28 76 29 77 30 78 31 79
REMARK SMILES IDX 32 80 58 81 59 82 68 83 60 84 61 85 67 86 69 87 62 88 63 89
REMARK SMILES IDX 64 90 65 91 66 92 42 93 43 94 52 95 44 96 45 97 51 98 53 99
REMARK SMILES IDX 46 100 47 101 48 102 49 103 50 104
REMARK H PARENT 8 5 84 15 89 23 12 35 74 54 40 65
REMARK Flexibility Score: inf
ROOT
ATOM      1  C   UNL A   1      32.764  29.963  26.153  1.00  0.00     0.118 C 
ENDROOT
BRANCH   1   2
ATOM      2  N   UNL A   1      33.173  29.703  24.789  1.00  0.00    -0.352 N 
ATOM      3  C   UNL A   1      32.695  29.010  23.719  1.00  0.00     0.255 C 
ATOM      4  O   UNL A   1      33.525  28.869  22.813  1.00  0.00    -0.269 OA
ATOM      5  H   UNL A   1      34.026  30.147  24.578  1.00  0.00     0.163 HD
BRANCH   3   6
ATOM      6  C   UNL A   1      31.360  28.463  23.538  1.00  0.00     0.090 A 
ATOM      7  C   UNL A   1      28.210  26.703  23.876  1.00  0.00     0.174 C 
ATOM      8  N   UNL A   1      29.349  27.545  23.575  1.00  0.00    -0.262 N 
ATOM      9  N   UNL A   1      29.136  28.692  22.922  1.00  0.00    -0.180 NA
ATOM     10  C   UNL A   1      30.677  27.300  23.875  1.00  0.00     0.138 A 
ATOM     11  C   UNL A   1      30.339  29.259  22.929  1.00  0.00     0.149 A 
BRANCH  10  12
ATOM     12  C   UNL A   1      31.016  26.035  24.453  1.00  0.00     0.270 C 
ATOM     13  O   UNL A   1      30.788  25.728  25.614  1.00  0.00    -0.268 OA
ATOM     14  N   UNL A   1      31.357  25.134  23.471  1.00  0.00    -0.350 N 
ATOM     15  H   UNL A   1      31.937  25.425  22.732  1.00  0.00     0.163 HD
BRANCH  14  16
ATOM     16  C   UNL A   1      30.884  23.768  23.501  1.00  0.00     0.120 C 
BRANCH  16  17
ATOM     17  C   UNL A   1      31.983  22.700  23.687  1.00  0.00     0.019 C 
ATOM     18  C   UNL A   1      32.390  22.486  25.151  1.00  0.00     0.067 C 
ATOM     19  C   UNL A   1      33.228  22.892  22.804  1.00  0.00     0.067 C 
ATOM     20  C   UNL A   1      33.483  23.432  25.659  1.00  0.00     0.262 C 
ATOM     21  C   UNL A   1      34.263  23.862  23.377  1.00  0.00     0.262 C 
ATOM     22  N   UNL A   1      34.614  23.489  24.742  1.00  0.00    -0.331 N 
ATOM     23  H   UNL A   1      34.921  22.520  24.659  1.00  0.00     0.348 HD
BRANCH  22  24
ATOM     24  C   UNL A   1      35.787  24.194  25.280  1.00  0.00     0.299 C 
BRANCH  24  25
ATOM     25  C   UNL A   1      37.019  23.356  25.554  1.00  0.00     0.006 A 
ATOM     26  C   UNL A   1      37.083  22.026  25.109  1.00  0.00     0.009 A 
ATOM     27  C   UNL A   1      38.100  23.872  26.281  1.00  0.00     0.009 A 
ATOM     28  C   UNL A   1      38.201  21.236  25.377  1.00  0.00     0.001 A 
ATOM     29  C   UNL A   1      39.222  23.081  26.544  1.00  0.00     0.001 A 
ATOM     30  C   UNL A   1      39.275  21.765  26.090  1.00  0.00     0.000 A 
ENDBRANCH  24  25
ENDBRANCH  22  24
ENDBRANCH  16  17
ENDBRANCH  14  16
ENDBRANCH  10  12
ENDBRANCH   3   6
ENDBRANCH   1   2
BRANCH   1  31
ATOM     31  C   UNL A   1      33.526  29.108  27.167  1.00  0.00     0.042 C 
BRANCH  31  32
ATOM     32  C   UNL A   1      34.959  29.567  27.465  1.00  0.00     0.118 C 
BRANCH  32  33
ATOM     33  N   UNL A   1      35.079  30.302  28.714  1.00  0.00    -0.352 N 
ATOM     34  C   UNL A   1      36.147  30.462  29.566  1.00  0.00     0.251 C 
ATOM     35  H   UNL A   1      34.257  30.764  28.997  1.00  0.00     0.163 HD
ATOM     36  O   UNL A   1      35.955  31.006  30.653  1.00  0.00    -0.269 OA
BRANCH  34  37
ATOM     37  C   UNL A   1      37.510  29.978  29.229  1.00  0.00     0.039 A 
ATOM     38  C   UNL A   1      38.378  29.662  30.281  1.00  0.00     0.014 A 
ATOM     39  C   UNL A   1      37.983  29.928  27.915  1.00  0.00     0.014 A 
ATOM     40  C   UNL A   1      39.692  29.254  30.019  1.00  0.00     0.010 A 
ATOM     41  C   UNL A   1      39.281  29.474  27.650  1.00  0.00     0.010 A 
ATOM     42  C   UNL A   1      40.152  29.141  28.699  1.00  0.00    -0.014 A 
BRANCH  42  43
ATOM     43  C   UNL A   1      41.551  28.724  28.408  1.00  0.00     0.031 A 
ATOM     44  C   UNL A   1      42.663  29.740  28.430  1.00  0.00     0.074 A 
ATOM     45  C   UNL A   1      41.830  27.445  28.095  1.00  0.00     0.049 A 
ATOM     46  N   UNL A   1      43.927  29.588  28.124  1.00  0.00    -0.248 NA
ATOM     47  C   UNL A   1      42.302  31.107  28.835  1.00  0.00     0.031 C 
ATOM     48  C   UNL A   1      40.854  26.357  28.024  1.00  0.00     0.029 A 
ATOM     49  N   UNL A   1      43.022  26.843  27.769  1.00  0.00    -0.354 N 
ATOM     50  C   UNL A   1      44.506  30.843  28.268  1.00  0.00     0.074 A 
ATOM     51  C   UNL A   1      43.453  31.748  28.680  1.00  0.00     0.031 C 
ATOM     52  C   UNL A   1      41.486  25.221  27.685  1.00  0.00     0.029 A 
ATOM     53  C   UNL A   1      42.907  25.502  27.490  1.00  0.00     0.049 A 
ATOM     54  H   UNL A   1      43.878  27.329  27.738  1.00  0.00     0.167 HD
ATOM     55  C   UNL A   1      45.797  31.210  28.085  1.00  0.00     0.037 A 
ATOM     56  C   UNL A   1      43.836  24.602  27.113  1.00  0.00     0.037 A 
ATOM     57  C   UNL A   1      46.862  30.314  27.720  1.00  0.00     0.049 A 
ATOM     58  C   UNL A   1      45.268  25.026  26.945  1.00  0.00     0.074 A 
ATOM     59  C   UNL A   1      48.207  30.598  27.551  1.00  0.00     0.029 A 
ATOM     60  N   UNL A   1      46.706  28.959  27.479  1.00  0.00    -0.354 N 
ATOM     61  N   UNL A   1      45.797  26.215  27.101  1.00  0.00    -0.248 NA
ATOM     62  C   UNL A   1      46.230  23.984  26.552  1.00  0.00     0.031 C 
ATOM     63  C   UNL A   1      48.863  29.413  27.194  1.00  0.00     0.029 A 
ATOM     64  C   UNL A   1      47.928  28.392  27.159  1.00  0.00     0.049 A 
ATOM     65  H   UNL A   1      45.853  28.472  27.528  1.00  0.00     0.167 HD
ATOM     66  C   UNL A   1      47.154  26.063  26.835  1.00  0.00     0.074 A 
ATOM     67  C   UNL A   1      47.367  24.666  26.516  1.00  0.00     0.031 C 
ATOM     68  C   UNL A   1      48.132  27.000  26.854  1.00  0.00     0.037 A 
BRANCH  55  69
ATOM     69  C   UNL A   1      46.127  32.661  28.274  1.00  0.00     0.058 A 
ATOM     70  C   UNL A   1      46.520  33.166  29.522  1.00  0.00     0.135 A 
ATOM     71  C   UNL A   1      46.060  33.552  27.192  1.00  0.00     0.135 A 
ATOM     72  F   UNL A   1      46.584  32.354  30.589  1.00  0.00    -0.206 F 
ATOM     73  C   UNL A   1      46.811  34.514  29.700  1.00  0.00     0.059 A 
ATOM     74  C   UNL A   1      46.361  34.902  27.343  1.00  0.00     0.059 A 
ATOM     75  F   UNL A   1      45.686  33.115  25.979  1.00  0.00    -0.206 F 
ATOM     76  C   UNL A   1      46.718  35.376  28.605  1.00  0.00     0.060 A 
BRANCH  76  77
ATOM     77  S   UNL A   1      47.078  37.131  28.838  1.00  0.00     0.124 S 
ATOM     78  O   UNL A   1      48.404  37.234  28.237  1.00  0.00    -0.237 OA
ATOM     79  O   UNL A   1      45.998  37.780  28.103  1.00  0.00    -0.237 OA
ATOM     80  O   UNL A   1      47.028  37.292  30.287  1.00  0.00    -0.744 OA
ENDBRANCH  76  77
ENDBRANCH  55  69
BRANCH  56  81
ATOM     81  C   UNL A   1      43.436  23.194  26.876  1.00  0.00     0.058 A 
ATOM     82  C   UNL A   1      43.372  22.675  25.575  1.00  0.00     0.135 A 
ATOM     83  C   UNL A   1      43.137  22.335  27.944  1.00  0.00     0.135 A 
ATOM     84  F   UNL A   1      43.644  23.464  24.525  1.00  0.00    -0.206 F 
ATOM     85  C   UNL A   1      43.022  21.351  25.339  1.00  0.00     0.059 A 
ATOM     86  C   UNL A   1      42.796  21.004  27.734  1.00  0.00     0.059 A 
ATOM     87  F   UNL A   1      43.197  22.788  29.206  1.00  0.00    -0.206 F 
ATOM     88  C   UNL A   1      42.737  20.522  26.426  1.00  0.00     0.060 A 
BRANCH  88  89
ATOM     89  S   UNL A   1      42.356  18.782  26.125  1.00  0.00     0.124 S 
ATOM     90  O   UNL A   1      42.653  18.189  27.423  1.00  0.00    -0.237 OA
ATOM     91  O   UNL A   1      40.946  18.828  25.751  1.00  0.00    -0.237 OA
ATOM     92  O   UNL A   1      43.269  18.429  25.041  1.00  0.00    -0.744 OA
ENDBRANCH  88  89
ENDBRANCH  56  81
BRANCH  68  93
ATOM     93  C   UNL A   1      49.527  26.549  26.541  1.00  0.00     0.058 A 
ATOM     94  C   UNL A   1      50.374  26.056  27.545  1.00  0.00     0.135 A 
ATOM     95  C   UNL A   1      50.000  26.553  25.220  1.00  0.00     0.135 A 
ATOM     96  F   UNL A   1      49.968  26.038  28.824  1.00  0.00    -0.206 F 
ATOM     97  C   UNL A   1      51.651  25.586  27.250  1.00  0.00     0.059 A 
ATOM     98  C   UNL A   1      51.269  26.078  24.901  1.00  0.00     0.059 A 
ATOM     99  F   UNL A   1      49.223  27.011  24.227  1.00  0.00    -0.206 F 
ATOM    100  C   UNL A   1      52.090  25.602  25.924  1.00  0.00     0.060 A 
BRANCH 100 101
ATOM    101  S   UNL A   1      53.728  24.947  25.534  1.00  0.00     0.124 S 
ATOM    102  O   UNL A   1      54.467  25.270  26.751  1.00  0.00    -0.237 OA
ATOM    103  O   UNL A   1      53.461  23.530  25.313  1.00  0.00    -0.237 OA
ATOM    104  O   UNL A   1      54.114  25.698  24.344  1.00  0.00    -0.744 OA
ENDBRANCH 100 101
ENDBRANCH  68  93
ENDBRANCH  42  43
ENDBRANCH  34  37
ENDBRANCH  32  33
ENDBRANCH  31  32
ENDBRANCH   1  31
TORSDOF 18
ENDMDL
MODEL 2
REMARK VINA RESULT:     -12.5      6.470     12.033
REMARK SMILES Cn1ncc(C(=O)NCCCNC(=O)c2ccc(-c3c4nc(c(-c5c(F)cc(S(=O)(=O)[O-])cc5F)c5ccc([nH]5)c(-c5c(F)cc(S(=O)(=O)[O-])cc5F)c5nc(c(-c6c(F)cc(S(=O)(=O)[O-])cc6F)c6ccc3[nH]6)C=C5)C=C4)cc2)c1C(=O)NCC1CC[NH+](Cc2ccccc2)CC1
REMARK SMILES IDX 9 1 8 2 6 3 7 4 5 6 1 7 2 8 3 9 81 10 4 11 82 12 83 13 84 14
REMARK SMILES IDX 85 16 86 17 87 18 98 19 88 20 97 21 89 22 90 24 91 25 92 26
REMARK SMILES IDX 96 27 93 28 95 29 94 30 10 31 11 32 12 33 13 34 14 36 15 37
REMARK SMILES IDX 16 38 80 39 17 40 79 41 18 42 19 43 20 44 73 45 21 46 78 47
REMARK SMILES IDX 72 48 74 49 22 50 77 51 71 52 70 53 23 55 57 56 36 57 56 58
REMARK SMILES IDX 37 59 40 60 55 61 75 62 38 63 39 64 54 66 76 67 41 68 24 69
REMARK SMILES IDX 25 70 34 71 26 72 27 73 33 74 35 75 28 76 29 77 30 78 31 79
REMARK SMILES IDX 32 80 58 81 59 82 68 83 60 84 61 85 67 86 69 87 62 88 63 89
REMARK SMILES IDX 64 90 65 91 66 92 42 93 43 94 52 95 44 96 45 97 51 98 53 99
REMARK SMILES IDX 46 100 47 101 48 102 49 103 50 104
REMARK H PARENT 8 5 84 15 89 23 12 35 74 54 40 65
REMARK Flexibility Score: inf
ROOT
ATOM      1  C   UNL A   1      36.929  21.911  25.478  1.00  0.00     0.118 C 
ENDROOT
BRANCH   1   2
ATOM      2  N   UNL A   1      35.920  21.762  26.505  1.00  0.00    -0.352 N 
ATOM      3  C   UNL A   1      34.565  21.643  26.563  1.00  0.00     0.255 C 
ATOM      4  O   UNL A   1      34.106  21.789  27.703  1.00  0.00    -0.269 OA
ATOM      5  H   UNL A   1      36.321  21.743  27.404  1.00  0.00     0.163 HD
BRANCH   3   6
ATOM      6  C   UNL A   1      33.650  21.353  25.471  1.00  0.00     0.090 A 
ATOM      7  C   UNL A   1      32.019  21.013  22.252  1.00  0.00     0.174 C 
ATOM      8  N   UNL A   1      32.510  20.977  23.614  1.00  0.00    -0.262 N 
ATOM      9  N   UNL A   1      32.156  19.948  24.390  1.00  0.00    -0.180 NA
ATOM     10  C   UNL A   1      33.318  21.909  24.240  1.00  0.00     0.138 A 
ATOM     11  C   UNL A   1      32.866  20.157  25.494  1.00  0.00     0.149 A 
BRANCH  10  12
ATOM     12  C   UNL A   1      33.637  23.110  23.531  1.00  0.00     0.270 C 
ATOM     13  O   UNL A   1      34.619  23.243  22.814  1.00  0.00    -0.268 OA
ATOM     14  N   UNL A   1      32.565  23.971  23.534  1.00  0.00    -0.350 N 
ATOM     15  H   UNL A   1      32.053  24.098  24.365  1.00  0.00     0.163 HD
BRANCH  14  16
ATOM     16  C   UNL A   1      32.171  24.692  22.345  1.00  0.00     0.120 C 
BRANCH  16  17
ATOM     17  C   UNL A   1      31.995  26.215  22.532  1.00  0.00     0.019 C 
ATOM     18  C   UNL A   1      33.278  26.931  22.976  1.00  0.00     0.067 C 
ATOM     19  C   UNL A   1      30.813  26.624  23.427  1.00  0.00     0.067 C 
ATOM     20  C   UNL A   1      33.508  26.958  24.490  1.00  0.00     0.262 C 
ATOM     21  C   UNL A   1      31.123  26.612  24.926  1.00  0.00     0.262 C 
ATOM     22  N   UNL A   1      32.318  27.397  25.208  1.00  0.00    -0.331 N 
ATOM     23  H   UNL A   1      32.108  28.313  24.812  1.00  0.00     0.348 HD
BRANCH  22  24
ATOM     24  C   UNL A   1      32.544  27.664  26.636  1.00  0.00     0.299 C 
BRANCH  24  25
ATOM     25  C   UNL A   1      33.267  28.949  26.983  1.00  0.00     0.006 A 
ATOM     26  C   UNL A   1      34.655  28.945  27.195  1.00  0.00     0.009 A 
ATOM     27  C   UNL A   1      32.571  30.156  27.132  1.00  0.00     0.009 A 
ATOM     28  C   UNL A   1      35.330  30.116  27.539  1.00  0.00     0.001 A 
ATOM     29  C   UNL A   1      33.250  31.331  27.472  1.00  0.00     0.001 A 
ATOM     30  C   UNL A   1      34.628  31.312  27.672  1.00  0.00     0.000 A 
ENDBRANCH  24  25
ENDBRANCH  22  24
ENDBRANCH  16  17
ENDBRANCH  14  16
ENDBRANCH  10  12
ENDBRANCH   3   6
ENDBRANCH   1   2
BRANCH   1  31
ATOM     31  C   UNL A   1      37.316  23.372  25.242  1.00  0.00     0.042 C 
BRANCH  31  32
ATOM     32  C   UNL A   1      38.190  24.002  26.333  1.00  0.00     0.118 C 
BRANCH  32  33
ATOM     33  N   UNL A   1      39.615  23.896  26.063  1.00  0.00    -0.352 N 
ATOM     34  C   UNL A   1      40.677  24.643  26.517  1.00  0.00     0.251 C 
ATOM     35  H   UNL A   1      39.861  23.165  25.451  1.00  0.00     0.163 HD
ATOM     36  O   UNL A   1      41.783  24.456  26.016  1.00  0.00    -0.269 OA
BRANCH  34  37
ATOM     37  C   UNL A   1      40.524  25.680  27.569  1.00  0.00     0.039 A 
ATOM     38  C   UNL A   1      41.450  26.730  27.602  1.00  0.00     0.014 A 
ATOM     39  C   UNL A   1      39.560  25.588  28.578  1.00  0.00     0.014 A 
ATOM     40  C   UNL A   1      41.384  27.704  28.606  1.00  0.00     0.010 A 
ATOM     41  C   UNL A   1      39.464  26.588  29.554  1.00  0.00     0.010 A 
ATOM     42  C   UNL A   1      40.380  27.651  29.584  1.00  0.00    -0.014 A 
BRANCH  42  43
ATOM     43  C   UNL A   1      40.310  28.671  30.666  1.00  0.00     0.031 A 
ATOM     44  C   UNL A   1      41.233  28.580  31.853  1.00  0.00     0.074 A 
ATOM     45  C   UNL A   1      39.402  29.664  30.607  1.00  0.00     0.049 A 
ATOM     46  N   UNL A   1      41.267  29.321  32.931  1.00  0.00    -0.248 NA
ATOM     47  C   UNL A   1      42.237  27.506  31.828  1.00  0.00     0.031 C 
ATOM     48  C   UNL A   1      38.438  29.870  29.526  1.00  0.00     0.029 A 
ATOM     49  N   UNL A   1      39.139  30.687  31.487  1.00  0.00    -0.354 N 
ATOM     50  C   UNL A   1      42.273  28.787  33.727  1.00  0.00     0.074 A 
ATOM     51  C   UNL A   1      42.817  27.652  33.012  1.00  0.00     0.031 C 
ATOM     52  C   UNL A   1      37.695  30.955  29.801  1.00  0.00     0.029 A 
ATOM     53  C   UNL A   1      38.111  31.508  31.088  1.00  0.00     0.049 A 
ATOM     54  H   UNL A   1      39.640  30.818  32.324  1.00  0.00     0.167 HD
ATOM     55  C   UNL A   1      42.712  29.205  34.938  1.00  0.00     0.037 A 
ATOM     56  C   UNL A   1      37.560  32.579  31.692  1.00  0.00     0.037 A 
ATOM     57  C   UNL A   1      42.210  30.357  35.640  1.00  0.00     0.049 A 
ATOM     58  C   UNL A   1      38.083  33.044  33.022  1.00  0.00     0.074 A 
ATOM     59  C   UNL A   1      42.626  30.873  36.857  1.00  0.00     0.029 A 
ATOM     60  N   UNL A   1      41.192  31.178  35.185  1.00  0.00    -0.354 N 
ATOM     61  N   UNL A   1      39.045  32.533  33.751  1.00  0.00    -0.248 NA
ATOM     62  C   UNL A   1      37.447  34.233  33.611  1.00  0.00     0.031 C 
ATOM     63  C   UNL A   1      41.848  32.002  37.143  1.00  0.00     0.029 A 
ATOM     64  C   UNL A   1      40.961  32.195  36.097  1.00  0.00     0.049 A 
ATOM     65  H   UNL A   1      40.703  31.056  34.340  1.00  0.00     0.167 HD
ATOM     66  C   UNL A   1      39.136  33.342  34.878  1.00  0.00     0.074 A 
ATOM     67  C   UNL A   1      38.138  34.381  34.734  1.00  0.00     0.031 C 
ATOM     68  C   UNL A   1      39.973  33.230  35.938  1.00  0.00     0.037 A 
BRANCH  55  69
ATOM     69  C   UNL A   1      43.795  28.397  35.589  1.00  0.00     0.058 A 
ATOM     70  C   UNL A   1      45.150  28.641  35.321  1.00  0.00     0.135 A 
ATOM     71  C   UNL A   1      43.474  27.376  36.496  1.00  0.00     0.135 A 
ATOM     72  F   UNL A   1      45.504  29.597  34.447  1.00  0.00    -0.206 F 
ATOM     73  C   UNL A   1      46.154  27.882  35.912  1.00  0.00     0.059 A 
ATOM     74  C   UNL A   1      44.462  26.614  37.111  1.00  0.00     0.059 A 
ATOM     75  F   UNL A   1      42.191  27.105  36.781  1.00  0.00    -0.206 F 
ATOM     76  C   UNL A   1      45.798  26.862  36.798  1.00  0.00     0.060 A 
BRANCH  76  77
ATOM     77  S   UNL A   1      47.100  25.863  37.552  1.00  0.00     0.124 S 
ATOM     78  O   UNL A   1      46.626  25.767  38.929  1.00  0.00    -0.237 OA
ATOM     79  O   UNL A   1      47.046  24.628  36.776  1.00  0.00    -0.237 OA
ATOM     80  O   UNL A   1      48.299  26.670  37.352  1.00  0.00    -0.744 OA
ENDBRANCH  76  77
ENDBRANCH  55  69
BRANCH  56  81
ATOM     81  C   UNL A   1      36.445  33.299  31.030  1.00  0.00     0.058 A 
ATOM     82  C   UNL A   1      35.147  33.253  31.559  1.00  0.00     0.135 A 
ATOM     83  C   UNL A   1      36.660  34.065  29.875  1.00  0.00     0.135 A 
ATOM     84  F   UNL A   1      34.897  32.527  32.659  1.00  0.00    -0.206 F 
ATOM     85  C   UNL A   1      34.097  33.941  30.964  1.00  0.00     0.059 A 
ATOM     86  C   UNL A   1      35.628  34.771  29.269  1.00  0.00     0.059 A 
ATOM     87  F   UNL A   1      37.889  34.145  29.342  1.00  0.00    -0.206 F 
ATOM     88  C   UNL A   1      34.347  34.700  29.818  1.00  0.00     0.060 A 
BRANCH  88  89
ATOM     89  S   UNL A   1      33.000  35.655  29.087  1.00  0.00     0.124 S 
ATOM     90  O   UNL A   1      32.435  34.694  28.149  1.00  0.00    -0.237 OA
ATOM     91  O   UNL A   1      32.175  35.976  30.249  1.00  0.00    -0.237 OA
ATOM     92  O   UNL A   1      33.691  36.795  28.491  1.00  0.00    -0.744 OA
ENDBRANCH  88  89
ENDBRANCH  56  81
BRANCH  68  93
ATOM     93  C   UNL A   1      39.866  34.265  37.017  1.00  0.00     0.058 A 
ATOM     94  C   UNL A   1      40.444  35.535  36.868  1.00  0.00     0.135 A 
ATOM     95  C   UNL A   1      39.127  34.009  38.182  1.00  0.00     0.135 A 
ATOM     96  F   UNL A   1      41.165  35.824  35.774  1.00  0.00    -0.206 F 
ATOM     97  C   UNL A   1      40.300  36.516  37.844  1.00  0.00     0.059 A 
ATOM     98  C   UNL A   1      38.960  34.979  39.166  1.00  0.00     0.059 A 
ATOM     99  F   UNL A   1      38.551  32.811  38.365  1.00  0.00    -0.206 F 
ATOM    100  C   UNL A   1      39.556  36.228  38.991  1.00  0.00     0.060 A 
BRANCH 100 101
ATOM    101  S   UNL A   1      39.328  37.518  40.235  1.00  0.00     0.124 S 
ATOM    102  O   UNL A   1      38.518  38.487  39.505  1.00  0.00    -0.237 OA
ATOM    103  O   UNL A   1      38.647  36.807  41.312  1.00  0.00    -0.237 OA
ATOM    104  O   UNL A   1      40.693  37.936  40.536  1.00  0.00    -0.744 OA
ENDBRANCH 100 101
ENDBRANCH  68  93
ENDBRANCH  42  43
ENDBRANCH  34  37
ENDBRANCH  32  33
ENDBRANCH  31  32
ENDBRANCH   1  31
TORSDOF 18
ENDMDL
MODEL 3
REMARK VINA RESULT:     -12.2      1.565      2.310
REMARK SMILES Cn1ncc(C(=O)NCCCNC(=O)c2ccc(-c3c4nc(c(-c5c(F)cc(S(=O)(=O)[O-])cc5F)c5ccc([nH]5)c(-c5c(F)cc(S(=O)(=O)[O-])cc5F)c5nc(c(-c6c(F)cc(S(=O)(=O)[O-])cc6F)c6ccc3[nH]6)C=C5)C=C4)cc2)c1C(=O)NCC1CC[NH+](Cc2ccccc2)CC1
REMARK SMILES IDX 9 1 8 2 6 3 7 4 5 6 1 7 2 8 3 9 81 10 4 11 82 12 83 13 84 14
REMARK SMILES IDX 85 16 86 17 87 18 98 19 88 20 97 21 89 22 90 24 91 25 92 26
REMARK SMILES IDX 96 27 93 28 95 29 94 30 10 31 11 32 12 33 13 34 14 36 15 37
REMARK SMILES IDX 16 38 80 39 17 40 79 41 18 42 19 43 20 44 73 45 21 46 78 47
REMARK SMILES IDX 72 48 74 49 22 50 77 51 71 52 70 53 23 55 57 56 36 57 56 58
REMARK SMILES IDX 37 59 40 60 55 61 75 62 38 63 39 64 54 66 76 67 41 68 24 69
REMARK SMILES IDX 25 70 34 71 26 72 27 73 33 74 35 75 28 76 29 77 30 78 31 79
REMARK SMILES IDX 32 80 58 81 59 82 68 83 60 84 61 85 67 86 69 87 62 88 63 89
REMARK SMILES IDX 64 90 65 91 66 92 42 93 43 94 52 95 44 96 45 97 51 98 53 99
REMARK SMILES IDX 46 100 47 101 48 102 49 103 50 104
REMARK H PARENT 8 5 84 15 89 23 12 35 74 54 40 65
REMARK Flexibility Score: inf
ROOT
ATOM      1  C   UNL A   1      33.336  29.583  26.395  1.00  0.00     0.118 C 
ENDROOT
BRANCH   1   2
ATOM      2  N   UNL A   1      33.650  29.535  24.982  1.00  0.00    -0.352 N 
ATOM      3  C   UNL A   1      33.124  28.967  23.862  1.00  0.00     0.255 C 
ATOM      4  O   UNL A   1      33.887  28.998  22.889  1.00  0.00    -0.269 OA
ATOM      5  H   UNL A   1      34.463  30.051  24.775  1.00  0.00     0.163 HD
BRANCH   3   6
ATOM      6  C   UNL A   1      31.806  28.374  23.701  1.00  0.00     0.090 A 
ATOM      7  C   UNL A   1      28.834  26.311  23.908  1.00  0.00     0.174 C 
ATOM      8  N   UNL A   1      29.871  27.304  23.724  1.00  0.00    -0.262 N 
ATOM      9  N   UNL A   1      29.507  28.564  23.471  1.00  0.00    -0.180 NA
ATOM     10  C   UNL A   1      31.240  27.106  23.767  1.00  0.00     0.138 A 
ATOM     11  C   UNL A   1      30.667  29.213  23.489  1.00  0.00     0.149 A 
BRANCH  10  12
ATOM     12  C   UNL A   1      31.724  25.765  23.898  1.00  0.00     0.270 C 
ATOM     13  O   UNL A   1      31.856  24.990  22.962  1.00  0.00    -0.268 OA
ATOM     14  N   UNL A   1      32.280  25.574  25.141  1.00  0.00    -0.350 N 
ATOM     15  H   UNL A   1      31.820  25.932  25.934  1.00  0.00     0.163 HD
BRANCH  14  16
ATOM     16  C   UNL A   1      33.524  24.858  25.311  1.00  0.00     0.120 C 
BRANCH  16  17
ATOM     17  C   UNL A   1      33.418  23.544  26.115  1.00  0.00     0.019 C 
ATOM     18  C   UNL A   1      34.501  22.517  25.758  1.00  0.00     0.067 C 
ATOM     19  C   UNL A   1      32.027  22.887  26.099  1.00  0.00     0.067 C 
ATOM     20  C   UNL A   1      34.159  21.605  24.577  1.00  0.00     0.262 C 
ATOM     21  C   UNL A   1      31.761  22.004  24.879  1.00  0.00     0.262 C 
ATOM     22  N   UNL A   1      32.828  21.025  24.711  1.00  0.00    -0.331 N 
ATOM     23  H   UNL A   1      32.855  20.538  25.607  1.00  0.00     0.348 HD
BRANCH  22  24
ATOM     24  C   UNL A   1      32.533  19.968  23.734  1.00  0.00     0.299 C 
BRANCH  24  25
ATOM     25  C   UNL A   1      32.913  18.554  24.124  1.00  0.00     0.006 A 
ATOM     26  C   UNL A   1      32.540  18.041  25.377  1.00  0.00     0.009 A 
ATOM     27  C   UNL A   1      33.667  17.743  23.266  1.00  0.00     0.009 A 
ATOM     28  C   UNL A   1      32.905  16.750  25.758  1.00  0.00     0.001 A 
ATOM     29  C   UNL A   1      34.028  16.447  23.647  1.00  0.00     0.001 A 
ATOM     30  C   UNL A   1      33.645  15.950  24.891  1.00  0.00     0.000 A 
ENDBRANCH  24  25
ENDBRANCH  22  24
ENDBRANCH  16  17
ENDBRANCH  14  16
ENDBRANCH  10  12
ENDBRANCH   3   6
ENDBRANCH   1   2
BRANCH   1  31
ATOM     31  C   UNL A   1      34.554  29.297  27.276  1.00  0.00     0.042 C 
BRANCH  31  32
ATOM     32  C   UNL A   1      35.353  30.531  27.710  1.00  0.00     0.118 C 
BRANCH  32  33
ATOM     33  N   UNL A   1      35.302  30.776  29.143  1.00  0.00    -0.352 N 
ATOM     34  C   UNL A   1      36.252  30.597  30.122  1.00  0.00     0.251 C 
ATOM     35  H   UNL A   1      34.443  31.130  29.466  1.00  0.00     0.163 HD
ATOM     36  O   UNL A   1      35.915  30.727  31.297  1.00  0.00    -0.269 OA
BRANCH  34  37
ATOM     37  C   UNL A   1      37.656  30.227  29.807  1.00  0.00     0.039 A 
ATOM     38  C   UNL A   1      38.038  30.170  28.461  1.00  0.00     0.014 A 
ATOM     39  C   UNL A   1      38.567  29.839  30.793  1.00  0.00     0.014 A 
ATOM     40  C   UNL A   1      39.334  29.774  28.107  1.00  0.00     0.010 A 
ATOM     41  C   UNL A   1      39.877  29.489  30.443  1.00  0.00     0.010 A 
ATOM     42  C   UNL A   1      40.272  29.444  29.096  1.00  0.00    -0.014 A 
BRANCH  42  43
ATOM     43  C   UNL A   1      41.647  29.005  28.733  1.00  0.00     0.031 A 
ATOM     44  C   UNL A   1      42.783  29.994  28.738  1.00  0.00     0.074 A 
ATOM     45  C   UNL A   1      41.880  27.730  28.368  1.00  0.00     0.049 A 
ATOM     46  N   UNL A   1      44.029  29.823  28.373  1.00  0.00    -0.248 NA
ATOM     47  C   UNL A   1      42.472  31.355  29.200  1.00  0.00     0.031 C 
ATOM     48  C   UNL A   1      40.877  26.668  28.305  1.00  0.00     0.029 A 
ATOM     49  N   UNL A   1      43.043  27.112  27.973  1.00  0.00    -0.354 N 
ATOM     50  C   UNL A   1      44.644  31.059  28.532  1.00  0.00     0.074 A 
ATOM     51  C   UNL A   1      43.631  31.974  29.016  1.00  0.00     0.031 C 
ATOM     52  C   UNL A   1      41.466  25.529  27.905  1.00  0.00     0.029 A 
ATOM     53  C   UNL A   1      42.884  25.784  27.658  1.00  0.00     0.049 A 
ATOM     54  H   UNL A   1      43.908  27.579  27.920  1.00  0.00     0.167 HD
ATOM     55  C   UNL A   1      45.934  31.402  28.305  1.00  0.00     0.037 A 
ATOM     56  C   UNL A   1      43.774  24.875  27.213  1.00  0.00     0.037 A 
ATOM     57  C   UNL A   1      46.960  30.494  27.867  1.00  0.00     0.049 A 
ATOM     58  C   UNL A   1      45.208  25.271  26.998  1.00  0.00     0.074 A 
ATOM     59  C   UNL A   1      48.304  30.753  27.649  1.00  0.00     0.029 A 
ATOM     60  N   UNL A   1      46.762  29.152  27.591  1.00  0.00    -0.354 N 
ATOM     61  N   UNL A   1      45.772  26.442  27.167  1.00  0.00    -0.248 NA
ATOM     62  C   UNL A   1      46.127  24.221  26.531  1.00  0.00     0.031 C 
ATOM     63  C   UNL A   1      48.915  29.565  27.228  1.00  0.00     0.029 A 
ATOM     64  C   UNL A   1      47.955  28.568  27.201  1.00  0.00     0.049 A 
ATOM     65  H   UNL A   1      45.900  28.682  27.661  1.00  0.00     0.167 HD
ATOM     66  C   UNL A   1      47.112  26.268  26.839  1.00  0.00     0.074 A 
ATOM     67  C   UNL A   1      47.278  24.878  26.467  1.00  0.00     0.031 C 
ATOM     68  C   UNL A   1      48.112  27.181  26.844  1.00  0.00     0.037 A 
BRANCH  55  69
ATOM     69  C   UNL A   1      46.307  32.839  28.524  1.00  0.00     0.058 A 
ATOM     70  C   UNL A   1      46.771  33.293  29.767  1.00  0.00     0.135 A 
ATOM     71  C   UNL A   1      46.209  33.767  27.476  1.00  0.00     0.135 A 
ATOM     72  F   UNL A   1      46.866  32.444  30.803  1.00  0.00    -0.206 F 
ATOM     73  C   UNL A   1      47.102  34.627  29.974  1.00  0.00     0.059 A 
ATOM     74  C   UNL A   1      46.548  35.104  27.656  1.00  0.00     0.059 A 
ATOM     75  F   UNL A   1      45.767  33.379  26.269  1.00  0.00    -0.206 F 
ATOM     76  C   UNL A   1      46.977  35.527  28.914  1.00  0.00     0.060 A 
BRANCH  76  77
ATOM     77  S   UNL A   1      47.388  37.265  29.186  1.00  0.00     0.124 S 
ATOM     78  O   UNL A   1      48.823  37.265  28.919  1.00  0.00    -0.237 OA
ATOM     79  O   UNL A   1      46.561  37.948  28.197  1.00  0.00    -0.237 OA
ATOM     80  O   UNL A   1      47.005  37.485  30.576  1.00  0.00    -0.744 OA
ENDBRANCH  76  77
ENDBRANCH  55  69
BRANCH  56  81
ATOM     81  C   UNL A   1      43.331  23.485  26.951  1.00  0.00     0.058 A 
ATOM     82  C   UNL A   1      43.153  23.024  25.638  1.00  0.00     0.135 A 
ATOM     83  C   UNL A   1      43.102  22.585  28.002  1.00  0.00     0.135 A 
ATOM     84  F   UNL A   1      43.355  23.853  24.604  1.00  0.00    -0.206 F 
ATOM     85  C   UNL A   1      42.761  21.717  25.375  1.00  0.00     0.059 A 
ATOM     86  C   UNL A   1      42.721  21.270  27.764  1.00  0.00     0.059 A 
ATOM     87  F   UNL A   1      43.271  22.982  29.273  1.00  0.00    -0.206 F 
ATOM     88  C   UNL A   1      42.549  20.845  26.446  1.00  0.00     0.060 A 
BRANCH  88  89
ATOM     89  S   UNL A   1      42.113  19.126  26.104  1.00  0.00     0.124 S 
ATOM     90  O   UNL A   1      43.020  18.807  25.009  1.00  0.00    -0.237 OA
ATOM     91  O   UNL A   1      42.393  18.471  27.378  1.00  0.00    -0.237 OA
ATOM     92  O   UNL A   1      40.698  19.210  25.753  1.00  0.00    -0.744 OA
ENDBRANCH  88  89
ENDBRANCH  56  81
BRANCH  68  93
ATOM     93  C   UNL A   1      49.482  26.709  26.458  1.00  0.00     0.058 A 
ATOM     94  C   UNL A   1      50.328  26.090  27.391  1.00  0.00     0.135 A 
ATOM     95  C   UNL A   1      49.929  26.821  25.133  1.00  0.00     0.135 A 
ATOM     96  F   UNL A   1      49.946  25.967  28.672  1.00  0.00    -0.206 F 
ATOM     97  C   UNL A   1      51.578  25.602  27.023  1.00  0.00     0.059 A 
ATOM     98  C   UNL A   1      51.170  26.330  24.741  1.00  0.00     0.059 A 
ATOM     99  F   UNL A   1      49.152  27.401  24.206  1.00  0.00    -0.206 F 
ATOM    100  C   UNL A   1      51.992  25.728  25.695  1.00  0.00     0.060 A 
BRANCH 100 101
ATOM    101  S   UNL A   1      53.594  25.050  25.207  1.00  0.00     0.124 S 
ATOM    102  O   UNL A   1      53.291  23.626  25.113  1.00  0.00    -0.237 OA
ATOM    103  O   UNL A   1      53.855  25.727  23.941  1.00  0.00    -0.237 OA
ATOM    104  O   UNL A   1      54.469  25.437  26.309  1.00  0.00    -0.744 OA
ENDBRANCH 100 101
ENDBRANCH  68  93
ENDBRANCH  42  43
ENDBRANCH  34  37
ENDBRANCH  32  33
ENDBRANCH  31  32
ENDBRANCH   1  31
TORSDOF 18
ENDMDL
