MODEL 1
REMARK VINA RESULT:     -11.7      0.000      0.000
REMARK SMILES O=C(NCCCNC(=O)c1cc(NC(=O)c2ccc(Br)o2)ccc1O)c1ccc(-c2c3nc(c(-c4c(F)cc(S(=O)(=O)[O-])cc4F)c4ccc([nH]4)c(-c4c(F)cc(S(=O)(=O)[O-])cc4F)c4nc(c(-c5c(F)cc(S(=O)(=O)[O-])cc5F)c5ccc2[nH]5)C=C4)C=C3)cc1
REMARK SMILES IDX 4 1 3 2 1 3 2 4 26 6 27 7 91 8 28 9 90 10 29 11 30 12 31 13
REMARK SMILES IDX 84 14 32 15 89 16 83 17 85 18 33 19 88 20 82 21 81 22 34 24
REMARK SMILES IDX 68 25 47 26 67 27 48 28 51 29 66 30 86 31 49 32 50 33 65 35
REMARK SMILES IDX 87 36 52 37 35 38 36 39 45 40 37 41 38 42 44 43 46 44 39 45
REMARK SMILES IDX 40 46 41 47 42 48 43 49 69 50 70 51 79 52 71 53 72 54 78 55
REMARK SMILES IDX 80 56 73 57 74 58 75 59 76 60 77 61 53 62 54 63 63 64 55 65
REMARK SMILES IDX 56 66 62 67 64 68 57 69 58 70 59 71 60 72 61 73 5 74 6 75
REMARK SMILES IDX 7 76 8 77 9 79 10 80 11 81 24 82 12 83 23 84 22 85 25 86
REMARK SMILES IDX 13 88 14 89 15 91 16 92 17 93 21 94 18 95 19 96 20 97
REMARK H PARENT 3 5 85 23 51 34 7 78 25 87 13 90
REMARK Flexibility Score: inf
ROOT
ATOM      1  C   UNL A   1      33.739  28.373  27.072  1.00  0.00     0.118 C 
ENDROOT
BRANCH   1   2
ATOM      2  N   UNL A   1      33.652  29.760  27.504  1.00  0.00    -0.352 N 
ATOM      3  O   UNL A   1      34.210  31.631  28.621  1.00  0.00    -0.269 OA
ATOM      4  C   UNL A   1      34.564  30.542  28.170  1.00  0.00     0.251 C 
ATOM      5  H   UNL A   1      32.804  30.210  27.285  1.00  0.00     0.163 HD
BRANCH   4   6
ATOM      6  C   UNL A   1      35.957  30.079  28.358  1.00  0.00     0.039 A 
ATOM      7  C   UNL A   1      36.901  30.225  27.340  1.00  0.00     0.014 A 
ATOM      8  C   UNL A   1      36.340  29.536  29.589  1.00  0.00     0.014 A 
ATOM      9  C   UNL A   1      38.179  29.703  27.496  1.00  0.00     0.010 A 
ATOM     10  C   UNL A   1      37.656  29.108  29.783  1.00  0.00     0.010 A 
ATOM     11  C   UNL A   1      38.583  29.177  28.732  1.00  0.00    -0.014 A 
BRANCH  11  12
ATOM     12  C   UNL A   1      40.015  28.844  28.935  1.00  0.00     0.031 A 
ATOM     13  C   UNL A   1      40.580  27.516  28.522  1.00  0.00     0.074 A 
ATOM     14  C   UNL A   1      40.802  29.778  29.506  1.00  0.00     0.049 A 
ATOM     15  N   UNL A   1      41.805  27.075  28.648  1.00  0.00    -0.248 NA
ATOM     16  C   UNL A   1      39.661  26.554  27.892  1.00  0.00     0.031 C 
ATOM     17  C   UNL A   1      40.347  31.094  29.971  1.00  0.00     0.029 A 
ATOM     18  N   UNL A   1      42.142  29.777  29.794  1.00  0.00    -0.354 N 
ATOM     19  C   UNL A   1      41.804  25.781  28.141  1.00  0.00     0.074 A 
ATOM     20  C   UNL A   1      40.450  25.502  27.708  1.00  0.00     0.031 C 
ATOM     21  C   UNL A   1      41.389  31.779  30.457  1.00  0.00     0.029 A 
ATOM     22  C   UNL A   1      42.571  30.930  30.409  1.00  0.00     0.049 A 
ATOM     23  H   UNL A   1      42.740  29.024  29.582  1.00  0.00     0.167 HD
ATOM     24  C   UNL A   1      42.840  24.915  28.047  1.00  0.00     0.037 A 
ATOM     25  C   UNL A   1      43.774  31.257  30.917  1.00  0.00     0.037 A 
ATOM     26  C   UNL A   1      44.187  25.223  28.459  1.00  0.00     0.049 A 
ATOM     27  C   UNL A   1      44.893  30.263  30.820  1.00  0.00     0.074 A 
ATOM     28  C   UNL A   1      45.324  24.443  28.324  1.00  0.00     0.029 A 
ATOM     29  N   UNL A   1      44.579  26.390  29.097  1.00  0.00    -0.354 N 
ATOM     30  N   UNL A   1      44.889  29.075  30.265  1.00  0.00    -0.248 NA
ATOM     31  C   UNL A   1      46.176  30.644  31.426  1.00  0.00     0.031 C 
ATOM     32  C   UNL A   1      46.389  25.113  28.933  1.00  0.00     0.029 A 
ATOM     33  C   UNL A   1      45.928  26.332  29.403  1.00  0.00     0.049 A 
ATOM     34  H   UNL A   1      43.985  27.148  29.302  1.00  0.00     0.167 HD
ATOM     35  C   UNL A   1      46.168  28.566  30.454  1.00  0.00     0.074 A 
ATOM     36  C   UNL A   1      46.927  29.589  31.145  1.00  0.00     0.031 C 
ATOM     37  C   UNL A   1      46.665  27.358  30.098  1.00  0.00     0.037 A 
BRANCH  24  38
ATOM     38  C   UNL A   1      42.584  23.541  27.496  1.00  0.00     0.058 A 
ATOM     39  C   UNL A   1      42.682  23.263  26.125  1.00  0.00     0.135 A 
ATOM     40  C   UNL A   1      42.355  22.462  28.369  1.00  0.00     0.135 A 
ATOM     41  F   UNL A   1      42.885  24.257  25.246  1.00  0.00    -0.206 F 
ATOM     42  C   UNL A   1      42.568  21.963  25.638  1.00  0.00     0.059 A 
ATOM     43  C   UNL A   1      42.258  21.153  27.906  1.00  0.00     0.059 A 
ATOM     44  F   UNL A   1      42.249  22.674  29.689  1.00  0.00    -0.206 F 
ATOM     45  C   UNL A   1      42.366  20.914  26.536  1.00  0.00     0.060 A 
BRANCH  45  46
ATOM     46  S   UNL A   1      42.278  19.230  25.891  1.00  0.00     0.124 S 
ATOM     47  O   UNL A   1      43.150  19.319  24.724  1.00  0.00    -0.237 OA
ATOM     48  O   UNL A   1      42.793  18.443  27.007  1.00  0.00    -0.237 OA
ATOM     49  O   UNL A   1      40.859  19.048  25.601  1.00  0.00    -0.744 OA
ENDBRANCH  45  46
ENDBRANCH  24  38
BRANCH  25  50
ATOM     50  C   UNL A   1      43.958  32.556  31.616  1.00  0.00     0.058 A 
ATOM     51  C   UNL A   1      44.362  33.706  30.925  1.00  0.00     0.135 A 
ATOM     52  C   UNL A   1      43.737  32.668  33.000  1.00  0.00     0.135 A 
ATOM     53  F   UNL A   1      44.586  33.650  29.603  1.00  0.00    -0.206 F 
ATOM     54  C   UNL A   1      44.571  34.914  31.582  1.00  0.00     0.059 A 
ATOM     55  C   UNL A   1      43.908  33.871  33.674  1.00  0.00     0.059 A 
ATOM     56  F   UNL A   1      43.329  31.601  33.705  1.00  0.00    -0.206 F 
ATOM     57  C   UNL A   1      44.344  34.984  32.959  1.00  0.00     0.060 A 
BRANCH  57  58
ATOM     58  S   UNL A   1      44.609  36.556  33.806  1.00  0.00     0.124 S 
ATOM     59  O   UNL A   1      44.654  36.132  35.200  1.00  0.00    -0.237 OA
ATOM     60  O   UNL A   1      45.875  37.006  33.233  1.00  0.00    -0.237 OA
ATOM     61  O   UNL A   1      43.442  37.343  33.420  1.00  0.00    -0.744 OA
ENDBRANCH  57  58
ENDBRANCH  25  50
BRANCH  37  62
ATOM     62  C   UNL A   1      48.097  27.077  30.452  1.00  0.00     0.058 A 
ATOM     63  C   UNL A   1      49.148  27.475  29.611  1.00  0.00     0.135 A 
ATOM     64  C   UNL A   1      48.425  26.449  31.664  1.00  0.00     0.135 A 
ATOM     65  F   UNL A   1      48.884  28.068  28.435  1.00  0.00    -0.206 F 
ATOM     66  C   UNL A   1      50.475  27.243  29.951  1.00  0.00     0.059 A 
ATOM     67  C   UNL A   1      49.748  26.233  32.037  1.00  0.00     0.059 A 
ATOM     68  F   UNL A   1      47.456  26.054  32.506  1.00  0.00    -0.206 F 
ATOM     69  C   UNL A   1      50.765  26.625  31.168  1.00  0.00     0.060 A 
BRANCH  69  70
ATOM     70  S   UNL A   1      52.495  26.373  31.617  1.00  0.00     0.124 S 
ATOM     71  O   UNL A   1      52.787  27.596  32.359  1.00  0.00    -0.237 OA
ATOM     72  O   UNL A   1      52.437  25.149  32.410  1.00  0.00    -0.237 OA
ATOM     73  O   UNL A   1      53.166  26.248  30.327  1.00  0.00    -0.744 OA
ENDBRANCH  69  70
ENDBRANCH  37  62
ENDBRANCH  11  12
ENDBRANCH   4   6
ENDBRANCH   1   2
BRANCH   1  74
ATOM     74  C   UNL A   1      32.425  27.845  26.526  1.00  0.00     0.042 C 
BRANCH  74  75
ATOM     75  C   UNL A   1      32.421  26.352  26.245  1.00  0.00     0.118 C 
BRANCH  75  76
ATOM     76  N   UNL A   1      31.329  25.642  26.895  1.00  0.00    -0.352 N 
ATOM     77  C   UNL A   1      30.796  24.415  26.581  1.00  0.00     0.255 C 
ATOM     78  H   UNL A   1      30.917  26.103  27.661  1.00  0.00     0.163 HD
ATOM     79  O   UNL A   1      29.862  23.957  27.233  1.00  0.00    -0.269 OA
BRANCH  77  80
ATOM     80  C   UNL A   1      31.255  23.715  25.364  1.00  0.00     0.083 A 
ATOM     81  C   UNL A   1      32.100  22.618  25.573  1.00  0.00     0.043 A 
ATOM     82  C   UNL A   1      30.816  24.034  24.080  1.00  0.00     0.128 A 
ATOM     83  C   UNL A   1      32.386  21.736  24.538  1.00  0.00     0.042 A 
ATOM     84  C   UNL A   1      31.143  23.196  23.020  1.00  0.00     0.049 A 
ATOM     85  C   UNL A   1      31.905  22.043  23.256  1.00  0.00     0.030 A 
BRANCH  82  86
ATOM     86  O   UNL A   1      30.045  25.140  23.869  1.00  0.00    -0.507 OA
ATOM     87  H   UNL A   1      30.044  25.559  23.030  1.00  0.00     0.293 HD
ENDBRANCH  82  86
BRANCH  83  88
ATOM     88  N   UNL A   1      33.123  20.544  24.673  1.00  0.00    -0.319 N 
ATOM     89  C   UNL A   1      34.475  20.253  24.680  1.00  0.00     0.291 C 
ATOM     90  H   UNL A   1      32.555  19.749  24.787  1.00  0.00     0.170 HD
ATOM     91  O   UNL A   1      34.783  19.058  24.693  1.00  0.00    -0.265 OA
BRANCH  89  92
ATOM     92  C   UNL A   1      35.459  21.304  24.700  1.00  0.00     0.193 A 
ATOM     93  C   UNL A   1      35.615  22.457  23.948  1.00  0.00     0.057 A 
ATOM     94  O   UNL A   1      36.486  21.204  25.600  1.00  0.00    -0.444 OA
ATOM     95  C   UNL A   1      36.834  23.050  24.369  1.00  0.00     0.059 A 
ATOM     96  C   UNL A   1      37.321  22.252  25.378  1.00  0.00     0.170 A 
ATOM     97  Br  UNL A   1      38.919  22.534  26.298  1.00  0.00    -0.008 Br
ENDBRANCH  89  92
ENDBRANCH  83  88
ENDBRANCH  77  80
ENDBRANCH  75  76
ENDBRANCH  74  75
ENDBRANCH   1  74
TORSDOF 16
ENDMDL
MODEL 2
REMARK VINA RESULT:     -11.6      3.049      8.992
REMARK SMILES O=C(NCCCNC(=O)c1cc(NC(=O)c2ccc(Br)o2)ccc1O)c1ccc(-c2c3nc(c(-c4c(F)cc(S(=O)(=O)[O-])cc4F)c4ccc([nH]4)c(-c4c(F)cc(S(=O)(=O)[O-])cc4F)c4nc(c(-c5c(F)cc(S(=O)(=O)[O-])cc5F)c5ccc2[nH]5)C=C4)C=C3)cc1
REMARK SMILES IDX 4 1 3 2 1 3 2 4 26 6 27 7 91 8 28 9 90 10 29 11 30 12 31 13
REMARK SMILES IDX 84 14 32 15 89 16 83 17 85 18 33 19 88 20 82 21 81 22 34 24
REMARK SMILES IDX 68 25 47 26 67 27 48 28 51 29 66 30 86 31 49 32 50 33 65 35
REMARK SMILES IDX 87 36 52 37 35 38 36 39 45 40 37 41 38 42 44 43 46 44 39 45
REMARK SMILES IDX 40 46 41 47 42 48 43 49 69 50 70 51 79 52 71 53 72 54 78 55
REMARK SMILES IDX 80 56 73 57 74 58 75 59 76 60 77 61 53 62 54 63 63 64 55 65
REMARK SMILES IDX 56 66 62 67 64 68 57 69 58 70 59 71 60 72 61 73 5 74 6 75
REMARK SMILES IDX 7 76 8 77 9 79 10 80 11 81 24 82 12 83 23 84 22 85 25 86
REMARK SMILES IDX 13 88 14 89 15 91 16 92 17 93 21 94 18 95 19 96 20 97
REMARK H PARENT 3 5 85 23 51 34 7 78 25 87 13 90
REMARK Flexibility Score: inf
ROOT
ATOM      1  C   UNL A   1      35.171  29.354  27.579  1.00  0.00     0.118 C 
ENDROOT
BRANCH   1   2
ATOM      2  N   UNL A   1      35.206  30.208  28.757  1.00  0.00    -0.352 N 
ATOM      3  O   UNL A   1      35.977  31.048  30.695  1.00  0.00    -0.269 OA
ATOM      4  C   UNL A   1      36.222  30.447  29.651  1.00  0.00     0.251 C 
ATOM      5  H   UNL A   1      34.370  30.692  28.944  1.00  0.00     0.163 HD
BRANCH   4   6
ATOM      6  C   UNL A   1      37.597  29.977  29.370  1.00  0.00     0.039 A 
ATOM      7  C   UNL A   1      38.106  29.993  28.070  1.00  0.00     0.014 A 
ATOM      8  C   UNL A   1      38.409  29.560  30.430  1.00  0.00     0.014 A 
ATOM      9  C   UNL A   1      39.363  29.463  27.808  1.00  0.00     0.010 A 
ATOM     10  C   UNL A   1      39.715  29.127  30.179  1.00  0.00     0.010 A 
ATOM     11  C   UNL A   1      40.197  29.064  28.863  1.00  0.00    -0.014 A 
BRANCH  11  12
ATOM     12  C   UNL A   1      41.611  28.723  28.568  1.00  0.00     0.031 A 
ATOM     13  C   UNL A   1      42.692  29.766  28.587  1.00  0.00     0.074 A 
ATOM     14  C   UNL A   1      41.901  27.438  28.282  1.00  0.00     0.049 A 
ATOM     15  N   UNL A   1      43.967  29.624  28.336  1.00  0.00    -0.248 NA
ATOM     16  C   UNL A   1      42.298  31.144  28.922  1.00  0.00     0.031 C 
ATOM     17  C   UNL A   1      40.920  26.349  28.210  1.00  0.00     0.029 A 
ATOM     18  N   UNL A   1      43.093  26.822  28.001  1.00  0.00    -0.354 N 
ATOM     19  C   UNL A   1      44.527  30.890  28.457  1.00  0.00     0.074 A 
ATOM     20  C   UNL A   1      43.449  31.795  28.798  1.00  0.00     0.031 C 
ATOM     21  C   UNL A   1      41.550  25.200  27.934  1.00  0.00     0.029 A 
ATOM     22  C   UNL A   1      42.966  25.478  27.736  1.00  0.00     0.049 A 
ATOM     23  H   UNL A   1      43.956  27.294  27.989  1.00  0.00     0.167 HD
ATOM     24  C   UNL A   1      45.821  31.253  28.298  1.00  0.00     0.037 A 
ATOM     25  C   UNL A   1      43.878  24.574  27.336  1.00  0.00     0.037 A 
ATOM     26  C   UNL A   1      46.885  30.332  27.985  1.00  0.00     0.049 A 
ATOM     27  C   UNL A   1      45.299  25.017  27.144  1.00  0.00     0.074 A 
ATOM     28  C   UNL A   1      48.243  30.590  27.890  1.00  0.00     0.029 A 
ATOM     29  N   UNL A   1      46.716  28.985  27.702  1.00  0.00    -0.354 N 
ATOM     30  N   UNL A   1      45.821  26.204  27.341  1.00  0.00    -0.248 NA
ATOM     31  C   UNL A   1      46.252  24.007  26.667  1.00  0.00     0.031 C 
ATOM     32  C   UNL A   1      48.885  29.414  27.492  1.00  0.00     0.029 A 
ATOM     33  C   UNL A   1      47.936  28.410  27.387  1.00  0.00     0.049 A 
ATOM     34  H   UNL A   1      45.855  28.508  27.722  1.00  0.00     0.167 HD
ATOM     35  C   UNL A   1      47.164  26.083  27.011  1.00  0.00     0.074 A 
ATOM     36  C   UNL A   1      47.381  24.701  26.635  1.00  0.00     0.031 C 
ATOM     37  C   UNL A   1      48.130  27.033  27.008  1.00  0.00     0.037 A 
BRANCH  24  38
ATOM     38  C   UNL A   1      46.185  32.705  28.438  1.00  0.00     0.058 A 
ATOM     39  C   UNL A   1      46.649  33.238  29.650  1.00  0.00     0.135 A 
ATOM     40  C   UNL A   1      46.183  33.545  27.311  1.00  0.00     0.135 A 
ATOM     41  F   UNL A   1      46.659  32.485  30.761  1.00  0.00    -0.206 F 
ATOM     42  C   UNL A   1      47.103  34.552  29.739  1.00  0.00     0.059 A 
ATOM     43  C   UNL A   1      46.651  34.854  27.372  1.00  0.00     0.059 A 
ATOM     44  F   UNL A   1      45.746  33.085  26.128  1.00  0.00    -0.206 F 
ATOM     45  C   UNL A   1      47.109  35.349  28.593  1.00  0.00     0.060 A 
BRANCH  45  46
ATOM     46  S   UNL A   1      47.755  37.031  28.715  1.00  0.00     0.124 S 
ATOM     47  O   UNL A   1      48.803  36.868  29.718  1.00  0.00    -0.237 OA
ATOM     48  O   UNL A   1      48.215  37.286  27.354  1.00  0.00    -0.237 OA
ATOM     49  O   UNL A   1      46.598  37.812  29.140  1.00  0.00    -0.744 OA
ENDBRANCH  45  46
ENDBRANCH  24  38
BRANCH  25  50
ATOM     50  C   UNL A   1      43.461  23.179  27.033  1.00  0.00     0.058 A 
ATOM     51  C   UNL A   1      43.141  22.274  28.054  1.00  0.00     0.135 A 
ATOM     52  C   UNL A   1      43.379  22.724  25.706  1.00  0.00     0.135 A 
ATOM     53  F   UNL A   1      43.205  22.661  29.337  1.00  0.00    -0.206 F 
ATOM     54  C   UNL A   1      42.786  20.958  27.775  1.00  0.00     0.059 A 
ATOM     55  C   UNL A   1      42.995  21.424  25.400  1.00  0.00     0.059 A 
ATOM     56  F   UNL A   1      43.653  23.558  24.690  1.00  0.00    -0.206 F 
ATOM     57  C   UNL A   1      42.720  20.543  26.443  1.00  0.00     0.060 A 
BRANCH  57  58
ATOM     58  S   UNL A   1      42.251  18.837  26.086  1.00  0.00     0.124 S 
ATOM     59  O   UNL A   1      43.177  18.498  25.013  1.00  0.00    -0.237 OA
ATOM     60  O   UNL A   1      42.488  18.177  27.367  1.00  0.00    -0.237 OA
ATOM     61  O   UNL A   1      40.848  18.951  25.700  1.00  0.00    -0.744 OA
ENDBRANCH  57  58
ENDBRANCH  25  50
BRANCH  37  62
ATOM     62  C   UNL A   1      49.506  26.608  26.584  1.00  0.00     0.058 A 
ATOM     63  C   UNL A   1      50.376  25.959  27.474  1.00  0.00     0.135 A 
ATOM     64  C   UNL A   1      49.942  26.808  25.265  1.00  0.00     0.135 A 
ATOM     65  F   UNL A   1      50.009  25.758  28.750  1.00  0.00    -0.206 F 
ATOM     66  C   UNL A   1      51.638  25.538  27.075  1.00  0.00     0.059 A 
ATOM     67  C   UNL A   1      51.191  26.368  24.836  1.00  0.00     0.059 A 
ATOM     68  F   UNL A   1      49.144  27.419  24.373  1.00  0.00    -0.206 F 
ATOM     69  C   UNL A   1      52.035  25.743  25.753  1.00  0.00     0.060 A 
BRANCH  69  70
ATOM     70  S   UNL A   1      53.659  25.148  25.237  1.00  0.00     0.124 S 
ATOM     71  O   UNL A   1      54.532  25.798  26.210  1.00  0.00    -0.237 OA
ATOM     72  O   UNL A   1      53.521  23.702  25.376  1.00  0.00    -0.237 OA
ATOM     73  O   UNL A   1      53.779  25.633  23.866  1.00  0.00    -0.744 OA
ENDBRANCH  69  70
ENDBRANCH  37  62
ENDBRANCH  11  12
ENDBRANCH   4   6
ENDBRANCH   1   2
BRANCH   1  74
ATOM     74  C   UNL A   1      33.759  28.968  27.177  1.00  0.00     0.042 C 
BRANCH  74  75
ATOM     75  C   UNL A   1      33.568  28.768  25.683  1.00  0.00     0.118 C 
BRANCH  75  76
ATOM     76  N   UNL A   1      32.454  29.525  25.134  1.00  0.00    -0.352 N 
ATOM     77  C   UNL A   1      31.296  29.056  24.561  1.00  0.00     0.255 C 
ATOM     78  H   UNL A   1      32.541  30.505  25.178  1.00  0.00     0.163 HD
ATOM     79  O   UNL A   1      30.450  29.838  24.137  1.00  0.00    -0.269 OA
BRANCH  77  80
ATOM     80  C   UNL A   1      31.140  27.607  24.325  1.00  0.00     0.083 A 
ATOM     81  C   UNL A   1      30.777  26.842  25.440  1.00  0.00     0.043 A 
ATOM     82  C   UNL A   1      31.240  27.016  23.066  1.00  0.00     0.128 A 
ATOM     83  C   UNL A   1      30.356  25.526  25.291  1.00  0.00     0.042 A 
ATOM     84  C   UNL A   1      30.880  25.683  22.908  1.00  0.00     0.049 A 
ATOM     85  C   UNL A   1      30.420  24.952  24.012  1.00  0.00     0.030 A 
BRANCH  82  86
ATOM     86  O   UNL A   1      31.656  27.748  21.992  1.00  0.00    -0.507 OA
ATOM     87  H   UNL A   1      32.031  27.318  21.248  1.00  0.00     0.293 HD
ENDBRANCH  82  86
BRANCH  83  88
ATOM     88  N   UNL A   1      29.858  24.715  26.329  1.00  0.00    -0.319 N 
ATOM     89  C   UNL A   1      30.188  23.457  26.799  1.00  0.00     0.291 C 
ATOM     90  H   UNL A   1      29.118  25.132  26.825  1.00  0.00     0.170 HD
ATOM     91  O   UNL A   1      29.450  22.978  27.664  1.00  0.00    -0.265 OA
BRANCH  89  92
ATOM     92  C   UNL A   1      31.355  22.766  26.312  1.00  0.00     0.193 A 
ATOM     93  C   UNL A   1      32.702  23.085  26.315  1.00  0.00     0.057 A 
ATOM     94  O   UNL A   1      31.173  21.559  25.694  1.00  0.00    -0.444 OA
ATOM     95  C   UNL A   1      33.363  22.050  25.603  1.00  0.00     0.059 A 
ATOM     96  C   UNL A   1      32.389  21.144  25.252  1.00  0.00     0.170 A 
ATOM     97  Br  UNL A   1      32.675  19.581  24.275  1.00  0.00    -0.008 Br
ENDBRANCH  89  92
ENDBRANCH  83  88
ENDBRANCH  77  80
ENDBRANCH  75  76
ENDBRANCH  74  75
ENDBRANCH   1  74
TORSDOF 16
ENDMDL
MODEL 3
REMARK VINA RESULT:     -11.5      4.975      9.868
REMARK SMILES O=C(NCCCNC(=O)c1cc(NC(=O)c2ccc(Br)o2)ccc1O)c1ccc(-c2c3nc(c(-c4c(F)cc(S(=O)(=O)[O-])cc4F)c4ccc([nH]4)c(-c4c(F)cc(S(=O)(=O)[O-])cc4F)c4nc(c(-c5c(F)cc(S(=O)(=O)[O-])cc5F)c5ccc2[nH]5)C=C4)C=C3)cc1
REMARK SMILES IDX 4 1 3 2 1 3 2 4 26 6 27 7 91 8 28 9 90 10 29 11 30 12 31 13
REMARK SMILES IDX 84 14 32 15 89 16 83 17 85 18 33 19 88 20 82 21 81 22 34 24
REMARK SMILES IDX 68 25 47 26 67 27 48 28 51 29 66 30 86 31 49 32 50 33 65 35
REMARK SMILES IDX 87 36 52 37 35 38 36 39 45 40 37 41 38 42 44 43 46 44 39 45
REMARK SMILES IDX 40 46 41 47 42 48 43 49 69 50 70 51 79 52 71 53 72 54 78 55
REMARK SMILES IDX 80 56 73 57 74 58 75 59 76 60 77 61 53 62 54 63 63 64 55 65
REMARK SMILES IDX 56 66 62 67 64 68 57 69 58 70 59 71 60 72 61 73 5 74 6 75
REMARK SMILES IDX 7 76 8 77 9 79 10 80 11 81 24 82 12 83 23 84 22 85 25 86
REMARK SMILES IDX 13 88 14 89 15 91 16 92 17 93 21 94 18 95 19 96 20 97
REMARK H PARENT 3 5 85 23 51 34 7 78 25 87 13 90
REMARK Flexibility Score: inf
ROOT
ATOM      1  C   UNL A   1      38.177  24.115  26.514  1.00  0.00     0.118 C 
ENDROOT
BRANCH   1   2
ATOM      2  N   UNL A   1      39.584  23.914  26.199  1.00  0.00    -0.352 N 
ATOM      3  O   UNL A   1      41.768  24.416  26.020  1.00  0.00    -0.269 OA
ATOM      4  C   UNL A   1      40.689  24.642  26.565  1.00  0.00     0.251 C 
ATOM      5  H   UNL A   1      39.773  23.132  25.633  1.00  0.00     0.163 HD
BRANCH   4   6
ATOM      6  C   UNL A   1      40.586  25.699  27.595  1.00  0.00     0.039 A 
ATOM      7  C   UNL A   1      39.663  25.593  28.637  1.00  0.00     0.014 A 
ATOM      8  C   UNL A   1      41.461  26.790  27.550  1.00  0.00     0.014 A 
ATOM      9  C   UNL A   1      39.514  26.636  29.544  1.00  0.00     0.010 A 
ATOM     10  C   UNL A   1      41.383  27.788  28.526  1.00  0.00     0.010 A 
ATOM     11  C   UNL A   1      40.398  27.724  29.524  1.00  0.00    -0.014 A 
BRANCH  11  12
ATOM     12  C   UNL A   1      40.360  28.699  30.642  1.00  0.00     0.031 A 
ATOM     13  C   UNL A   1      41.256  28.559  31.839  1.00  0.00     0.074 A 
ATOM     14  C   UNL A   1      39.489  29.724  30.552  1.00  0.00     0.049 A 
ATOM     15  N   UNL A   1      41.327  29.321  32.899  1.00  0.00    -0.248 NA
ATOM     16  C   UNL A   1      42.189  27.421  31.857  1.00  0.00     0.031 C 
ATOM     17  C   UNL A   1      38.552  29.938  29.443  1.00  0.00     0.029 A 
ATOM     18  N   UNL A   1      39.245  30.779  31.393  1.00  0.00    -0.354 N 
ATOM     19  C   UNL A   1      42.288  28.748  33.723  1.00  0.00     0.074 A 
ATOM     20  C   UNL A   1      42.773  27.566  33.042  1.00  0.00     0.031 C 
ATOM     21  C   UNL A   1      37.858  31.063  29.657  1.00  0.00     0.029 A 
ATOM     22  C   UNL A   1      38.244  31.612  30.949  1.00  0.00     0.049 A 
ATOM     23  H   UNL A   1      39.737  30.926  32.232  1.00  0.00     0.167 HD
ATOM     24  C   UNL A   1      42.720  29.177  34.932  1.00  0.00     0.037 A 
ATOM     25  C   UNL A   1      37.669  32.679  31.534  1.00  0.00     0.037 A 
ATOM     26  C   UNL A   1      42.245  30.373  35.580  1.00  0.00     0.049 A 
ATOM     27  C   UNL A   1      38.155  33.111  32.886  1.00  0.00     0.074 A 
ATOM     28  C   UNL A   1      42.684  30.939  36.766  1.00  0.00     0.029 A 
ATOM     29  N   UNL A   1      41.217  31.179  35.113  1.00  0.00    -0.354 N 
ATOM     30  N   UNL A   1      39.121  32.600  33.612  1.00  0.00    -0.248 NA
ATOM     31  C   UNL A   1      37.471  34.253  33.505  1.00  0.00     0.031 C 
ATOM     32  C   UNL A   1      41.883  32.050  37.045  1.00  0.00     0.029 A 
ATOM     33  C   UNL A   1      40.977  32.208  36.009  1.00  0.00     0.049 A 
ATOM     34  H   UNL A   1      40.729  31.039  34.269  1.00  0.00     0.167 HD
ATOM     35  C   UNL A   1      39.160  33.359  34.774  1.00  0.00     0.074 A 
ATOM     36  C   UNL A   1      38.144  34.384  34.640  1.00  0.00     0.031 C 
ATOM     37  C   UNL A   1      39.957  33.214  35.860  1.00  0.00     0.037 A 
BRANCH  24  38
ATOM     38  C   UNL A   1      43.749  28.359  35.661  1.00  0.00     0.058 A 
ATOM     39  C   UNL A   1      43.387  27.338  36.552  1.00  0.00     0.135 A 
ATOM     40  C   UNL A   1      45.114  28.520  35.370  1.00  0.00     0.135 A 
ATOM     41  F   UNL A   1      42.098  27.149  36.877  1.00  0.00    -0.206 F 
ATOM     42  C   UNL A   1      44.341  26.502  37.126  1.00  0.00     0.059 A 
ATOM     43  C   UNL A   1      46.084  27.684  35.916  1.00  0.00     0.059 A 
ATOM     44  F   UNL A   1      45.515  29.484  34.526  1.00  0.00    -0.206 F 
ATOM     45  C   UNL A   1      45.686  26.677  36.794  1.00  0.00     0.060 A 
BRANCH  45  46
ATOM     46  S   UNL A   1      46.903  25.546  37.503  1.00  0.00     0.124 S 
ATOM     47  O   UNL A   1      47.757  25.277  36.350  1.00  0.00    -0.237 OA
ATOM     48  O   UNL A   1      47.502  26.357  38.558  1.00  0.00    -0.237 OA
ATOM     49  O   UNL A   1      46.098  24.420  37.963  1.00  0.00    -0.744 OA
ENDBRANCH  45  46
ENDBRANCH  24  38
BRANCH  25  50
ATOM     50  C   UNL A   1      36.532  33.368  30.870  1.00  0.00     0.058 A 
ATOM     51  C   UNL A   1      36.729  34.194  29.755  1.00  0.00     0.135 A 
ATOM     52  C   UNL A   1      35.219  33.216  31.347  1.00  0.00     0.135 A 
ATOM     53  F   UNL A   1      37.964  34.372  29.263  1.00  0.00    -0.206 F 
ATOM     54  C   UNL A   1      35.672  34.870  29.154  1.00  0.00     0.059 A 
ATOM     55  C   UNL A   1      34.142  33.854  30.745  1.00  0.00     0.059 A 
ATOM     56  F   UNL A   1      34.973  32.419  32.399  1.00  0.00    -0.206 F 
ATOM     57  C   UNL A   1      34.381  34.696  29.661  1.00  0.00     0.060 A 
BRANCH  57  58
ATOM     58  S   UNL A   1      33.012  35.568  28.872  1.00  0.00     0.124 S 
ATOM     59  O   UNL A   1      33.718  36.596  28.117  1.00  0.00    -0.237 OA
ATOM     60  O   UNL A   1      32.387  34.511  28.082  1.00  0.00    -0.237 OA
ATOM     61  O   UNL A   1      32.223  36.042  30.004  1.00  0.00    -0.744 OA
ENDBRANCH  57  58
ENDBRANCH  25  50
BRANCH  37  62
ATOM     62  C   UNL A   1      39.759  34.186  36.988  1.00  0.00     0.058 A 
ATOM     63  C   UNL A   1      39.012  33.841  38.125  1.00  0.00     0.135 A 
ATOM     64  C   UNL A   1      40.359  35.455  36.953  1.00  0.00     0.135 A 
ATOM     65  F   UNL A   1      38.408  32.644  38.199  1.00  0.00    -0.206 F 
ATOM     66  C   UNL A   1      38.853  34.728  39.183  1.00  0.00     0.059 A 
ATOM     67  C   UNL A   1      40.236  36.347  38.013  1.00  0.00     0.059 A 
ATOM     68  F   UNL A   1      41.088  35.830  35.889  1.00  0.00    -0.206 F 
ATOM     69  C   UNL A   1      39.472  35.977  39.120  1.00  0.00     0.060 A 
BRANCH  69  70
ATOM     70  S   UNL A   1      39.295  37.100  40.522  1.00  0.00     0.124 S 
ATOM     71  O   UNL A   1      38.597  38.226  39.909  1.00  0.00    -0.237 OA
ATOM     72  O   UNL A   1      38.512  36.304  41.462  1.00  0.00    -0.237 OA
ATOM     73  O   UNL A   1      40.673  37.361  40.925  1.00  0.00    -0.744 OA
ENDBRANCH  69  70
ENDBRANCH  37  62
ENDBRANCH  11  12
ENDBRANCH   4   6
ENDBRANCH   1   2
BRANCH   1  74
ATOM     74  C   UNL A   1      37.250  23.465  25.503  1.00  0.00     0.042 C 
BRANCH  74  75
ATOM     75  C   UNL A   1      35.881  23.104  26.054  1.00  0.00     0.118 C 
BRANCH  75  76
ATOM     76  N   UNL A   1      35.511  21.716  25.826  1.00  0.00    -0.352 N 
ATOM     77  C   UNL A   1      34.443  21.218  25.118  1.00  0.00     0.255 C 
ATOM     78  H   UNL A   1      36.104  21.043  26.232  1.00  0.00     0.163 HD
ATOM     79  O   UNL A   1      34.269  20.006  25.026  1.00  0.00    -0.269 OA
BRANCH  77  80
ATOM     80  C   UNL A   1      33.424  22.148  24.592  1.00  0.00     0.083 A 
ATOM     81  C   UNL A   1      33.754  22.806  23.401  1.00  0.00     0.043 A 
ATOM     82  C   UNL A   1      32.162  22.311  25.162  1.00  0.00     0.128 A 
ATOM     83  C   UNL A   1      32.788  23.500  22.682  1.00  0.00     0.042 A 
ATOM     84  C   UNL A   1      31.200  23.053  24.488  1.00  0.00     0.049 A 
ATOM     85  C   UNL A   1      31.508  23.624  23.245  1.00  0.00     0.030 A 
BRANCH  82  86
ATOM     86  O   UNL A   1      31.864  21.721  26.356  1.00  0.00    -0.507 OA
ATOM     87  H   UNL A   1      32.145  22.117  27.159  1.00  0.00     0.293 HD
ENDBRANCH  82  86
BRANCH  83  88
ATOM     88  N   UNL A   1      32.989  24.090  21.420  1.00  0.00    -0.319 N 
ATOM     89  C   UNL A   1      32.781  25.361  20.917  1.00  0.00     0.291 C 
ATOM     90  H   UNL A   1      33.355  23.465  20.754  1.00  0.00     0.170 HD
ATOM     91  O   UNL A   1      32.949  25.510  19.703  1.00  0.00    -0.265 OA
BRANCH  89  92
ATOM     92  C   UNL A   1      32.415  26.451  21.785  1.00  0.00     0.193 A 
ATOM     93  C   UNL A   1      33.115  27.157  22.749  1.00  0.00     0.057 A 
ATOM     94  O   UNL A   1      31.133  26.924  21.713  1.00  0.00    -0.444 OA
ATOM     95  C   UNL A   1      32.190  28.058  23.338  1.00  0.00     0.059 A 
ATOM     96  C   UNL A   1      31.001  27.880  22.669  1.00  0.00     0.170 A 
ATOM     97  Br  UNL A   1      29.413  28.788  23.034  1.00  0.00    -0.008 Br
ENDBRANCH  89  92
ENDBRANCH  83  88
ENDBRANCH  77  80
ENDBRANCH  75  76
ENDBRANCH  74  75
ENDBRANCH   1  74
TORSDOF 16
ENDMDL
