MODEL 1
REMARK VINA RESULT:     -11.5      0.000      0.000
REMARK SMILES O=C(C[C@@H](NS(=O)(=O)c1ccc(Cl)cc1)c1ccc(F)cc1)NCCCNC(=O)c1ccc(-c2c3nc(c(-c4c(F)cc(S(=O)(=O)[O-])cc4F)c4ccc([nH]4)c(-c4c(F)cc(S(=O)(=O)[O-])cc4F)c4nc(c(-c5c(F)cc(S(=O)(=O)[O-])cc5F)c5ccc2[nH]5)C=C4)C=C3)cc1
REMARK SMILES IDX 24 1 23 2 1 3 2 4 3 6 4 7 5 8 6 10 7 11 8 12 9 13 10 14
REMARK SMILES IDX 15 15 11 16 14 17 12 18 13 19 16 20 17 21 22 22 18 23 21 24
REMARK SMILES IDX 19 25 20 26 25 27 26 28 27 29 28 30 29 32 30 33 31 34 95 35
REMARK SMILES IDX 32 36 94 37 33 38 34 39 35 40 88 41 36 42 93 43 87 44 89 45
REMARK SMILES IDX 37 46 92 47 86 48 85 49 38 51 72 52 51 53 71 54 52 55 55 56
REMARK SMILES IDX 70 57 90 58 53 59 54 60 69 62 91 63 56 64 39 65 40 66 49 67
REMARK SMILES IDX 41 68 42 69 48 70 50 71 43 72 44 73 45 74 46 75 47 76 73 77
REMARK SMILES IDX 74 78 83 79 75 80 76 81 82 82 84 83 77 84 78 85 79 86 80 87
REMARK SMILES IDX 81 88 57 89 58 90 67 91 59 92 60 93 66 94 68 95 61 96 62 97
REMARK SMILES IDX 63 98 64 99 65 100
REMARK H PARENT 23 5 5 9 27 31 89 50 55 61
REMARK Flexibility Score: inf
ROOT
ATOM      1  C   UNL A   1      31.307  26.853  26.688  1.00  0.00     0.117 C 
ENDROOT
BRANCH   1   2
ATOM      2  N   UNL A   1      32.102  25.642  26.604  1.00  0.00    -0.356 N 
ATOM      3  O   UNL A   1      30.626  24.509  25.249  1.00  0.00    -0.275 OA
ATOM      4  C   UNL A   1      31.691  24.561  25.853  1.00  0.00     0.221 C 
ATOM      5  H   UNL A   1      32.954  25.590  27.095  1.00  0.00     0.163 HD
BRANCH   4   6
ATOM      6  C   UNL A   1      32.708  23.451  25.777  1.00  0.00     0.124 C 
BRANCH   6   7
ATOM      7  C   UNL A   1      33.580  23.643  24.524  1.00  0.00     0.109 C 
BRANCH   7   8
ATOM      8  N   UNL A   1      33.605  25.081  24.152  1.00  0.00    -0.203 NA
ATOM      9  H   UNL A   1      34.583  25.372  24.145  1.00  0.00     0.142 HD
BRANCH   8  10
ATOM     10  S   UNL A   1      32.937  25.544  22.669  1.00  0.00     0.241 S 
ATOM     11  O   UNL A   1      34.019  25.978  21.815  1.00  0.00    -0.207 OA
ATOM     12  O   UNL A   1      32.055  24.464  22.289  1.00  0.00    -0.207 OA
BRANCH  10  13
ATOM     13  C   UNL A   1      31.915  26.937  23.056  1.00  0.00     0.082 A 
ATOM     14  C   UNL A   1      32.494  28.111  23.548  1.00  0.00     0.023 A 
ATOM     15  C   UNL A   1      30.541  26.866  22.805  1.00  0.00     0.023 A 
ATOM     16  C   UNL A   1      31.693  29.237  23.749  1.00  0.00     0.022 A 
ATOM     17  C   UNL A   1      29.744  27.993  23.015  1.00  0.00     0.022 A 
ATOM     18  C   UNL A   1      30.325  29.176  23.473  1.00  0.00     0.041 A 
ATOM     19  Cl  UNL A   1      29.348  30.576  23.683  1.00  0.00    -0.084 Cl
ENDBRANCH  10  13
ENDBRANCH   8  10
ENDBRANCH   7   8
BRANCH   7  20
ATOM     20  C   UNL A   1      34.988  23.126  24.786  1.00  0.00    -0.029 A 
ATOM     21  C   UNL A   1      36.035  24.038  25.002  1.00  0.00     0.008 A 
ATOM     22  C   UNL A   1      35.260  21.748  24.878  1.00  0.00     0.008 A 
ATOM     23  C   UNL A   1      37.318  23.582  25.313  1.00  0.00     0.039 A 
ATOM     24  C   UNL A   1      36.545  21.296  25.179  1.00  0.00     0.039 A 
ATOM     25  C   UNL A   1      37.561  22.217  25.399  1.00  0.00     0.123 A 
ATOM     26  F   UNL A   1      38.789  21.783  25.709  1.00  0.00    -0.207 F 
ENDBRANCH   7  20
ENDBRANCH   6   7
ENDBRANCH   4   6
ENDBRANCH   1   2
BRANCH   1  27
ATOM     27  C   UNL A   1      31.807  27.817  27.757  1.00  0.00     0.042 C 
BRANCH  27  28
ATOM     28  C   UNL A   1      33.174  28.437  27.482  1.00  0.00     0.118 C 
BRANCH  28  29
ATOM     29  N   UNL A   1      33.185  29.887  27.579  1.00  0.00    -0.352 N 
ATOM     30  C   UNL A   1      34.208  30.725  27.960  1.00  0.00     0.251 C 
ATOM     31  H   UNL A   1      32.341  30.334  27.337  1.00  0.00     0.163 HD
ATOM     32  O   UNL A   1      33.988  31.925  28.100  1.00  0.00    -0.269 OA
BRANCH  30  33
ATOM     33  C   UNL A   1      35.559  30.185  28.237  1.00  0.00     0.039 A 
ATOM     34  C   UNL A   1      36.482  30.128  27.189  1.00  0.00     0.014 A 
ATOM     35  C   UNL A   1      35.920  29.738  29.512  1.00  0.00     0.014 A 
ATOM     36  C   UNL A   1      37.787  29.696  27.436  1.00  0.00     0.010 A 
ATOM     37  C   UNL A   1      37.240  29.364  29.769  1.00  0.00     0.010 A 
ATOM     38  C   UNL A   1      38.189  29.350  28.736  1.00  0.00    -0.014 A 
BRANCH  38  39
ATOM     39  C   UNL A   1      39.604  29.007  29.033  1.00  0.00     0.031 A 
ATOM     40  C   UNL A   1      40.522  30.015  29.666  1.00  0.00     0.074 A 
ATOM     41  C   UNL A   1      40.078  27.795  28.680  1.00  0.00     0.049 A 
ATOM     42  N   UNL A   1      41.797  29.910  29.939  1.00  0.00    -0.248 NA
ATOM     43  C   UNL A   1      39.936  31.317  30.021  1.00  0.00     0.031 C 
ATOM     44  C   UNL A   1      39.300  26.741  28.022  1.00  0.00     0.029 A 
ATOM     45  N   UNL A   1      41.328  27.243  28.820  1.00  0.00    -0.354 N 
ATOM     46  C   UNL A   1      42.169  31.130  30.489  1.00  0.00     0.074 A 
ATOM     47  C   UNL A   1      40.995  31.976  30.470  1.00  0.00     0.031 C 
ATOM     48  C   UNL A   1      40.080  25.664  27.845  1.00  0.00     0.029 A 
ATOM     49  C   UNL A   1      41.421  25.958  28.340  1.00  0.00     0.049 A 
ATOM     50  H   UNL A   1      42.085  27.723  29.226  1.00  0.00     0.167 HD
ATOM     51  C   UNL A   1      43.374  31.503  30.984  1.00  0.00     0.037 A 
ATOM     52  C   UNL A   1      42.468  25.112  28.299  1.00  0.00     0.037 A 
ATOM     53  C   UNL A   1      44.533  30.651  31.029  1.00  0.00     0.049 A 
ATOM     54  C   UNL A   1      43.794  25.548  28.852  1.00  0.00     0.074 A 
ATOM     55  C   UNL A   1      45.783  30.926  31.558  1.00  0.00     0.029 A 
ATOM     56  N   UNL A   1      44.588  29.358  30.531  1.00  0.00    -0.354 N 
ATOM     57  N   UNL A   1      44.118  26.695  29.399  1.00  0.00    -0.248 NA
ATOM     58  C   UNL A   1      44.898  24.581  28.782  1.00  0.00     0.031 C 
ATOM     59  C   UNL A   1      46.602  29.811  31.353  1.00  0.00     0.029 A 
ATOM     60  C   UNL A   1      45.854  28.828  30.726  1.00  0.00     0.049 A 
ATOM     61  H   UNL A   1      43.839  28.886  30.101  1.00  0.00     0.167 HD
ATOM     62  C   UNL A   1      45.459  26.584  29.749  1.00  0.00     0.074 A 
ATOM     63  C   UNL A   1      45.882  25.253  29.366  1.00  0.00     0.031 C 
ATOM     64  C   UNL A   1      46.265  27.504  30.332  1.00  0.00     0.037 A 
BRANCH  51  65
ATOM     65  C   UNL A   1      43.500  32.895  31.536  1.00  0.00     0.058 A 
ATOM     66  C   UNL A   1      43.118  33.178  32.857  1.00  0.00     0.135 A 
ATOM     67  C   UNL A   1      43.948  33.960  30.738  1.00  0.00     0.135 A 
ATOM     68  F   UNL A   1      42.688  32.196  33.663  1.00  0.00    -0.206 F 
ATOM     69  C   UNL A   1      43.168  34.472  33.366  1.00  0.00     0.059 A 
ATOM     70  C   UNL A   1      44.027  35.258  31.233  1.00  0.00     0.059 A 
ATOM     71  F   UNL A   1      44.345  33.737  29.476  1.00  0.00    -0.206 F 
ATOM     72  C   UNL A   1      43.623  35.507  32.545  1.00  0.00     0.060 A 
BRANCH  72  73
ATOM     73  S   UNL A   1      43.726  37.174  33.232  1.00  0.00     0.124 S 
ATOM     74  O   UNL A   1      45.011  37.134  33.919  1.00  0.00    -0.237 OA
ATOM     75  O   UNL A   1      43.670  38.005  32.033  1.00  0.00    -0.237 OA
ATOM     76  O   UNL A   1      42.550  37.255  34.094  1.00  0.00    -0.744 OA
ENDBRANCH  72  73
ENDBRANCH  51  65
BRANCH  52  77
ATOM     77  C   UNL A   1      42.287  23.748  27.737  1.00  0.00     0.058 A 
ATOM     78  C   UNL A   1      42.185  22.624  28.570  1.00  0.00     0.135 A 
ATOM     79  C   UNL A   1      42.256  23.544  26.350  1.00  0.00     0.135 A 
ATOM     80  F   UNL A   1      42.218  22.768  29.904  1.00  0.00    -0.206 F 
ATOM     81  C   UNL A   1      42.086  21.340  28.046  1.00  0.00     0.059 A 
ATOM     82  C   UNL A   1      42.138  22.271  25.802  1.00  0.00     0.059 A 
ATOM     83  F   UNL A   1      42.337  24.593  25.517  1.00  0.00    -0.206 F 
ATOM     84  C   UNL A   1      42.072  21.173  26.660  1.00  0.00     0.060 A 
BRANCH  84  85
ATOM     85  S   UNL A   1      41.969  19.496  25.998  1.00  0.00     0.124 S 
ATOM     86  O   UNL A   1      42.885  19.576  24.864  1.00  0.00    -0.237 OA
ATOM     87  O   UNL A   1      42.424  18.691  27.126  1.00  0.00    -0.237 OA
ATOM     88  O   UNL A   1      40.557  19.355  25.657  1.00  0.00    -0.744 OA
ENDBRANCH  84  85
ENDBRANCH  52  77
BRANCH  64  89
ATOM     89  C   UNL A   1      47.688  27.107  30.598  1.00  0.00     0.058 A 
ATOM     90  C   UNL A   1      48.021  26.351  31.734  1.00  0.00     0.135 A 
ATOM     91  C   UNL A   1      48.733  27.530  29.761  1.00  0.00     0.135 A 
ATOM     92  F   UNL A   1      47.059  25.924  32.567  1.00  0.00    -0.206 F 
ATOM     93  C   UNL A   1      49.342  26.040  32.037  1.00  0.00     0.059 A 
ATOM     94  C   UNL A   1      50.060  27.213  30.035  1.00  0.00     0.059 A 
ATOM     95  F   UNL A   1      48.464  28.245  28.656  1.00  0.00    -0.206 F 
ATOM     96  C   UNL A   1      50.355  26.480  31.185  1.00  0.00     0.060 A 
BRANCH  96  97
ATOM     97  S   UNL A   1      52.064  26.053  31.582  1.00  0.00     0.124 S 
ATOM     98  O   UNL A   1      52.489  27.215  32.354  1.00  0.00    -0.237 OA
ATOM     99  O   UNL A   1      51.909  24.812  32.334  1.00  0.00    -0.237 OA
ATOM    100  O   UNL A   1      52.689  25.908  30.270  1.00  0.00    -0.744 OA
ENDBRANCH  96  97
ENDBRANCH  64  89
ENDBRANCH  38  39
ENDBRANCH  30  33
ENDBRANCH  28  29
ENDBRANCH  27  28
ENDBRANCH   1  27
TORSDOF 18
ENDMDL
MODEL 2
REMARK VINA RESULT:     -11.5      1.741      2.770
REMARK SMILES O=C(C[C@@H](NS(=O)(=O)c1ccc(Cl)cc1)c1ccc(F)cc1)NCCCNC(=O)c1ccc(-c2c3nc(c(-c4c(F)cc(S(=O)(=O)[O-])cc4F)c4ccc([nH]4)c(-c4c(F)cc(S(=O)(=O)[O-])cc4F)c4nc(c(-c5c(F)cc(S(=O)(=O)[O-])cc5F)c5ccc2[nH]5)C=C4)C=C3)cc1
REMARK SMILES IDX 24 1 23 2 1 3 2 4 3 6 4 7 5 8 6 10 7 11 8 12 9 13 10 14
REMARK SMILES IDX 15 15 11 16 14 17 12 18 13 19 16 20 17 21 22 22 18 23 21 24
REMARK SMILES IDX 19 25 20 26 25 27 26 28 27 29 28 30 29 32 30 33 31 34 95 35
REMARK SMILES IDX 32 36 94 37 33 38 34 39 35 40 88 41 36 42 93 43 87 44 89 45
REMARK SMILES IDX 37 46 92 47 86 48 85 49 38 51 72 52 51 53 71 54 52 55 55 56
REMARK SMILES IDX 70 57 90 58 53 59 54 60 69 62 91 63 56 64 39 65 40 66 49 67
REMARK SMILES IDX 41 68 42 69 48 70 50 71 43 72 44 73 45 74 46 75 47 76 73 77
REMARK SMILES IDX 74 78 83 79 75 80 76 81 82 82 84 83 77 84 78 85 79 86 80 87
REMARK SMILES IDX 81 88 57 89 58 90 67 91 59 92 60 93 66 94 68 95 61 96 62 97
REMARK SMILES IDX 63 98 64 99 65 100
REMARK H PARENT 23 5 5 9 27 31 89 50 55 61
REMARK Flexibility Score: inf
ROOT
ATOM      1  C   UNL A   1      31.261  27.357  26.449  1.00  0.00     0.117 C 
ENDROOT
BRANCH   1   2
ATOM      2  N   UNL A   1      31.167  25.919  26.270  1.00  0.00    -0.356 N 
ATOM      3  O   UNL A   1      29.673  26.018  24.523  1.00  0.00    -0.275 OA
ATOM      4  C   UNL A   1      30.381  25.367  25.283  1.00  0.00     0.221 C 
ATOM      5  H   UNL A   1      31.677  25.326  26.868  1.00  0.00     0.163 HD
BRANCH   4   6
ATOM      6  C   UNL A   1      30.515  23.870  25.163  1.00  0.00     0.124 C 
BRANCH   6   7
ATOM      7  C   UNL A   1      31.579  23.537  24.103  1.00  0.00     0.109 C 
BRANCH   7   8
ATOM      8  N   UNL A   1      32.613  24.603  24.084  1.00  0.00    -0.203 NA
ATOM      9  H   UNL A   1      33.029  24.636  25.015  1.00  0.00     0.142 HD
BRANCH   8  10
ATOM     10  S   UNL A   1      33.885  24.476  22.976  1.00  0.00     0.241 S 
ATOM     11  O   UNL A   1      33.476  23.556  21.940  1.00  0.00    -0.207 OA
ATOM     12  O   UNL A   1      34.272  25.836  22.675  1.00  0.00    -0.207 OA
BRANCH  10  13
ATOM     13  C   UNL A   1      35.211  23.751  23.898  1.00  0.00     0.082 A 
ATOM     14  C   UNL A   1      35.920  22.670  23.366  1.00  0.00     0.023 A 
ATOM     15  C   UNL A   1      35.574  24.312  25.127  1.00  0.00     0.023 A 
ATOM     16  C   UNL A   1      37.030  22.174  24.054  1.00  0.00     0.022 A 
ATOM     17  C   UNL A   1      36.679  23.807  25.813  1.00  0.00     0.022 A 
ATOM     18  C   UNL A   1      37.410  22.751  25.268  1.00  0.00     0.041 A 
ATOM     19  Cl  UNL A   1      38.802  22.165  26.093  1.00  0.00    -0.084 Cl
ENDBRANCH  10  13
ENDBRANCH   8  10
ENDBRANCH   7   8
BRANCH   7  20
ATOM     20  C   UNL A   1      32.205  22.181  24.402  1.00  0.00    -0.029 A 
ATOM     21  C   UNL A   1      32.798  21.949  25.655  1.00  0.00     0.008 A 
ATOM     22  C   UNL A   1      32.150  21.125  23.473  1.00  0.00     0.008 A 
ATOM     23  C   UNL A   1      33.314  20.691  25.972  1.00  0.00     0.039 A 
ATOM     24  C   UNL A   1      32.675  19.872  23.789  1.00  0.00     0.039 A 
ATOM     25  C   UNL A   1      33.247  19.665  25.038  1.00  0.00     0.123 A 
ATOM     26  F   UNL A   1      33.732  18.456  25.349  1.00  0.00    -0.207 F 
ENDBRANCH   7  20
ENDBRANCH   6   7
ENDBRANCH   4   6
ENDBRANCH   1   2
BRANCH   1  27
ATOM     27  C   UNL A   1      32.127  27.750  27.640  1.00  0.00     0.042 C 
BRANCH  27  28
ATOM     28  C   UNL A   1      33.421  28.477  27.288  1.00  0.00     0.118 C 
BRANCH  28  29
ATOM     29  N   UNL A   1      33.389  29.900  27.583  1.00  0.00    -0.352 N 
ATOM     30  C   UNL A   1      34.378  30.704  28.102  1.00  0.00     0.251 C 
ATOM     31  H   UNL A   1      32.538  30.353  27.383  1.00  0.00     0.163 HD
ATOM     32  O   UNL A   1      34.119  31.867  28.399  1.00  0.00    -0.269 OA
BRANCH  30  33
ATOM     33  C   UNL A   1      35.737  30.166  28.339  1.00  0.00     0.039 A 
ATOM     34  C   UNL A   1      36.654  30.184  27.285  1.00  0.00     0.014 A 
ATOM     35  C   UNL A   1      36.112  29.646  29.582  1.00  0.00     0.014 A 
ATOM     36  C   UNL A   1      37.967  29.755  27.497  1.00  0.00     0.010 A 
ATOM     37  C   UNL A   1      37.437  29.274  29.809  1.00  0.00     0.010 A 
ATOM     38  C   UNL A   1      38.380  29.336  28.773  1.00  0.00    -0.014 A 
BRANCH  38  39
ATOM     39  C   UNL A   1      39.801  28.994  29.040  1.00  0.00     0.031 A 
ATOM     40  C   UNL A   1      40.732  30.004  29.650  1.00  0.00     0.074 A 
ATOM     41  C   UNL A   1      40.268  27.781  28.681  1.00  0.00     0.049 A 
ATOM     42  N   UNL A   1      42.013  29.900  29.897  1.00  0.00    -0.248 NA
ATOM     43  C   UNL A   1      40.154  31.307  30.013  1.00  0.00     0.031 C 
ATOM     44  C   UNL A   1      39.476  26.725  28.044  1.00  0.00     0.029 A 
ATOM     45  N   UNL A   1      41.520  27.230  28.796  1.00  0.00    -0.354 N 
ATOM     46  C   UNL A   1      42.397  31.122  30.434  1.00  0.00     0.074 A 
ATOM     47  C   UNL A   1      41.222  31.968  30.438  1.00  0.00     0.031 C 
ATOM     48  C   UNL A   1      40.252  25.647  27.853  1.00  0.00     0.029 A 
ATOM     49  C   UNL A   1      41.604  25.943  28.318  1.00  0.00     0.049 A 
ATOM     50  H   UNL A   1      42.286  27.711  29.185  1.00  0.00     0.167 HD
ATOM     51  C   UNL A   1      43.611  31.497  30.902  1.00  0.00     0.037 A 
ATOM     52  C   UNL A   1      42.650  25.096  28.258  1.00  0.00     0.037 A 
ATOM     53  C   UNL A   1      44.772  30.645  30.926  1.00  0.00     0.049 A 
ATOM     54  C   UNL A   1      43.987  25.535  28.782  1.00  0.00     0.074 A 
ATOM     55  C   UNL A   1      46.032  30.922  31.427  1.00  0.00     0.029 A 
ATOM     56  N   UNL A   1      44.816  29.350  30.431  1.00  0.00    -0.354 N 
ATOM     57  N   UNL A   1      44.323  26.684  29.318  1.00  0.00    -0.248 NA
ATOM     58  C   UNL A   1      45.089  24.567  28.691  1.00  0.00     0.031 C 
ATOM     59  C   UNL A   1      46.847  29.806  31.209  1.00  0.00     0.029 A 
ATOM     60  C   UNL A   1      46.086  28.821  30.601  1.00  0.00     0.049 A 
ATOM     61  H   UNL A   1      44.058  28.877  30.018  1.00  0.00     0.167 HD
ATOM     62  C   UNL A   1      45.671  26.573  29.639  1.00  0.00     0.074 A 
ATOM     63  C   UNL A   1      46.086  25.241  29.252  1.00  0.00     0.031 C 
ATOM     64  C   UNL A   1      46.489  27.496  30.203  1.00  0.00     0.037 A 
BRANCH  51  65
ATOM     65  C   UNL A   1      43.749  32.890  31.447  1.00  0.00     0.058 A 
ATOM     66  C   UNL A   1      43.600  33.140  32.820  1.00  0.00     0.135 A 
ATOM     67  C   UNL A   1      43.974  33.988  30.601  1.00  0.00     0.135 A 
ATOM     68  F   UNL A   1      43.389  32.126  33.674  1.00  0.00    -0.206 F 
ATOM     69  C   UNL A   1      43.661  34.431  33.335  1.00  0.00     0.059 A 
ATOM     70  C   UNL A   1      44.061  35.284  31.096  1.00  0.00     0.059 A 
ATOM     71  F   UNL A   1      44.145  33.799  29.283  1.00  0.00    -0.206 F 
ATOM     72  C   UNL A   1      43.891  35.498  32.464  1.00  0.00     0.060 A 
BRANCH  72  73
ATOM     73  S   UNL A   1      44.013  37.164  33.150  1.00  0.00     0.124 S 
ATOM     74  O   UNL A   1      45.268  37.091  33.889  1.00  0.00    -0.237 OA
ATOM     75  O   UNL A   1      44.030  37.992  31.948  1.00  0.00    -0.237 OA
ATOM     76  O   UNL A   1      42.806  37.282  33.963  1.00  0.00    -0.744 OA
ENDBRANCH  72  73
ENDBRANCH  51  65
BRANCH  52  77
ATOM     77  C   UNL A   1      42.457  23.731  27.704  1.00  0.00     0.058 A 
ATOM     78  C   UNL A   1      42.297  22.619  28.545  1.00  0.00     0.135 A 
ATOM     79  C   UNL A   1      42.473  23.512  26.319  1.00  0.00     0.135 A 
ATOM     80  F   UNL A   1      42.284  22.778  29.877  1.00  0.00    -0.206 F 
ATOM     81  C   UNL A   1      42.187  21.332  28.031  1.00  0.00     0.059 A 
ATOM     82  C   UNL A   1      42.345  22.235  25.782  1.00  0.00     0.059 A 
ATOM     83  F   UNL A   1      42.611  24.548  25.479  1.00  0.00    -0.206 F 
ATOM     84  C   UNL A   1      42.221  21.149  26.648  1.00  0.00     0.060 A 
BRANCH  84  85
ATOM     85  S   UNL A   1      42.102  19.467  26.001  1.00  0.00     0.124 S 
ATOM     86  O   UNL A   1      42.595  18.687  27.132  1.00  0.00    -0.237 OA
ATOM     87  O   UNL A   1      40.676  19.346  25.718  1.00  0.00    -0.237 OA
ATOM     88  O   UNL A   1      42.972  19.496  24.829  1.00  0.00    -0.744 OA
ENDBRANCH  84  85
ENDBRANCH  52  77
BRANCH  64  89
ATOM     89  C   UNL A   1      47.918  27.100  30.439  1.00  0.00     0.058 A 
ATOM     90  C   UNL A   1      48.315  26.554  31.671  1.00  0.00     0.135 A 
ATOM     91  C   UNL A   1      48.907  27.321  29.469  1.00  0.00     0.135 A 
ATOM     92  F   UNL A   1      47.407  26.324  32.633  1.00  0.00    -0.206 F 
ATOM     93  C   UNL A   1      49.646  26.253  31.935  1.00  0.00     0.059 A 
ATOM     94  C   UNL A   1      50.242  27.008  29.705  1.00  0.00     0.059 A 
ATOM     95  F   UNL A   1      48.575  27.830  28.271  1.00  0.00    -0.206 F 
ATOM     96  C   UNL A   1      50.604  26.489  30.949  1.00  0.00     0.060 A 
BRANCH  96  97
ATOM     97  S   UNL A   1      52.327  26.077  31.300  1.00  0.00     0.124 S 
ATOM     98  O   UNL A   1      52.932  26.181  29.977  1.00  0.00    -0.237 OA
ATOM     99  O   UNL A   1      52.706  27.114  32.255  1.00  0.00    -0.237 OA
ATOM    100  O   UNL A   1      52.246  24.727  31.851  1.00  0.00    -0.744 OA
ENDBRANCH  96  97
ENDBRANCH  64  89
ENDBRANCH  38  39
ENDBRANCH  30  33
ENDBRANCH  28  29
ENDBRANCH  27  28
ENDBRANCH   1  27
TORSDOF 18
ENDMDL
MODEL 3
REMARK VINA RESULT:     -11.5      2.189      3.763
REMARK SMILES O=C(C[C@@H](NS(=O)(=O)c1ccc(Cl)cc1)c1ccc(F)cc1)NCCCNC(=O)c1ccc(-c2c3nc(c(-c4c(F)cc(S(=O)(=O)[O-])cc4F)c4ccc([nH]4)c(-c4c(F)cc(S(=O)(=O)[O-])cc4F)c4nc(c(-c5c(F)cc(S(=O)(=O)[O-])cc5F)c5ccc2[nH]5)C=C4)C=C3)cc1
REMARK SMILES IDX 24 1 23 2 1 3 2 4 3 6 4 7 5 8 6 10 7 11 8 12 9 13 10 14
REMARK SMILES IDX 15 15 11 16 14 17 12 18 13 19 16 20 17 21 22 22 18 23 21 24
REMARK SMILES IDX 19 25 20 26 25 27 26 28 27 29 28 30 29 32 30 33 31 34 95 35
REMARK SMILES IDX 32 36 94 37 33 38 34 39 35 40 88 41 36 42 93 43 87 44 89 45
REMARK SMILES IDX 37 46 92 47 86 48 85 49 38 51 72 52 51 53 71 54 52 55 55 56
REMARK SMILES IDX 70 57 90 58 53 59 54 60 69 62 91 63 56 64 39 65 40 66 49 67
REMARK SMILES IDX 41 68 42 69 48 70 50 71 43 72 44 73 45 74 46 75 47 76 73 77
REMARK SMILES IDX 74 78 83 79 75 80 76 81 82 82 84 83 77 84 78 85 79 86 80 87
REMARK SMILES IDX 81 88 57 89 58 90 67 91 59 92 60 93 66 94 68 95 61 96 62 97
REMARK SMILES IDX 63 98 64 99 65 100
REMARK H PARENT 23 5 5 9 27 31 89 50 55 61
REMARK Flexibility Score: inf
ROOT
ATOM      1  C   UNL A   1      32.356  26.347  26.768  1.00  0.00     0.117 C 
ENDROOT
BRANCH   1   2
ATOM      2  N   UNL A   1      31.605  26.338  25.526  1.00  0.00    -0.356 N 
ATOM      3  O   UNL A   1      29.684  25.464  26.443  1.00  0.00    -0.275 OA
ATOM      4  C   UNL A   1      30.296  25.909  25.479  1.00  0.00     0.221 C 
ATOM      5  H   UNL A   1      32.041  26.644  24.697  1.00  0.00     0.163 HD
BRANCH   4   6
ATOM      6  C   UNL A   1      29.640  26.099  24.135  1.00  0.00     0.124 C 
BRANCH   6   7
ATOM      7  C   UNL A   1      30.537  26.982  23.250  1.00  0.00     0.109 C 
BRANCH   7   8
ATOM      8  N   UNL A   1      31.062  26.179  22.116  1.00  0.00    -0.203 NA
ATOM      9  H   UNL A   1      30.734  26.621  21.257  1.00  0.00     0.142 HD
BRANCH   8  10
ATOM     10  S   UNL A   1      32.735  25.986  21.969  1.00  0.00     0.241 S 
ATOM     11  O   UNL A   1      33.050  25.932  20.559  1.00  0.00    -0.207 OA
ATOM     12  O   UNL A   1      33.317  26.983  22.839  1.00  0.00    -0.207 OA
BRANCH  10  13
ATOM     13  C   UNL A   1      33.069  24.406  22.693  1.00  0.00     0.082 A 
ATOM     14  C   UNL A   1      34.349  24.117  23.178  1.00  0.00     0.023 A 
ATOM     15  C   UNL A   1      32.027  23.482  22.828  1.00  0.00     0.023 A 
ATOM     16  C   UNL A   1      34.574  22.909  23.842  1.00  0.00     0.022 A 
ATOM     17  C   UNL A   1      32.260  22.274  23.486  1.00  0.00     0.022 A 
ATOM     18  C   UNL A   1      33.527  21.998  24.001  1.00  0.00     0.041 A 
ATOM     19  Cl  UNL A   1      33.796  20.529  24.855  1.00  0.00    -0.084 Cl
ENDBRANCH  10  13
ENDBRANCH   8  10
ENDBRANCH   7   8
BRANCH   7  20
ATOM     20  C   UNL A   1      29.748  28.182  22.745  1.00  0.00    -0.029 A 
ATOM     21  C   UNL A   1      28.371  28.272  23.010  1.00  0.00     0.008 A 
ATOM     22  C   UNL A   1      30.378  29.243  22.067  1.00  0.00     0.008 A 
ATOM     23  C   UNL A   1      27.646  29.398  22.615  1.00  0.00     0.039 A 
ATOM     24  C   UNL A   1      29.649  30.363  21.666  1.00  0.00     0.039 A 
ATOM     25  C   UNL A   1      28.291  30.432  21.948  1.00  0.00     0.123 A 
ATOM     26  F   UNL A   1      27.596  31.516  21.581  1.00  0.00    -0.207 F 
ENDBRANCH   7  20
ENDBRANCH   6   7
ENDBRANCH   4   6
ENDBRANCH   1   2
BRANCH   1  27
ATOM     27  C   UNL A   1      32.365  27.713  27.443  1.00  0.00     0.042 C 
BRANCH  27  28
ATOM     28  C   UNL A   1      33.563  28.596  27.106  1.00  0.00     0.118 C 
BRANCH  28  29
ATOM     29  N   UNL A   1      33.461  29.945  27.636  1.00  0.00    -0.352 N 
ATOM     30  C   UNL A   1      34.402  30.688  28.311  1.00  0.00     0.251 C 
ATOM     31  H   UNL A   1      32.595  30.391  27.492  1.00  0.00     0.163 HD
ATOM     32  O   UNL A   1      34.086  31.773  28.793  1.00  0.00    -0.269 OA
BRANCH  30  33
ATOM     33  C   UNL A   1      35.779  30.174  28.490  1.00  0.00     0.039 A 
ATOM     34  C   UNL A   1      36.652  30.212  27.400  1.00  0.00     0.014 A 
ATOM     35  C   UNL A   1      36.213  29.658  29.715  1.00  0.00     0.014 A 
ATOM     36  C   UNL A   1      37.979  29.805  27.557  1.00  0.00     0.010 A 
ATOM     37  C   UNL A   1      37.553  29.308  29.887  1.00  0.00     0.010 A 
ATOM     38  C   UNL A   1      38.452  29.389  28.813  1.00  0.00    -0.014 A 
BRANCH  38  39
ATOM     39  C   UNL A   1      39.888  29.072  29.022  1.00  0.00     0.031 A 
ATOM     40  C   UNL A   1      40.830  30.104  29.577  1.00  0.00     0.074 A 
ATOM     41  C   UNL A   1      40.357  27.861  28.658  1.00  0.00     0.049 A 
ATOM     42  N   UNL A   1      42.121  30.021  29.768  1.00  0.00    -0.248 NA
ATOM     43  C   UNL A   1      40.249  31.403  29.948  1.00  0.00     0.031 C 
ATOM     44  C   UNL A   1      39.554  26.785  28.070  1.00  0.00     0.029 A 
ATOM     45  N   UNL A   1      41.621  27.330  28.725  1.00  0.00    -0.354 N 
ATOM     46  C   UNL A   1      42.511  31.256  30.271  1.00  0.00     0.074 A 
ATOM     47  C   UNL A   1      41.324  32.085  30.316  1.00  0.00     0.031 C 
ATOM     48  C   UNL A   1      40.337  25.716  27.859  1.00  0.00     0.029 A 
ATOM     49  C   UNL A   1      41.703  26.038  28.260  1.00  0.00     0.049 A 
ATOM     50  H   UNL A   1      42.396  27.827  29.072  1.00  0.00     0.167 HD
ATOM     51  C   UNL A   1      43.739  31.655  30.680  1.00  0.00     0.037 A 
ATOM     52  C   UNL A   1      42.758  25.206  28.165  1.00  0.00     0.037 A 
ATOM     53  C   UNL A   1      44.912  30.820  30.663  1.00  0.00     0.049 A 
ATOM     54  C   UNL A   1      44.111  25.671  28.622  1.00  0.00     0.074 A 
ATOM     55  C   UNL A   1      46.189  31.122  31.104  1.00  0.00     0.029 A 
ATOM     56  N   UNL A   1      44.954  29.520  30.183  1.00  0.00    -0.354 N 
ATOM     57  N   UNL A   1      44.452  26.832  29.128  1.00  0.00    -0.248 NA
ATOM     58  C   UNL A   1      45.222  24.718  28.496  1.00  0.00     0.031 C 
ATOM     59  C   UNL A   1      47.010  30.016  30.864  1.00  0.00     0.029 A 
ATOM     60  C   UNL A   1      46.237  29.012  30.304  1.00  0.00     0.049 A 
ATOM     61  H   UNL A   1      44.186  29.030  29.811  1.00  0.00     0.167 HD
ATOM     62  C   UNL A   1      45.814  26.745  29.391  1.00  0.00     0.074 A 
ATOM     63  C   UNL A   1      46.232  25.414  29.002  1.00  0.00     0.031 C 
ATOM     64  C   UNL A   1      46.643  27.687  29.905  1.00  0.00     0.037 A 
BRANCH  51  65
ATOM     65  C   UNL A   1      43.879  33.058  31.200  1.00  0.00     0.058 A 
ATOM     66  C   UNL A   1      43.625  33.350  32.549  1.00  0.00     0.135 A 
ATOM     67  C   UNL A   1      44.213  34.123  30.349  1.00  0.00     0.135 A 
ATOM     68  F   UNL A   1      43.308  32.367  33.407  1.00  0.00    -0.206 F 
ATOM     69  C   UNL A   1      43.688  34.652  33.035  1.00  0.00     0.059 A 
ATOM     70  C   UNL A   1      44.304  35.430  30.818  1.00  0.00     0.059 A 
ATOM     71  F   UNL A   1      44.486  33.893  29.056  1.00  0.00    -0.206 F 
ATOM     72  C   UNL A   1      44.027  35.686  32.161  1.00  0.00     0.060 A 
BRANCH  72  73
ATOM     73  S   UNL A   1      44.150  37.365  32.814  1.00  0.00     0.124 S 
ATOM     74  O   UNL A   1      43.113  37.364  33.839  1.00  0.00    -0.237 OA
ATOM     75  O   UNL A   1      45.526  37.407  33.300  1.00  0.00    -0.237 OA
ATOM     76  O   UNL A   1      43.884  38.200  31.646  1.00  0.00    -0.744 OA
ENDBRANCH  72  73
ENDBRANCH  51  65
BRANCH  52  77
ATOM     77  C   UNL A   1      42.561  23.831  27.638  1.00  0.00     0.058 A 
ATOM     78  C   UNL A   1      42.429  22.731  28.500  1.00  0.00     0.135 A 
ATOM     79  C   UNL A   1      42.547  23.589  26.256  1.00  0.00     0.135 A 
ATOM     80  F   UNL A   1      42.446  22.912  29.829  1.00  0.00    -0.206 F 
ATOM     81  C   UNL A   1      42.316  21.436  28.010  1.00  0.00     0.059 A 
ATOM     82  C   UNL A   1      42.414  22.302  25.742  1.00  0.00     0.059 A 
ATOM     83  F   UNL A   1      42.657  24.612  25.396  1.00  0.00    -0.206 F 
ATOM     84  C   UNL A   1      42.318  21.230  26.629  1.00  0.00     0.060 A 
BRANCH  84  85
ATOM     85  S   UNL A   1      42.196  19.537  26.012  1.00  0.00     0.124 S 
ATOM     86  O   UNL A   1      43.127  19.572  24.888  1.00  0.00    -0.237 OA
ATOM     87  O   UNL A   1      42.624  18.757  27.168  1.00  0.00    -0.237 OA
ATOM     88  O   UNL A   1      40.786  19.409  25.658  1.00  0.00    -0.744 OA
ENDBRANCH  84  85
ENDBRANCH  52  77
BRANCH  64  89
ATOM     89  C   UNL A   1      48.086  27.316  30.083  1.00  0.00     0.058 A 
ATOM     90  C   UNL A   1      48.502  26.572  31.200  1.00  0.00     0.135 A 
ATOM     91  C   UNL A   1      49.069  27.750  29.180  1.00  0.00     0.135 A 
ATOM     92  F   UNL A   1      47.602  26.135  32.094  1.00  0.00    -0.206 F 
ATOM     93  C   UNL A   1      49.844  26.285  31.421  1.00  0.00     0.059 A 
ATOM     94  C   UNL A   1      50.416  27.456  29.372  1.00  0.00     0.059 A 
ATOM     95  F   UNL A   1      48.720  28.452  28.090  1.00  0.00    -0.206 F 
ATOM     96  C   UNL A   1      50.794  26.735  30.505  1.00  0.00     0.060 A 
BRANCH  96  97
ATOM     97  S   UNL A   1      52.532  26.340  30.796  1.00  0.00     0.124 S 
ATOM     98  O   UNL A   1      52.432  25.265  31.777  1.00  0.00    -0.237 OA
ATOM     99  O   UNL A   1      52.988  25.946  29.466  1.00  0.00    -0.237 OA
ATOM    100  O   UNL A   1      53.086  27.596  31.293  1.00  0.00    -0.744 OA
ENDBRANCH  96  97
ENDBRANCH  64  89
ENDBRANCH  38  39
ENDBRANCH  30  33
ENDBRANCH  28  29
ENDBRANCH  27  28
ENDBRANCH   1  27
TORSDOF 18
ENDMDL
