MODEL 1
REMARK VINA RESULT:     -10.5      0.000      0.000
REMARK SMILES CC(C)=CC(=O)Nc1ccc(C(=O)NCCCNC(=O)c2ccc(-c3c4nc(c(-c5c(F)cc(S(=O)(=O)[O-])cc5F)c5ccc([nH]5)c(-c5c(F)cc(S(=O)(=O)[O-])cc5F)c5nc(c(-c6c(F)cc(S(=O)(=O)[O-])cc6F)c6ccc3[nH]6)C=C5)C=C4)cc2)cc1
REMARK SMILES IDX 16 1 15 2 14 3 12 4 13 5 11 7 8 8 9 9 88 10 10 11 87 12 7 13
REMARK SMILES IDX 5 14 6 15 4 17 1 18 2 19 3 20 17 21 18 22 19 23 20 25 21 26
REMARK SMILES IDX 22 27 86 28 23 29 85 30 24 31 25 32 26 33 79 34 27 35 84 36
REMARK SMILES IDX 78 37 80 38 28 39 83 40 77 41 76 42 29 44 63 45 42 46 62 47
REMARK SMILES IDX 43 48 46 49 61 50 81 51 44 52 45 53 60 55 82 56 47 57 30 58
REMARK SMILES IDX 31 59 40 60 32 61 33 62 39 63 41 64 34 65 35 66 36 67 37 68
REMARK SMILES IDX 38 69 64 70 65 71 74 72 66 73 67 74 73 75 75 76 68 77 69 78
REMARK SMILES IDX 70 79 71 80 72 81 48 82 49 83 58 84 50 85 51 86 57 87 59 88
REMARK SMILES IDX 52 89 53 90 54 91 55 92 56 93
REMARK H PARENT 14 6 7 16 18 24 80 43 46 54
REMARK Flexibility Score: inf
ROOT
ATOM      1  C   UNL A   1      33.625  33.849  28.441  1.00  0.00     0.042 C 
ENDROOT
BRANCH   1   2
ATOM      2  C   UNL A   1      34.161  35.137  29.064  1.00  0.00     0.118 C 
BRANCH   2   3
ATOM      3  N   UNL A   1      33.111  35.845  29.781  1.00  0.00    -0.352 N 
ATOM      4  C   UNL A   1      32.775  35.893  31.111  1.00  0.00     0.251 C 
ATOM      5  O   UNL A   1      31.843  36.622  31.452  1.00  0.00    -0.269 OA
ATOM      6  H   UNL A   1      32.533  36.394  29.203  1.00  0.00     0.163 HD
BRANCH   4   7
ATOM      7  C   UNL A   1      33.569  35.196  32.155  1.00  0.00     0.039 A 
ATOM      8  C   UNL A   1      35.478  33.854  33.673  1.00  0.00     0.041 A 
ATOM      9  C   UNL A   1      35.588  35.234  33.502  1.00  0.00     0.027 A 
ATOM     10  C   UNL A   1      34.318  33.194  33.280  1.00  0.00     0.027 A 
ATOM     11  C   UNL A   1      34.652  35.896  32.708  1.00  0.00     0.016 A 
ATOM     12  C   UNL A   1      33.344  33.878  32.554  1.00  0.00     0.016 A 
BRANCH   8  13
ATOM     13  N   UNL A   1      36.599  33.172  34.154  1.00  0.00    -0.323 N 
ATOM     14  C   UNL A   1      37.485  32.387  33.471  1.00  0.00     0.248 C 
ATOM     15  O   UNL A   1      38.337  31.745  34.087  1.00  0.00    -0.270 OA
ATOM     16  H   UNL A   1      36.774  33.269  35.118  1.00  0.00     0.170 HD
BRANCH  14  17
ATOM     17  C   UNL A   1      37.491  32.320  31.981  1.00  0.00     0.070 C 
ATOM     18  C   UNL A   1      38.421  34.624  31.403  1.00  0.00     0.039 C 
ATOM     19  C   UNL A   1      37.905  33.247  31.088  1.00  0.00    -0.071 C 
ATOM     20  C   UNL A   1      37.915  32.931  29.614  1.00  0.00     0.039 C 
ENDBRANCH  14  17
ENDBRANCH   8  13
ENDBRANCH   4   7
ENDBRANCH   2   3
ENDBRANCH   1   2
BRANCH   1  21
ATOM     21  C   UNL A   1      34.562  32.658  28.618  1.00  0.00     0.118 C 
BRANCH  21  22
ATOM     22  N   UNL A   1      33.933  31.403  28.238  1.00  0.00    -0.352 N 
ATOM     23  C   UNL A   1      34.502  30.182  27.977  1.00  0.00     0.251 C 
ATOM     24  H   UNL A   1      32.952  31.433  28.158  1.00  0.00     0.163 HD
ATOM     25  O   UNL A   1      33.808  29.294  27.474  1.00  0.00    -0.269 OA
BRANCH  23  26
ATOM     26  C   UNL A   1      35.931  29.927  28.267  1.00  0.00     0.039 A 
ATOM     27  C   UNL A   1      36.292  29.508  29.550  1.00  0.00     0.014 A 
ATOM     28  C   UNL A   1      36.919  30.129  27.298  1.00  0.00     0.014 A 
ATOM     29  C   UNL A   1      37.631  29.235  29.844  1.00  0.00     0.010 A 
ATOM     30  C   UNL A   1      38.244  29.788  27.572  1.00  0.00     0.010 A 
ATOM     31  C   UNL A   1      38.616  29.340  28.848  1.00  0.00    -0.014 A 
BRANCH  31  32
ATOM     32  C   UNL A   1      40.033  28.982  29.123  1.00  0.00     0.031 A 
ATOM     33  C   UNL A   1      40.983  30.011  29.679  1.00  0.00     0.074 A 
ATOM     34  C   UNL A   1      40.481  27.750  28.809  1.00  0.00     0.049 A 
ATOM     35  N   UNL A   1      42.268  29.909  29.905  1.00  0.00    -0.248 NA
ATOM     36  C   UNL A   1      40.422  31.333  30.002  1.00  0.00     0.031 C 
ATOM     37  C   UNL A   1      39.673  26.680  28.216  1.00  0.00     0.029 A 
ATOM     38  N   UNL A   1      41.731  27.190  28.926  1.00  0.00    -0.354 N 
ATOM     39  C   UNL A   1      42.672  31.155  30.373  1.00  0.00     0.074 A 
ATOM     40  C   UNL A   1      41.504  32.008  30.365  1.00  0.00     0.031 C 
ATOM     41  C   UNL A   1      40.444  25.595  28.031  1.00  0.00     0.029 A 
ATOM     42  C   UNL A   1      41.806  25.901  28.453  1.00  0.00     0.049 A 
ATOM     43  H   UNL A   1      42.500  27.669  29.312  1.00  0.00     0.167 HD
ATOM     44  C   UNL A   1      43.901  31.546  30.788  1.00  0.00     0.037 A 
ATOM     45  C   UNL A   1      42.857  25.063  28.357  1.00  0.00     0.037 A 
ATOM     46  C   UNL A   1      45.051  30.680  30.835  1.00  0.00     0.049 A 
ATOM     47  C   UNL A   1      44.207  25.518  28.843  1.00  0.00     0.074 A 
ATOM     48  C   UNL A   1      46.319  30.962  31.315  1.00  0.00     0.029 A 
ATOM     49  N   UNL A   1      45.077  29.368  30.387  1.00  0.00    -0.354 N 
ATOM     50  N   UNL A   1      44.552  26.675  29.354  1.00  0.00    -0.248 NA
ATOM     51  C   UNL A   1      45.312  24.552  28.748  1.00  0.00     0.031 C 
ATOM     52  C   UNL A   1      47.123  29.836  31.117  1.00  0.00     0.029 A 
ATOM     53  C   UNL A   1      46.345  28.835  30.560  1.00  0.00     0.049 A 
ATOM     54  H   UNL A   1      44.309  28.886  30.004  1.00  0.00     0.167 HD
ATOM     55  C   UNL A   1      45.903  26.566  29.668  1.00  0.00     0.074 A 
ATOM     56  C   UNL A   1      46.309  25.226  29.302  1.00  0.00     0.031 C 
ATOM     57  C   UNL A   1      46.731  27.493  30.208  1.00  0.00     0.037 A 
BRANCH  44  58
ATOM     58  C   UNL A   1      44.078  32.968  31.243  1.00  0.00     0.058 A 
ATOM     59  C   UNL A   1      44.401  33.995  30.343  1.00  0.00     0.135 A 
ATOM     60  C   UNL A   1      43.837  33.321  32.581  1.00  0.00     0.135 A 
ATOM     61  F   UNL A   1      44.657  33.709  29.055  1.00  0.00    -0.206 F 
ATOM     62  C   UNL A   1      44.487  35.320  30.753  1.00  0.00     0.059 A 
ATOM     63  C   UNL A   1      43.893  34.645  33.009  1.00  0.00     0.059 A 
ATOM     64  F   UNL A   1      43.528  32.379  33.484  1.00  0.00    -0.206 F 
ATOM     65  C   UNL A   1      44.224  35.637  32.087  1.00  0.00     0.060 A 
BRANCH  65  66
ATOM     66  S   UNL A   1      44.295  37.370  32.592  1.00  0.00     0.124 S 
ATOM     67  O   UNL A   1      45.669  37.476  33.075  1.00  0.00    -0.237 OA
ATOM     68  O   UNL A   1      44.008  38.070  31.343  1.00  0.00    -0.237 OA
ATOM     69  O   UNL A   1      43.261  37.470  33.615  1.00  0.00    -0.744 OA
ENDBRANCH  65  66
ENDBRANCH  44  58
BRANCH  45  70
ATOM     70  C   UNL A   1      42.683  23.705  27.772  1.00  0.00     0.058 A 
ATOM     71  C   UNL A   1      42.529  22.577  28.592  1.00  0.00     0.135 A 
ATOM     72  C   UNL A   1      42.690  23.506  26.383  1.00  0.00     0.135 A 
ATOM     73  F   UNL A   1      42.521  22.714  29.926  1.00  0.00    -0.206 F 
ATOM     74  C   UNL A   1      42.423  21.296  28.059  1.00  0.00     0.059 A 
ATOM     75  C   UNL A   1      42.556  22.238  25.824  1.00  0.00     0.059 A 
ATOM     76  F   UNL A   1      42.814  24.553  25.553  1.00  0.00    -0.206 F 
ATOM     77  C   UNL A   1      42.441  21.137  26.672  1.00  0.00     0.060 A 
BRANCH  77  78
ATOM     78  S   UNL A   1      42.287  19.474  25.986  1.00  0.00     0.124 S 
ATOM     79  O   UNL A   1      43.233  19.526  24.877  1.00  0.00    -0.237 OA
ATOM     80  O   UNL A   1      42.673  18.637  27.118  1.00  0.00    -0.237 OA
ATOM     81  O   UNL A   1      40.878  19.396  25.612  1.00  0.00    -0.744 OA
ENDBRANCH  77  78
ENDBRANCH  45  70
BRANCH  57  82
ATOM     82  C   UNL A   1      48.151  27.080  30.480  1.00  0.00     0.058 A 
ATOM     83  C   UNL A   1      49.188  27.365  29.578  1.00  0.00     0.135 A 
ATOM     84  C   UNL A   1      48.485  26.439  31.684  1.00  0.00     0.135 A 
ATOM     85  F   UNL A   1      48.921  27.970  28.410  1.00  0.00    -0.206 F 
ATOM     86  C   UNL A   1      50.504  27.008  29.850  1.00  0.00     0.059 A 
ATOM     87  C   UNL A   1      49.799  26.099  31.989  1.00  0.00     0.059 A 
ATOM     88  F   UNL A   1      47.532  26.155  32.585  1.00  0.00    -0.206 F 
ATOM     89  C   UNL A   1      50.800  26.376  31.060  1.00  0.00     0.060 A 
BRANCH  89  90
ATOM     90  S   UNL A   1      52.517  25.948  31.417  1.00  0.00     0.124 S 
ATOM     91  O   UNL A   1      52.902  27.016  32.333  1.00  0.00    -0.237 OA
ATOM     92  O   UNL A   1      52.392  24.619  32.011  1.00  0.00    -0.237 OA
ATOM     93  O   UNL A   1      53.158  25.982  30.106  1.00  0.00    -0.744 OA
ENDBRANCH  89  90
ENDBRANCH  57  82
ENDBRANCH  31  32
ENDBRANCH  23  26
ENDBRANCH  21  22
ENDBRANCH   1  21
TORSDOF 15
ENDMDL
MODEL 2
REMARK VINA RESULT:     -10.5      5.519     12.364
REMARK SMILES CC(C)=CC(=O)Nc1ccc(C(=O)NCCCNC(=O)c2ccc(-c3c4nc(c(-c5c(F)cc(S(=O)(=O)[O-])cc5F)c5ccc([nH]5)c(-c5c(F)cc(S(=O)(=O)[O-])cc5F)c5nc(c(-c6c(F)cc(S(=O)(=O)[O-])cc6F)c6ccc3[nH]6)C=C5)C=C4)cc2)cc1
REMARK SMILES IDX 16 1 15 2 14 3 12 4 13 5 11 7 8 8 9 9 88 10 10 11 87 12 7 13
REMARK SMILES IDX 5 14 6 15 4 17 1 18 2 19 3 20 17 21 18 22 19 23 20 25 21 26
REMARK SMILES IDX 22 27 86 28 23 29 85 30 24 31 25 32 26 33 79 34 27 35 84 36
REMARK SMILES IDX 78 37 80 38 28 39 83 40 77 41 76 42 29 44 63 45 42 46 62 47
REMARK SMILES IDX 43 48 46 49 61 50 81 51 44 52 45 53 60 55 82 56 47 57 30 58
REMARK SMILES IDX 31 59 40 60 32 61 33 62 39 63 41 64 34 65 35 66 36 67 37 68
REMARK SMILES IDX 38 69 64 70 65 71 74 72 66 73 67 74 73 75 75 76 68 77 69 78
REMARK SMILES IDX 70 79 71 80 72 81 48 82 49 83 58 84 50 85 51 86 57 87 59 88
REMARK SMILES IDX 52 89 53 90 54 91 55 92 56 93
REMARK H PARENT 14 6 7 16 18 24 80 43 46 54
REMARK Flexibility Score: inf
ROOT
ATOM      1  C   UNL A   1      40.528  22.176  27.609  1.00  0.00     0.042 C 
ENDROOT
BRANCH   1   2
ATOM      2  C   UNL A   1      39.475  22.519  26.556  1.00  0.00     0.118 C 
BRANCH   2   3
ATOM      3  N   UNL A   1      39.011  21.321  25.873  1.00  0.00    -0.352 N 
ATOM      4  C   UNL A   1      37.890  21.062  25.124  1.00  0.00     0.251 C 
ATOM      5  O   UNL A   1      37.767  19.946  24.621  1.00  0.00    -0.269 OA
ATOM      6  H   UNL A   1      39.615  20.548  25.965  1.00  0.00     0.163 HD
BRANCH   4   7
ATOM      7  C   UNL A   1      36.891  22.115  24.803  1.00  0.00     0.039 A 
ATOM      8  C   UNL A   1      34.619  23.644  24.306  1.00  0.00     0.041 A 
ATOM      9  C   UNL A   1      35.019  23.424  25.624  1.00  0.00     0.027 A 
ATOM     10  C   UNL A   1      35.462  23.294  23.255  1.00  0.00     0.027 A 
ATOM     11  C   UNL A   1      36.135  22.624  25.870  1.00  0.00     0.016 A 
ATOM     12  C   UNL A   1      36.621  22.563  23.510  1.00  0.00     0.016 A 
BRANCH   8  13
ATOM     13  N   UNL A   1      33.325  24.129  24.097  1.00  0.00    -0.323 N 
ATOM     14  C   UNL A   1      32.295  23.556  23.404  1.00  0.00     0.248 C 
ATOM     15  O   UNL A   1      31.263  24.195  23.202  1.00  0.00    -0.270 OA
ATOM     16  H   UNL A   1      33.128  25.003  24.504  1.00  0.00     0.170 HD
BRANCH  14  17
ATOM     17  C   UNL A   1      32.359  22.145  22.922  1.00  0.00     0.070 C 
ATOM     18  C   UNL A   1      32.275  20.881  25.136  1.00  0.00     0.039 C 
ATOM     19  C   UNL A   1      32.329  20.999  23.637  1.00  0.00    -0.071 C 
ATOM     20  C   UNL A   1      32.305  19.665  22.935  1.00  0.00     0.039 C 
ENDBRANCH  14  17
ENDBRANCH   8  13
ENDBRANCH   4   7
ENDBRANCH   2   3
ENDBRANCH   1   2
BRANCH   1  21
ATOM     21  C   UNL A   1      41.787  23.031  27.503  1.00  0.00     0.118 C 
BRANCH  21  22
ATOM     22  N   UNL A   1      41.800  23.841  26.295  1.00  0.00    -0.352 N 
ATOM     23  C   UNL A   1      41.553  25.181  26.137  1.00  0.00     0.251 C 
ATOM     24  H   UNL A   1      42.021  23.356  25.467  1.00  0.00     0.163 HD
ATOM     25  O   UNL A   1      41.419  25.634  24.997  1.00  0.00    -0.269 OA
BRANCH  23  26
ATOM     26  C   UNL A   1      41.425  26.078  27.307  1.00  0.00     0.039 A 
ATOM     27  C   UNL A   1      42.386  27.074  27.500  1.00  0.00     0.014 A 
ATOM     28  C   UNL A   1      40.387  25.926  28.233  1.00  0.00     0.014 A 
ATOM     29  C   UNL A   1      42.275  27.951  28.583  1.00  0.00     0.010 A 
ATOM     30  C   UNL A   1      40.238  26.846  29.270  1.00  0.00     0.010 A 
ATOM     31  C   UNL A   1      41.181  27.867  29.460  1.00  0.00    -0.014 A 
BRANCH  31  32
ATOM     32  C   UNL A   1      41.007  28.839  30.572  1.00  0.00     0.031 A 
ATOM     33  C   UNL A   1      41.850  28.729  31.816  1.00  0.00     0.074 A 
ATOM     34  C   UNL A   1      40.044  29.778  30.491  1.00  0.00     0.049 A 
ATOM     35  N   UNL A   1      41.787  29.430  32.919  1.00  0.00    -0.248 NA
ATOM     36  C   UNL A   1      42.885  27.682  31.832  1.00  0.00     0.031 C 
ATOM     37  C   UNL A   1      39.126  29.956  29.362  1.00  0.00     0.029 A 
ATOM     38  N   UNL A   1      39.661  30.753  31.380  1.00  0.00    -0.354 N 
ATOM     39  C   UNL A   1      42.752  28.896  33.766  1.00  0.00     0.074 A 
ATOM     40  C   UNL A   1      43.364  27.790  33.064  1.00  0.00     0.031 C 
ATOM     41  C   UNL A   1      38.295  30.978  29.623  1.00  0.00     0.029 A 
ATOM     42  C   UNL A   1      38.592  31.506  30.951  1.00  0.00     0.049 A 
ATOM     43  H   UNL A   1      40.108  30.898  32.245  1.00  0.00     0.167 HD
ATOM     44  C   UNL A   1      43.108  29.303  35.008  1.00  0.00     0.037 A 
ATOM     45  C   UNL A   1      37.918  32.500  31.562  1.00  0.00     0.037 A 
ATOM     46  C   UNL A   1      42.524  30.433  35.686  1.00  0.00     0.049 A 
ATOM     47  C   UNL A   1      38.347  32.943  32.935  1.00  0.00     0.074 A 
ATOM     48  C   UNL A   1      42.874  30.971  36.913  1.00  0.00     0.029 A 
ATOM     49  N   UNL A   1      41.475  31.196  35.200  1.00  0.00    -0.354 N 
ATOM     50  N   UNL A   1      39.314  32.475  33.687  1.00  0.00    -0.248 NA
ATOM     51  C   UNL A   1      37.600  34.056  33.541  1.00  0.00     0.031 C 
ATOM     52  C   UNL A   1      42.006  32.032  37.189  1.00  0.00     0.029 A 
ATOM     53  C   UNL A   1      41.149  32.187  36.112  1.00  0.00     0.049 A 
ATOM     54  H   UNL A   1      41.027  31.055  34.335  1.00  0.00     0.167 HD
ATOM     55  C   UNL A   1      39.309  33.254  34.840  1.00  0.00     0.074 A 
ATOM     56  C   UNL A   1      38.255  34.231  34.680  1.00  0.00     0.031 C 
ATOM     57  C   UNL A   1      40.107  33.165  35.933  1.00  0.00     0.037 A 
BRANCH  44  58
ATOM     58  C   UNL A   1      44.188  28.540  35.724  1.00  0.00     0.058 A 
ATOM     59  C   UNL A   1      45.543  28.878  35.588  1.00  0.00     0.135 A 
ATOM     60  C   UNL A   1      43.855  27.514  36.624  1.00  0.00     0.135 A 
ATOM     61  F   UNL A   1      45.917  29.840  34.729  1.00  0.00    -0.206 F 
ATOM     62  C   UNL A   1      46.532  28.221  36.312  1.00  0.00     0.059 A 
ATOM     63  C   UNL A   1      44.826  26.860  37.378  1.00  0.00     0.059 A 
ATOM     64  F   UNL A   1      42.575  27.149  36.790  1.00  0.00    -0.206 F 
ATOM     65  C   UNL A   1      46.163  27.218  37.210  1.00  0.00     0.060 A 
BRANCH  65  66
ATOM     66  S   UNL A   1      47.456  26.408  38.176  1.00  0.00     0.124 S 
ATOM     67  O   UNL A   1      48.659  27.031  37.631  1.00  0.00    -0.237 OA
ATOM     68  O   UNL A   1      47.110  26.789  39.542  1.00  0.00    -0.237 OA
ATOM     69  O   UNL A   1      47.283  24.994  37.860  1.00  0.00    -0.744 OA
ENDBRANCH  65  66
ENDBRANCH  44  58
BRANCH  45  70
ATOM     70  C   UNL A   1      36.760  33.147  30.886  1.00  0.00     0.058 A 
ATOM     71  C   UNL A   1      36.951  34.080  29.856  1.00  0.00     0.135 A 
ATOM     72  C   UNL A   1      35.441  32.861  31.271  1.00  0.00     0.135 A 
ATOM     73  F   UNL A   1      38.193  34.391  29.454  1.00  0.00    -0.206 F 
ATOM     74  C   UNL A   1      35.879  34.735  29.256  1.00  0.00     0.059 A 
ATOM     75  C   UNL A   1      34.351  33.481  30.667  1.00  0.00     0.059 A 
ATOM     76  F   UNL A   1      35.202  31.960  32.238  1.00  0.00    -0.206 F 
ATOM     77  C   UNL A   1      34.582  34.430  29.672  1.00  0.00     0.060 A 
BRANCH  77  78
ATOM     78  S   UNL A   1      33.195  35.270  28.879  1.00  0.00     0.124 S 
ATOM     79  O   UNL A   1      33.876  36.334  28.149  1.00  0.00    -0.237 OA
ATOM     80  O   UNL A   1      32.614  34.207  28.065  1.00  0.00    -0.237 OA
ATOM     81  O   UNL A   1      32.376  35.701  30.008  1.00  0.00    -0.744 OA
ENDBRANCH  77  78
ENDBRANCH  45  70
BRANCH  57  82
ATOM     82  C   UNL A   1      39.902  34.177  37.025  1.00  0.00     0.058 A 
ATOM     83  C   UNL A   1      40.451  35.466  36.949  1.00  0.00     0.135 A 
ATOM     84  C   UNL A   1      39.100  33.870  38.136  1.00  0.00     0.135 A 
ATOM     85  F   UNL A   1      41.231  35.809  35.911  1.00  0.00    -0.206 F 
ATOM     86  C   UNL A   1      40.232  36.408  37.949  1.00  0.00     0.059 A 
ATOM     87  C   UNL A   1      38.844  34.806  39.133  1.00  0.00     0.059 A 
ATOM     88  F   UNL A   1      38.541  32.655  38.251  1.00  0.00    -0.206 F 
ATOM     89  C   UNL A   1      39.426  36.069  39.037  1.00  0.00     0.060 A 
BRANCH  89  90
ATOM     90  S   UNL A   1      39.120  37.310  40.310  1.00  0.00     0.124 S 
ATOM     91  O   UNL A   1      38.458  36.518  41.342  1.00  0.00    -0.237 OA
ATOM     92  O   UNL A   1      40.469  37.769  40.632  1.00  0.00    -0.237 OA
ATOM     93  O   UNL A   1      38.277  38.292  39.635  1.00  0.00    -0.744 OA
ENDBRANCH  89  90
ENDBRANCH  57  82
ENDBRANCH  31  32
ENDBRANCH  23  26
ENDBRANCH  21  22
ENDBRANCH   1  21
TORSDOF 15
ENDMDL
MODEL 3
REMARK VINA RESULT:     -10.4      0.644      8.419
REMARK SMILES CC(C)=CC(=O)Nc1ccc(C(=O)NCCCNC(=O)c2ccc(-c3c4nc(c(-c5c(F)cc(S(=O)(=O)[O-])cc5F)c5ccc([nH]5)c(-c5c(F)cc(S(=O)(=O)[O-])cc5F)c5nc(c(-c6c(F)cc(S(=O)(=O)[O-])cc6F)c6ccc3[nH]6)C=C5)C=C4)cc2)cc1
REMARK SMILES IDX 16 1 15 2 14 3 12 4 13 5 11 7 8 8 9 9 88 10 10 11 87 12 7 13
REMARK SMILES IDX 5 14 6 15 4 17 1 18 2 19 3 20 17 21 18 22 19 23 20 25 21 26
REMARK SMILES IDX 22 27 86 28 23 29 85 30 24 31 25 32 26 33 79 34 27 35 84 36
REMARK SMILES IDX 78 37 80 38 28 39 83 40 77 41 76 42 29 44 63 45 42 46 62 47
REMARK SMILES IDX 43 48 46 49 61 50 81 51 44 52 45 53 60 55 82 56 47 57 30 58
REMARK SMILES IDX 31 59 40 60 32 61 33 62 39 63 41 64 34 65 35 66 36 67 37 68
REMARK SMILES IDX 38 69 64 70 65 71 74 72 66 73 67 74 73 75 75 76 68 77 69 78
REMARK SMILES IDX 70 79 71 80 72 81 48 82 49 83 58 84 50 85 51 86 57 87 59 88
REMARK SMILES IDX 52 89 53 90 54 91 55 92 56 93
REMARK H PARENT 14 6 7 16 18 24 80 43 46 54
REMARK Flexibility Score: inf
ROOT
ATOM      1  C   UNL A   1      33.708  33.562  28.378  1.00  0.00     0.042 C 
ENDROOT
BRANCH   1   2
ATOM      2  C   UNL A   1      34.317  34.939  28.637  1.00  0.00     0.118 C 
BRANCH   2   3
ATOM      3  N   UNL A   1      33.393  35.787  29.375  1.00  0.00    -0.352 N 
ATOM      4  C   UNL A   1      33.115  35.901  30.715  1.00  0.00     0.251 C 
ATOM      5  O   UNL A   1      32.297  36.747  31.072  1.00  0.00    -0.269 OA
ATOM      6  H   UNL A   1      32.867  36.395  28.806  1.00  0.00     0.163 HD
BRANCH   4   7
ATOM      7  C   UNL A   1      33.854  35.126  31.745  1.00  0.00     0.039 A 
ATOM      8  C   UNL A   1      35.722  33.814  33.337  1.00  0.00     0.041 A 
ATOM      9  C   UNL A   1      35.565  35.194  33.465  1.00  0.00     0.027 A 
ATOM     10  C   UNL A   1      34.810  33.075  32.589  1.00  0.00     0.027 A 
ATOM     11  C   UNL A   1      34.656  35.853  32.637  1.00  0.00     0.016 A 
ATOM     12  C   UNL A   1      33.849  33.733  31.823  1.00  0.00     0.016 A 
BRANCH   8  13
ATOM     13  N   UNL A   1      36.866  33.240  33.900  1.00  0.00    -0.323 N 
ATOM     14  C   UNL A   1      38.144  33.221  33.416  1.00  0.00     0.248 C 
ATOM     15  O   UNL A   1      39.002  32.541  33.979  1.00  0.00    -0.270 OA
ATOM     16  H   UNL A   1      36.732  32.785  34.762  1.00  0.00     0.170 HD
BRANCH  14  17
ATOM     17  C   UNL A   1      38.554  34.049  32.244  1.00  0.00     0.070 C 
ATOM     18  C   UNL A   1      37.576  32.680  30.328  1.00  0.00     0.039 C 
ATOM     19  C   UNL A   1      38.304  33.849  30.931  1.00  0.00    -0.071 C 
ATOM     20  C   UNL A   1      38.733  34.874  29.911  1.00  0.00     0.039 C 
ENDBRANCH  14  17
ENDBRANCH   8  13
ENDBRANCH   4   7
ENDBRANCH   2   3
ENDBRANCH   1   2
BRANCH   1  21
ATOM     21  C   UNL A   1      34.739  32.437  28.375  1.00  0.00     0.118 C 
BRANCH  21  22
ATOM     22  N   UNL A   1      34.126  31.131  28.195  1.00  0.00    -0.352 N 
ATOM     23  C   UNL A   1      34.714  29.901  28.046  1.00  0.00     0.251 C 
ATOM     24  H   UNL A   1      33.141  31.128  28.178  1.00  0.00     0.163 HD
ATOM     25  O   UNL A   1      34.018  28.941  27.703  1.00  0.00    -0.269 OA
BRANCH  23  26
ATOM     26  C   UNL A   1      36.166  29.716  28.267  1.00  0.00     0.039 A 
ATOM     27  C   UNL A   1      36.607  29.291  29.524  1.00  0.00     0.014 A 
ATOM     28  C   UNL A   1      37.099  29.991  27.262  1.00  0.00     0.014 A 
ATOM     29  C   UNL A   1      37.970  29.084  29.753  1.00  0.00     0.010 A 
ATOM     30  C   UNL A   1      38.450  29.716  27.469  1.00  0.00     0.010 A 
ATOM     31  C   UNL A   1      38.902  29.262  28.717  1.00  0.00    -0.014 A 
BRANCH  31  32
ATOM     32  C   UNL A   1      40.347  28.974  28.921  1.00  0.00     0.031 A 
ATOM     33  C   UNL A   1      40.915  27.632  28.541  1.00  0.00     0.074 A 
ATOM     34  C   UNL A   1      41.134  29.898  29.509  1.00  0.00     0.049 A 
ATOM     35  N   UNL A   1      42.127  27.169  28.718  1.00  0.00    -0.248 NA
ATOM     36  C   UNL A   1      39.999  26.675  27.899  1.00  0.00     0.031 C 
ATOM     37  C   UNL A   1      40.692  31.217  29.971  1.00  0.00     0.029 A 
ATOM     38  N   UNL A   1      42.467  29.865  29.838  1.00  0.00    -0.354 N 
ATOM     39  C   UNL A   1      42.112  25.866  28.233  1.00  0.00     0.074 A 
ATOM     40  C   UNL A   1      40.763  25.597  27.787  1.00  0.00     0.031 C 
ATOM     41  C   UNL A   1      41.734  31.867  30.514  1.00  0.00     0.029 A 
ATOM     42  C   UNL A   1      42.908  31.002  30.475  1.00  0.00     0.049 A 
ATOM     43  H   UNL A   1      43.052  29.099  29.637  1.00  0.00     0.167 HD
ATOM     44  C   UNL A   1      43.135  24.982  28.150  1.00  0.00     0.037 A 
ATOM     45  C   UNL A   1      44.118  31.309  30.984  1.00  0.00     0.037 A 
ATOM     46  C   UNL A   1      44.487  25.269  28.557  1.00  0.00     0.049 A 
ATOM     47  C   UNL A   1      45.240  30.313  30.861  1.00  0.00     0.074 A 
ATOM     48  C   UNL A   1      45.608  24.465  28.439  1.00  0.00     0.029 A 
ATOM     49  N   UNL A   1      44.902  26.447  29.158  1.00  0.00    -0.354 N 
ATOM     50  N   UNL A   1      45.225  29.115  30.330  1.00  0.00    -0.248 NA
ATOM     51  C   UNL A   1      46.548  30.713  31.401  1.00  0.00     0.031 C 
ATOM     52  C   UNL A   1      46.692  25.139  29.008  1.00  0.00     0.029 A 
ATOM     53  C   UNL A   1      46.258  26.382  29.436  1.00  0.00     0.049 A 
ATOM     54  H   UNL A   1      44.321  27.216  29.357  1.00  0.00     0.167 HD
ATOM     55  C   UNL A   1      46.524  28.631  30.444  1.00  0.00     0.074 A 
ATOM     56  C   UNL A   1      47.302  29.670  31.083  1.00  0.00     0.031 C 
ATOM     57  C   UNL A   1      47.025  27.432  30.057  1.00  0.00     0.037 A 
BRANCH  44  58
ATOM     58  C   UNL A   1      42.850  23.616  27.589  1.00  0.00     0.058 A 
ATOM     59  C   UNL A   1      42.992  23.337  26.221  1.00  0.00     0.135 A 
ATOM     60  C   UNL A   1      42.514  22.552  28.443  1.00  0.00     0.135 A 
ATOM     61  F   UNL A   1      43.296  24.321  25.358  1.00  0.00    -0.206 F 
ATOM     62  C   UNL A   1      42.804  22.055  25.717  1.00  0.00     0.059 A 
ATOM     63  C   UNL A   1      42.345  21.256  27.964  1.00  0.00     0.059 A 
ATOM     64  F   UNL A   1      42.362  22.764  29.759  1.00  0.00    -0.206 F 
ATOM     65  C   UNL A   1      42.488  21.019  26.597  1.00  0.00     0.060 A 
BRANCH  65  66
ATOM     66  S   UNL A   1      42.293  19.351  25.931  1.00  0.00     0.124 S 
ATOM     67  O   UNL A   1      42.822  18.539  27.024  1.00  0.00    -0.237 OA
ATOM     68  O   UNL A   1      40.852  19.267  25.720  1.00  0.00    -0.237 OA
ATOM     69  O   UNL A   1      43.102  19.372  24.717  1.00  0.00    -0.744 OA
ENDBRANCH  65  66
ENDBRANCH  44  58
BRANCH  45  70
ATOM     70  C   UNL A   1      44.337  32.616  31.662  1.00  0.00     0.058 A 
ATOM     71  C   UNL A   1      44.054  32.781  33.026  1.00  0.00     0.135 A 
ATOM     72  C   UNL A   1      44.812  33.731  30.954  1.00  0.00     0.135 A 
ATOM     73  F   UNL A   1      43.594  31.747  33.745  1.00  0.00    -0.206 F 
ATOM     74  C   UNL A   1      44.201  34.013  33.658  1.00  0.00     0.059 A 
ATOM     75  C   UNL A   1      44.994  34.966  31.570  1.00  0.00     0.059 A 
ATOM     76  F   UNL A   1      45.117  33.622  29.651  1.00  0.00    -0.206 F 
ATOM     77  C   UNL A   1      44.668  35.101  32.919  1.00  0.00     0.060 A 
BRANCH  77  78
ATOM     78  S   UNL A   1      44.871  36.691  33.748  1.00  0.00     0.124 S 
ATOM     79  O   UNL A   1      43.517  37.231  33.681  1.00  0.00    -0.237 OA
ATOM     80  O   UNL A   1      45.335  36.292  35.073  1.00  0.00    -0.237 OA
ATOM     81  O   UNL A   1      45.865  37.373  32.924  1.00  0.00    -0.744 OA
ENDBRANCH  77  78
ENDBRANCH  45  70
BRANCH  57  82
ATOM     82  C   UNL A   1      48.493  27.193  30.270  1.00  0.00     0.058 A 
ATOM     83  C   UNL A   1      48.973  26.498  31.392  1.00  0.00     0.135 A 
ATOM     84  C   UNL A   1      49.428  27.617  29.312  1.00  0.00     0.135 A 
ATOM     85  F   UNL A   1      48.122  26.078  32.341  1.00  0.00    -0.206 F 
ATOM     86  C   UNL A   1      50.331  26.253  31.568  1.00  0.00     0.059 A 
ATOM     87  C   UNL A   1      50.788  27.357  29.453  1.00  0.00     0.059 A 
ATOM     88  F   UNL A   1      49.021  28.275  28.215  1.00  0.00    -0.206 F 
ATOM     89  C   UNL A   1      51.231  26.686  30.592  1.00  0.00     0.060 A 
BRANCH  89  90
ATOM     90  S   UNL A   1      52.986  26.332  30.813  1.00  0.00     0.124 S 
ATOM     91  O   UNL A   1      52.943  25.165  31.689  1.00  0.00    -0.237 OA
ATOM     92  O   UNL A   1      53.431  26.080  29.444  1.00  0.00    -0.237 OA
ATOM     93  O   UNL A   1      53.507  27.554  31.419  1.00  0.00    -0.744 OA
ENDBRANCH  89  90
ENDBRANCH  57  82
ENDBRANCH  31  32
ENDBRANCH  23  26
ENDBRANCH  21  22
ENDBRANCH   1  21
TORSDOF 15
ENDMDL
