MODEL 1
REMARK VINA RESULT:     -12.2      0.000      0.000
REMARK SMILES CC[C@](O)(C(=O)NCCCNC(=O)c1ccc(-c2c3nc(c(-c4c(F)cc(S(=O)(=O)[O-])cc4F)c4ccc([nH]4)c(-c4c(F)cc(S(=O)(=O)[O-])cc4F)c4nc(c(-c5c(F)cc(S(=O)(=O)[O-])cc5F)c5ccc2[nH]5)C=C4)C=C3)cc1)[C@@H](C)c1ccc2c(c1)OCCO2
REMARK SMILES IDX 9 1 8 2 7 3 5 4 6 5 3 7 2 8 1 9 80 10 81 11 82 12 83 13
REMARK SMILES IDX 87 14 84 15 86 16 85 17 88 18 91 19 89 20 90 21 4 22 10 24
REMARK SMILES IDX 11 25 12 26 13 28 14 29 15 30 79 31 16 32 78 33 17 34 18 35
REMARK SMILES IDX 19 36 72 37 20 38 77 39 71 40 73 41 21 42 76 43 70 44 69 45
REMARK SMILES IDX 22 47 56 48 35 49 55 50 36 51 39 52 54 53 74 54 37 55 38 56
REMARK SMILES IDX 53 58 75 59 40 60 23 61 24 62 33 63 25 64 26 65 32 66 34 67
REMARK SMILES IDX 27 68 28 69 29 70 30 71 31 72 57 73 58 74 67 75 59 76 60 77
REMARK SMILES IDX 66 78 68 79 61 80 62 81 63 82 64 83 65 84 41 85 42 86 51 87
REMARK SMILES IDX 43 88 44 89 50 90 52 91 45 92 46 93 47 94 48 95 49 96
REMARK H PARENT 7 6 4 23 11 27 73 46 39 57
REMARK Flexibility Score: inf
ROOT
ATOM      1  C   UNL A   1      37.696  24.055  26.155  1.00  0.00     0.042 C 
ENDROOT
BRANCH   1   2
ATOM      2  C   UNL A   1      37.105  22.725  25.713  1.00  0.00     0.117 C 
BRANCH   2   3
ATOM      3  N   UNL A   1      36.144  22.174  26.668  1.00  0.00    -0.354 N 
ATOM      4  C   UNL A   1      34.781  22.024  26.562  1.00  0.00     0.252 C 
ATOM      5  O   UNL A   1      34.205  21.381  27.441  1.00  0.00    -0.272 OA
ATOM      6  H   UNL A   1      36.533  21.862  27.517  1.00  0.00     0.163 HD
BRANCH   4   7
ATOM      7  C   UNL A   1      34.041  22.632  25.335  1.00  0.00     0.149 C 
BRANCH   7   8
ATOM      8  C   UNL A   1      34.906  22.233  24.102  1.00  0.00     0.043 C 
ATOM      9  C   UNL A   1      35.029  23.213  22.949  1.00  0.00     0.007 C 
ENDBRANCH   7   8
BRANCH   7  10
ATOM     10  C   UNL A   1      32.541  22.162  25.220  1.00  0.00     0.058 C 
ATOM     11  C   UNL A   1      31.607  23.142  24.471  1.00  0.00     0.016 C 
BRANCH  10  12
ATOM     12  C   UNL A   1      32.369  20.823  24.485  1.00  0.00    -0.038 A 
ATOM     13  C   UNL A   1      32.166  20.759  23.094  1.00  0.00     0.008 A 
ATOM     14  C   UNL A   1      32.523  19.622  25.190  1.00  0.00     0.054 A 
ATOM     15  C   UNL A   1      32.212  19.527  22.426  1.00  0.00     0.051 A 
ATOM     16  C   UNL A   1      32.581  18.416  24.535  1.00  0.00     0.161 A 
ATOM     17  C   UNL A   1      32.506  18.378  23.152  1.00  0.00     0.161 A 
ATOM     18  O   UNL A   1      32.868  17.327  25.303  1.00  0.00    -0.486 OA
ATOM     19  O   UNL A   1      32.934  17.245  22.497  1.00  0.00    -0.486 OA
ATOM     20  C   UNL A   1      33.798  16.457  24.658  1.00  0.00     0.271 C 
ATOM     21  C   UNL A   1      34.119  16.837  23.210  1.00  0.00     0.271 C 
ENDBRANCH  10  12
ENDBRANCH   7  10
BRANCH   7  22
ATOM     22  O   UNL A   1      34.100  24.050  25.547  1.00  0.00    -0.379 OA
ATOM     23  H   UNL A   1      34.969  24.288  25.907  1.00  0.00     0.212 HD
ENDBRANCH   7  22
ENDBRANCH   4   7
ENDBRANCH   2   3
ENDBRANCH   1   2
BRANCH   1  24
ATOM     24  C   UNL A   1      39.057  23.912  26.816  1.00  0.00     0.118 C 
BRANCH  24  25
ATOM     25  N   UNL A   1      40.146  24.322  25.934  1.00  0.00    -0.352 N 
ATOM     26  C   UNL A   1      40.997  25.394  26.016  1.00  0.00     0.251 C 
ATOM     27  H   UNL A   1      40.293  23.735  25.158  1.00  0.00     0.163 HD
ATOM     28  O   UNL A   1      41.684  25.700  25.041  1.00  0.00    -0.269 OA
BRANCH  26  29
ATOM     29  C   UNL A   1      41.073  26.186  27.258  1.00  0.00     0.039 A 
ATOM     30  C   UNL A   1      42.039  27.188  27.369  1.00  0.00     0.014 A 
ATOM     31  C   UNL A   1      40.181  25.950  28.306  1.00  0.00     0.014 A 
ATOM     32  C   UNL A   1      42.043  28.020  28.490  1.00  0.00     0.010 A 
ATOM     33  C   UNL A   1      40.128  26.832  29.378  1.00  0.00     0.010 A 
ATOM     34  C   UNL A   1      41.048  27.887  29.473  1.00  0.00    -0.014 A 
BRANCH  34  35
ATOM     35  C   UNL A   1      40.911  28.872  30.575  1.00  0.00     0.031 A 
ATOM     36  C   UNL A   1      41.734  28.733  31.826  1.00  0.00     0.074 A 
ATOM     37  C   UNL A   1      39.969  29.833  30.481  1.00  0.00     0.049 A 
ATOM     38  N   UNL A   1      41.671  29.428  32.932  1.00  0.00    -0.248 NA
ATOM     39  C   UNL A   1      42.740  27.657  31.852  1.00  0.00     0.031 C 
ATOM     40  C   UNL A   1      39.072  30.030  29.337  1.00  0.00     0.029 A 
ATOM     41  N   UNL A   1      39.589  30.811  31.366  1.00  0.00    -0.354 N 
ATOM     42  C   UNL A   1      42.610  28.865  33.789  1.00  0.00     0.074 A 
ATOM     43  C   UNL A   1      43.208  27.750  33.089  1.00  0.00     0.031 C 
ATOM     44  C   UNL A   1      38.256  31.066  29.587  1.00  0.00     0.029 A 
ATOM     45  C   UNL A   1      38.532  31.576  30.926  1.00  0.00     0.049 A 
ATOM     46  H   UNL A   1      40.029  30.951  32.235  1.00  0.00     0.167 HD
ATOM     47  C   UNL A   1      42.949  29.258  35.038  1.00  0.00     0.037 A 
ATOM     48  C   UNL A   1      37.843  32.557  31.539  1.00  0.00     0.037 A 
ATOM     49  C   UNL A   1      42.372  30.393  35.710  1.00  0.00     0.049 A 
ATOM     50  C   UNL A   1      38.237  32.959  32.937  1.00  0.00     0.074 A 
ATOM     51  C   UNL A   1      42.724  30.932  36.935  1.00  0.00     0.029 A 
ATOM     52  N   UNL A   1      41.321  31.156  35.224  1.00  0.00    -0.354 N 
ATOM     53  N   UNL A   1      39.203  32.487  33.687  1.00  0.00    -0.248 NA
ATOM     54  C   UNL A   1      37.445  34.021  33.574  1.00  0.00     0.031 C 
ATOM     55  C   UNL A   1      41.842  31.977  37.221  1.00  0.00     0.029 A 
ATOM     56  C   UNL A   1      40.979  32.129  36.148  1.00  0.00     0.049 A 
ATOM     57  H   UNL A   1      40.882  31.025  34.352  1.00  0.00     0.167 HD
ATOM     58  C   UNL A   1      39.145  33.206  34.877  1.00  0.00     0.074 A 
ATOM     59  C   UNL A   1      38.068  34.162  34.736  1.00  0.00     0.031 C 
ATOM     60  C   UNL A   1      39.907  33.079  35.990  1.00  0.00     0.037 A 
BRANCH  47  61
ATOM     61  C   UNL A   1      43.992  28.471  35.780  1.00  0.00     0.058 A 
ATOM     62  C   UNL A   1      43.650  27.401  36.620  1.00  0.00     0.135 A 
ATOM     63  C   UNL A   1      45.357  28.717  35.553  1.00  0.00     0.135 A 
ATOM     64  F   UNL A   1      42.362  27.131  36.885  1.00  0.00    -0.206 F 
ATOM     65  C   UNL A   1      44.625  26.598  37.204  1.00  0.00     0.059 A 
ATOM     66  C   UNL A   1      46.347  27.913  36.107  1.00  0.00     0.059 A 
ATOM     67  F   UNL A   1      45.737  29.734  34.763  1.00  0.00    -0.206 F 
ATOM     68  C   UNL A   1      45.970  26.854  36.932  1.00  0.00     0.060 A 
BRANCH  68  69
ATOM     69  S   UNL A   1      47.216  25.757  37.642  1.00  0.00     0.124 S 
ATOM     70  O   UNL A   1      48.453  26.415  37.232  1.00  0.00    -0.237 OA
ATOM     71  O   UNL A   1      46.906  25.821  39.068  1.00  0.00    -0.237 OA
ATOM     72  O   UNL A   1      46.946  24.473  37.002  1.00  0.00    -0.744 OA
ENDBRANCH  68  69
ENDBRANCH  47  61
BRANCH  48  73
ATOM     73  C   UNL A   1      36.690  33.212  30.862  1.00  0.00     0.058 A 
ATOM     74  C   UNL A   1      36.885  34.137  29.826  1.00  0.00     0.135 A 
ATOM     75  C   UNL A   1      35.368  32.957  31.266  1.00  0.00     0.135 A 
ATOM     76  F   UNL A   1      38.128  34.420  29.406  1.00  0.00    -0.206 F 
ATOM     77  C   UNL A   1      35.820  34.817  29.243  1.00  0.00     0.059 A 
ATOM     78  C   UNL A   1      34.285  33.598  30.676  1.00  0.00     0.059 A 
ATOM     79  F   UNL A   1      35.122  32.066  32.240  1.00  0.00    -0.206 F 
ATOM     80  C   UNL A   1      34.523  34.545  29.681  1.00  0.00     0.060 A 
BRANCH  80  81
ATOM     81  S   UNL A   1      33.148  35.439  28.927  1.00  0.00     0.124 S 
ATOM     82  O   UNL A   1      33.851  36.463  28.162  1.00  0.00    -0.237 OA
ATOM     83  O   UNL A   1      32.494  34.394  28.146  1.00  0.00    -0.237 OA
ATOM     84  O   UNL A   1      32.390  35.920  30.077  1.00  0.00    -0.744 OA
ENDBRANCH  80  81
ENDBRANCH  48  73
BRANCH  60  85
ATOM     85  C   UNL A   1      39.618  34.001  37.141  1.00  0.00     0.058 A 
ATOM     86  C   UNL A   1      38.815  33.595  38.219  1.00  0.00     0.135 A 
ATOM     87  C   UNL A   1      40.204  35.275  37.203  1.00  0.00     0.135 A 
ATOM     88  F   UNL A   1      38.223  32.390  38.205  1.00  0.00    -0.206 F 
ATOM     89  C   UNL A   1      38.595  34.425  39.312  1.00  0.00     0.059 A 
ATOM     90  C   UNL A   1      40.023  36.110  38.300  1.00  0.00     0.059 A 
ATOM     91  F   UNL A   1      40.986  35.709  36.201  1.00  0.00    -0.206 F 
ATOM     92  C   UNL A   1      39.210  35.678  39.348  1.00  0.00     0.060 A 
BRANCH  92  93
ATOM     93  S   UNL A   1      38.961  36.719  40.801  1.00  0.00     0.124 S 
ATOM     94  O   UNL A   1      38.095  35.879  41.621  1.00  0.00    -0.237 OA
ATOM     95  O   UNL A   1      40.323  36.896  41.293  1.00  0.00    -0.237 OA
ATOM     96  O   UNL A   1      38.336  37.921  40.256  1.00  0.00    -0.744 OA
ENDBRANCH  92  93
ENDBRANCH  60  85
ENDBRANCH  34  35
ENDBRANCH  26  29
ENDBRANCH  24  25
ENDBRANCH   1  24
TORSDOF 17
ENDMDL
MODEL 2
REMARK VINA RESULT:     -12.2      5.413     10.675
REMARK SMILES CC[C@](O)(C(=O)NCCCNC(=O)c1ccc(-c2c3nc(c(-c4c(F)cc(S(=O)(=O)[O-])cc4F)c4ccc([nH]4)c(-c4c(F)cc(S(=O)(=O)[O-])cc4F)c4nc(c(-c5c(F)cc(S(=O)(=O)[O-])cc5F)c5ccc2[nH]5)C=C4)C=C3)cc1)[C@@H](C)c1ccc2c(c1)OCCO2
REMARK SMILES IDX 9 1 8 2 7 3 5 4 6 5 3 7 2 8 1 9 80 10 81 11 82 12 83 13
REMARK SMILES IDX 87 14 84 15 86 16 85 17 88 18 91 19 89 20 90 21 4 22 10 24
REMARK SMILES IDX 11 25 12 26 13 28 14 29 15 30 79 31 16 32 78 33 17 34 18 35
REMARK SMILES IDX 19 36 72 37 20 38 77 39 71 40 73 41 21 42 76 43 70 44 69 45
REMARK SMILES IDX 22 47 56 48 35 49 55 50 36 51 39 52 54 53 74 54 37 55 38 56
REMARK SMILES IDX 53 58 75 59 40 60 23 61 24 62 33 63 25 64 26 65 32 66 34 67
REMARK SMILES IDX 27 68 28 69 29 70 30 71 31 72 57 73 58 74 67 75 59 76 60 77
REMARK SMILES IDX 66 78 68 79 61 80 62 81 63 82 64 83 65 84 41 85 42 86 51 87
REMARK SMILES IDX 43 88 44 89 50 90 52 91 45 92 46 93 47 94 48 95 49 96
REMARK H PARENT 7 6 4 23 11 27 73 46 39 57
REMARK Flexibility Score: inf
ROOT
ATOM      1  C   UNL A   1      32.169  28.352  26.836  1.00  0.00     0.042 C 
ENDROOT
BRANCH   1   2
ATOM      2  C   UNL A   1      31.747  28.617  25.399  1.00  0.00     0.117 C 
BRANCH   2   3
ATOM      3  N   UNL A   1      32.877  28.853  24.499  1.00  0.00    -0.354 N 
ATOM      4  C   UNL A   1      33.188  28.261  23.298  1.00  0.00     0.252 C 
ATOM      5  O   UNL A   1      34.113  28.743  22.643  1.00  0.00    -0.272 OA
ATOM      6  H   UNL A   1      33.512  29.543  24.801  1.00  0.00     0.163 HD
BRANCH   4   7
ATOM      7  C   UNL A   1      32.347  27.046  22.808  1.00  0.00     0.149 C 
BRANCH   7   8
ATOM      8  C   UNL A   1      33.261  26.306  21.786  1.00  0.00     0.043 C 
ATOM      9  C   UNL A   1      32.623  25.661  20.568  1.00  0.00     0.007 C 
ENDBRANCH   7   8
BRANCH   7  10
ATOM     10  C   UNL A   1      31.852  26.120  23.983  1.00  0.00     0.058 C 
ATOM     11  C   UNL A   1      30.554  25.330  23.688  1.00  0.00     0.016 C 
BRANCH  10  12
ATOM     12  C   UNL A   1      32.873  25.049  24.396  1.00  0.00    -0.038 A 
ATOM     13  C   UNL A   1      33.963  25.344  25.236  1.00  0.00     0.008 A 
ATOM     14  C   UNL A   1      32.668  23.715  24.019  1.00  0.00     0.054 A 
ATOM     15  C   UNL A   1      34.759  24.313  25.755  1.00  0.00     0.051 A 
ATOM     16  C   UNL A   1      33.439  22.703  24.537  1.00  0.00     0.161 A 
ATOM     17  C   UNL A   1      34.429  22.994  25.462  1.00  0.00     0.161 A 
ATOM     18  O   UNL A   1      33.066  21.433  24.209  1.00  0.00    -0.486 OA
ATOM     19  O   UNL A   1      34.928  21.975  26.239  1.00  0.00    -0.486 OA
ATOM     20  C   UNL A   1      33.140  20.556  25.332  1.00  0.00     0.271 C 
ATOM     21  C   UNL A   1      33.777  21.176  26.579  1.00  0.00     0.271 C 
ENDBRANCH  10  12
ENDBRANCH   7  10
BRANCH   7  22
ATOM     22  O   UNL A   1      31.224  27.635  22.136  1.00  0.00    -0.379 OA
ATOM     23  H   UNL A   1      31.466  27.841  21.219  1.00  0.00     0.212 HD
ENDBRANCH   7  22
ENDBRANCH   4   7
ENDBRANCH   2   3
ENDBRANCH   1   2
BRANCH   1  24
ATOM     24  C   UNL A   1      33.592  28.795  27.131  1.00  0.00     0.118 C 
BRANCH  24  25
ATOM     25  N   UNL A   1      33.652  30.160  27.643  1.00  0.00    -0.352 N 
ATOM     26  C   UNL A   1      34.625  30.791  28.374  1.00  0.00     0.251 C 
ATOM     27  H   UNL A   1      32.869  30.718  27.428  1.00  0.00     0.163 HD
ATOM     28  O   UNL A   1      34.374  31.868  28.918  1.00  0.00    -0.269 OA
BRANCH  26  29
ATOM     29  C   UNL A   1      35.956  30.174  28.525  1.00  0.00     0.039 A 
ATOM     30  C   UNL A   1      36.838  30.185  27.443  1.00  0.00     0.014 A 
ATOM     31  C   UNL A   1      36.338  29.597  29.738  1.00  0.00     0.014 A 
ATOM     32  C   UNL A   1      38.141  29.710  27.611  1.00  0.00     0.010 A 
ATOM     33  C   UNL A   1      37.657  29.208  29.931  1.00  0.00     0.010 A 
ATOM     34  C   UNL A   1      38.577  29.275  28.874  1.00  0.00    -0.014 A 
BRANCH  34  35
ATOM     35  C   UNL A   1      40.002  28.945  29.130  1.00  0.00     0.031 A 
ATOM     36  C   UNL A   1      40.948  30.000  29.634  1.00  0.00     0.074 A 
ATOM     37  C   UNL A   1      40.457  27.716  28.810  1.00  0.00     0.049 A 
ATOM     38  N   UNL A   1      42.241  29.928  29.809  1.00  0.00    -0.248 NA
ATOM     39  C   UNL A   1      40.373  31.317  29.959  1.00  0.00     0.031 C 
ATOM     40  C   UNL A   1      39.642  26.628  28.260  1.00  0.00     0.029 A 
ATOM     41  N   UNL A   1      41.718  27.178  28.877  1.00  0.00    -0.354 N 
ATOM     42  C   UNL A   1      42.637  31.187  30.244  1.00  0.00     0.074 A 
ATOM     43  C   UNL A   1      41.454  32.016  30.276  1.00  0.00     0.031 C 
ATOM     44  C   UNL A   1      40.420  25.555  28.049  1.00  0.00     0.029 A 
ATOM     45  C   UNL A   1      41.796  25.889  28.398  1.00  0.00     0.049 A 
ATOM     46  H   UNL A   1      42.494  27.668  29.232  1.00  0.00     0.167 HD
ATOM     47  C   UNL A   1      43.875  31.602  30.598  1.00  0.00     0.037 A 
ATOM     48  C   UNL A   1      42.858  25.078  28.230  1.00  0.00     0.037 A 
ATOM     49  C   UNL A   1      45.040  30.755  30.598  1.00  0.00     0.049 A 
ATOM     50  C   UNL A   1      44.225  25.578  28.619  1.00  0.00     0.074 A 
ATOM     51  C   UNL A   1      46.317  31.056  31.038  1.00  0.00     0.029 A 
ATOM     52  N   UNL A   1      45.076  29.451  30.126  1.00  0.00    -0.354 N 
ATOM     53  N   UNL A   1      44.561  26.737  29.134  1.00  0.00    -0.248 NA
ATOM     54  C   UNL A   1      45.357  24.666  28.402  1.00  0.00     0.031 C 
ATOM     55  C   UNL A   1      47.140  29.959  30.771  1.00  0.00     0.029 A 
ATOM     56  C   UNL A   1      46.364  28.953  30.219  1.00  0.00     0.049 A 
ATOM     57  H   UNL A   1      44.301  28.954  29.777  1.00  0.00     0.167 HD
ATOM     58  C   UNL A   1      45.940  26.684  29.317  1.00  0.00     0.074 A 
ATOM     59  C   UNL A   1      46.370  25.372  28.884  1.00  0.00     0.031 C 
ATOM     60  C   UNL A   1      46.776  27.640  29.790  1.00  0.00     0.037 A 
BRANCH  47  61
ATOM     61  C   UNL A   1      44.059  33.032  31.023  1.00  0.00     0.058 A 
ATOM     62  C   UNL A   1      44.325  34.049  30.094  1.00  0.00     0.135 A 
ATOM     63  C   UNL A   1      43.848  33.404  32.361  1.00  0.00     0.135 A 
ATOM     64  F   UNL A   1      44.552  33.748  28.805  1.00  0.00    -0.206 F 
ATOM     65  C   UNL A   1      44.370  35.386  30.476  1.00  0.00     0.059 A 
ATOM     66  C   UNL A   1      43.864  34.736  32.761  1.00  0.00     0.059 A 
ATOM     67  F   UNL A   1      43.598  32.468  33.290  1.00  0.00    -0.206 F 
ATOM     68  C   UNL A   1      44.125  35.721  31.809  1.00  0.00     0.060 A 
BRANCH  68  69
ATOM     69  S   UNL A   1      44.117  37.466  32.270  1.00  0.00     0.124 S 
ATOM     70  O   UNL A   1      43.091  37.489  33.308  1.00  0.00    -0.237 OA
ATOM     71  O   UNL A   1      45.488  37.671  32.730  1.00  0.00    -0.237 OA
ATOM     72  O   UNL A   1      43.767  38.146  31.027  1.00  0.00    -0.744 OA
ENDBRANCH  68  69
ENDBRANCH  47  61
BRANCH  48  73
ATOM     73  C   UNL A   1      42.691  23.723  27.638  1.00  0.00     0.058 A 
ATOM     74  C   UNL A   1      42.489  22.595  28.448  1.00  0.00     0.135 A 
ATOM     75  C   UNL A   1      42.771  23.520  26.250  1.00  0.00     0.135 A 
ATOM     76  F   UNL A   1      42.409  22.734  29.780  1.00  0.00    -0.206 F 
ATOM     77  C   UNL A   1      42.415  21.314  27.912  1.00  0.00     0.059 A 
ATOM     78  C   UNL A   1      42.667  22.253  25.687  1.00  0.00     0.059 A 
ATOM     79  F   UNL A   1      42.945  24.565  25.426  1.00  0.00    -0.206 F 
ATOM     80  C   UNL A   1      42.512  21.153  26.529  1.00  0.00     0.060 A 
BRANCH  80  81
ATOM     81  S   UNL A   1      42.425  19.485  25.841  1.00  0.00     0.124 S 
ATOM     82  O   UNL A   1      43.401  19.565  24.760  1.00  0.00    -0.237 OA
ATOM     83  O   UNL A   1      42.804  18.662  26.985  1.00  0.00    -0.237 OA
ATOM     84  O   UNL A   1      41.031  19.367  25.426  1.00  0.00    -0.744 OA
ENDBRANCH  80  81
ENDBRANCH  48  73
BRANCH  60  85
ATOM     85  C   UNL A   1      48.238  27.304  29.878  1.00  0.00     0.058 A 
ATOM     86  C   UNL A   1      49.150  27.748  28.908  1.00  0.00     0.135 A 
ATOM     87  C   UNL A   1      48.744  26.594  30.979  1.00  0.00     0.135 A 
ATOM     88  F   UNL A   1      48.717  28.423  27.830  1.00  0.00    -0.206 F 
ATOM     89  C   UNL A   1      50.511  27.489  29.019  1.00  0.00     0.059 A 
ATOM     90  C   UNL A   1      50.105  26.350  31.126  1.00  0.00     0.059 A 
ATOM     91  F   UNL A   1      47.914  26.154  31.938  1.00  0.00    -0.206 F 
ATOM     92  C   UNL A   1      50.981  26.796  30.137  1.00  0.00     0.060 A 
BRANCH  92  93
ATOM     93  S   UNL A   1      52.757  26.519  30.295  1.00  0.00     0.124 S 
ATOM     94  O   UNL A   1      53.233  27.852  30.651  1.00  0.00    -0.237 OA
ATOM     95  O   UNL A   1      52.822  25.519  31.356  1.00  0.00    -0.237 OA
ATOM     96  O   UNL A   1      53.148  26.046  28.971  1.00  0.00    -0.744 OA
ENDBRANCH  92  93
ENDBRANCH  60  85
ENDBRANCH  34  35
ENDBRANCH  26  29
ENDBRANCH  24  25
ENDBRANCH   1  24
TORSDOF 17
ENDMDL
MODEL 3
REMARK VINA RESULT:     -12.2      1.469      3.059
REMARK SMILES CC[C@](O)(C(=O)NCCCNC(=O)c1ccc(-c2c3nc(c(-c4c(F)cc(S(=O)(=O)[O-])cc4F)c4ccc([nH]4)c(-c4c(F)cc(S(=O)(=O)[O-])cc4F)c4nc(c(-c5c(F)cc(S(=O)(=O)[O-])cc5F)c5ccc2[nH]5)C=C4)C=C3)cc1)[C@@H](C)c1ccc2c(c1)OCCO2
REMARK SMILES IDX 9 1 8 2 7 3 5 4 6 5 3 7 2 8 1 9 80 10 81 11 82 12 83 13
REMARK SMILES IDX 87 14 84 15 86 16 85 17 88 18 91 19 89 20 90 21 4 22 10 24
REMARK SMILES IDX 11 25 12 26 13 28 14 29 15 30 79 31 16 32 78 33 17 34 18 35
REMARK SMILES IDX 19 36 72 37 20 38 77 39 71 40 73 41 21 42 76 43 70 44 69 45
REMARK SMILES IDX 22 47 56 48 35 49 55 50 36 51 39 52 54 53 74 54 37 55 38 56
REMARK SMILES IDX 53 58 75 59 40 60 23 61 24 62 33 63 25 64 26 65 32 66 34 67
REMARK SMILES IDX 27 68 28 69 29 70 30 71 31 72 57 73 58 74 67 75 59 76 60 77
REMARK SMILES IDX 66 78 68 79 61 80 62 81 63 82 64 83 65 84 41 85 42 86 51 87
REMARK SMILES IDX 43 88 44 89 50 90 52 91 45 92 46 93 47 94 48 95 49 96
REMARK H PARENT 7 6 4 23 11 27 73 46 39 57
REMARK Flexibility Score: inf
ROOT
ATOM      1  C   UNL A   1      37.275  23.726  25.018  1.00  0.00     0.042 C 
ENDROOT
BRANCH   1   2
ATOM      2  C   UNL A   1      36.471  22.439  24.911  1.00  0.00     0.117 C 
BRANCH   2   3
ATOM      3  N   UNL A   1      35.951  21.974  26.198  1.00  0.00    -0.354 N 
ATOM      4  C   UNL A   1      34.671  22.008  26.697  1.00  0.00     0.252 C 
ATOM      5  O   UNL A   1      34.449  21.406  27.748  1.00  0.00    -0.272 OA
ATOM      6  H   UNL A   1      36.622  21.575  26.798  1.00  0.00     0.163 HD
BRANCH   4   7
ATOM      7  C   UNL A   1      33.564  22.764  25.905  1.00  0.00     0.149 C 
BRANCH   7   8
ATOM      8  C   UNL A   1      33.800  24.271  26.219  1.00  0.00     0.043 C 
ATOM      9  C   UNL A   1      32.601  25.146  26.544  1.00  0.00     0.007 C 
ENDBRANCH   7   8
BRANCH   7  10
ATOM     10  C   UNL A   1      33.576  22.442  24.362  1.00  0.00     0.058 C 
ATOM     11  C   UNL A   1      32.886  21.115  23.968  1.00  0.00     0.016 C 
BRANCH  10  12
ATOM     12  C   UNL A   1      32.883  23.511  23.504  1.00  0.00    -0.038 A 
ATOM     13  C   UNL A   1      31.481  23.625  23.448  1.00  0.00     0.008 A 
ATOM     14  C   UNL A   1      33.654  24.472  22.837  1.00  0.00     0.054 A 
ATOM     15  C   UNL A   1      30.883  24.727  22.820  1.00  0.00     0.051 A 
ATOM     16  C   UNL A   1      33.070  25.558  22.233  1.00  0.00     0.161 A 
ATOM     17  C   UNL A   1      31.696  25.726  22.294  1.00  0.00     0.161 A 
ATOM     18  O   UNL A   1      33.921  26.499  21.733  1.00  0.00    -0.486 OA
ATOM     19  O   UNL A   1      31.168  26.968  22.028  1.00  0.00    -0.486 OA
ATOM     20  C   UNL A   1      33.471  27.822  22.022  1.00  0.00     0.271 C 
ATOM     21  C   UNL A   1      32.079  27.894  22.655  1.00  0.00     0.271 C 
ENDBRANCH  10  12
ENDBRANCH   7  10
BRANCH   7  22
ATOM     22  O   UNL A   1      32.334  22.319  26.494  1.00  0.00    -0.379 OA
ATOM     23  H   UNL A   1      32.524  21.688  27.206  1.00  0.00     0.212 HD
ENDBRANCH   7  22
ENDBRANCH   4   7
ENDBRANCH   2   3
ENDBRANCH   1   2
BRANCH   1  24
ATOM     24  C   UNL A   1      38.003  23.865  26.345  1.00  0.00     0.118 C 
BRANCH  24  25
ATOM     25  N   UNL A   1      39.436  23.623  26.217  1.00  0.00    -0.352 N 
ATOM     26  C   UNL A   1      40.503  24.395  26.600  1.00  0.00     0.251 C 
ATOM     27  H   UNL A   1      39.675  22.769  25.789  1.00  0.00     0.163 HD
ATOM     28  O   UNL A   1      41.629  24.126  26.179  1.00  0.00    -0.269 OA
BRANCH  26  29
ATOM     29  C   UNL A   1      40.299  25.551  27.492  1.00  0.00     0.039 A 
ATOM     30  C   UNL A   1      39.406  25.438  28.560  1.00  0.00     0.014 A 
ATOM     31  C   UNL A   1      41.000  26.740  27.285  1.00  0.00     0.014 A 
ATOM     32  C   UNL A   1      39.294  26.484  29.478  1.00  0.00     0.010 A 
ATOM     33  C   UNL A   1      40.956  27.744  28.245  1.00  0.00     0.010 A 
ATOM     34  C   UNL A   1      40.114  27.619  29.361  1.00  0.00    -0.014 A 
BRANCH  34  35
ATOM     35  C   UNL A   1      40.156  28.657  30.421  1.00  0.00     0.031 A 
ATOM     36  C   UNL A   1      41.056  28.488  31.615  1.00  0.00     0.074 A 
ATOM     37  C   UNL A   1      39.305  29.702  30.349  1.00  0.00     0.049 A 
ATOM     38  N   UNL A   1      41.145  29.231  32.687  1.00  0.00    -0.248 NA
ATOM     39  C   UNL A   1      41.954  27.321  31.619  1.00  0.00     0.031 C 
ATOM     40  C   UNL A   1      38.347  29.938  29.265  1.00  0.00     0.029 A 
ATOM     41  N   UNL A   1      39.089  30.747  31.211  1.00  0.00    -0.354 N 
ATOM     42  C   UNL A   1      42.089  28.614  33.499  1.00  0.00     0.074 A 
ATOM     43  C   UNL A   1      42.523  27.418  32.813  1.00  0.00     0.031 C 
ATOM     44  C   UNL A   1      37.655  31.059  29.523  1.00  0.00     0.029 A 
ATOM     45  C   UNL A   1      38.080  31.595  30.812  1.00  0.00     0.049 A 
ATOM     46  H   UNL A   1      39.607  30.879  32.038  1.00  0.00     0.167 HD
ATOM     47  C   UNL A   1      42.559  29.023  34.700  1.00  0.00     0.037 A 
ATOM     48  C   UNL A   1      37.537  32.663  31.426  1.00  0.00     0.037 A 
ATOM     49  C   UNL A   1      42.147  30.237  35.356  1.00  0.00     0.049 A 
ATOM     50  C   UNL A   1      38.073  33.081  32.770  1.00  0.00     0.074 A 
ATOM     51  C   UNL A   1      42.641  30.788  36.525  1.00  0.00     0.029 A 
ATOM     52  N   UNL A   1      41.138  31.078  34.912  1.00  0.00    -0.354 N 
ATOM     53  N   UNL A   1      39.045  32.547  33.470  1.00  0.00    -0.248 NA
ATOM     54  C   UNL A   1      37.438  34.242  33.411  1.00  0.00     0.031 C 
ATOM     55  C   UNL A   1      41.887  31.926  36.824  1.00  0.00     0.029 A 
ATOM     56  C   UNL A   1      40.963  32.117  35.810  1.00  0.00     0.049 A 
ATOM     57  H   UNL A   1      40.623  30.956  34.081  1.00  0.00     0.167 HD
ATOM     58  C   UNL A   1      39.147  33.317  34.624  1.00  0.00     0.074 A 
ATOM     59  C   UNL A   1      38.159  34.368  34.516  1.00  0.00     0.031 C 
ATOM     60  C   UNL A   1      39.977  33.161  35.684  1.00  0.00     0.037 A 
BRANCH  47  61
ATOM     61  C   UNL A   1      43.577  28.168  35.402  1.00  0.00     0.058 A 
ATOM     62  C   UNL A   1      43.201  27.184  36.327  1.00  0.00     0.135 A 
ATOM     63  C   UNL A   1      44.935  28.257  35.053  1.00  0.00     0.135 A 
ATOM     64  F   UNL A   1      41.919  27.066  36.709  1.00  0.00    -0.206 F 
ATOM     65  C   UNL A   1      44.135  26.312  36.879  1.00  0.00     0.059 A 
ATOM     66  C   UNL A   1      45.882  27.381  35.573  1.00  0.00     0.059 A 
ATOM     67  F   UNL A   1      45.347  29.187  34.178  1.00  0.00    -0.206 F 
ATOM     68  C   UNL A   1      45.471  26.410  36.486  1.00  0.00     0.060 A 
BRANCH  68  69
ATOM     69  S   UNL A   1      46.655  25.225  37.158  1.00  0.00     0.124 S 
ATOM     70  O   UNL A   1      47.245  24.677  35.940  1.00  0.00    -0.237 OA
ATOM     71  O   UNL A   1      47.529  26.080  37.957  1.00  0.00    -0.237 OA
ATOM     72  O   UNL A   1      45.819  24.302  37.920  1.00  0.00    -0.744 OA
ENDBRANCH  68  69
ENDBRANCH  47  61
BRANCH  48  73
ATOM     73  C   UNL A   1      36.403  33.400  30.803  1.00  0.00     0.058 A 
ATOM     74  C   UNL A   1      36.603  34.248  29.703  1.00  0.00     0.135 A 
ATOM     75  C   UNL A   1      35.100  33.303  31.321  1.00  0.00     0.135 A 
ATOM     76  F   UNL A   1      37.829  34.379  29.174  1.00  0.00    -0.206 F 
ATOM     77  C   UNL A   1      35.567  35.006  29.167  1.00  0.00     0.059 A 
ATOM     78  C   UNL A   1      34.041  34.024  30.781  1.00  0.00     0.059 A 
ATOM     79  F   UNL A   1      34.848  32.492  32.360  1.00  0.00    -0.206 F 
ATOM     80  C   UNL A   1      34.289  34.891  29.718  1.00  0.00     0.060 A 
BRANCH  80  81
ATOM     81  S   UNL A   1      32.952  35.884  29.022  1.00  0.00     0.124 S 
ATOM     82  O   UNL A   1      33.694  36.976  28.401  1.00  0.00    -0.237 OA
ATOM     83  O   UNL A   1      32.315  34.943  28.107  1.00  0.00    -0.237 OA
ATOM     84  O   UNL A   1      32.159  36.246  30.192  1.00  0.00    -0.744 OA
ENDBRANCH  80  81
ENDBRANCH  48  73
BRANCH  60  85
ATOM     85  C   UNL A   1      39.866  34.154  36.807  1.00  0.00     0.058 A 
ATOM     86  C   UNL A   1      40.430  35.436  36.709  1.00  0.00     0.135 A 
ATOM     87  C   UNL A   1      39.129  33.848  37.963  1.00  0.00     0.135 A 
ATOM     88  F   UNL A   1      41.153  35.776  35.630  1.00  0.00    -0.206 F 
ATOM     89  C   UNL A   1      40.277  36.375  37.722  1.00  0.00     0.059 A 
ATOM     90  C   UNL A   1      38.937  34.782  38.974  1.00  0.00     0.059 A 
ATOM     91  F   UNL A   1      38.563  32.638  38.102  1.00  0.00    -0.206 F 
ATOM     92  C   UNL A   1      39.521  36.042  38.848  1.00  0.00     0.060 A 
BRANCH  92  93
ATOM     93  S   UNL A   1      39.284  37.293  40.127  1.00  0.00     0.124 S 
ATOM     94  O   UNL A   1      38.519  38.307  39.410  1.00  0.00    -0.237 OA
ATOM     95  O   UNL A   1      38.553  36.554  41.152  1.00  0.00    -0.237 OA
ATOM     96  O   UNL A   1      40.646  37.674  40.489  1.00  0.00    -0.744 OA
ENDBRANCH  92  93
ENDBRANCH  60  85
ENDBRANCH  34  35
ENDBRANCH  26  29
ENDBRANCH  24  25
ENDBRANCH   1  24
TORSDOF 17
ENDMDL
