MODEL 1
REMARK VINA RESULT:     -13.4      0.000      0.000
REMARK SMILES CC1(C)S[C@@H](c2cccc3c2sc2ccccc23)[NH2+][C@@H]1C(=O)NCCCNC(=O)c1ccc(-c2c3nc(c(-c4c(F)cc(S(=O)(=O)[O-])cc4F)c4ccc([nH]4)c(-c4c(F)cc(S(=O)(=O)[O-])cc4F)c4nc(c(-c5c(F)cc(S(=O)(=O)[O-])cc5F)c5ccc2[nH]5)C=C4)C=C3)cc1
REMARK SMILES IDX 26 1 25 2 24 3 23 4 21 5 22 6 20 8 1 9 2 10 3 11 4 12 5 13
REMARK SMILES IDX 19 14 6 17 7 18 11 19 8 20 10 21 12 22 9 23 18 24 13 25
REMARK SMILES IDX 17 26 14 27 16 28 15 29 27 30 28 31 29 33 30 34 31 35 95 36
REMARK SMILES IDX 32 37 94 38 33 39 34 40 35 41 88 42 36 43 93 44 87 45 89 46
REMARK SMILES IDX 37 47 92 48 86 49 85 50 38 52 72 53 51 54 71 55 52 56 55 57
REMARK SMILES IDX 70 58 90 59 53 60 54 61 69 63 91 64 56 65 39 66 40 67 49 68
REMARK SMILES IDX 41 69 42 70 48 71 50 72 43 73 44 74 45 75 46 76 47 77 73 78
REMARK SMILES IDX 74 79 83 80 75 81 76 82 82 83 84 84 77 85 78 86 79 87 80 88
REMARK SMILES IDX 81 89 57 90 58 91 67 92 59 93 60 94 66 95 68 96 61 97 62 98
REMARK SMILES IDX 63 99 64 100 65 101
REMARK H PARENT 23 7 19 15 19 16 27 32 89 51 55 62
REMARK Flexibility Score: inf
ROOT
ATOM      1  C   UNL A   1      35.303  30.362  27.716  1.00  0.00     0.118 C 
ENDROOT
BRANCH   1   2
ATOM      2  C   UNL A   1      34.522  29.096  27.405  1.00  0.00     0.042 C 
BRANCH   2   3
ATOM      3  C   UNL A   1      33.026  29.312  27.245  1.00  0.00     0.118 C 
BRANCH   3   4
ATOM      4  N   UNL A   1      32.279  28.066  27.317  1.00  0.00    -0.351 N 
ATOM      5  C   UNL A   1      32.233  26.966  26.516  1.00  0.00     0.279 C 
ATOM      6  O   UNL A   1      31.381  26.130  26.833  1.00  0.00    -0.268 OA
ATOM      7  H   UNL A   1      31.689  28.006  28.102  1.00  0.00     0.163 HD
BRANCH   5   8
ATOM      8  C   UNL A   1      33.089  26.812  25.225  1.00  0.00     0.289 C 
ATOM      9  C   UNL A   1      33.138  26.836  22.674  1.00  0.00     0.030 C 
ATOM     10  C   UNL A   1      32.318  26.446  23.921  1.00  0.00     0.077 C 
ATOM     11  C   UNL A   1      30.909  27.015  23.757  1.00  0.00     0.030 C 
ATOM     12  S   UNL A   1      32.246  24.610  23.965  1.00  0.00    -0.081 SA
ATOM     13  C   UNL A   1      33.509  24.473  25.261  1.00  0.00     0.276 C 
ATOM     14  N   UNL A   1      34.153  25.785  25.368  1.00  0.00    -0.320 N 
ATOM     15  H   UNL A   1      34.846  25.895  24.627  1.00  0.00     0.348 HD
ATOM     16  H   UNL A   1      34.630  25.881  26.265  1.00  0.00     0.348 HD
BRANCH  13  17
ATOM     17  C   UNL A   1      34.537  23.382  25.021  1.00  0.00     0.038 A 
ATOM     18  C   UNL A   1      35.899  23.720  24.841  1.00  0.00     0.012 A 
ATOM     19  C   UNL A   1      34.220  21.990  25.020  1.00  0.00     0.046 A 
ATOM     20  C   UNL A   1      36.881  22.763  24.654  1.00  0.00     0.001 A 
ATOM     21  C   UNL A   1      35.192  21.003  24.813  1.00  0.00     0.001 A 
ATOM     22  S   UNL A   1      32.676  21.258  25.268  1.00  0.00    -0.135 S 
ATOM     23  C   UNL A   1      36.536  21.415  24.630  1.00  0.00     0.010 A 
ATOM     24  C   UNL A   1      34.636  19.660  24.820  1.00  0.00     0.000 A 
ATOM     25  C   UNL A   1      33.268  19.664  25.081  1.00  0.00     0.036 A 
ATOM     26  C   UNL A   1      35.266  18.404  24.616  1.00  0.00     0.010 A 
ATOM     27  C   UNL A   1      32.527  18.468  25.163  1.00  0.00     0.019 A 
ATOM     28  C   UNL A   1      34.535  17.215  24.682  1.00  0.00     0.001 A 
ATOM     29  C   UNL A   1      33.177  17.249  24.959  1.00  0.00     0.002 A 
ENDBRANCH  13  17
ENDBRANCH   5   8
ENDBRANCH   3   4
ENDBRANCH   2   3
ENDBRANCH   1   2
BRANCH   1  30
ATOM     30  N   UNL A   1      35.334  30.674  29.139  1.00  0.00    -0.352 N 
ATOM     31  C   UNL A   1      36.297  30.399  30.081  1.00  0.00     0.251 C 
ATOM     32  H   UNL A   1      34.547  31.157  29.477  1.00  0.00     0.163 HD
ATOM     33  O   UNL A   1      36.052  30.587  31.271  1.00  0.00    -0.269 OA
BRANCH  31  34
ATOM     34  C   UNL A   1      37.606  29.853  29.667  1.00  0.00     0.039 A 
ATOM     35  C   UNL A   1      37.985  29.938  28.325  1.00  0.00     0.014 A 
ATOM     36  C   UNL A   1      38.466  29.267  30.599  1.00  0.00     0.014 A 
ATOM     37  C   UNL A   1      39.255  29.506  27.937  1.00  0.00     0.010 A 
ATOM     38  C   UNL A   1      39.765  28.938  30.233  1.00  0.00     0.010 A 
ATOM     39  C   UNL A   1      40.174  29.045  28.895  1.00  0.00    -0.014 A 
BRANCH  39  40
ATOM     40  C   UNL A   1      41.560  28.666  28.521  1.00  0.00     0.031 A 
ATOM     41  C   UNL A   1      42.642  29.711  28.469  1.00  0.00     0.074 A 
ATOM     42  C   UNL A   1      41.831  27.392  28.169  1.00  0.00     0.049 A 
ATOM     43  N   UNL A   1      43.894  29.588  28.105  1.00  0.00    -0.248 NA
ATOM     44  C   UNL A   1      42.262  31.083  28.847  1.00  0.00     0.031 C 
ATOM     45  C   UNL A   1      40.857  26.299  28.129  1.00  0.00     0.029 A 
ATOM     46  N   UNL A   1      43.005  26.801  27.771  1.00  0.00    -0.354 N 
ATOM     47  C   UNL A   1      44.443  30.861  28.201  1.00  0.00     0.074 A 
ATOM     48  C   UNL A   1      43.376  31.755  28.592  1.00  0.00     0.031 C 
ATOM     49  C   UNL A   1      41.478  25.167  27.763  1.00  0.00     0.029 A 
ATOM     50  C   UNL A   1      42.883  25.459  27.496  1.00  0.00     0.049 A 
ATOM     51  H   UNL A   1      43.854  27.293  27.690  1.00  0.00     0.167 HD
ATOM     52  C   UNL A   1      45.728  31.247  28.010  1.00  0.00     0.037 A 
ATOM     53  C   UNL A   1      43.798  24.566  27.072  1.00  0.00     0.037 A 
ATOM     54  C   UNL A   1      46.789  30.348  27.641  1.00  0.00     0.049 A 
ATOM     55  C   UNL A   1      45.215  25.021  26.852  1.00  0.00     0.074 A 
ATOM     56  C   UNL A   1      48.133  30.629  27.470  1.00  0.00     0.029 A 
ATOM     57  N   UNL A   1      46.628  28.994  27.381  1.00  0.00    -0.354 N 
ATOM     58  N   UNL A   1      45.731  26.217  27.007  1.00  0.00    -0.248 NA
ATOM     59  C   UNL A   1      46.177  24.005  26.404  1.00  0.00     0.031 C 
ATOM     60  C   UNL A   1      48.776  29.457  27.059  1.00  0.00     0.029 A 
ATOM     61  C   UNL A   1      47.844  28.431  27.030  1.00  0.00     0.049 A 
ATOM     62  H   UNL A   1      45.775  28.506  27.439  1.00  0.00     0.167 HD
ATOM     63  C   UNL A   1      47.083  26.091  26.706  1.00  0.00     0.074 A 
ATOM     64  C   UNL A   1      47.306  24.699  26.374  1.00  0.00     0.031 C 
ATOM     65  C   UNL A   1      48.052  27.041  26.707  1.00  0.00     0.037 A 
BRANCH  52  66
ATOM     66  C   UNL A   1      46.056  32.703  28.203  1.00  0.00     0.058 A 
ATOM     67  C   UNL A   1      46.467  33.208  29.449  1.00  0.00     0.135 A 
ATOM     68  C   UNL A   1      45.995  33.601  27.125  1.00  0.00     0.135 A 
ATOM     69  F   UNL A   1      46.528  32.401  30.519  1.00  0.00    -0.206 F 
ATOM     70  C   UNL A   1      46.776  34.554  29.625  1.00  0.00     0.059 A 
ATOM     71  C   UNL A   1      46.331  34.945  27.270  1.00  0.00     0.059 A 
ATOM     72  F   UNL A   1      45.608  33.176  25.912  1.00  0.00    -0.206 F 
ATOM     73  C   UNL A   1      46.706  35.414  28.528  1.00  0.00     0.060 A 
BRANCH  73  74
ATOM     74  S   UNL A   1      47.121  37.153  28.773  1.00  0.00     0.124 S 
ATOM     75  O   UNL A   1      48.500  37.194  28.297  1.00  0.00    -0.237 OA
ATOM     76  O   UNL A   1      46.140  37.828  27.929  1.00  0.00    -0.237 OA
ATOM     77  O   UNL A   1      46.947  37.347  30.209  1.00  0.00    -0.744 OA
ENDBRANCH  73  74
ENDBRANCH  52  66
BRANCH  53  78
ATOM     78  C   UNL A   1      43.407  23.147  26.850  1.00  0.00     0.058 A 
ATOM     79  C   UNL A   1      43.322  22.616  25.553  1.00  0.00     0.135 A 
ATOM     80  C   UNL A   1      43.121  22.290  27.924  1.00  0.00     0.135 A 
ATOM     81  F   UNL A   1      43.579  23.396  24.493  1.00  0.00    -0.206 F 
ATOM     82  C   UNL A   1      42.949  21.296  25.328  1.00  0.00     0.059 A 
ATOM     83  C   UNL A   1      42.774  20.957  27.725  1.00  0.00     0.059 A 
ATOM     84  F   UNL A   1      43.204  22.741  29.185  1.00  0.00    -0.206 F 
ATOM     85  C   UNL A   1      42.681  20.472  26.422  1.00  0.00     0.060 A 
BRANCH  85  86
ATOM     86  S   UNL A   1      42.241  18.747  26.120  1.00  0.00     0.124 S 
ATOM     87  O   UNL A   1      42.519  18.140  27.417  1.00  0.00    -0.237 OA
ATOM     88  O   UNL A   1      40.833  18.850  25.751  1.00  0.00    -0.237 OA
ATOM     89  O   UNL A   1      43.138  18.356  25.036  1.00  0.00    -0.744 OA
ENDBRANCH  85  86
ENDBRANCH  53  78
BRANCH  65  90
ATOM     90  C   UNL A   1      49.452  26.602  26.374  1.00  0.00     0.058 A 
ATOM     91  C   UNL A   1      50.279  25.981  27.322  1.00  0.00     0.135 A 
ATOM     92  C   UNL A   1      49.954  26.763  25.071  1.00  0.00     0.135 A 
ATOM     93  F   UNL A   1      49.852  25.808  28.583  1.00  0.00    -0.206 F 
ATOM     94  C   UNL A   1      51.566  25.559  26.999  1.00  0.00     0.059 A 
ATOM     95  C   UNL A   1      51.224  26.320  24.718  1.00  0.00     0.059 A 
ATOM     96  F   UNL A   1      49.201  27.340  24.122  1.00  0.00    -0.206 F 
ATOM     97  C   UNL A   1      52.029  25.732  25.693  1.00  0.00     0.060 A 
BRANCH  97  98
ATOM     98  S   UNL A   1      53.688  25.153  25.281  1.00  0.00     0.124 S 
ATOM     99  O   UNL A   1      53.526  23.706  25.376  1.00  0.00    -0.237 OA
ATOM    100  O   UNL A   1      53.877  25.683  23.934  1.00  0.00    -0.237 OA
ATOM    101  O   UNL A   1      54.525  25.760  26.311  1.00  0.00    -0.744 OA
ENDBRANCH  97  98
ENDBRANCH  65  90
ENDBRANCH  39  40
ENDBRANCH  31  34
ENDBRANCH   1  30
TORSDOF 14
ENDMDL
MODEL 2
REMARK VINA RESULT:     -13.4      2.621      3.333
REMARK SMILES CC1(C)S[C@@H](c2cccc3c2sc2ccccc23)[NH2+][C@@H]1C(=O)NCCCNC(=O)c1ccc(-c2c3nc(c(-c4c(F)cc(S(=O)(=O)[O-])cc4F)c4ccc([nH]4)c(-c4c(F)cc(S(=O)(=O)[O-])cc4F)c4nc(c(-c5c(F)cc(S(=O)(=O)[O-])cc5F)c5ccc2[nH]5)C=C4)C=C3)cc1
REMARK SMILES IDX 26 1 25 2 24 3 23 4 21 5 22 6 20 8 1 9 2 10 3 11 4 12 5 13
REMARK SMILES IDX 19 14 6 17 7 18 11 19 8 20 10 21 12 22 9 23 18 24 13 25
REMARK SMILES IDX 17 26 14 27 16 28 15 29 27 30 28 31 29 33 30 34 31 35 95 36
REMARK SMILES IDX 32 37 94 38 33 39 34 40 35 41 88 42 36 43 93 44 87 45 89 46
REMARK SMILES IDX 37 47 92 48 86 49 85 50 38 52 72 53 51 54 71 55 52 56 55 57
REMARK SMILES IDX 70 58 90 59 53 60 54 61 69 63 91 64 56 65 39 66 40 67 49 68
REMARK SMILES IDX 41 69 42 70 48 71 50 72 43 73 44 74 45 75 46 76 47 77 73 78
REMARK SMILES IDX 74 79 83 80 75 81 76 82 82 83 84 84 77 85 78 86 79 87 80 88
REMARK SMILES IDX 81 89 57 90 58 91 67 92 59 93 60 94 66 95 68 96 61 97 62 98
REMARK SMILES IDX 63 99 64 100 65 101
REMARK H PARENT 23 7 19 15 19 16 27 32 89 51 55 62
REMARK Flexibility Score: inf
ROOT
ATOM      1  C   UNL A   1      33.682  28.694  27.148  1.00  0.00     0.118 C 
ENDROOT
BRANCH   1   2
ATOM      2  C   UNL A   1      32.505  27.857  27.621  1.00  0.00     0.042 C 
BRANCH   2   3
ATOM      3  C   UNL A   1      31.291  27.920  26.710  1.00  0.00     0.118 C 
BRANCH   3   4
ATOM      4  N   UNL A   1      30.771  26.599  26.392  1.00  0.00    -0.351 N 
ATOM      5  C   UNL A   1      31.225  25.593  25.595  1.00  0.00     0.279 C 
ATOM      6  O   UNL A   1      30.449  24.639  25.473  1.00  0.00    -0.268 OA
ATOM      7  H   UNL A   1      29.922  26.391  26.844  1.00  0.00     0.163 HD
BRANCH   5   8
ATOM      8  C   UNL A   1      32.555  25.673  24.790  1.00  0.00     0.289 C 
ATOM      9  C   UNL A   1      33.676  26.173  22.553  1.00  0.00     0.030 C 
ATOM     10  C   UNL A   1      32.435  25.566  23.240  1.00  0.00     0.077 C 
ATOM     11  C   UNL A   1      31.192  26.172  22.589  1.00  0.00     0.030 C 
ATOM     12  S   UNL A   1      32.481  23.756  22.930  1.00  0.00    -0.081 SA
ATOM     13  C   UNL A   1      33.083  23.364  24.596  1.00  0.00     0.276 C 
ATOM     14  N   UNL A   1      33.528  24.626  25.195  1.00  0.00    -0.320 N 
ATOM     15  H   UNL A   1      34.459  24.864  24.854  1.00  0.00     0.348 HD
ATOM     16  H   UNL A   1      33.573  24.548  26.211  1.00  0.00     0.348 HD
BRANCH  13  17
ATOM     17  C   UNL A   1      34.190  22.326  24.634  1.00  0.00     0.038 A 
ATOM     18  C   UNL A   1      35.543  22.736  24.697  1.00  0.00     0.012 A 
ATOM     19  C   UNL A   1      33.947  20.919  24.669  1.00  0.00     0.046 A 
ATOM     20  C   UNL A   1      36.588  21.831  24.769  1.00  0.00     0.001 A 
ATOM     21  C   UNL A   1      34.987  19.983  24.722  1.00  0.00     0.001 A 
ATOM     22  S   UNL A   1      32.422  20.110  24.665  1.00  0.00    -0.135 S 
ATOM     23  C   UNL A   1      36.320  20.465  24.772  1.00  0.00     0.010 A 
ATOM     24  C   UNL A   1      34.507  18.612  24.714  1.00  0.00     0.000 A 
ATOM     25  C   UNL A   1      33.116  18.547  24.706  1.00  0.00     0.036 A 
ATOM     26  C   UNL A   1      35.225  17.387  24.723  1.00  0.00     0.010 A 
ATOM     27  C   UNL A   1      32.432  17.315  24.727  1.00  0.00     0.019 A 
ATOM     28  C   UNL A   1      34.554  16.161  24.728  1.00  0.00     0.001 A 
ATOM     29  C   UNL A   1      33.168  16.128  24.736  1.00  0.00     0.002 A 
ENDBRANCH  13  17
ENDBRANCH   5   8
ENDBRANCH   3   4
ENDBRANCH   2   3
ENDBRANCH   1   2
BRANCH   1  30
ATOM     30  N   UNL A   1      33.631  30.069  27.629  1.00  0.00    -0.352 N 
ATOM     31  C   UNL A   1      34.575  30.798  28.311  1.00  0.00     0.251 C 
ATOM     32  H   UNL A   1      32.794  30.547  27.434  1.00  0.00     0.163 HD
ATOM     33  O   UNL A   1      34.269  31.890  28.788  1.00  0.00    -0.269 OA
BRANCH  31  34
ATOM     34  C   UNL A   1      35.940  30.262  28.494  1.00  0.00     0.039 A 
ATOM     35  C   UNL A   1      36.852  30.350  27.439  1.00  0.00     0.014 A 
ATOM     36  C   UNL A   1      36.326  29.683  29.704  1.00  0.00     0.014 A 
ATOM     37  C   UNL A   1      38.169  29.927  27.628  1.00  0.00     0.010 A 
ATOM     38  C   UNL A   1      37.660  29.362  29.925  1.00  0.00     0.010 A 
ATOM     39  C   UNL A   1      38.597  29.473  28.886  1.00  0.00    -0.014 A 
BRANCH  39  40
ATOM     40  C   UNL A   1      40.014  29.104  29.137  1.00  0.00     0.031 A 
ATOM     41  C   UNL A   1      40.965  30.112  29.725  1.00  0.00     0.074 A 
ATOM     42  C   UNL A   1      40.458  27.881  28.780  1.00  0.00     0.049 A 
ATOM     43  N   UNL A   1      42.249  29.999  29.957  1.00  0.00    -0.248 NA
ATOM     44  C   UNL A   1      40.410  31.432  30.068  1.00  0.00     0.031 C 
ATOM     45  C   UNL A   1      39.645  26.835  28.154  1.00  0.00     0.029 A 
ATOM     46  N   UNL A   1      41.703  27.313  28.884  1.00  0.00    -0.354 N 
ATOM     47  C   UNL A   1      42.651  31.230  30.462  1.00  0.00     0.074 A 
ATOM     48  C   UNL A   1      41.494  32.096  30.441  1.00  0.00     0.031 C 
ATOM     49  C   UNL A   1      40.403  25.743  27.962  1.00  0.00     0.029 A 
ATOM     50  C   UNL A   1      41.765  26.024  28.406  1.00  0.00     0.049 A 
ATOM     51  H   UNL A   1      42.479  27.783  29.266  1.00  0.00     0.167 HD
ATOM     52  C   UNL A   1      43.869  31.597  30.931  1.00  0.00     0.037 A 
ATOM     53  C   UNL A   1      42.801  25.168  28.330  1.00  0.00     0.037 A 
ATOM     54  C   UNL A   1      45.011  30.723  30.968  1.00  0.00     0.049 A 
ATOM     55  C   UNL A   1      44.148  25.603  28.842  1.00  0.00     0.074 A 
ATOM     56  C   UNL A   1      46.275  30.981  31.468  1.00  0.00     0.029 A 
ATOM     57  N   UNL A   1      45.031  29.422  30.485  1.00  0.00    -0.354 N 
ATOM     58  N   UNL A   1      44.496  26.750  29.374  1.00  0.00    -0.248 NA
ATOM     59  C   UNL A   1      45.242  24.627  28.749  1.00  0.00     0.031 C 
ATOM     60  C   UNL A   1      47.073  29.856  31.241  1.00  0.00     0.029 A 
ATOM     61  C   UNL A   1      46.291  28.873  30.654  1.00  0.00     0.049 A 
ATOM     62  H   UNL A   1      44.262  28.958  30.082  1.00  0.00     0.167 HD
ATOM     63  C   UNL A   1      45.840  26.624  29.707  1.00  0.00     0.074 A 
ATOM     64  C   UNL A   1      46.237  25.283  29.329  1.00  0.00     0.031 C 
ATOM     65  C   UNL A   1      46.670  27.533  30.277  1.00  0.00     0.037 A 
BRANCH  52  66
ATOM     66  C   UNL A   1      44.024  33.003  31.446  1.00  0.00     0.058 A 
ATOM     67  C   UNL A   1      43.772  33.328  32.790  1.00  0.00     0.135 A 
ATOM     68  C   UNL A   1      44.465  34.032  30.598  1.00  0.00     0.135 A 
ATOM     69  F   UNL A   1      43.332  32.390  33.643  1.00  0.00    -0.206 F 
ATOM     70  C   UNL A   1      43.922  34.627  33.266  1.00  0.00     0.059 A 
ATOM     71  C   UNL A   1      44.653  35.332  31.061  1.00  0.00     0.059 A 
ATOM     72  F   UNL A   1      44.720  33.780  29.305  1.00  0.00    -0.206 F 
ATOM     73  C   UNL A   1      44.364  35.622  32.394  1.00  0.00     0.060 A 
BRANCH  73  74
ATOM     74  S   UNL A   1      44.563  37.299  33.032  1.00  0.00     0.124 S 
ATOM     75  O   UNL A   1      46.015  37.450  33.005  1.00  0.00    -0.237 OA
ATOM     76  O   UNL A   1      43.826  38.093  32.055  1.00  0.00    -0.237 OA
ATOM     77  O   UNL A   1      43.964  37.231  34.362  1.00  0.00    -0.744 OA
ENDBRANCH  73  74
ENDBRANCH  52  66
BRANCH  53  78
ATOM     78  C   UNL A   1      42.602  23.804  27.766  1.00  0.00     0.058 A 
ATOM     79  C   UNL A   1      42.440  22.693  28.607  1.00  0.00     0.135 A 
ATOM     80  C   UNL A   1      42.559  23.584  26.380  1.00  0.00     0.135 A 
ATOM     81  F   UNL A   1      42.480  22.849  29.939  1.00  0.00    -0.206 F 
ATOM     82  C   UNL A   1      42.262  21.411  28.097  1.00  0.00     0.059 A 
ATOM     83  C   UNL A   1      42.353  22.316  25.847  1.00  0.00     0.059 A 
ATOM     84  F   UNL A   1      42.691  24.615  25.531  1.00  0.00    -0.206 F 
ATOM     85  C   UNL A   1      42.217  21.233  26.714  1.00  0.00     0.060 A 
BRANCH  85  86
ATOM     86  S   UNL A   1      41.940  19.572  26.063  1.00  0.00     0.124 S 
ATOM     87  O   UNL A   1      42.281  18.744  27.214  1.00  0.00    -0.237 OA
ATOM     88  O   UNL A   1      40.527  19.616  25.704  1.00  0.00    -0.237 OA
ATOM     89  O   UNL A   1      42.864  19.495  24.935  1.00  0.00    -0.744 OA
ENDBRANCH  85  86
ENDBRANCH  53  78
BRANCH  65  90
ATOM     90  C   UNL A   1      48.083  27.099  30.562  1.00  0.00     0.058 A 
ATOM     91  C   UNL A   1      49.137  27.383  29.681  1.00  0.00     0.135 A 
ATOM     92  C   UNL A   1      48.391  26.432  31.760  1.00  0.00     0.135 A 
ATOM     93  F   UNL A   1      48.898  28.013  28.520  1.00  0.00    -0.206 F 
ATOM     94  C   UNL A   1      50.444  26.996  29.964  1.00  0.00     0.059 A 
ATOM     95  C   UNL A   1      49.694  26.065  32.077  1.00  0.00     0.059 A 
ATOM     96  F   UNL A   1      47.422  26.146  32.644  1.00  0.00    -0.206 F 
ATOM     97  C   UNL A   1      50.712  26.339  31.166  1.00  0.00     0.060 A 
BRANCH  97  98
ATOM     98  S   UNL A   1      52.416  25.870  31.532  1.00  0.00     0.124 S 
ATOM     99  O   UNL A   1      52.236  24.547  32.120  1.00  0.00    -0.237 OA
ATOM    100  O   UNL A   1      53.038  25.898  30.212  1.00  0.00    -0.237 OA
ATOM    101  O   UNL A   1      52.865  26.910  32.452  1.00  0.00    -0.744 OA
ENDBRANCH  97  98
ENDBRANCH  65  90
ENDBRANCH  39  40
ENDBRANCH  31  34
ENDBRANCH   1  30
TORSDOF 14
ENDMDL
MODEL 3
REMARK VINA RESULT:     -13.3      6.576     12.431
REMARK SMILES CC1(C)S[C@@H](c2cccc3c2sc2ccccc23)[NH2+][C@@H]1C(=O)NCCCNC(=O)c1ccc(-c2c3nc(c(-c4c(F)cc(S(=O)(=O)[O-])cc4F)c4ccc([nH]4)c(-c4c(F)cc(S(=O)(=O)[O-])cc4F)c4nc(c(-c5c(F)cc(S(=O)(=O)[O-])cc5F)c5ccc2[nH]5)C=C4)C=C3)cc1
REMARK SMILES IDX 26 1 25 2 24 3 23 4 21 5 22 6 20 8 1 9 2 10 3 11 4 12 5 13
REMARK SMILES IDX 19 14 6 17 7 18 11 19 8 20 10 21 12 22 9 23 18 24 13 25
REMARK SMILES IDX 17 26 14 27 16 28 15 29 27 30 28 31 29 33 30 34 31 35 95 36
REMARK SMILES IDX 32 37 94 38 33 39 34 40 35 41 88 42 36 43 93 44 87 45 89 46
REMARK SMILES IDX 37 47 92 48 86 49 85 50 38 52 72 53 51 54 71 55 52 56 55 57
REMARK SMILES IDX 70 58 90 59 53 60 54 61 69 63 91 64 56 65 39 66 40 67 49 68
REMARK SMILES IDX 41 69 42 70 48 71 50 72 43 73 44 74 45 75 46 76 47 77 73 78
REMARK SMILES IDX 74 79 83 80 75 81 76 82 82 83 84 84 77 85 78 86 79 87 80 88
REMARK SMILES IDX 81 89 57 90 58 91 67 92 59 93 60 94 66 95 68 96 61 97 62 98
REMARK SMILES IDX 63 99 64 100 65 101
REMARK H PARENT 23 7 19 15 19 16 27 32 89 51 55 62
REMARK Flexibility Score: inf
ROOT
ATOM      1  C   UNL A   1      38.692  23.996  26.486  1.00  0.00     0.118 C 
ENDROOT
BRANCH   1   2
ATOM      2  C   UNL A   1      37.867  23.022  25.662  1.00  0.00     0.042 C 
BRANCH   2   3
ATOM      3  C   UNL A   1      36.367  23.257  25.738  1.00  0.00     0.118 C 
BRANCH   3   4
ATOM      4  N   UNL A   1      35.809  23.667  24.459  1.00  0.00    -0.351 N 
ATOM      5  C   UNL A   1      34.585  24.135  24.090  1.00  0.00     0.279 C 
ATOM      6  O   UNL A   1      34.429  24.277  22.873  1.00  0.00    -0.268 OA
ATOM      7  H   UNL A   1      36.443  23.593  23.710  1.00  0.00     0.163 HD
BRANCH   5   8
ATOM      8  C   UNL A   1      33.417  24.362  25.095  1.00  0.00     0.289 C 
ATOM      9  C   UNL A   1      31.061  23.704  25.821  1.00  0.00     0.030 C 
ATOM     10  C   UNL A   1      31.998  23.932  24.616  1.00  0.00     0.077 C 
ATOM     11  C   UNL A   1      31.905  22.707  23.707  1.00  0.00     0.030 C 
ATOM     12  S   UNL A   1      31.378  25.416  23.727  1.00  0.00    -0.081 SA
ATOM     13  C   UNL A   1      32.661  26.506  24.405  1.00  0.00     0.276 C 
ATOM     14  N   UNL A   1      33.293  25.782  25.511  1.00  0.00    -0.320 N 
ATOM     15  H   UNL A   1      32.714  25.851  26.349  1.00  0.00     0.348 HD
ATOM     16  H   UNL A   1      34.208  26.177  25.726  1.00  0.00     0.348 HD
BRANCH  13  17
ATOM     17  C   UNL A   1      32.153  27.862  24.863  1.00  0.00     0.038 A 
ATOM     18  C   UNL A   1      32.682  28.456  26.033  1.00  0.00     0.012 A 
ATOM     19  C   UNL A   1      31.189  28.625  24.139  1.00  0.00     0.046 A 
ATOM     20  C   UNL A   1      32.280  29.705  26.474  1.00  0.00     0.001 A 
ATOM     21  C   UNL A   1      30.751  29.882  24.574  1.00  0.00     0.001 A 
ATOM     22  S   UNL A   1      30.406  28.207  22.657  1.00  0.00    -0.135 S 
ATOM     23  C   UNL A   1      31.317  30.412  25.761  1.00  0.00     0.010 A 
ATOM     24  C   UNL A   1      29.744  30.458  23.700  1.00  0.00     0.000 A 
ATOM     25  C   UNL A   1      29.483  29.646  22.599  1.00  0.00     0.036 A 
ATOM     26  C   UNL A   1      29.030  31.681  23.802  1.00  0.00     0.010 A 
ATOM     27  C   UNL A   1      28.559  30.023  21.603  1.00  0.00     0.019 A 
ATOM     28  C   UNL A   1      28.102  32.055  22.826  1.00  0.00     0.001 A 
ATOM     29  C   UNL A   1      27.874  31.233  21.733  1.00  0.00     0.002 A 
ENDBRANCH  13  17
ENDBRANCH   5   8
ENDBRANCH   3   4
ENDBRANCH   2   3
ENDBRANCH   1   2
BRANCH   1  30
ATOM     30  N   UNL A   1      40.119  23.910  26.206  1.00  0.00    -0.352 N 
ATOM     31  C   UNL A   1      41.145  24.737  26.597  1.00  0.00     0.251 C 
ATOM     32  H   UNL A   1      40.390  23.142  25.655  1.00  0.00     0.163 HD
ATOM     33  O   UNL A   1      42.262  24.593  26.103  1.00  0.00    -0.269 OA
BRANCH  31  34
ATOM     34  C   UNL A   1      40.899  25.811  27.583  1.00  0.00     0.039 A 
ATOM     35  C   UNL A   1      39.881  25.649  28.525  1.00  0.00     0.014 A 
ATOM     36  C   UNL A   1      41.676  26.972  27.587  1.00  0.00     0.014 A 
ATOM     37  C   UNL A   1      39.696  26.615  29.516  1.00  0.00     0.010 A 
ATOM     38  C   UNL A   1      41.562  27.878  28.634  1.00  0.00     0.010 A 
ATOM     39  C   UNL A   1      40.565  27.716  29.607  1.00  0.00    -0.014 A 
BRANCH  39  40
ATOM     40  C   UNL A   1      40.446  28.709  30.705  1.00  0.00     0.031 A 
ATOM     41  C   UNL A   1      41.315  28.590  31.929  1.00  0.00     0.074 A 
ATOM     42  C   UNL A   1      39.515  29.681  30.627  1.00  0.00     0.049 A 
ATOM     43  N   UNL A   1      41.315  29.319  33.017  1.00  0.00    -0.248 NA
ATOM     44  C   UNL A   1      42.293  27.489  31.949  1.00  0.00     0.031 C 
ATOM     45  C   UNL A   1      38.578  29.870  29.516  1.00  0.00     0.029 A 
ATOM     46  N   UNL A   1      39.196  30.691  31.501  1.00  0.00    -0.354 N 
ATOM     47  C   UNL A   1      42.279  28.761  33.847  1.00  0.00     0.074 A 
ATOM     48  C   UNL A   1      42.798  27.594  33.169  1.00  0.00     0.031 C 
ATOM     49  C   UNL A   1      37.815  30.947  29.760  1.00  0.00     0.029 A 
ATOM     50  C   UNL A   1      38.173  31.500  31.063  1.00  0.00     0.049 A 
ATOM     51  H   UNL A   1      39.656  30.823  32.361  1.00  0.00     0.167 HD
ATOM     52  C   UNL A   1      42.715  29.197  35.054  1.00  0.00     0.037 A 
ATOM     53  C   UNL A   1      37.587  32.563  31.645  1.00  0.00     0.037 A 
ATOM     54  C   UNL A   1      42.208  30.372  35.713  1.00  0.00     0.049 A 
ATOM     55  C   UNL A   1      38.078  33.021  32.992  1.00  0.00     0.074 A 
ATOM     56  C   UNL A   1      42.616  30.928  36.912  1.00  0.00     0.029 A 
ATOM     57  N   UNL A   1      41.180  31.171  35.232  1.00  0.00    -0.354 N 
ATOM     58  N   UNL A   1      39.034  32.517  33.736  1.00  0.00    -0.248 NA
ATOM     59  C   UNL A   1      37.415  34.194  33.578  1.00  0.00     0.031 C 
ATOM     60  C   UNL A   1      41.802  32.032  37.182  1.00  0.00     0.029 A 
ATOM     61  C   UNL A   1      40.925  32.201  36.122  1.00  0.00     0.049 A 
ATOM     62  H   UNL A   1      40.703  31.026  34.383  1.00  0.00     0.167 HD
ATOM     63  C   UNL A   1      39.108  33.329  34.863  1.00  0.00     0.074 A 
ATOM     64  C   UNL A   1      38.110  34.365  34.694  1.00  0.00     0.031 C 
ATOM     65  C   UNL A   1      39.930  33.229  35.937  1.00  0.00     0.037 A 
BRANCH  52  66
ATOM     66  C   UNL A   1      43.799  28.404  35.734  1.00  0.00     0.058 A 
ATOM     67  C   UNL A   1      43.500  27.383  36.652  1.00  0.00     0.135 A 
ATOM     68  C   UNL A   1      45.151  28.639  35.439  1.00  0.00     0.135 A 
ATOM     69  F   UNL A   1      42.226  27.124  36.985  1.00  0.00    -0.206 F 
ATOM     70  C   UNL A   1      44.502  26.646  37.275  1.00  0.00     0.059 A 
ATOM     71  C   UNL A   1      46.170  27.893  36.025  1.00  0.00     0.059 A 
ATOM     72  F   UNL A   1      45.496  29.602  34.570  1.00  0.00    -0.206 F 
ATOM     73  C   UNL A   1      45.834  26.908  36.954  1.00  0.00     0.060 A 
BRANCH  73  74
ATOM     74  S   UNL A   1      47.121  25.935  37.764  1.00  0.00     0.124 S 
ATOM     75  O   UNL A   1      47.150  26.539  39.093  1.00  0.00    -0.237 OA
ATOM     76  O   UNL A   1      46.577  24.582  37.696  1.00  0.00    -0.237 OA
ATOM     77  O   UNL A   1      48.301  26.176  36.940  1.00  0.00    -0.744 OA
ENDBRANCH  73  74
ENDBRANCH  52  66
BRANCH  53  78
ATOM     78  C   UNL A   1      36.485  33.282  30.948  1.00  0.00     0.058 A 
ATOM     79  C   UNL A   1      35.157  33.165  31.386  1.00  0.00     0.135 A 
ATOM     80  C   UNL A   1      36.735  34.107  29.840  1.00  0.00     0.135 A 
ATOM     81  F   UNL A   1      34.864  32.384  32.436  1.00  0.00    -0.206 F 
ATOM     82  C   UNL A   1      34.115  33.822  30.740  1.00  0.00     0.059 A 
ATOM     83  C   UNL A   1      35.714  34.798  29.196  1.00  0.00     0.059 A 
ATOM     84  F   UNL A   1      37.990  34.268  29.391  1.00  0.00    -0.206 F 
ATOM     85  C   UNL A   1      34.405  34.640  29.647  1.00  0.00     0.060 A 
BRANCH  85  86
ATOM     86  S   UNL A   1      33.050  35.524  28.845  1.00  0.00     0.124 S 
ATOM     87  O   UNL A   1      33.773  36.512  28.050  1.00  0.00    -0.237 OA
ATOM     88  O   UNL A   1      32.392  34.459  28.095  1.00  0.00    -0.237 OA
ATOM     89  O   UNL A   1      32.284  36.056  29.968  1.00  0.00    -0.744 OA
ENDBRANCH  85  86
ENDBRANCH  53  78
BRANCH  65  90
ATOM     90  C   UNL A   1      39.812  34.287  37.001  1.00  0.00     0.058 A 
ATOM     91  C   UNL A   1      40.461  35.526  36.889  1.00  0.00     0.135 A 
ATOM     92  C   UNL A   1      38.997  34.074  38.125  1.00  0.00     0.135 A 
ATOM     93  F   UNL A   1      41.257  35.780  35.838  1.00  0.00    -0.206 F 
ATOM     94  C   UNL A   1      40.329  36.507  37.867  1.00  0.00     0.059 A 
ATOM     95  C   UNL A   1      38.825  35.052  39.099  1.00  0.00     0.059 A 
ATOM     96  F   UNL A   1      38.343  32.911  38.276  1.00  0.00    -0.206 F 
ATOM     97  C   UNL A   1      39.507  36.261  38.968  1.00  0.00     0.060 A 
BRANCH  97  98
ATOM     98  S   UNL A   1      39.322  37.553  40.214  1.00  0.00     0.124 S 
ATOM     99  O   UNL A   1      38.281  38.386  39.621  1.00  0.00    -0.237 OA
ATOM    100  O   UNL A   1      38.929  36.792  41.396  1.00  0.00    -0.237 OA
ATOM    101  O   UNL A   1      40.649  38.157  40.278  1.00  0.00    -0.744 OA
ENDBRANCH  97  98
ENDBRANCH  65  90
ENDBRANCH  39  40
ENDBRANCH  31  34
ENDBRANCH   1  30
TORSDOF 14
ENDMDL
