MODEL 1
REMARK VINA RESULT:     -12.1      0.000      0.000
REMARK SMILES Cc1c(Cl)ccc2c1C=C(C(=O)NCCCNC(=O)c1ccc(-c3c4nc(c(-c5c(F)cc(S(=O)(=O)[O-])cc5F)c5ccc([nH]5)c(-c5c(F)cc(S(=O)(=O)[O-])cc5F)c5nc(c(-c6c(F)cc(S(=O)(=O)[O-])cc6F)c6ccc3[nH]6)C=C5)C=C4)cc1)[C@@H](C(F)(F)F)O2
REMARK SMILES IDX 16 1 15 2 14 3 13 4 11 5 12 6 10 8 1 9 2 10 3 11 8 12 4 13
REMARK SMILES IDX 5 14 7 15 9 16 6 17 91 18 86 19 87 20 88 21 89 22 90 23
REMARK SMILES IDX 17 24 18 25 19 27 20 28 21 29 85 30 22 31 84 32 23 33 24 34
REMARK SMILES IDX 25 35 78 36 26 37 83 38 77 39 79 40 27 41 82 42 76 43 75 44
REMARK SMILES IDX 28 46 62 47 41 48 61 49 42 50 45 51 60 52 80 53 43 54 44 55
REMARK SMILES IDX 59 57 81 58 46 59 29 60 30 61 39 62 31 63 32 64 38 65 40 66
REMARK SMILES IDX 33 67 34 68 35 69 36 70 37 71 63 72 64 73 73 74 65 75 66 76
REMARK SMILES IDX 72 77 74 78 67 79 68 80 69 81 70 82 71 83 47 84 48 85 57 86
REMARK SMILES IDX 49 87 50 88 56 89 58 90 51 91 52 92 53 93 54 94 55 95
REMARK H PARENT 13 7 17 26 79 45 45 56
REMARK Flexibility Score: inf
ROOT
ATOM      1  C   UNL A   1      34.203  28.498  26.192  1.00  0.00     0.118 C 
ENDROOT
BRANCH   1   2
ATOM      2  C   UNL A   1      33.797  28.462  24.722  1.00  0.00     0.042 C 
BRANCH   2   3
ATOM      3  C   UNL A   1      33.085  27.169  24.352  1.00  0.00     0.118 C 
BRANCH   3   4
ATOM      4  N   UNL A   1      32.220  26.700  25.425  1.00  0.00    -0.352 N 
ATOM      5  C   UNL A   1      31.923  25.526  26.025  1.00  0.00     0.251 C 
ATOM      6  O   UNL A   1      31.093  25.602  26.937  1.00  0.00    -0.270 OA
ATOM      7  H   UNL A   1      31.711  27.443  25.824  1.00  0.00     0.163 HD
BRANCH   5   8
ATOM      8  C   UNL A   1      32.517  24.201  25.676  1.00  0.00     0.067 C 
ATOM      9  C   UNL A   1      36.806  23.861  25.939  1.00  0.00     0.047 C 
ATOM     10  C   UNL A   1      35.930  22.679  25.605  1.00  0.00    -0.021 A 
ATOM     11  C   UNL A   1      36.482  21.424  25.271  1.00  0.00     0.044 A 
ATOM     12  C   UNL A   1      34.520  22.819  25.585  1.00  0.00     0.022 A 
ATOM     13  Cl  UNL A   1      38.188  21.141  25.216  1.00  0.00    -0.084 Cl
ATOM     14  C   UNL A   1      35.661  20.335  24.961  1.00  0.00     0.024 A 
ATOM     15  C   UNL A   1      33.718  21.716  25.256  1.00  0.00     0.128 A 
ATOM     16  C   UNL A   1      33.833  24.069  25.926  1.00  0.00     0.026 C 
ATOM     17  C   UNL A   1      34.279  20.478  24.962  1.00  0.00     0.048 A 
ATOM     18  O   UNL A   1      32.354  21.763  25.237  1.00  0.00    -0.475 OA
ATOM     19  C   UNL A   1      31.756  23.072  25.051  1.00  0.00     0.314 C 
BRANCH  19  20
ATOM     20  C   UNL A   1      31.483  23.303  23.552  1.00  0.00     0.429 C 
ATOM     21  F   UNL A   1      30.252  23.841  23.369  1.00  0.00    -0.167 F 
ATOM     22  F   UNL A   1      32.365  24.163  22.988  1.00  0.00    -0.167 F 
ATOM     23  F   UNL A   1      31.537  22.162  22.830  1.00  0.00    -0.167 F 
ENDBRANCH  19  20
ENDBRANCH   5   8
ENDBRANCH   3   4
ENDBRANCH   2   3
ENDBRANCH   1   2
BRANCH   1  24
ATOM     24  N   UNL A   1      33.910  29.795  26.796  1.00  0.00    -0.352 N 
ATOM     25  C   UNL A   1      34.584  30.465  27.786  1.00  0.00     0.251 C 
ATOM     26  H   UNL A   1      33.115  30.254  26.442  1.00  0.00     0.163 HD
ATOM     27  O   UNL A   1      34.036  31.390  28.383  1.00  0.00    -0.269 OA
BRANCH  25  28
ATOM     28  C   UNL A   1      35.963  30.070  28.126  1.00  0.00     0.039 A 
ATOM     29  C   UNL A   1      36.240  29.541  29.389  1.00  0.00     0.014 A 
ATOM     30  C   UNL A   1      36.988  30.250  27.193  1.00  0.00     0.014 A 
ATOM     31  C   UNL A   1      37.542  29.140  29.694  1.00  0.00     0.010 A 
ATOM     32  C   UNL A   1      38.266  29.785  27.471  1.00  0.00     0.010 A 
ATOM     33  C   UNL A   1      38.557  29.238  28.729  1.00  0.00    -0.014 A 
BRANCH  33  34
ATOM     34  C   UNL A   1      39.951  28.836  29.026  1.00  0.00     0.031 A 
ATOM     35  C   UNL A   1      40.866  29.817  29.707  1.00  0.00     0.074 A 
ATOM     36  C   UNL A   1      40.400  27.626  28.644  1.00  0.00     0.049 A 
ATOM     37  N   UNL A   1      42.141  29.708  29.975  1.00  0.00    -0.248 NA
ATOM     38  C   UNL A   1      40.273  31.100  30.125  1.00  0.00     0.031 C 
ATOM     39  C   UNL A   1      39.604  26.603  27.962  1.00  0.00     0.029 A 
ATOM     40  N   UNL A   1      41.639  27.051  28.771  1.00  0.00    -0.354 N 
ATOM     41  C   UNL A   1      42.497  30.898  30.597  1.00  0.00     0.074 A 
ATOM     42  C   UNL A   1      41.325  31.744  30.605  1.00  0.00     0.031 C 
ATOM     43  C   UNL A   1      40.368  25.515  27.757  1.00  0.00     0.029 A 
ATOM     44  C   UNL A   1      41.713  25.777  28.259  1.00  0.00     0.049 A 
ATOM     45  H   UNL A   1      42.403  27.509  29.190  1.00  0.00     0.167 HD
ATOM     46  C   UNL A   1      43.685  31.240  31.145  1.00  0.00     0.037 A 
ATOM     47  C   UNL A   1      42.753  24.923  28.203  1.00  0.00     0.037 A 
ATOM     48  C   UNL A   1      44.842  30.385  31.150  1.00  0.00     0.049 A 
ATOM     49  C   UNL A   1      44.081  25.354  28.771  1.00  0.00     0.074 A 
ATOM     50  C   UNL A   1      46.094  30.634  31.683  1.00  0.00     0.029 A 
ATOM     51  N   UNL A   1      44.882  29.109  30.609  1.00  0.00    -0.354 N 
ATOM     52  N   UNL A   1      44.398  26.479  29.367  1.00  0.00    -0.248 NA
ATOM     53  C   UNL A   1      45.193  24.400  28.657  1.00  0.00     0.031 C 
ATOM     54  C   UNL A   1      46.899  29.518  31.442  1.00  0.00     0.029 A 
ATOM     55  C   UNL A   1      46.138  28.560  30.792  1.00  0.00     0.049 A 
ATOM     56  H   UNL A   1      44.128  28.660  30.162  1.00  0.00     0.167 HD
ATOM     57  C   UNL A   1      45.734  26.353  29.729  1.00  0.00     0.074 A 
ATOM     58  C   UNL A   1      46.165  25.041  29.291  1.00  0.00     0.031 C 
ATOM     59  C   UNL A   1      46.535  27.241  30.366  1.00  0.00     0.037 A 
BRANCH  46  60
ATOM     60  C   UNL A   1      43.783  32.576  31.822  1.00  0.00     0.058 A 
ATOM     61  C   UNL A   1      44.039  33.742  31.082  1.00  0.00     0.135 A 
ATOM     62  C   UNL A   1      43.561  32.708  33.200  1.00  0.00     0.135 A 
ATOM     63  F   UNL A   1      44.281  33.668  29.764  1.00  0.00    -0.206 F 
ATOM     64  C   UNL A   1      44.076  34.993  31.688  1.00  0.00     0.059 A 
ATOM     65  C   UNL A   1      43.569  33.953  33.824  1.00  0.00     0.059 A 
ATOM     66  F   UNL A   1      43.321  31.624  33.955  1.00  0.00    -0.206 F 
ATOM     67  C   UNL A   1      43.832  35.089  33.058  1.00  0.00     0.060 A 
BRANCH  67  68
ATOM     68  S   UNL A   1      43.842  36.728  33.815  1.00  0.00     0.124 S 
ATOM     69  O   UNL A   1      44.673  36.499  34.995  1.00  0.00    -0.237 OA
ATOM     70  O   UNL A   1      44.439  37.549  32.769  1.00  0.00    -0.237 OA
ATOM     71  O   UNL A   1      42.430  36.987  34.085  1.00  0.00    -0.744 OA
ENDBRANCH  67  68
ENDBRANCH  46  60
BRANCH  47  72
ATOM     72  C   UNL A   1      42.586  23.564  27.624  1.00  0.00     0.058 A 
ATOM     73  C   UNL A   1      42.371  22.456  28.458  1.00  0.00     0.135 A 
ATOM     74  C   UNL A   1      42.663  23.337  26.242  1.00  0.00     0.135 A 
ATOM     75  F   UNL A   1      42.295  22.622  29.787  1.00  0.00    -0.206 F 
ATOM     76  C   UNL A   1      42.269  21.166  27.947  1.00  0.00     0.059 A 
ATOM     77  C   UNL A   1      42.539  22.059  25.704  1.00  0.00     0.059 A 
ATOM     78  F   UNL A   1      42.850  24.365  25.400  1.00  0.00    -0.206 F 
ATOM     79  C   UNL A   1      42.359  20.978  26.567  1.00  0.00     0.060 A 
BRANCH  79  80
ATOM     80  S   UNL A   1      42.215  19.300  25.914  1.00  0.00     0.124 S 
ATOM     81  O   UNL A   1      43.066  19.371  24.733  1.00  0.00    -0.237 OA
ATOM     82  O   UNL A   1      42.721  18.496  27.022  1.00  0.00    -0.237 OA
ATOM     83  O   UNL A   1      40.784  19.164  25.654  1.00  0.00    -0.744 OA
ENDBRANCH  79  80
ENDBRANCH  47  72
BRANCH  59  84
ATOM     84  C   UNL A   1      47.944  26.818  30.664  1.00  0.00     0.058 A 
ATOM     85  C   UNL A   1      49.005  27.154  29.812  1.00  0.00     0.135 A 
ATOM     86  C   UNL A   1      48.243  26.140  31.857  1.00  0.00     0.135 A 
ATOM     87  F   UNL A   1      48.769  27.797  28.658  1.00  0.00    -0.206 F 
ATOM     88  C   UNL A   1      50.318  26.823  30.127  1.00  0.00     0.059 A 
ATOM     89  C   UNL A   1      49.552  25.821  32.205  1.00  0.00     0.059 A 
ATOM     90  F   UNL A   1      47.262  25.806  32.710  1.00  0.00    -0.206 F 
ATOM     91  C   UNL A   1      50.582  26.163  31.330  1.00  0.00     0.060 A 
BRANCH  91  92
ATOM     92  S   UNL A   1      52.297  25.791  31.751  1.00  0.00     0.124 S 
ATOM     93  O   UNL A   1      52.204  24.394  32.162  1.00  0.00    -0.237 OA
ATOM     94  O   UNL A   1      52.987  26.035  30.488  1.00  0.00    -0.237 OA
ATOM     95  O   UNL A   1      52.599  26.741  32.817  1.00  0.00    -0.744 OA
ENDBRANCH  91  92
ENDBRANCH  59  84
ENDBRANCH  33  34
ENDBRANCH  25  28
ENDBRANCH   1  24
TORSDOF 14
ENDMDL
MODEL 2
REMARK VINA RESULT:     -12.0      2.892      3.816
REMARK SMILES Cc1c(Cl)ccc2c1C=C(C(=O)NCCCNC(=O)c1ccc(-c3c4nc(c(-c5c(F)cc(S(=O)(=O)[O-])cc5F)c5ccc([nH]5)c(-c5c(F)cc(S(=O)(=O)[O-])cc5F)c5nc(c(-c6c(F)cc(S(=O)(=O)[O-])cc6F)c6ccc3[nH]6)C=C5)C=C4)cc1)[C@@H](C(F)(F)F)O2
REMARK SMILES IDX 16 1 15 2 14 3 13 4 11 5 12 6 10 8 1 9 2 10 3 11 8 12 4 13
REMARK SMILES IDX 5 14 7 15 9 16 6 17 91 18 86 19 87 20 88 21 89 22 90 23
REMARK SMILES IDX 17 24 18 25 19 27 20 28 21 29 85 30 22 31 84 32 23 33 24 34
REMARK SMILES IDX 25 35 78 36 26 37 83 38 77 39 79 40 27 41 82 42 76 43 75 44
REMARK SMILES IDX 28 46 62 47 41 48 61 49 42 50 45 51 60 52 80 53 43 54 44 55
REMARK SMILES IDX 59 57 81 58 46 59 29 60 30 61 39 62 31 63 32 64 38 65 40 66
REMARK SMILES IDX 33 67 34 68 35 69 36 70 37 71 63 72 64 73 73 74 65 75 66 76
REMARK SMILES IDX 72 77 74 78 67 79 68 80 69 81 70 82 71 83 47 84 48 85 57 86
REMARK SMILES IDX 49 87 50 88 56 89 58 90 51 91 52 92 53 93 54 94 55 95
REMARK H PARENT 13 7 17 26 79 45 45 56
REMARK Flexibility Score: inf
ROOT
ATOM      1  C   UNL A   1      35.441  30.755  28.010  1.00  0.00     0.118 C 
ENDROOT
BRANCH   1   2
ATOM      2  C   UNL A   1      34.529  29.650  27.485  1.00  0.00     0.042 C 
BRANCH   2   3
ATOM      3  C   UNL A   1      33.295  30.204  26.788  1.00  0.00     0.118 C 
BRANCH   3   4
ATOM      4  N   UNL A   1      33.243  29.816  25.386  1.00  0.00    -0.352 N 
ATOM      5  C   UNL A   1      32.960  28.705  24.669  1.00  0.00     0.251 C 
ATOM      6  O   UNL A   1      33.046  28.840  23.444  1.00  0.00    -0.270 OA
ATOM      7  H   UNL A   1      33.479  30.569  24.798  1.00  0.00     0.163 HD
BRANCH   5   8
ATOM      8  C   UNL A   1      32.556  27.386  25.240  1.00  0.00     0.067 C 
ATOM      9  C   UNL A   1      35.541  24.276  25.252  1.00  0.00     0.047 C 
ATOM     10  C   UNL A   1      34.182  24.082  25.879  1.00  0.00    -0.021 A 
ATOM     11  C   UNL A   1      33.791  22.838  26.417  1.00  0.00     0.044 A 
ATOM     12  C   UNL A   1      33.250  25.148  25.904  1.00  0.00     0.022 A 
ATOM     13  Cl  UNL A   1      34.824  21.449  26.402  1.00  0.00    -0.084 Cl
ATOM     14  C   UNL A   1      32.528  22.667  26.994  1.00  0.00     0.024 A 
ATOM     15  C   UNL A   1      31.984  24.948  26.474  1.00  0.00     0.128 A 
ATOM     16  C   UNL A   1      33.548  26.488  25.387  1.00  0.00     0.026 C 
ATOM     17  C   UNL A   1      31.627  23.724  27.030  1.00  0.00     0.048 A 
ATOM     18  O   UNL A   1      31.038  25.930  26.559  1.00  0.00    -0.475 OA
ATOM     19  C   UNL A   1      31.151  27.017  25.604  1.00  0.00     0.314 C 
BRANCH  19  20
ATOM     20  C   UNL A   1      30.283  26.708  24.369  1.00  0.00     0.429 C 
ATOM     21  F   UNL A   1      29.911  27.853  23.748  1.00  0.00    -0.167 F 
ATOM     22  F   UNL A   1      30.937  25.965  23.445  1.00  0.00    -0.167 F 
ATOM     23  F   UNL A   1      29.154  26.032  24.681  1.00  0.00    -0.167 F 
ENDBRANCH  19  20
ENDBRANCH   5   8
ENDBRANCH   3   4
ENDBRANCH   2   3
ENDBRANCH   1   2
BRANCH   1  24
ATOM     24  N   UNL A   1      35.406  30.828  29.467  1.00  0.00    -0.352 N 
ATOM     25  C   UNL A   1      36.289  30.317  30.385  1.00  0.00     0.251 C 
ATOM     26  H   UNL A   1      34.639  31.314  29.847  1.00  0.00     0.163 HD
ATOM     27  O   UNL A   1      35.954  30.205  31.563  1.00  0.00    -0.269 OA
BRANCH  25  28
ATOM     28  C   UNL A   1      37.637  29.907  29.950  1.00  0.00     0.039 A 
ATOM     29  C   UNL A   1      38.005  30.050  28.610  1.00  0.00     0.014 A 
ATOM     30  C   UNL A   1      38.529  29.357  30.875  1.00  0.00     0.014 A 
ATOM     31  C   UNL A   1      39.293  29.691  28.210  1.00  0.00     0.010 A 
ATOM     32  C   UNL A   1      39.831  29.068  30.492  1.00  0.00     0.010 A 
ATOM     33  C   UNL A   1      40.221  29.219  29.153  1.00  0.00    -0.014 A 
BRANCH  33  34
ATOM     34  C   UNL A   1      41.590  28.814  28.759  1.00  0.00     0.031 A 
ATOM     35  C   UNL A   1      42.689  29.841  28.770  1.00  0.00     0.074 A 
ATOM     36  C   UNL A   1      41.828  27.554  28.350  1.00  0.00     0.049 A 
ATOM     37  N   UNL A   1      43.930  29.727  28.375  1.00  0.00    -0.248 NA
ATOM     38  C   UNL A   1      42.340  31.182  29.273  1.00  0.00     0.031 C 
ATOM     39  C   UNL A   1      40.833  26.481  28.285  1.00  0.00     0.029 A 
ATOM     40  N   UNL A   1      42.984  26.961  27.909  1.00  0.00    -0.354 N 
ATOM     41  C   UNL A   1      44.509  30.971  28.590  1.00  0.00     0.074 A 
ATOM     42  C   UNL A   1      43.470  31.847  29.083  1.00  0.00     0.031 C 
ATOM     43  C   UNL A   1      41.429  25.354  27.856  1.00  0.00     0.029 A 
ATOM     44  C   UNL A   1      42.835  25.633  27.582  1.00  0.00     0.049 A 
ATOM     45  H   UNL A   1      43.839  27.442  27.831  1.00  0.00     0.167 HD
ATOM     46  C   UNL A   1      45.800  31.339  28.426  1.00  0.00     0.037 A 
ATOM     47  C   UNL A   1      43.736  24.748  27.116  1.00  0.00     0.037 A 
ATOM     48  C   UNL A   1      46.832  30.457  27.953  1.00  0.00     0.049 A 
ATOM     49  C   UNL A   1      45.155  25.202  26.889  1.00  0.00     0.074 A 
ATOM     50  C   UNL A   1      48.173  30.729  27.755  1.00  0.00     0.029 A 
ATOM     51  N   UNL A   1      46.639  29.124  27.620  1.00  0.00    -0.354 N 
ATOM     52  N   UNL A   1      45.688  26.380  27.108  1.00  0.00    -0.248 NA
ATOM     53  C   UNL A   1      46.092  24.209  26.348  1.00  0.00     0.031 C 
ATOM     54  C   UNL A   1      48.788  29.569  27.278  1.00  0.00     0.029 A 
ATOM     55  C   UNL A   1      47.837  28.563  27.214  1.00  0.00     0.049 A 
ATOM     56  H   UNL A   1      45.779  28.649  27.667  1.00  0.00     0.167 HD
ATOM     57  C   UNL A   1      47.030  26.259  26.766  1.00  0.00     0.074 A 
ATOM     58  C   UNL A   1      47.229  24.892  26.330  1.00  0.00     0.031 C 
ATOM     59  C   UNL A   1      48.012  27.192  26.807  1.00  0.00     0.037 A 
BRANCH  46  60
ATOM     60  C   UNL A   1      46.178  32.744  28.799  1.00  0.00     0.058 A 
ATOM     61  C   UNL A   1      46.111  33.783  27.857  1.00  0.00     0.135 A 
ATOM     62  C   UNL A   1      46.546  33.070  30.112  1.00  0.00     0.135 A 
ATOM     63  F   UNL A   1      45.786  33.520  26.581  1.00  0.00    -0.206 F 
ATOM     64  C   UNL A   1      46.404  35.097  28.203  1.00  0.00     0.059 A 
ATOM     65  C   UNL A   1      46.821  34.383  30.488  1.00  0.00     0.059 A 
ATOM     66  F   UNL A   1      46.634  32.112  31.049  1.00  0.00    -0.206 F 
ATOM     67  C   UNL A   1      46.750  35.388  29.523  1.00  0.00     0.060 A 
BRANCH  67  68
ATOM     68  S   UNL A   1      47.082  37.107  29.960  1.00  0.00     0.124 S 
ATOM     69  O   UNL A   1      46.174  37.818  29.064  1.00  0.00    -0.237 OA
ATOM     70  O   UNL A   1      46.731  37.141  31.375  1.00  0.00    -0.237 OA
ATOM     71  O   UNL A   1      48.504  37.266  29.665  1.00  0.00    -0.744 OA
ENDBRANCH  67  68
ENDBRANCH  46  60
BRANCH  47  72
ATOM     72  C   UNL A   1      43.348  23.334  26.864  1.00  0.00     0.058 A 
ATOM     73  C   UNL A   1      43.131  22.453  27.935  1.00  0.00     0.135 A 
ATOM     74  C   UNL A   1      43.213  22.828  25.563  1.00  0.00     0.135 A 
ATOM     75  F   UNL A   1      43.254  22.890  29.197  1.00  0.00    -0.206 F 
ATOM     76  C   UNL A   1      42.824  21.113  27.726  1.00  0.00     0.059 A 
ATOM     77  C   UNL A   1      42.881  21.497  25.328  1.00  0.00     0.059 A 
ATOM     78  F   UNL A   1      43.393  23.634  24.505  1.00  0.00    -0.206 F 
ATOM     79  C   UNL A   1      42.705  20.643  26.418  1.00  0.00     0.060 A 
BRANCH  79  80
ATOM     80  S   UNL A   1      42.295  18.903  26.160  1.00  0.00     0.124 S 
ATOM     81  O   UNL A   1      42.568  18.340  27.476  1.00  0.00    -0.237 OA
ATOM     82  O   UNL A   1      40.891  18.974  25.771  1.00  0.00    -0.237 OA
ATOM     83  O   UNL A   1      43.212  18.498  25.097  1.00  0.00    -0.744 OA
ENDBRANCH  79  80
ENDBRANCH  47  72
BRANCH  59  84
ATOM     84  C   UNL A   1      49.395  26.765  26.408  1.00  0.00     0.058 A 
ATOM     85  C   UNL A   1      50.262  26.149  27.320  1.00  0.00     0.135 A 
ATOM     86  C   UNL A   1      49.822  26.900  25.077  1.00  0.00     0.135 A 
ATOM     87  F   UNL A   1      49.901  26.002  28.604  1.00  0.00    -0.206 F 
ATOM     88  C   UNL A   1      51.515  25.689  26.929  1.00  0.00     0.059 A 
ATOM     89  C   UNL A   1      51.060  26.425  24.658  1.00  0.00     0.059 A 
ATOM     90  F   UNL A   1      49.022  27.474  24.165  1.00  0.00    -0.206 F 
ATOM     91  C   UNL A   1      51.902  25.825  25.594  1.00  0.00     0.060 A 
BRANCH  91  92
ATOM     92  S   UNL A   1      53.507  25.171  25.091  1.00  0.00     0.124 S 
ATOM     93  O   UNL A   1      53.325  23.741  25.312  1.00  0.00    -0.237 OA
ATOM     94  O   UNL A   1      53.591  25.591  23.696  1.00  0.00    -0.237 OA
ATOM     95  O   UNL A   1      54.442  25.832  25.996  1.00  0.00    -0.744 OA
ENDBRANCH  91  92
ENDBRANCH  59  84
ENDBRANCH  33  34
ENDBRANCH  25  28
ENDBRANCH   1  24
TORSDOF 14
ENDMDL
MODEL 3
REMARK VINA RESULT:     -11.9      4.858      9.795
REMARK SMILES Cc1c(Cl)ccc2c1C=C(C(=O)NCCCNC(=O)c1ccc(-c3c4nc(c(-c5c(F)cc(S(=O)(=O)[O-])cc5F)c5ccc([nH]5)c(-c5c(F)cc(S(=O)(=O)[O-])cc5F)c5nc(c(-c6c(F)cc(S(=O)(=O)[O-])cc6F)c6ccc3[nH]6)C=C5)C=C4)cc1)[C@@H](C(F)(F)F)O2
REMARK SMILES IDX 16 1 15 2 14 3 13 4 11 5 12 6 10 8 1 9 2 10 3 11 8 12 4 13
REMARK SMILES IDX 5 14 7 15 9 16 6 17 91 18 86 19 87 20 88 21 89 22 90 23
REMARK SMILES IDX 17 24 18 25 19 27 20 28 21 29 85 30 22 31 84 32 23 33 24 34
REMARK SMILES IDX 25 35 78 36 26 37 83 38 77 39 79 40 27 41 82 42 76 43 75 44
REMARK SMILES IDX 28 46 62 47 41 48 61 49 42 50 45 51 60 52 80 53 43 54 44 55
REMARK SMILES IDX 59 57 81 58 46 59 29 60 30 61 39 62 31 63 32 64 38 65 40 66
REMARK SMILES IDX 33 67 34 68 35 69 36 70 37 71 63 72 64 73 73 74 65 75 66 76
REMARK SMILES IDX 72 77 74 78 67 79 68 80 69 81 70 82 71 83 47 84 48 85 57 86
REMARK SMILES IDX 49 87 50 88 56 89 58 90 51 91 52 92 53 93 54 94 55 95
REMARK H PARENT 13 7 17 26 79 45 45 56
REMARK Flexibility Score: inf
ROOT
ATOM      1  C   UNL A   1      40.317  23.393  27.144  1.00  0.00     0.118 C 
ENDROOT
BRANCH   1   2
ATOM      2  C   UNL A   1      39.224  22.548  26.497  1.00  0.00     0.042 C 
BRANCH   2   3
ATOM      3  C   UNL A   1      37.997  23.373  26.134  1.00  0.00     0.118 C 
BRANCH   3   4
ATOM      4  N   UNL A   1      37.666  23.261  24.721  1.00  0.00    -0.352 N 
ATOM      5  C   UNL A   1      36.552  23.262  23.956  1.00  0.00     0.251 C 
ATOM      6  O   UNL A   1      36.753  23.136  22.743  1.00  0.00    -0.270 OA
ATOM      7  H   UNL A   1      38.476  23.155  24.172  1.00  0.00     0.163 HD
BRANCH   5   8
ATOM      8  C   UNL A   1      35.155  23.411  24.459  1.00  0.00     0.067 C 
ATOM      9  C   UNL A   1      34.038  27.285  25.985  1.00  0.00     0.047 C 
ATOM     10  C   UNL A   1      33.045  26.155  25.872  1.00  0.00    -0.021 A 
ATOM     11  C   UNL A   1      31.724  26.284  26.349  1.00  0.00     0.044 A 
ATOM     12  C   UNL A   1      33.438  24.914  25.312  1.00  0.00     0.022 A 
ATOM     13  Cl  UNL A   1      31.140  27.733  27.094  1.00  0.00    -0.084 Cl
ATOM     14  C   UNL A   1      30.811  25.230  26.242  1.00  0.00     0.024 A 
ATOM     15  C   UNL A   1      32.510  23.865  25.229  1.00  0.00     0.128 A 
ATOM     16  C   UNL A   1      34.779  24.665  24.772  1.00  0.00     0.026 C 
ATOM     17  C   UNL A   1      31.202  24.023  25.674  1.00  0.00     0.048 A 
ATOM     18  O   UNL A   1      32.803  22.649  24.683  1.00  0.00    -0.475 OA
ATOM     19  C   UNL A   1      34.204  22.272  24.662  1.00  0.00     0.314 C 
BRANCH  19  20
ATOM     20  C   UNL A   1      34.532  21.446  25.921  1.00  0.00     0.429 C 
ATOM     21  F   UNL A   1      33.512  20.604  26.219  1.00  0.00    -0.167 F 
ATOM     22  F   UNL A   1      35.634  20.673  25.766  1.00  0.00    -0.167 F 
ATOM     23  F   UNL A   1      34.750  22.218  27.009  1.00  0.00    -0.167 F 
ENDBRANCH  19  20
ENDBRANCH   5   8
ENDBRANCH   3   4
ENDBRANCH   2   3
ENDBRANCH   1   2
BRANCH   1  24
ATOM     24  N   UNL A   1      41.091  24.122  26.143  1.00  0.00    -0.352 N 
ATOM     25  C   UNL A   1      41.369  25.463  26.068  1.00  0.00     0.251 C 
ATOM     26  H   UNL A   1      41.467  23.572  25.418  1.00  0.00     0.163 HD
ATOM     27  O   UNL A   1      41.768  25.949  25.010  1.00  0.00    -0.269 OA
BRANCH  25  28
ATOM     28  C   UNL A   1      41.189  26.314  27.258  1.00  0.00     0.039 A 
ATOM     29  C   UNL A   1      40.132  26.060  28.137  1.00  0.00     0.014 A 
ATOM     30  C   UNL A   1      42.059  27.383  27.488  1.00  0.00     0.014 A 
ATOM     31  C   UNL A   1      39.985  26.848  29.279  1.00  0.00     0.010 A 
ATOM     32  C   UNL A   1      41.955  28.120  28.659  1.00  0.00     0.010 A 
ATOM     33  C   UNL A   1      40.910  27.868  29.558  1.00  0.00    -0.014 A 
BRANCH  33  34
ATOM     34  C   UNL A   1      40.773  28.733  30.753  1.00  0.00     0.031 A 
ATOM     35  C   UNL A   1      39.742  29.829  30.749  1.00  0.00     0.074 A 
ATOM     36  C   UNL A   1      41.597  28.565  31.804  1.00  0.00     0.049 A 
ATOM     37  N   UNL A   1      39.519  30.754  31.644  1.00  0.00    -0.248 NA
ATOM     38  C   UNL A   1      38.859  29.906  29.571  1.00  0.00     0.031 C 
ATOM     39  C   UNL A   1      42.643  27.546  31.908  1.00  0.00     0.029 A 
ATOM     40  N   UNL A   1      41.688  29.254  32.987  1.00  0.00    -0.354 N 
ATOM     41  C   UNL A   1      38.468  31.514  31.144  1.00  0.00     0.074 A 
ATOM     42  C   UNL A   1      38.144  30.988  29.837  1.00  0.00     0.031 C 
ATOM     43  C   UNL A   1      43.251  27.658  33.103  1.00  0.00     0.029 A 
ATOM     44  C   UNL A   1      42.663  28.778  33.831  1.00  0.00     0.049 A 
ATOM     45  H   UNL A   1      41.109  30.018  33.210  1.00  0.00     0.167 HD
ATOM     46  C   UNL A   1      37.809  32.535  31.738  1.00  0.00     0.037 A 
ATOM     47  C   UNL A   1      43.036  29.202  35.055  1.00  0.00     0.037 A 
ATOM     48  C   UNL A   1      38.125  33.040  33.047  1.00  0.00     0.049 A 
ATOM     49  C   UNL A   1      42.321  30.378  35.667  1.00  0.00     0.074 A 
ATOM     50  C   UNL A   1      37.516  34.068  33.743  1.00  0.00     0.029 A 
ATOM     51  N   UNL A   1      39.128  32.541  33.865  1.00  0.00    -0.354 N 
ATOM     52  N   UNL A   1      41.322  31.079  35.185  1.00  0.00    -0.248 NA
ATOM     53  C   UNL A   1      42.786  30.824  36.988  1.00  0.00     0.031 C 
ATOM     54  C   UNL A   1      38.167  34.209  34.971  1.00  0.00     0.029 A 
ATOM     55  C   UNL A   1      39.157  33.244  35.056  1.00  0.00     0.049 A 
ATOM     56  H   UNL A   1      39.729  31.797  33.632  1.00  0.00     0.167 HD
ATOM     57  C   UNL A   1      41.016  32.023  36.158  1.00  0.00     0.074 A 
ATOM     58  C   UNL A   1      41.932  31.802  37.258  1.00  0.00     0.031 C 
ATOM     59  C   UNL A   1      40.065  32.988  36.145  1.00  0.00     0.037 A 
BRANCH  46  60
ATOM     60  C   UNL A   1      36.655  33.146  30.997  1.00  0.00     0.058 A 
ATOM     61  C   UNL A   1      35.331  32.912  31.405  1.00  0.00     0.135 A 
ATOM     62  C   UNL A   1      36.866  34.017  29.919  1.00  0.00     0.135 A 
ATOM     63  F   UNL A   1      35.074  32.069  32.417  1.00  0.00    -0.206 F 
ATOM     64  C   UNL A   1      34.257  33.516  30.763  1.00  0.00     0.059 A 
ATOM     65  C   UNL A   1      35.807  34.652  29.276  1.00  0.00     0.059 A 
ATOM     66  F   UNL A   1      38.112  34.267  29.485  1.00  0.00    -0.206 F 
ATOM     67  C   UNL A   1      34.505  34.391  29.705  1.00  0.00     0.060 A 
BRANCH  67  68
ATOM     68  S   UNL A   1      33.097  35.199  28.915  1.00  0.00     0.124 S 
ATOM     69  O   UNL A   1      32.220  35.439  30.058  1.00  0.00    -0.237 OA
ATOM     70  O   UNL A   1      33.710  36.384  28.327  1.00  0.00    -0.237 OA
ATOM     71  O   UNL A   1      32.622  34.200  27.961  1.00  0.00    -0.744 OA
ENDBRANCH  67  68
ENDBRANCH  46  60
BRANCH  47  72
ATOM     72  C   UNL A   1      44.111  28.499  35.804  1.00  0.00     0.058 A 
ATOM     73  C   UNL A   1      45.458  28.835  35.601  1.00  0.00     0.135 A 
ATOM     74  C   UNL A   1      43.824  27.468  36.712  1.00  0.00     0.135 A 
ATOM     75  F   UNL A   1      45.783  29.810  34.739  1.00  0.00    -0.206 F 
ATOM     76  C   UNL A   1      46.485  28.154  36.245  1.00  0.00     0.059 A 
ATOM     77  C   UNL A   1      44.833  26.789  37.388  1.00  0.00     0.059 A 
ATOM     78  F   UNL A   1      42.550  27.121  36.955  1.00  0.00    -0.206 F 
ATOM     79  C   UNL A   1      46.162  27.129  37.135  1.00  0.00     0.060 A 
BRANCH  79  80
ATOM     80  S   UNL A   1      47.505  26.259  37.974  1.00  0.00     0.124 S 
ATOM     81  O   UNL A   1      47.836  27.194  39.042  1.00  0.00    -0.237 OA
ATOM     82  O   UNL A   1      46.855  25.019  38.386  1.00  0.00    -0.237 OA
ATOM     83  O   UNL A   1      48.513  26.112  36.928  1.00  0.00    -0.744 OA
ENDBRANCH  79  80
ENDBRANCH  47  72
BRANCH  59  84
ATOM     84  C   UNL A   1      39.936  33.854  37.365  1.00  0.00     0.058 A 
ATOM     85  C   UNL A   1      40.647  35.055  37.489  1.00  0.00     0.135 A 
ATOM     86  C   UNL A   1      39.028  33.515  38.382  1.00  0.00     0.135 A 
ATOM     87  F   UNL A   1      41.531  35.419  36.546  1.00  0.00    -0.206 F 
ATOM     88  C   UNL A   1      40.471  35.890  38.586  1.00  0.00     0.059 A 
ATOM     89  C   UNL A   1      38.817  34.348  39.476  1.00  0.00     0.059 A 
ATOM     90  F   UNL A   1      38.316  32.380  38.302  1.00  0.00    -0.206 F 
ATOM     91  C   UNL A   1      39.548  35.531  39.572  1.00  0.00     0.060 A 
BRANCH  91  92
ATOM     92  S   UNL A   1      39.290  36.654  40.961  1.00  0.00     0.124 S 
ATOM     93  O   UNL A   1      38.557  37.744  40.326  1.00  0.00    -0.237 OA
ATOM     94  O   UNL A   1      38.521  35.829  41.888  1.00  0.00    -0.237 OA
ATOM     95  O   UNL A   1      40.645  36.977  41.394  1.00  0.00    -0.744 OA
ENDBRANCH  91  92
ENDBRANCH  59  84
ENDBRANCH  33  34
ENDBRANCH  25  28
ENDBRANCH   1  24
TORSDOF 14
ENDMDL
