MODEL 1
REMARK VINA RESULT:     -12.9      0.000      0.000
REMARK SMILES CC(C)(C)c1cc(Nc2ccccc2C(=O)NCCCNC(=O)c2ccc(-c3c4nc(c(-c5c(F)cc(S(=O)(=O)[O-])cc5F)c5ccc([nH]5)c(-c5c(F)cc(S(=O)(=O)[O-])cc5F)c5nc(c(-c6c(F)cc(S(=O)(=O)[O-])cc6F)c6ccc3[nH]6)C=C5)C=C4)cc2)cc2c1OCC2(C)C
REMARK SMILES IDX 19 1 18 2 17 3 15 4 16 5 14 7 9 8 10 9 11 10 13 11 12 12
REMARK SMILES IDX 8 13 7 15 5 16 6 17 92 18 91 19 93 20 90 21 95 22 94 23
REMARK SMILES IDX 96 24 97 25 2 26 1 27 3 28 4 29 20 30 21 31 22 32 23 34
REMARK SMILES IDX 24 35 25 36 89 37 26 38 88 39 27 40 28 41 29 42 82 43 30 44
REMARK SMILES IDX 87 45 81 46 83 47 31 48 86 49 80 50 79 51 32 53 66 54 45 55
REMARK SMILES IDX 65 56 46 57 49 58 64 59 84 60 47 61 48 62 63 64 85 65 50 66
REMARK SMILES IDX 33 67 34 68 43 69 35 70 36 71 42 72 44 73 37 74 38 75 39 76
REMARK SMILES IDX 40 77 41 78 67 79 68 80 77 81 69 82 70 83 76 84 78 85 71 86
REMARK SMILES IDX 72 87 73 88 74 89 75 90 51 91 52 92 61 93 53 94 54 95 60 96
REMARK SMILES IDX 62 97 55 98 56 99 57 100 58 101 59 102
REMARK H PARENT 17 6 8 14 21 33 83 52 49 63
REMARK Flexibility Score: inf
ROOT
ATOM      1  C   UNL A   1      32.501  28.822  27.244  1.00  0.00     0.042 C 
ENDROOT
BRANCH   1   2
ATOM      2  C   UNL A   1      32.503  27.342  26.884  1.00  0.00     0.118 C 
BRANCH   2   3
ATOM      3  N   UNL A   1      31.217  26.682  26.918  1.00  0.00    -0.352 N 
ATOM      4  C   UNL A   1      30.601  25.843  26.029  1.00  0.00     0.253 C 
ATOM      5  O   UNL A   1      29.506  25.388  26.377  1.00  0.00    -0.269 OA
ATOM      6  H   UNL A   1      30.688  26.871  27.726  1.00  0.00     0.163 HD
BRANCH   4   7
ATOM      7  C   UNL A   1      31.102  25.484  24.671  1.00  0.00     0.063 A 
ATOM      8  C   UNL A   1      31.303  24.200  24.124  1.00  0.00     0.051 A 
ATOM      9  C   UNL A   1      31.626  24.103  22.751  1.00  0.00     0.027 A 
ATOM     10  C   UNL A   1      31.800  25.227  21.944  1.00  0.00     0.002 A 
ATOM     11  C   UNL A   1      31.280  26.613  23.834  1.00  0.00     0.016 A 
ATOM     12  C   UNL A   1      31.640  26.489  22.492  1.00  0.00     0.001 A 
BRANCH   8  13
ATOM     13  N   UNL A   1      31.308  22.997  24.867  1.00  0.00    -0.355 N 
ATOM     14  H   UNL A   1      30.489  22.777  25.367  1.00  0.00     0.167 HD
BRANCH  13  15
ATOM     15  C   UNL A   1      32.389  22.078  24.961  1.00  0.00     0.039 A 
ATOM     16  C   UNL A   1      34.853  21.715  24.943  1.00  0.00     0.002 A 
ATOM     17  C   UNL A   1      33.715  22.559  25.060  1.00  0.00     0.034 A 
ATOM     18  C   UNL A   1      34.580  20.359  24.770  1.00  0.00     0.127 A 
ATOM     19  C   UNL A   1      33.289  19.856  24.748  1.00  0.00     0.006 A 
ATOM     20  O   UNL A   1      35.515  19.388  24.526  1.00  0.00    -0.492 OA
ATOM     21  C   UNL A   1      32.194  20.698  24.840  1.00  0.00     0.034 A 
ATOM     22  C   UNL A   1      33.301  18.380  24.524  1.00  0.00     0.028 C 
ATOM     23  C   UNL A   1      34.815  18.129  24.628  1.00  0.00     0.240 C 
ATOM     24  C   UNL A   1      32.529  17.627  25.610  1.00  0.00     0.020 C 
ATOM     25  C   UNL A   1      32.758  18.021  23.136  1.00  0.00     0.020 C 
BRANCH  16  26
ATOM     26  C   UNL A   1      36.271  22.307  24.894  1.00  0.00    -0.009 C 
ATOM     27  C   UNL A   1      37.392  21.371  25.405  1.00  0.00     0.016 C 
ATOM     28  C   UNL A   1      36.382  23.605  25.729  1.00  0.00     0.016 C 
ATOM     29  C   UNL A   1      36.584  22.643  23.428  1.00  0.00     0.016 C 
ENDBRANCH  16  26
ENDBRANCH  13  15
ENDBRANCH   8  13
ENDBRANCH   4   7
ENDBRANCH   2   3
ENDBRANCH   1   2
BRANCH   1  30
ATOM     30  C   UNL A   1      33.864  29.500  27.231  1.00  0.00     0.118 C 
BRANCH  30  31
ATOM     31  N   UNL A   1      34.042  30.582  28.191  1.00  0.00    -0.352 N 
ATOM     32  C   UNL A   1      35.111  31.054  28.927  1.00  0.00     0.251 C 
ATOM     33  H   UNL A   1      33.214  31.090  28.352  1.00  0.00     0.163 HD
ATOM     34  O   UNL A   1      34.920  32.026  29.649  1.00  0.00    -0.269 OA
BRANCH  32  35
ATOM     35  C   UNL A   1      36.440  30.383  28.951  1.00  0.00     0.039 A 
ATOM     36  C   UNL A   1      37.044  29.936  30.115  1.00  0.00     0.014 A 
ATOM     37  C   UNL A   1      37.129  30.211  27.738  1.00  0.00     0.014 A 
ATOM     38  C   UNL A   1      38.389  29.589  30.118  1.00  0.00     0.010 A 
ATOM     39  C   UNL A   1      38.454  29.746  27.721  1.00  0.00     0.010 A 
ATOM     40  C   UNL A   1      39.120  29.498  28.924  1.00  0.00    -0.014 A 
BRANCH  40  41
ATOM     41  C   UNL A   1      40.559  29.121  29.006  1.00  0.00     0.031 A 
ATOM     42  C   UNL A   1      41.039  27.762  28.567  1.00  0.00     0.074 A 
ATOM     43  C   UNL A   1      41.452  30.073  29.347  1.00  0.00     0.049 A 
ATOM     44  N   UNL A   1      42.269  27.336  28.420  1.00  0.00    -0.248 NA
ATOM     45  C   UNL A   1      40.020  26.748  28.255  1.00  0.00     0.031 C 
ATOM     46  C   UNL A   1      41.105  31.424  29.796  1.00  0.00     0.029 A 
ATOM     47  N   UNL A   1      42.824  30.083  29.304  1.00  0.00    -0.354 N 
ATOM     48  C   UNL A   1      42.173  26.010  28.017  1.00  0.00     0.074 A 
ATOM     49  C   UNL A   1      40.764  25.688  27.966  1.00  0.00     0.031 C 
ATOM     50  C   UNL A   1      42.220  32.163  29.875  1.00  0.00     0.029 A 
ATOM     51  C   UNL A   1      43.368  31.321  29.560  1.00  0.00     0.049 A 
ATOM     52  H   UNL A   1      43.365  29.284  29.109  1.00  0.00     0.167 HD
ATOM     53  C   UNL A   1      43.169  25.145  27.707  1.00  0.00     0.037 A 
ATOM     54  C   UNL A   1      44.648  31.741  29.538  1.00  0.00     0.037 A 
ATOM     55  C   UNL A   1      44.571  25.480  27.728  1.00  0.00     0.049 A 
ATOM     56  C   UNL A   1      45.732  30.760  29.205  1.00  0.00     0.074 A 
ATOM     57  C   UNL A   1      45.652  24.677  27.406  1.00  0.00     0.029 A 
ATOM     58  N   UNL A   1      45.086  26.717  28.087  1.00  0.00    -0.354 N 
ATOM     59  N   UNL A   1      45.617  29.510  28.826  1.00  0.00    -0.248 NA
ATOM     60  C   UNL A   1      47.117  31.235  29.320  1.00  0.00     0.031 C 
ATOM     61  C   UNL A   1      46.822  25.417  27.606  1.00  0.00     0.029 A 
ATOM     62  C   UNL A   1      46.470  26.692  28.016  1.00  0.00     0.049 A 
ATOM     63  H   UNL A   1      44.549  27.497  28.352  1.00  0.00     0.167 HD
ATOM     64  C   UNL A   1      46.916  29.042  28.672  1.00  0.00     0.074 A 
ATOM     65  C   UNL A   1      47.799  30.153  28.967  1.00  0.00     0.031 C 
ATOM     66  C   UNL A   1      47.335  27.801  28.331  1.00  0.00     0.037 A 
BRANCH  53  67
ATOM     67  C   UNL A   1      42.790  23.741  27.320  1.00  0.00     0.058 A 
ATOM     68  C   UNL A   1      42.703  23.346  25.976  1.00  0.00     0.135 A 
ATOM     69  C   UNL A   1      42.584  22.762  28.306  1.00  0.00     0.135 A 
ATOM     70  F   UNL A   1      42.879  24.243  24.994  1.00  0.00    -0.206 F 
ATOM     71  C   UNL A   1      42.416  22.030  25.624  1.00  0.00     0.059 A 
ATOM     72  C   UNL A   1      42.316  21.436  27.976  1.00  0.00     0.059 A 
ATOM     73  F   UNL A   1      42.657  23.087  29.606  1.00  0.00    -0.206 F 
ATOM     74  C   UNL A   1      42.226  21.082  26.631  1.00  0.00     0.060 A 
BRANCH  74  75
ATOM     75  S   UNL A   1      41.885  19.374  26.152  1.00  0.00     0.124 S 
ATOM     76  O   UNL A   1      42.771  19.210  25.003  1.00  0.00    -0.237 OA
ATOM     77  O   UNL A   1      42.263  18.632  27.352  1.00  0.00    -0.237 OA
ATOM     78  O   UNL A   1      40.457  19.382  25.848  1.00  0.00    -0.744 OA
ENDBRANCH  74  75
ENDBRANCH  53  67
BRANCH  54  79
ATOM     79  C   UNL A   1      44.957  33.161  29.848  1.00  0.00     0.058 A 
ATOM     80  C   UNL A   1      45.272  33.565  31.153  1.00  0.00     0.135 A 
ATOM     81  C   UNL A   1      45.007  34.129  28.832  1.00  0.00     0.135 A 
ATOM     82  F   UNL A   1      45.231  32.678  32.158  1.00  0.00    -0.206 F 
ATOM     83  C   UNL A   1      45.637  34.876  31.439  1.00  0.00     0.059 A 
ATOM     84  C   UNL A   1      45.392  35.439  29.089  1.00  0.00     0.059 A 
ATOM     85  F   UNL A   1      44.726  33.787  27.565  1.00  0.00    -0.206 F 
ATOM     86  C   UNL A   1      45.703  35.804  30.398  1.00  0.00     0.060 A 
BRANCH  86  87
ATOM     87  S   UNL A   1      46.266  37.482  30.761  1.00  0.00     0.124 S 
ATOM     88  O   UNL A   1      45.475  38.265  29.819  1.00  0.00    -0.237 OA
ATOM     89  O   UNL A   1      45.913  37.628  32.170  1.00  0.00    -0.237 OA
ATOM     90  O   UNL A   1      47.699  37.420  30.487  1.00  0.00    -0.744 OA
ENDBRANCH  86  87
ENDBRANCH  54  79
BRANCH  66  91
ATOM     91  C   UNL A   1      48.816  27.564  28.278  1.00  0.00     0.058 A 
ATOM     92  C   UNL A   1      49.526  27.172  29.423  1.00  0.00     0.135 A 
ATOM     93  C   UNL A   1      49.517  27.655  27.065  1.00  0.00     0.135 A 
ATOM     94  F   UNL A   1      48.902  27.081  30.607  1.00  0.00    -0.206 F 
ATOM     95  C   UNL A   1      50.885  26.880  29.368  1.00  0.00     0.059 A 
ATOM     96  C   UNL A   1      50.872  27.349  26.984  1.00  0.00     0.059 A 
ATOM     97  F   UNL A   1      48.879  28.021  25.942  1.00  0.00    -0.206 F 
ATOM     98  C   UNL A   1      51.548  26.965  28.142  1.00  0.00     0.060 A 
BRANCH  98  99
ATOM     99  S   UNL A   1      53.298  26.526  28.076  1.00  0.00     0.124 S 
ATOM    100  O   UNL A   1      53.914  27.817  27.785  1.00  0.00    -0.237 OA
ATOM    101  O   UNL A   1      53.538  25.997  29.415  1.00  0.00    -0.237 OA
ATOM    102  O   UNL A   1      53.360  25.543  26.999  1.00  0.00    -0.744 OA
ENDBRANCH  98  99
ENDBRANCH  66  91
ENDBRANCH  40  41
ENDBRANCH  32  35
ENDBRANCH  30  31
ENDBRANCH   1  30
TORSDOF 16
ENDMDL
MODEL 2
REMARK VINA RESULT:     -12.9      5.944     10.845
REMARK SMILES CC(C)(C)c1cc(Nc2ccccc2C(=O)NCCCNC(=O)c2ccc(-c3c4nc(c(-c5c(F)cc(S(=O)(=O)[O-])cc5F)c5ccc([nH]5)c(-c5c(F)cc(S(=O)(=O)[O-])cc5F)c5nc(c(-c6c(F)cc(S(=O)(=O)[O-])cc6F)c6ccc3[nH]6)C=C5)C=C4)cc2)cc2c1OCC2(C)C
REMARK SMILES IDX 19 1 18 2 17 3 15 4 16 5 14 7 9 8 10 9 11 10 13 11 12 12
REMARK SMILES IDX 8 13 7 15 5 16 6 17 92 18 91 19 93 20 90 21 95 22 94 23
REMARK SMILES IDX 96 24 97 25 2 26 1 27 3 28 4 29 20 30 21 31 22 32 23 34
REMARK SMILES IDX 24 35 25 36 89 37 26 38 88 39 27 40 28 41 29 42 82 43 30 44
REMARK SMILES IDX 87 45 81 46 83 47 31 48 86 49 80 50 79 51 32 53 66 54 45 55
REMARK SMILES IDX 65 56 46 57 49 58 64 59 84 60 47 61 48 62 63 64 85 65 50 66
REMARK SMILES IDX 33 67 34 68 43 69 35 70 36 71 42 72 44 73 37 74 38 75 39 76
REMARK SMILES IDX 40 77 41 78 67 79 68 80 77 81 69 82 70 83 76 84 78 85 71 86
REMARK SMILES IDX 72 87 73 88 74 89 75 90 51 91 52 92 61 93 53 94 54 95 60 96
REMARK SMILES IDX 62 97 55 98 56 99 57 100 58 101 59 102
REMARK H PARENT 17 6 8 14 21 33 83 52 49 63
REMARK Flexibility Score: inf
ROOT
ATOM      1  C   UNL A   1      37.511  23.034  25.623  1.00  0.00     0.042 C 
ENDROOT
BRANCH   1   2
ATOM      2  C   UNL A   1      36.045  23.350  25.351  1.00  0.00     0.118 C 
BRANCH   2   3
ATOM      3  N   UNL A   1      35.635  23.301  23.966  1.00  0.00    -0.352 N 
ATOM      4  C   UNL A   1      34.402  23.390  23.378  1.00  0.00     0.253 C 
ATOM      5  O   UNL A   1      34.384  23.370  22.142  1.00  0.00    -0.269 OA
ATOM      6  H   UNL A   1      36.377  23.180  23.330  1.00  0.00     0.163 HD
BRANCH   4   7
ATOM      7  C   UNL A   1      33.093  23.445  24.091  1.00  0.00     0.063 A 
ATOM      8  C   UNL A   1      31.995  24.294  23.839  1.00  0.00     0.051 A 
ATOM      9  C   UNL A   1      30.791  24.049  24.537  1.00  0.00     0.027 A 
ATOM     10  C   UNL A   1      30.672  23.041  25.492  1.00  0.00     0.002 A 
ATOM     11  C   UNL A   1      32.952  22.424  25.063  1.00  0.00     0.016 A 
ATOM     12  C   UNL A   1      31.763  22.233  25.767  1.00  0.00     0.001 A 
BRANCH   8  13
ATOM     13  N   UNL A   1      32.034  25.441  23.014  1.00  0.00    -0.355 N 
ATOM     14  H   UNL A   1      32.263  25.302  22.066  1.00  0.00     0.167 HD
BRANCH  13  15
ATOM     15  C   UNL A   1      31.775  26.776  23.427  1.00  0.00     0.039 A 
ATOM     16  C   UNL A   1      32.037  28.527  25.179  1.00  0.00     0.002 A 
ATOM     17  C   UNL A   1      32.404  27.288  24.586  1.00  0.00     0.034 A 
ATOM     18  C   UNL A   1      31.039  29.239  24.516  1.00  0.00     0.127 A 
ATOM     19  C   UNL A   1      30.465  28.793  23.336  1.00  0.00     0.006 A 
ATOM     20  O   UNL A   1      30.458  30.395  24.967  1.00  0.00    -0.492 OA
ATOM     21  C   UNL A   1      30.819  27.573  22.788  1.00  0.00     0.034 A 
ATOM     22  C   UNL A   1      29.413  29.743  22.868  1.00  0.00     0.028 C 
ATOM     23  C   UNL A   1      29.646  30.882  23.876  1.00  0.00     0.240 C 
ATOM     24  C   UNL A   1      29.654  30.206  21.429  1.00  0.00     0.020 C 
ATOM     25  C   UNL A   1      28.011  29.138  23.008  1.00  0.00     0.020 C 
BRANCH  16  26
ATOM     26  C   UNL A   1      32.635  28.963  26.526  1.00  0.00    -0.009 C 
ATOM     27  C   UNL A   1      32.640  30.489  26.782  1.00  0.00     0.016 C 
ATOM     28  C   UNL A   1      34.103  28.497  26.682  1.00  0.00     0.016 C 
ATOM     29  C   UNL A   1      31.798  28.312  27.639  1.00  0.00     0.016 C 
ENDBRANCH  16  26
ENDBRANCH  13  15
ENDBRANCH   8  13
ENDBRANCH   4   7
ENDBRANCH   2   3
ENDBRANCH   1   2
BRANCH   1  30
ATOM     30  C   UNL A   1      38.269  24.088  26.419  1.00  0.00     0.118 C 
BRANCH  30  31
ATOM     31  N   UNL A   1      39.460  24.630  25.776  1.00  0.00    -0.352 N 
ATOM     32  C   UNL A   1      40.485  25.460  26.185  1.00  0.00     0.251 C 
ATOM     33  H   UNL A   1      39.555  24.339  24.840  1.00  0.00     0.163 HD
ATOM     34  O   UNL A   1      41.371  25.711  25.376  1.00  0.00    -0.269 OA
BRANCH  32  35
ATOM     35  C   UNL A   1      40.507  26.129  27.515  1.00  0.00     0.039 A 
ATOM     36  C   UNL A   1      39.645  25.794  28.548  1.00  0.00     0.014 A 
ATOM     37  C   UNL A   1      41.432  27.165  27.732  1.00  0.00     0.014 A 
ATOM     38  C   UNL A   1      39.511  26.632  29.648  1.00  0.00     0.010 A 
ATOM     39  C   UNL A   1      41.380  27.944  28.899  1.00  0.00     0.010 A 
ATOM     40  C   UNL A   1      40.369  27.726  29.839  1.00  0.00    -0.014 A 
BRANCH  40  41
ATOM     41  C   UNL A   1      40.164  28.580  31.041  1.00  0.00     0.031 A 
ATOM     42  C   UNL A   1      41.129  28.547  32.199  1.00  0.00     0.074 A 
ATOM     43  C   UNL A   1      39.173  29.496  31.017  1.00  0.00     0.049 A 
ATOM     44  N   UNL A   1      41.185  29.341  33.240  1.00  0.00    -0.248 NA
ATOM     45  C   UNL A   1      42.157  27.496  32.198  1.00  0.00     0.031 C 
ATOM     46  C   UNL A   1      38.174  29.618  29.952  1.00  0.00     0.029 A 
ATOM     47  N   UNL A   1      38.881  30.536  31.862  1.00  0.00    -0.354 N 
ATOM     48  C   UNL A   1      42.238  28.878  34.021  1.00  0.00     0.074 A 
ATOM     49  C   UNL A   1      42.780  27.717  33.349  1.00  0.00     0.031 C 
ATOM     50  C   UNL A   1      37.457  30.734  30.145  1.00  0.00     0.029 A 
ATOM     51  C   UNL A   1      37.891  31.364  31.387  1.00  0.00     0.049 A 
ATOM     52  H   UNL A   1      39.337  30.676  32.725  1.00  0.00     0.167 HD
ATOM     53  C   UNL A   1      42.715  29.383  35.184  1.00  0.00     0.037 A 
ATOM     54  C   UNL A   1      37.387  32.510  31.885  1.00  0.00     0.037 A 
ATOM     55  C   UNL A   1      42.192  30.559  35.833  1.00  0.00     0.049 A 
ATOM     56  C   UNL A   1      37.923  33.040  33.182  1.00  0.00     0.074 A 
ATOM     57  C   UNL A   1      42.626  31.161  37.002  1.00  0.00     0.029 A 
ATOM     58  N   UNL A   1      41.124  31.314  35.369  1.00  0.00    -0.354 N 
ATOM     59  N   UNL A   1      38.920  32.586  33.902  1.00  0.00    -0.248 NA
ATOM     60  C   UNL A   1      37.254  34.218  33.746  1.00  0.00     0.031 C 
ATOM     61  C   UNL A   1      41.798  32.257  37.264  1.00  0.00     0.029 A 
ATOM     62  C   UNL A   1      40.871  32.361  36.240  1.00  0.00     0.049 A 
ATOM     63  H   UNL A   1      40.622  31.132  34.543  1.00  0.00     0.167 HD
ATOM     64  C   UNL A   1      38.989  33.414  35.015  1.00  0.00     0.074 A 
ATOM     65  C   UNL A   1      37.954  34.416  34.856  1.00  0.00     0.031 C 
ATOM     66  C   UNL A   1      39.826  33.340  36.077  1.00  0.00     0.037 A 
BRANCH  53  67
ATOM     67  C   UNL A   1      43.861  28.669  35.846  1.00  0.00     0.058 A 
ATOM     68  C   UNL A   1      45.192  29.066  35.644  1.00  0.00     0.135 A 
ATOM     69  C   UNL A   1      43.621  27.622  36.751  1.00  0.00     0.135 A 
ATOM     70  F   UNL A   1      45.481  30.053  34.782  1.00  0.00    -0.206 F 
ATOM     71  C   UNL A   1      46.245  28.444  36.309  1.00  0.00     0.059 A 
ATOM     72  C   UNL A   1      44.656  26.998  37.443  1.00  0.00     0.059 A 
ATOM     73  F   UNL A   1      42.366  27.203  36.982  1.00  0.00    -0.206 F 
ATOM     74  C   UNL A   1      45.967  27.413  37.208  1.00  0.00     0.060 A 
BRANCH  74  75
ATOM     75  S   UNL A   1      47.344  26.639  38.085  1.00  0.00     0.124 S 
ATOM     76  O   UNL A   1      47.828  27.747  38.903  1.00  0.00    -0.237 OA
ATOM     77  O   UNL A   1      46.684  25.559  38.812  1.00  0.00    -0.237 OA
ATOM     78  O   UNL A   1      48.237  26.215  37.011  1.00  0.00    -0.744 OA
ENDBRANCH  74  75
ENDBRANCH  53  67
BRANCH  54  79
ATOM     79  C   UNL A   1      36.311  33.219  31.145  1.00  0.00     0.058 A 
ATOM     80  C   UNL A   1      34.999  33.257  31.636  1.00  0.00     0.135 A 
ATOM     81  C   UNL A   1      36.590  33.926  29.965  1.00  0.00     0.135 A 
ATOM     82  F   UNL A   1      34.682  32.590  32.757  1.00  0.00    -0.206 F 
ATOM     83  C   UNL A   1      34.002  33.981  30.991  1.00  0.00     0.059 A 
ATOM     84  C   UNL A   1      35.617  34.677  29.316  1.00  0.00     0.059 A 
ATOM     85  F   UNL A   1      37.834  33.931  29.462  1.00  0.00    -0.206 F 
ATOM     86  C   UNL A   1      34.324  34.696  29.836  1.00  0.00     0.060 A 
BRANCH  86  87
ATOM     87  S   UNL A   1      33.048  35.709  29.054  1.00  0.00     0.124 S 
ATOM     88  O   UNL A   1      33.850  36.745  28.415  1.00  0.00    -0.237 OA
ATOM     89  O   UNL A   1      32.403  34.754  28.157  1.00  0.00    -0.237 OA
ATOM     90  O   UNL A   1      32.231  36.146  30.182  1.00  0.00    -0.744 OA
ENDBRANCH  86  87
ENDBRANCH  54  79
BRANCH  66  91
ATOM     91  C   UNL A   1      39.646  34.355  37.167  1.00  0.00     0.058 A 
ATOM     92  C   UNL A   1      38.905  34.055  38.320  1.00  0.00     0.135 A 
ATOM     93  C   UNL A   1      40.280  35.606  37.096  1.00  0.00     0.135 A 
ATOM     94  F   UNL A   1      38.273  32.876  38.428  1.00  0.00    -0.206 F 
ATOM     95  C   UNL A   1      38.795  34.963  39.367  1.00  0.00     0.059 A 
ATOM     96  C   UNL A   1      40.198  36.521  38.140  1.00  0.00     0.059 A 
ATOM     97  F   UNL A   1      41.004  35.936  36.015  1.00  0.00    -0.206 F 
ATOM     98  C   UNL A   1      39.451  36.192  39.271  1.00  0.00     0.060 A 
BRANCH  98  99
ATOM     99  S   UNL A   1      39.347  37.336  40.664  1.00  0.00     0.124 S 
ATOM    100  O   UNL A   1      38.390  38.320  40.165  1.00  0.00    -0.237 OA
ATOM    101  O   UNL A   1      38.866  36.475  41.739  1.00  0.00    -0.237 OA
ATOM    102  O   UNL A   1      40.717  37.813  40.814  1.00  0.00    -0.744 OA
ENDBRANCH  98  99
ENDBRANCH  66  91
ENDBRANCH  40  41
ENDBRANCH  32  35
ENDBRANCH  30  31
ENDBRANCH   1  30
TORSDOF 16
ENDMDL
MODEL 3
REMARK VINA RESULT:     -12.8      1.586      2.649
REMARK SMILES CC(C)(C)c1cc(Nc2ccccc2C(=O)NCCCNC(=O)c2ccc(-c3c4nc(c(-c5c(F)cc(S(=O)(=O)[O-])cc5F)c5ccc([nH]5)c(-c5c(F)cc(S(=O)(=O)[O-])cc5F)c5nc(c(-c6c(F)cc(S(=O)(=O)[O-])cc6F)c6ccc3[nH]6)C=C5)C=C4)cc2)cc2c1OCC2(C)C
REMARK SMILES IDX 19 1 18 2 17 3 15 4 16 5 14 7 9 8 10 9 11 10 13 11 12 12
REMARK SMILES IDX 8 13 7 15 5 16 6 17 92 18 91 19 93 20 90 21 95 22 94 23
REMARK SMILES IDX 96 24 97 25 2 26 1 27 3 28 4 29 20 30 21 31 22 32 23 34
REMARK SMILES IDX 24 35 25 36 89 37 26 38 88 39 27 40 28 41 29 42 82 43 30 44
REMARK SMILES IDX 87 45 81 46 83 47 31 48 86 49 80 50 79 51 32 53 66 54 45 55
REMARK SMILES IDX 65 56 46 57 49 58 64 59 84 60 47 61 48 62 63 64 85 65 50 66
REMARK SMILES IDX 33 67 34 68 43 69 35 70 36 71 42 72 44 73 37 74 38 75 39 76
REMARK SMILES IDX 40 77 41 78 67 79 68 80 77 81 69 82 70 83 76 84 78 85 71 86
REMARK SMILES IDX 72 87 73 88 74 89 75 90 51 91 52 92 61 93 53 94 54 95 60 96
REMARK SMILES IDX 62 97 55 98 56 99 57 100 58 101 59 102
REMARK H PARENT 17 6 8 14 21 33 83 52 49 63
REMARK Flexibility Score: inf
ROOT
ATOM      1  C   UNL A   1      33.976  28.122  25.858  1.00  0.00     0.042 C 
ENDROOT
BRANCH   1   2
ATOM      2  C   UNL A   1      33.595  28.707  24.504  1.00  0.00     0.118 C 
BRANCH   2   3
ATOM      3  N   UNL A   1      33.973  27.924  23.349  1.00  0.00    -0.352 N 
ATOM      4  C   UNL A   1      33.301  26.967  22.639  1.00  0.00     0.253 C 
ATOM      5  O   UNL A   1      33.883  26.514  21.646  1.00  0.00    -0.269 OA
ATOM      6  H   UNL A   1      34.879  28.114  23.013  1.00  0.00     0.163 HD
BRANCH   4   7
ATOM      7  C   UNL A   1      31.973  26.386  22.990  1.00  0.00     0.063 A 
ATOM      8  C   UNL A   1      31.576  25.032  22.964  1.00  0.00     0.051 A 
ATOM      9  C   UNL A   1      30.313  24.698  23.504  1.00  0.00     0.027 A 
ATOM     10  C   UNL A   1      29.438  25.660  24.007  1.00  0.00     0.002 A 
ATOM     11  C   UNL A   1      31.071  27.347  23.508  1.00  0.00     0.016 A 
ATOM     12  C   UNL A   1      29.813  26.993  23.995  1.00  0.00     0.001 A 
BRANCH   8  13
ATOM     13  N   UNL A   1      32.303  23.990  22.345  1.00  0.00    -0.355 N 
ATOM     14  H   UNL A   1      32.181  23.875  21.374  1.00  0.00     0.167 HD
BRANCH  13  15
ATOM     15  C   UNL A   1      33.193  23.092  22.995  1.00  0.00     0.039 A 
ATOM     16  C   UNL A   1      33.584  20.810  23.912  1.00  0.00     0.002 A 
ATOM     17  C   UNL A   1      32.857  21.722  23.100  1.00  0.00     0.034 A 
ATOM     18  C   UNL A   1      34.691  21.341  24.571  1.00  0.00     0.127 A 
ATOM     19  C   UNL A   1      35.084  22.662  24.420  1.00  0.00     0.006 A 
ATOM     20  O   UNL A   1      35.464  20.676  25.485  1.00  0.00    -0.492 OA
ATOM     21  C   UNL A   1      34.348  23.540  23.643  1.00  0.00     0.034 A 
ATOM     22  C   UNL A   1      36.283  22.956  25.260  1.00  0.00     0.028 C 
ATOM     23  C   UNL A   1      36.602  21.529  25.739  1.00  0.00     0.240 C 
ATOM     24  C   UNL A   1      37.432  23.544  24.437  1.00  0.00     0.020 C 
ATOM     25  C   UNL A   1      35.932  23.884  26.428  1.00  0.00     0.020 C 
BRANCH  16  26
ATOM     26  C   UNL A   1      33.084  19.371  24.123  1.00  0.00    -0.009 C 
ATOM     27  C   UNL A   1      34.193  18.297  24.225  1.00  0.00     0.016 C 
ATOM     28  C   UNL A   1      32.148  18.914  22.979  1.00  0.00     0.016 C 
ATOM     29  C   UNL A   1      32.292  19.342  25.440  1.00  0.00     0.016 C 
ENDBRANCH  16  26
ENDBRANCH  13  15
ENDBRANCH   8  13
ENDBRANCH   4   7
ENDBRANCH   2   3
ENDBRANCH   1   2
BRANCH   1  30
ATOM     30  C   UNL A   1      33.103  28.558  27.027  1.00  0.00     0.118 C 
BRANCH  30  31
ATOM     31  N   UNL A   1      33.306  29.924  27.493  1.00  0.00    -0.352 N 
ATOM     32  C   UNL A   1      34.396  30.634  27.957  1.00  0.00     0.251 C 
ATOM     33  H   UNL A   1      32.481  30.462  27.472  1.00  0.00     0.163 HD
ATOM     34  O   UNL A   1      34.223  31.811  28.256  1.00  0.00    -0.269 OA
BRANCH  32  35
ATOM     35  C   UNL A   1      35.728  30.014  28.195  1.00  0.00     0.039 A 
ATOM     36  C   UNL A   1      36.096  29.447  29.405  1.00  0.00     0.014 A 
ATOM     37  C   UNL A   1      36.669  30.018  27.151  1.00  0.00     0.014 A 
ATOM     38  C   UNL A   1      37.429  29.152  29.663  1.00  0.00     0.010 A 
ATOM     39  C   UNL A   1      37.993  29.606  27.372  1.00  0.00     0.010 A 
ATOM     40  C   UNL A   1      38.402  29.235  28.656  1.00  0.00    -0.014 A 
BRANCH  40  41
ATOM     41  C   UNL A   1      39.811  28.903  29.007  1.00  0.00     0.031 A 
ATOM     42  C   UNL A   1      40.426  27.585  28.614  1.00  0.00     0.074 A 
ATOM     43  C   UNL A   1      40.577  29.865  29.562  1.00  0.00     0.049 A 
ATOM     44  N   UNL A   1      41.679  27.209  28.697  1.00  0.00    -0.248 NA
ATOM     45  C   UNL A   1      39.534  26.555  28.060  1.00  0.00     0.031 C 
ATOM     46  C   UNL A   1      40.089  31.178  29.992  1.00  0.00     0.029 A 
ATOM     47  N   UNL A   1      41.928  29.924  29.795  1.00  0.00    -0.354 N 
ATOM     48  C   UNL A   1      41.722  25.903  28.225  1.00  0.00     0.074 A 
ATOM     49  C   UNL A   1      40.366  25.537  27.879  1.00  0.00     0.031 C 
ATOM     50  C   UNL A   1      41.134  31.949  30.325  1.00  0.00     0.029 A 
ATOM     51  C   UNL A   1      42.357  31.164  30.209  1.00  0.00     0.049 A 
ATOM     52  H   UNL A   1      42.531  29.153  29.677  1.00  0.00     0.167 HD
ATOM     53  C   UNL A   1      42.796  25.089  28.083  1.00  0.00     0.037 A 
ATOM     54  C   UNL A   1      43.596  31.627  30.463  1.00  0.00     0.037 A 
ATOM     55  C   UNL A   1      44.150  25.469  28.399  1.00  0.00     0.049 A 
ATOM     56  C   UNL A   1      44.766  30.701  30.310  1.00  0.00     0.074 A 
ATOM     57  C   UNL A   1      45.307  24.721  28.265  1.00  0.00     0.029 A 
ATOM     58  N   UNL A   1      44.530  26.702  28.908  1.00  0.00    -0.354 N 
ATOM     59  N   UNL A   1      44.783  29.470  29.861  1.00  0.00    -0.248 NA
ATOM     60  C   UNL A   1      46.078  31.215  30.722  1.00  0.00     0.031 C 
ATOM     61  C   UNL A   1      46.381  25.487  28.727  1.00  0.00     0.029 A 
ATOM     62  C   UNL A   1      45.900  26.727  29.115  1.00  0.00     0.049 A 
ATOM     63  H   UNL A   1      43.917  27.449  29.095  1.00  0.00     0.167 HD
ATOM     64  C   UNL A   1      46.105  29.054  29.950  1.00  0.00     0.074 A 
ATOM     65  C   UNL A   1      46.863  30.176  30.465  1.00  0.00     0.031 C 
ATOM     66  C   UNL A   1      46.637  27.846  29.645  1.00  0.00     0.037 A 
BRANCH  53  67
ATOM     67  C   UNL A   1      42.562  23.695  27.566  1.00  0.00     0.058 A 
ATOM     68  C   UNL A   1      42.573  23.408  26.193  1.00  0.00     0.135 A 
ATOM     69  C   UNL A   1      42.399  22.623  28.459  1.00  0.00     0.135 A 
ATOM     70  F   UNL A   1      42.714  24.395  25.295  1.00  0.00    -0.206 F 
ATOM     71  C   UNL A   1      42.421  22.106  25.722  1.00  0.00     0.059 A 
ATOM     72  C   UNL A   1      42.265  21.311  28.012  1.00  0.00     0.059 A 
ATOM     73  F   UNL A   1      42.381  22.843  29.783  1.00  0.00    -0.206 F 
ATOM     74  C   UNL A   1      42.270  21.065  26.639  1.00  0.00     0.060 A 
BRANCH  74  75
ATOM     75  S   UNL A   1      42.106  19.380  26.010  1.00  0.00     0.124 S 
ATOM     76  O   UNL A   1      42.960  19.426  24.826  1.00  0.00    -0.237 OA
ATOM     77  O   UNL A   1      42.611  18.580  27.122  1.00  0.00    -0.237 OA
ATOM     78  O   UNL A   1      40.675  19.251  25.747  1.00  0.00    -0.744 OA
ENDBRANCH  74  75
ENDBRANCH  53  67
BRANCH  54  79
ATOM     79  C   UNL A   1      43.776  33.038  30.890  1.00  0.00     0.058 A 
ATOM     80  C   UNL A   1      43.798  33.386  32.248  1.00  0.00     0.135 A 
ATOM     81  C   UNL A   1      43.995  34.057  29.949  1.00  0.00     0.135 A 
ATOM     82  F   UNL A   1      43.587  32.448  33.184  1.00  0.00    -0.206 F 
ATOM     83  C   UNL A   1      44.042  34.692  32.660  1.00  0.00     0.059 A 
ATOM     84  C   UNL A   1      44.264  35.364  30.337  1.00  0.00     0.059 A 
ATOM     85  F   UNL A   1      43.996  33.772  28.638  1.00  0.00    -0.206 F 
ATOM     86  C   UNL A   1      44.283  35.672  31.696  1.00  0.00     0.060 A 
BRANCH  86  87
ATOM     87  S   UNL A   1      44.690  37.346  32.240  1.00  0.00     0.124 S 
ATOM     88  O   UNL A   1      44.011  38.153  31.233  1.00  0.00    -0.237 OA
ATOM     89  O   UNL A   1      44.117  37.383  33.582  1.00  0.00    -0.237 OA
ATOM     90  O   UNL A   1      46.149  37.369  32.190  1.00  0.00    -0.744 OA
ENDBRANCH  86  87
ENDBRANCH  54  79
BRANCH  66  91
ATOM     91  C   UNL A   1      48.107  27.663  29.880  1.00  0.00     0.058 A 
ATOM     92  C   UNL A   1      49.045  28.001  28.892  1.00  0.00     0.135 A 
ATOM     93  C   UNL A   1      48.588  27.220  31.122  1.00  0.00     0.135 A 
ATOM     94  F   UNL A   1      48.633  28.419  27.686  1.00  0.00    -0.206 F 
ATOM     95  C   UNL A   1      50.412  27.903  29.127  1.00  0.00     0.059 A 
ATOM     96  C   UNL A   1      49.952  27.133  31.385  1.00  0.00     0.059 A 
ATOM     97  F   UNL A   1      47.729  26.890  32.100  1.00  0.00    -0.206 F 
ATOM     98  C   UNL A   1      50.856  27.474  30.379  1.00  0.00     0.060 A 
BRANCH  98  99
ATOM     99  S   UNL A   1      52.634  27.409  30.689  1.00  0.00     0.124 S 
ATOM    100  O   UNL A   1      53.032  28.784  30.402  1.00  0.00    -0.237 OA
ATOM    101  O   UNL A   1      52.692  27.013  32.092  1.00  0.00    -0.237 OA
ATOM    102  O   UNL A   1      53.107  26.407  29.740  1.00  0.00    -0.744 OA
ENDBRANCH  98  99
ENDBRANCH  66  91
ENDBRANCH  40  41
ENDBRANCH  32  35
ENDBRANCH  30  31
ENDBRANCH   1  30
TORSDOF 16
ENDMDL
