MODEL 1
REMARK VINA RESULT:      -9.1      0.000      0.000
REMARK SMILES C=CC[N@H+](CC(=O)NCCCNC(=O)c1ccc(-c2c3nc(c(-c4c(F)cc(S(=O)(=O)[O-])cc4F)c4ccc([nH]4)c(-c4c(F)cc(S(=O)(=O)[O-])cc4F)c4nc(c(-c5c(F)cc(S(=O)(=O)[O-])cc5F)c5ccc2[nH]5)C=C4)C=C3)cc1)[C@H](C)c1ccc(F)cc1O
REMARK SMILES IDX 9 1 8 2 6 3 7 4 5 6 4 7 3 9 2 10 1 11 81 12 82 13 83 14
REMARK SMILES IDX 84 15 89 16 85 17 88 18 86 19 87 20 90 21 10 23 11 24 12 25
REMARK SMILES IDX 13 26 14 28 15 29 16 30 80 31 17 32 79 33 18 34 19 35 20 36
REMARK SMILES IDX 73 37 21 38 78 39 72 40 74 41 22 42 77 43 71 44 70 45 23 47
REMARK SMILES IDX 57 48 36 49 56 50 37 51 40 52 55 53 75 54 38 55 39 56 54 58
REMARK SMILES IDX 76 59 41 60 24 61 25 62 34 63 26 64 27 65 33 66 35 67 28 68
REMARK SMILES IDX 29 69 30 70 31 71 32 72 58 73 59 74 68 75 60 76 61 77 67 78
REMARK SMILES IDX 69 79 62 80 63 81 64 82 65 83 66 84 42 85 43 86 52 87 44 88
REMARK SMILES IDX 45 89 51 90 53 91 46 92 47 93 48 94 49 95 50 96
REMARK H PARENT 8 5 4 8 90 22 12 27 74 46 40 57
REMARK Flexibility Score: inf
ROOT
ATOM      1  C   UNL A   1      34.859  32.425  30.708  1.00  0.00     0.118 C 
ENDROOT
BRANCH   1   2
ATOM      2  N   UNL A   1      34.469  32.947  32.016  1.00  0.00    -0.351 N 
ATOM      3  C   UNL A   1      35.062  33.860  32.853  1.00  0.00     0.275 C 
ATOM      4  O   UNL A   1      34.486  34.120  33.913  1.00  0.00    -0.269 OA
ATOM      5  H   UNL A   1      33.625  32.575  32.360  1.00  0.00     0.163 HD
BRANCH   3   6
ATOM      6  C   UNL A   1      36.388  34.552  32.479  1.00  0.00     0.364 C 
BRANCH   6   7
ATOM      7  N   UNL A   1      37.564  33.615  32.410  1.00  0.00    -0.318 N 
ATOM      8  H   UNL A   1      37.333  32.733  31.953  1.00  0.00     0.349 HD
BRANCH   7   9
ATOM      9  C   UNL A   1      38.594  34.252  31.581  1.00  0.00     0.291 C 
BRANCH   9  10
ATOM     10  C   UNL A   1      38.429  34.525  30.119  1.00  0.00     0.025 C 
ATOM     11  C   UNL A   1      38.026  33.626  29.210  1.00  0.00     0.010 C 
ENDBRANCH   9  10
ENDBRANCH   7   9
BRANCH   7  12
ATOM     12  C   UNL A   1      37.983  33.185  33.782  1.00  0.00     0.216 C 
ATOM     13  C   UNL A   1      38.721  34.261  34.601  1.00  0.00     0.081 C 
BRANCH  12  14
ATOM     14  C   UNL A   1      38.673  31.817  33.765  1.00  0.00     0.051 A 
ATOM     15  C   UNL A   1      40.043  31.664  34.059  1.00  0.00     0.017 A 
ATOM     16  C   UNL A   1      37.968  30.676  33.325  1.00  0.00     0.127 A 
ATOM     17  C   UNL A   1      40.689  30.443  33.842  1.00  0.00     0.040 A 
ATOM     18  C   UNL A   1      38.603  29.453  33.129  1.00  0.00     0.085 A 
ATOM     19  C   UNL A   1      39.966  29.357  33.365  1.00  0.00     0.126 A 
ATOM     20  F   UNL A   1      40.605  28.210  33.103  1.00  0.00    -0.207 F 
BRANCH  16  21
ATOM     21  O   UNL A   1      36.649  30.751  32.967  1.00  0.00    -0.507 OA
ATOM     22  H   UNL A   1      36.246  31.587  32.840  1.00  0.00     0.293 HD
ENDBRANCH  16  21
ENDBRANCH  12  14
ENDBRANCH   7  12
ENDBRANCH   6   7
ENDBRANCH   3   6
ENDBRANCH   1   2
BRANCH   1  23
ATOM     23  C   UNL A   1      34.299  33.229  29.526  1.00  0.00     0.042 C 
BRANCH  23  24
ATOM     24  C   UNL A   1      34.584  32.633  28.156  1.00  0.00     0.118 C 
BRANCH  24  25
ATOM     25  N   UNL A   1      33.955  31.334  28.010  1.00  0.00    -0.352 N 
ATOM     26  C   UNL A   1      34.519  30.086  27.885  1.00  0.00     0.251 C 
ATOM     27  H   UNL A   1      32.970  31.349  27.999  1.00  0.00     0.163 HD
ATOM     28  O   UNL A   1      33.813  29.170  27.467  1.00  0.00    -0.269 OA
BRANCH  26  29
ATOM     29  C   UNL A   1      35.940  29.822  28.234  1.00  0.00     0.039 A 
ATOM     30  C   UNL A   1      36.913  29.989  27.241  1.00  0.00     0.014 A 
ATOM     31  C   UNL A   1      36.324  29.327  29.483  1.00  0.00     0.014 A 
ATOM     32  C   UNL A   1      38.255  29.683  27.505  1.00  0.00     0.010 A 
ATOM     33  C   UNL A   1      37.672  29.106  29.774  1.00  0.00     0.010 A 
ATOM     34  C   UNL A   1      38.651  29.251  28.781  1.00  0.00    -0.014 A 
BRANCH  34  35
ATOM     35  C   UNL A   1      40.068  28.892  29.070  1.00  0.00     0.031 A 
ATOM     36  C   UNL A   1      40.970  29.872  29.780  1.00  0.00     0.074 A 
ATOM     37  C   UNL A   1      40.560  27.703  28.672  1.00  0.00     0.049 A 
ATOM     38  N   UNL A   1      42.237  29.760  30.090  1.00  0.00    -0.248 NA
ATOM     39  C   UNL A   1      40.372  31.159  30.171  1.00  0.00     0.031 C 
ATOM     40  C   UNL A   1      39.808  26.676  27.950  1.00  0.00     0.029 A 
ATOM     41  N   UNL A   1      41.811  27.156  28.819  1.00  0.00    -0.354 N 
ATOM     42  C   UNL A   1      42.590  30.962  30.694  1.00  0.00     0.074 A 
ATOM     43  C   UNL A   1      41.419  31.811  30.651  1.00  0.00     0.031 C 
ATOM     44  C   UNL A   1      40.600  25.610  27.750  1.00  0.00     0.029 A 
ATOM     45  C   UNL A   1      41.926  25.889  28.295  1.00  0.00     0.049 A 
ATOM     46  H   UNL A   1      42.556  27.626  29.259  1.00  0.00     0.167 HD
ATOM     47  C   UNL A   1      43.770  31.321  31.257  1.00  0.00     0.037 A 
ATOM     48  C   UNL A   1      42.976  25.047  28.261  1.00  0.00     0.037 A 
ATOM     49  C   UNL A   1      44.928  30.468  31.319  1.00  0.00     0.049 A 
ATOM     50  C   UNL A   1      44.281  25.466  28.880  1.00  0.00     0.074 A 
ATOM     51  C   UNL A   1      46.155  30.720  31.906  1.00  0.00     0.029 A 
ATOM     52  N   UNL A   1      45.002  29.194  30.774  1.00  0.00    -0.354 N 
ATOM     53  N   UNL A   1      44.582  26.589  29.488  1.00  0.00    -0.248 NA
ATOM     54  C   UNL A   1      45.389  24.502  28.814  1.00  0.00     0.031 C 
ATOM     55  C   UNL A   1      46.984  29.615  31.684  1.00  0.00     0.029 A 
ATOM     56  C   UNL A   1      46.259  28.654  30.996  1.00  0.00     0.049 A 
ATOM     57  H   UNL A   1      44.269  28.740  30.299  1.00  0.00     0.167 HD
ATOM     58  C   UNL A   1      45.904  26.456  29.902  1.00  0.00     0.074 A 
ATOM     59  C   UNL A   1      46.341  25.140  29.480  1.00  0.00     0.031 C 
ATOM     60  C   UNL A   1      46.681  27.341  30.574  1.00  0.00     0.037 A 
BRANCH  47  61
ATOM     61  C   UNL A   1      43.858  32.704  31.847  1.00  0.00     0.058 A 
ATOM     62  C   UNL A   1      43.769  32.922  33.233  1.00  0.00     0.135 A 
ATOM     63  C   UNL A   1      44.015  33.828  31.020  1.00  0.00     0.135 A 
ATOM     64  F   UNL A   1      43.606  31.886  34.071  1.00  0.00    -0.206 F 
ATOM     65  C   UNL A   1      43.776  34.204  33.771  1.00  0.00     0.059 A 
ATOM     66  C   UNL A   1      44.056  35.120  31.541  1.00  0.00     0.059 A 
ATOM     67  F   UNL A   1      44.113  33.680  29.689  1.00  0.00    -0.206 F 
ATOM     68  C   UNL A   1      43.909  35.298  32.915  1.00  0.00     0.060 A 
BRANCH  68  69
ATOM     69  S   UNL A   1      43.871  36.960  33.619  1.00  0.00     0.124 S 
ATOM     70  O   UNL A   1      44.877  36.850  34.673  1.00  0.00    -0.237 OA
ATOM     71  O   UNL A   1      44.244  37.794  32.478  1.00  0.00    -0.237 OA
ATOM     72  O   UNL A   1      42.497  37.106  34.075  1.00  0.00    -0.744 OA
ENDBRANCH  68  69
ENDBRANCH  47  61
BRANCH  48  73
ATOM     73  C   UNL A   1      42.817  23.696  27.660  1.00  0.00     0.058 A 
ATOM     74  C   UNL A   1      43.042  23.492  26.291  1.00  0.00     0.135 A 
ATOM     75  C   UNL A   1      42.479  22.580  28.441  1.00  0.00     0.135 A 
ATOM     76  F   UNL A   1      43.359  24.530  25.502  1.00  0.00    -0.206 F 
ATOM     77  C   UNL A   1      42.940  22.230  25.714  1.00  0.00     0.059 A 
ATOM     78  C   UNL A   1      42.392  21.303  27.892  1.00  0.00     0.059 A 
ATOM     79  F   UNL A   1      42.266  22.721  29.759  1.00  0.00    -0.206 F 
ATOM     80  C   UNL A   1      42.621  21.140  26.526  1.00  0.00     0.060 A 
BRANCH  80  81
ATOM     81  S   UNL A   1      42.572  19.495  25.780  1.00  0.00     0.124 S 
ATOM     82  O   UNL A   1      41.163  19.376  25.425  1.00  0.00    -0.237 OA
ATOM     83  O   UNL A   1      43.503  19.637  24.665  1.00  0.00    -0.237 OA
ATOM     84  O   UNL A   1      43.028  18.624  26.860  1.00  0.00    -0.744 OA
ENDBRANCH  80  81
ENDBRANCH  48  73
BRANCH  60  85
ATOM     85  C   UNL A   1      48.076  26.906  30.930  1.00  0.00     0.058 A 
ATOM     86  C   UNL A   1      49.186  27.279  30.156  1.00  0.00     0.135 A 
ATOM     87  C   UNL A   1      48.309  26.145  32.087  1.00  0.00     0.135 A 
ATOM     88  F   UNL A   1      49.018  28.001  29.037  1.00  0.00    -0.206 F 
ATOM     89  C   UNL A   1      50.477  26.894  30.506  1.00  0.00     0.059 A 
ATOM     90  C   UNL A   1      49.593  25.771  32.469  1.00  0.00     0.059 A 
ATOM     91  F   UNL A   1      47.283  25.771  32.868  1.00  0.00    -0.206 F 
ATOM     92  C   UNL A   1      50.671  26.139  31.665  1.00  0.00     0.060 A 
BRANCH  92  93
ATOM     93  S   UNL A   1      52.353  25.672  32.125  1.00  0.00     0.124 S 
ATOM     94  O   UNL A   1      52.138  24.363  32.732  1.00  0.00    -0.237 OA
ATOM     95  O   UNL A   1      53.041  25.668  30.837  1.00  0.00    -0.237 OA
ATOM     96  O   UNL A   1      52.760  26.731  33.043  1.00  0.00    -0.744 OA
ENDBRANCH  92  93
ENDBRANCH  60  85
ENDBRANCH  34  35
ENDBRANCH  26  29
ENDBRANCH  24  25
ENDBRANCH  23  24
ENDBRANCH   1  23
TORSDOF 19
ENDMDL
MODEL 2
REMARK VINA RESULT:      -8.9      5.325     12.009
REMARK SMILES C=CC[N@H+](CC(=O)NCCCNC(=O)c1ccc(-c2c3nc(c(-c4c(F)cc(S(=O)(=O)[O-])cc4F)c4ccc([nH]4)c(-c4c(F)cc(S(=O)(=O)[O-])cc4F)c4nc(c(-c5c(F)cc(S(=O)(=O)[O-])cc5F)c5ccc2[nH]5)C=C4)C=C3)cc1)[C@H](C)c1ccc(F)cc1O
REMARK SMILES IDX 9 1 8 2 6 3 7 4 5 6 4 7 3 9 2 10 1 11 81 12 82 13 83 14
REMARK SMILES IDX 84 15 89 16 85 17 88 18 86 19 87 20 90 21 10 23 11 24 12 25
REMARK SMILES IDX 13 26 14 28 15 29 16 30 80 31 17 32 79 33 18 34 19 35 20 36
REMARK SMILES IDX 73 37 21 38 78 39 72 40 74 41 22 42 77 43 71 44 70 45 23 47
REMARK SMILES IDX 57 48 36 49 56 50 37 51 40 52 55 53 75 54 38 55 39 56 54 58
REMARK SMILES IDX 76 59 41 60 24 61 25 62 34 63 26 64 27 65 33 66 35 67 28 68
REMARK SMILES IDX 29 69 30 70 31 71 32 72 58 73 59 74 68 75 60 76 61 77 67 78
REMARK SMILES IDX 69 79 62 80 63 81 64 82 65 83 66 84 42 85 43 86 52 87 44 88
REMARK SMILES IDX 45 89 51 90 53 91 46 92 47 93 48 94 49 95 50 96
REMARK H PARENT 8 5 4 8 90 22 12 27 74 46 40 57
REMARK Flexibility Score: inf
ROOT
ATOM      1  C   UNL A   1      37.007  21.991  25.273  1.00  0.00     0.118 C 
ENDROOT
BRANCH   1   2
ATOM      2  N   UNL A   1      36.017  21.792  26.329  1.00  0.00    -0.351 N 
ATOM      3  C   UNL A   1      34.645  21.732  26.299  1.00  0.00     0.275 C 
ATOM      4  O   UNL A   1      34.060  21.540  27.368  1.00  0.00    -0.269 OA
ATOM      5  H   UNL A   1      36.405  21.683  27.227  1.00  0.00     0.163 HD
BRANCH   3   6
ATOM      6  C   UNL A   1      33.862  21.878  24.980  1.00  0.00     0.364 C 
BRANCH   6   7
ATOM      7  N   UNL A   1      33.066  23.152  24.883  1.00  0.00    -0.318 N 
ATOM      8  H   UNL A   1      32.443  23.284  25.680  1.00  0.00     0.349 HD
BRANCH   7   9
ATOM      9  C   UNL A   1      34.013  24.273  24.910  1.00  0.00     0.291 C 
BRANCH   9  10
ATOM     10  C   UNL A   1      33.924  25.410  25.879  1.00  0.00     0.025 C 
ATOM     11  C   UNL A   1      33.715  26.692  25.543  1.00  0.00     0.010 C 
ENDBRANCH   9  10
ENDBRANCH   7   9
BRANCH   7  12
ATOM     12  C   UNL A   1      32.123  23.103  23.722  1.00  0.00     0.216 C 
ATOM     13  C   UNL A   1      32.708  22.487  22.436  1.00  0.00     0.081 C 
BRANCH  12  14
ATOM     14  C   UNL A   1      31.404  24.440  23.513  1.00  0.00     0.051 A 
ATOM     15  C   UNL A   1      31.735  25.313  22.457  1.00  0.00     0.017 A 
ATOM     16  C   UNL A   1      30.464  24.893  24.463  1.00  0.00     0.127 A 
ATOM     17  C   UNL A   1      31.208  26.607  22.407  1.00  0.00     0.040 A 
ATOM     18  C   UNL A   1      29.921  26.172  24.405  1.00  0.00     0.085 A 
ATOM     19  C   UNL A   1      30.320  27.028  23.389  1.00  0.00     0.126 A 
ATOM     20  F   UNL A   1      29.868  28.288  23.366  1.00  0.00    -0.207 F 
BRANCH  16  21
ATOM     21  O   UNL A   1      30.129  24.129  25.549  1.00  0.00    -0.507 OA
ATOM     22  H   UNL A   1      30.241  24.470  26.414  1.00  0.00     0.293 HD
ENDBRANCH  16  21
ENDBRANCH  12  14
ENDBRANCH   7  12
ENDBRANCH   6   7
ENDBRANCH   3   6
ENDBRANCH   1   2
BRANCH   1  23
ATOM     23  C   UNL A   1      37.564  23.420  25.205  1.00  0.00     0.042 C 
BRANCH  23  24
ATOM     24  C   UNL A   1      38.360  23.856  26.426  1.00  0.00     0.118 C 
BRANCH  24  25
ATOM     25  N   UNL A   1      39.785  23.829  26.156  1.00  0.00    -0.352 N 
ATOM     26  C   UNL A   1      40.770  24.721  26.508  1.00  0.00     0.251 C 
ATOM     27  H   UNL A   1      40.095  23.049  25.639  1.00  0.00     0.163 HD
ATOM     28  O   UNL A   1      41.846  24.662  25.916  1.00  0.00    -0.269 OA
BRANCH  26  29
ATOM     29  C   UNL A   1      40.568  25.743  27.570  1.00  0.00     0.039 A 
ATOM     30  C   UNL A   1      41.440  26.838  27.617  1.00  0.00     0.014 A 
ATOM     31  C   UNL A   1      39.603  25.601  28.571  1.00  0.00     0.014 A 
ATOM     32  C   UNL A   1      41.331  27.787  28.642  1.00  0.00     0.010 A 
ATOM     33  C   UNL A   1      39.437  26.593  29.541  1.00  0.00     0.010 A 
ATOM     34  C   UNL A   1      40.317  27.682  29.608  1.00  0.00    -0.014 A 
BRANCH  34  35
ATOM     35  C   UNL A   1      40.206  28.664  30.722  1.00  0.00     0.031 A 
ATOM     36  C   UNL A   1      41.111  28.554  31.925  1.00  0.00     0.074 A 
ATOM     37  C   UNL A   1      39.277  29.638  30.676  1.00  0.00     0.049 A 
ATOM     38  N   UNL A   1      41.145  29.288  33.009  1.00  0.00    -0.248 NA
ATOM     39  C   UNL A   1      42.091  27.456  31.918  1.00  0.00     0.031 C 
ATOM     40  C   UNL A   1      38.318  29.841  29.589  1.00  0.00     0.029 A 
ATOM     41  N   UNL A   1      38.985  30.643  31.566  1.00  0.00    -0.354 N 
ATOM     42  C   UNL A   1      42.132  28.733  33.816  1.00  0.00     0.074 A 
ATOM     43  C   UNL A   1      42.631  27.565  33.122  1.00  0.00     0.031 C 
ATOM     44  C   UNL A   1      37.571  30.925  29.858  1.00  0.00     0.029 A 
ATOM     45  C   UNL A   1      37.970  31.472  31.151  1.00  0.00     0.049 A 
ATOM     46  H   UNL A   1      39.460  30.759  32.421  1.00  0.00     0.167 HD
ATOM     47  C   UNL A   1      42.603  29.166  35.011  1.00  0.00     0.037 A 
ATOM     48  C   UNL A   1      37.424  32.553  31.742  1.00  0.00     0.037 A 
ATOM     49  C   UNL A   1      42.123  30.342  35.690  1.00  0.00     0.049 A 
ATOM     50  C   UNL A   1      37.951  33.013  33.074  1.00  0.00     0.074 A 
ATOM     51  C   UNL A   1      42.563  30.891  36.881  1.00  0.00     0.029 A 
ATOM     52  N   UNL A   1      41.092  31.151  35.236  1.00  0.00    -0.354 N 
ATOM     53  N   UNL A   1      38.917  32.502  33.799  1.00  0.00    -0.248 NA
ATOM     54  C   UNL A   1      37.317  34.200  33.665  1.00  0.00     0.031 C 
ATOM     55  C   UNL A   1      41.774  32.010  37.168  1.00  0.00     0.029 A 
ATOM     56  C   UNL A   1      40.870  32.186  36.131  1.00  0.00     0.049 A 
ATOM     57  H   UNL A   1      40.590  31.011  34.400  1.00  0.00     0.167 HD
ATOM     58  C   UNL A   1      39.027  33.321  34.919  1.00  0.00     0.074 A 
ATOM     59  C   UNL A   1      38.032  34.364  34.770  1.00  0.00     0.031 C 
ATOM     60  C   UNL A   1      39.878  33.220  35.970  1.00  0.00     0.037 A 
BRANCH  47  61
ATOM     61  C   UNL A   1      43.695  28.354  35.655  1.00  0.00     0.058 A 
ATOM     62  C   UNL A   1      43.411  27.352  36.599  1.00  0.00     0.135 A 
ATOM     63  C   UNL A   1      45.043  28.588  35.340  1.00  0.00     0.135 A 
ATOM     64  F   UNL A   1      42.141  27.092  36.947  1.00  0.00    -0.206 F 
ATOM     65  C   UNL A   1      44.423  26.653  37.248  1.00  0.00     0.059 A 
ATOM     66  C   UNL A   1      46.073  27.878  35.955  1.00  0.00     0.059 A 
ATOM     67  F   UNL A   1      45.375  29.528  34.441  1.00  0.00    -0.206 F 
ATOM     68  C   UNL A   1      45.752  26.931  36.927  1.00  0.00     0.060 A 
BRANCH  68  69
ATOM     69  S   UNL A   1      47.060  26.051  37.808  1.00  0.00     0.124 S 
ATOM     70  O   UNL A   1      48.081  27.092  37.922  1.00  0.00    -0.237 OA
ATOM     71  O   UNL A   1      46.400  25.678  39.057  1.00  0.00    -0.237 OA
ATOM     72  O   UNL A   1      47.386  24.946  36.920  1.00  0.00    -0.744 OA
ENDBRANCH  68  69
ENDBRANCH  47  61
BRANCH  48  73
ATOM     73  C   UNL A   1      36.347  33.306  31.047  1.00  0.00     0.058 A 
ATOM     74  C   UNL A   1      35.031  33.282  31.532  1.00  0.00     0.135 A 
ATOM     75  C   UNL A   1      36.613  34.094  29.916  1.00  0.00     0.135 A 
ATOM     76  F   UNL A   1      34.726  32.537  32.605  1.00  0.00    -0.206 F 
ATOM     77  C   UNL A   1      34.015  34.012  30.922  1.00  0.00     0.059 A 
ATOM     78  C   UNL A   1      35.619  34.850  29.302  1.00  0.00     0.059 A 
ATOM     79  F   UNL A   1      37.859  34.160  29.421  1.00  0.00    -0.206 F 
ATOM     80  C   UNL A   1      34.322  34.800  29.811  1.00  0.00     0.060 A 
BRANCH  80  81
ATOM     81  S   UNL A   1      33.011  35.806  29.080  1.00  0.00     0.124 S 
ATOM     82  O   UNL A   1      33.778  36.868  28.441  1.00  0.00    -0.237 OA
ATOM     83  O   UNL A   1      32.363  34.855  28.181  1.00  0.00    -0.237 OA
ATOM     84  O   UNL A   1      32.213  36.208  30.234  1.00  0.00    -0.744 OA
ENDBRANCH  80  81
ENDBRANCH  48  73
BRANCH  60  85
ATOM     85  C   UNL A   1      39.799  34.285  37.029  1.00  0.00     0.058 A 
ATOM     86  C   UNL A   1      40.332  35.568  36.828  1.00  0.00     0.135 A 
ATOM     87  C   UNL A   1      39.140  34.031  38.242  1.00  0.00     0.135 A 
ATOM     88  F   UNL A   1      40.978  35.861  35.689  1.00  0.00    -0.206 F 
ATOM     89  C   UNL A   1      40.232  36.556  37.803  1.00  0.00     0.059 A 
ATOM     90  C   UNL A   1      39.006  35.012  39.221  1.00  0.00     0.059 A 
ATOM     91  F   UNL A   1      38.603  32.824  38.481  1.00  0.00    -0.206 F 
ATOM     92  C   UNL A   1      39.567  36.269  38.997  1.00  0.00     0.060 A 
BRANCH  92  93
ATOM     93  S   UNL A   1      39.417  37.568  40.242  1.00  0.00     0.124 S 
ATOM     94  O   UNL A   1      38.662  38.583  39.516  1.00  0.00    -0.237 OA
ATOM     95  O   UNL A   1      38.697  36.890  41.316  1.00  0.00    -0.237 OA
ATOM     96  O   UNL A   1      40.803  37.910  40.544  1.00  0.00    -0.744 OA
ENDBRANCH  92  93
ENDBRANCH  60  85
ENDBRANCH  34  35
ENDBRANCH  26  29
ENDBRANCH  24  25
ENDBRANCH  23  24
ENDBRANCH   1  23
TORSDOF 19
ENDMDL
MODEL 3
REMARK VINA RESULT:      -8.8      5.437     12.155
REMARK SMILES C=CC[N@H+](CC(=O)NCCCNC(=O)c1ccc(-c2c3nc(c(-c4c(F)cc(S(=O)(=O)[O-])cc4F)c4ccc([nH]4)c(-c4c(F)cc(S(=O)(=O)[O-])cc4F)c4nc(c(-c5c(F)cc(S(=O)(=O)[O-])cc5F)c5ccc2[nH]5)C=C4)C=C3)cc1)[C@H](C)c1ccc(F)cc1O
REMARK SMILES IDX 9 1 8 2 6 3 7 4 5 6 4 7 3 9 2 10 1 11 81 12 82 13 83 14
REMARK SMILES IDX 84 15 89 16 85 17 88 18 86 19 87 20 90 21 10 23 11 24 12 25
REMARK SMILES IDX 13 26 14 28 15 29 16 30 80 31 17 32 79 33 18 34 19 35 20 36
REMARK SMILES IDX 73 37 21 38 78 39 72 40 74 41 22 42 77 43 71 44 70 45 23 47
REMARK SMILES IDX 57 48 36 49 56 50 37 51 40 52 55 53 75 54 38 55 39 56 54 58
REMARK SMILES IDX 76 59 41 60 24 61 25 62 34 63 26 64 27 65 33 66 35 67 28 68
REMARK SMILES IDX 29 69 30 70 31 71 32 72 58 73 59 74 68 75 60 76 61 77 67 78
REMARK SMILES IDX 69 79 62 80 63 81 64 82 65 83 66 84 42 85 43 86 52 87 44 88
REMARK SMILES IDX 45 89 51 90 53 91 46 92 47 93 48 94 49 95 50 96
REMARK H PARENT 8 5 4 8 90 22 12 27 74 46 40 57
REMARK Flexibility Score: inf
ROOT
ATOM      1  C   UNL A   1      36.912  22.769  25.482  1.00  0.00     0.118 C 
ENDROOT
BRANCH   1   2
ATOM      2  N   UNL A   1      35.905  22.411  26.478  1.00  0.00    -0.351 N 
ATOM      3  C   UNL A   1      34.841  21.543  26.435  1.00  0.00     0.275 C 
ATOM      4  O   UNL A   1      34.152  21.436  27.454  1.00  0.00    -0.269 OA
ATOM      5  H   UNL A   1      36.007  22.880  27.338  1.00  0.00     0.163 HD
BRANCH   3   6
ATOM      6  C   UNL A   1      34.526  20.718  25.173  1.00  0.00     0.364 C 
BRANCH   6   7
ATOM      7  N   UNL A   1      33.437  21.307  24.317  1.00  0.00    -0.318 N 
ATOM      8  H   UNL A   1      33.787  21.652  23.423  1.00  0.00     0.349 HD
BRANCH   7   9
ATOM      9  C   UNL A   1      32.488  20.234  24.001  1.00  0.00     0.291 C 
BRANCH   9  10
ATOM     10  C   UNL A   1      32.799  18.779  24.156  1.00  0.00     0.025 C 
ATOM     11  C   UNL A   1      32.862  17.895  23.150  1.00  0.00     0.010 C 
ENDBRANCH   9  10
ENDBRANCH   7   9
BRANCH   7  12
ATOM     12  C   UNL A   1      32.867  22.537  24.953  1.00  0.00     0.216 C 
ATOM     13  C   UNL A   1      31.377  22.440  25.331  1.00  0.00     0.081 C 
BRANCH  12  14
ATOM     14  C   UNL A   1      33.244  23.806  24.181  1.00  0.00     0.051 A 
ATOM     15  C   UNL A   1      33.797  24.935  24.818  1.00  0.00     0.017 A 
ATOM     16  C   UNL A   1      32.922  23.921  22.812  1.00  0.00     0.127 A 
ATOM     17  C   UNL A   1      33.943  26.144  24.131  1.00  0.00     0.040 A 
ATOM     18  C   UNL A   1      33.087  25.116  22.118  1.00  0.00     0.085 A 
ATOM     19  C   UNL A   1      33.572  26.225  22.794  1.00  0.00     0.126 A 
ATOM     20  F   UNL A   1      33.659  27.402  22.161  1.00  0.00    -0.207 F 
BRANCH  16  21
ATOM     21  O   UNL A   1      32.331  22.890  22.133  1.00  0.00    -0.507 OA
ATOM     22  H   UNL A   1      31.459  22.626  22.348  1.00  0.00     0.293 HD
ENDBRANCH  16  21
ENDBRANCH  12  14
ENDBRANCH   7  12
ENDBRANCH   6   7
ENDBRANCH   3   6
ENDBRANCH   1   2
BRANCH   1  23
ATOM     23  C   UNL A   1      37.890  23.855  25.952  1.00  0.00     0.042 C 
BRANCH  23  24
ATOM     24  C   UNL A   1      39.044  23.351  26.807  1.00  0.00     0.118 C 
BRANCH  24  25
ATOM     25  N   UNL A   1      40.322  23.692  26.211  1.00  0.00    -0.352 N 
ATOM     26  C   UNL A   1      41.073  24.838  26.322  1.00  0.00     0.251 C 
ATOM     27  H   UNL A   1      40.713  22.992  25.637  1.00  0.00     0.163 HD
ATOM     28  O   UNL A   1      41.961  25.032  25.494  1.00  0.00    -0.269 OA
BRANCH  26  29
ATOM     29  C   UNL A   1      40.837  25.836  27.399  1.00  0.00     0.039 A 
ATOM     30  C   UNL A   1      41.642  26.982  27.435  1.00  0.00     0.014 A 
ATOM     31  C   UNL A   1      39.911  25.626  28.424  1.00  0.00     0.014 A 
ATOM     32  C   UNL A   1      41.503  27.913  28.473  1.00  0.00     0.010 A 
ATOM     33  C   UNL A   1      39.711  26.597  29.408  1.00  0.00     0.010 A 
ATOM     34  C   UNL A   1      40.524  27.737  29.464  1.00  0.00    -0.014 A 
BRANCH  34  35
ATOM     35  C   UNL A   1      40.384  28.701  30.591  1.00  0.00     0.031 A 
ATOM     36  C   UNL A   1      41.285  28.596  31.797  1.00  0.00     0.074 A 
ATOM     37  C   UNL A   1      39.431  29.652  30.554  1.00  0.00     0.049 A 
ATOM     38  N   UNL A   1      41.295  29.315  32.891  1.00  0.00    -0.248 NA
ATOM     39  C   UNL A   1      42.291  27.522  31.780  1.00  0.00     0.031 C 
ATOM     40  C   UNL A   1      38.473  29.847  29.464  1.00  0.00     0.029 A 
ATOM     41  N   UNL A   1      39.110  30.637  31.456  1.00  0.00    -0.354 N 
ATOM     42  C   UNL A   1      42.292  28.772  33.695  1.00  0.00     0.074 A 
ATOM     43  C   UNL A   1      42.822  27.627  32.988  1.00  0.00     0.031 C 
ATOM     44  C   UNL A   1      37.698  30.908  29.744  1.00  0.00     0.029 A 
ATOM     45  C   UNL A   1      38.077  31.447  31.048  1.00  0.00     0.049 A 
ATOM     46  H   UNL A   1      39.577  30.752  32.316  1.00  0.00     0.167 HD
ATOM     47  C   UNL A   1      42.746  29.200  34.899  1.00  0.00     0.037 A 
ATOM     48  C   UNL A   1      37.502  32.505  31.650  1.00  0.00     0.037 A 
ATOM     49  C   UNL A   1      42.234  30.354  35.592  1.00  0.00     0.049 A 
ATOM     50  C   UNL A   1      38.011  32.959  32.991  1.00  0.00     0.074 A 
ATOM     51  C   UNL A   1      42.655  30.896  36.793  1.00  0.00     0.029 A 
ATOM     52  N   UNL A   1      41.185  31.144  35.144  1.00  0.00    -0.354 N 
ATOM     53  N   UNL A   1      38.986  32.462  33.715  1.00  0.00    -0.248 NA
ATOM     54  C   UNL A   1      37.345  34.122  33.596  1.00  0.00     0.031 C 
ATOM     55  C   UNL A   1      41.836  31.992  37.091  1.00  0.00     0.029 A 
ATOM     56  C   UNL A   1      40.933  32.160  36.052  1.00  0.00     0.049 A 
ATOM     57  H   UNL A   1      40.691  31.004  34.304  1.00  0.00     0.167 HD
ATOM     58  C   UNL A   1      39.070  33.267  34.846  1.00  0.00     0.074 A 
ATOM     59  C   UNL A   1      38.050  34.288  34.707  1.00  0.00     0.031 C 
ATOM     60  C   UNL A   1      39.918  33.172  35.900  1.00  0.00     0.037 A 
BRANCH  47  61
ATOM     61  C   UNL A   1      43.855  28.406  35.538  1.00  0.00     0.058 A 
ATOM     62  C   UNL A   1      45.206  28.651  35.237  1.00  0.00     0.135 A 
ATOM     63  C   UNL A   1      43.566  27.377  36.448  1.00  0.00     0.135 A 
ATOM     64  F   UNL A   1      45.540  29.616  34.366  1.00  0.00    -0.206 F 
ATOM     65  C   UNL A   1      46.225  27.869  35.771  1.00  0.00     0.059 A 
ATOM     66  C   UNL A   1      44.573  26.601  37.019  1.00  0.00     0.059 A 
ATOM     67  F   UNL A   1      42.294  27.102  36.778  1.00  0.00    -0.206 F 
ATOM     68  C   UNL A   1      45.897  26.839  36.653  1.00  0.00     0.060 A 
BRANCH  68  69
ATOM     69  S   UNL A   1      47.223  25.800  37.304  1.00  0.00     0.124 S 
ATOM     70  O   UNL A   1      46.557  24.501  37.384  1.00  0.00    -0.237 OA
ATOM     71  O   UNL A   1      48.250  25.918  36.271  1.00  0.00    -0.237 OA
ATOM     72  O   UNL A   1      47.548  26.420  38.579  1.00  0.00    -0.744 OA
ENDBRANCH  68  69
ENDBRANCH  47  61
BRANCH  48  73
ATOM     73  C   UNL A   1      36.410  33.242  30.960  1.00  0.00     0.058 A 
ATOM     74  C   UNL A   1      35.091  33.171  31.432  1.00  0.00     0.135 A 
ATOM     75  C   UNL A   1      36.664  34.059  29.848  1.00  0.00     0.135 A 
ATOM     76  F   UNL A   1      34.798  32.396  32.487  1.00  0.00    -0.206 F 
ATOM     77  C   UNL A   1      34.061  33.884  30.828  1.00  0.00     0.059 A 
ATOM     78  C   UNL A   1      35.654  34.800  29.239  1.00  0.00     0.059 A 
ATOM     79  F   UNL A   1      37.912  34.170  29.367  1.00  0.00    -0.206 F 
ATOM     80  C   UNL A   1      34.354  34.703  29.736  1.00  0.00     0.060 A 
BRANCH  80  81
ATOM     81  S   UNL A   1      33.023  35.685  29.012  1.00  0.00     0.124 S 
ATOM     82  O   UNL A   1      32.269  36.078  30.196  1.00  0.00    -0.237 OA
ATOM     83  O   UNL A   1      33.760  36.751  28.340  1.00  0.00    -0.237 OA
ATOM     84  O   UNL A   1      32.355  34.740  28.121  1.00  0.00    -0.744 OA
ENDBRANCH  80  81
ENDBRANCH  48  73
BRANCH  60  85
ATOM     85  C   UNL A   1      39.807  34.220  36.974  1.00  0.00     0.058 A 
ATOM     86  C   UNL A   1      40.367  35.498  36.820  1.00  0.00     0.135 A 
ATOM     87  C   UNL A   1      39.091  33.955  38.152  1.00  0.00     0.135 A 
ATOM     88  F   UNL A   1      41.067  35.801  35.715  1.00  0.00    -0.206 F 
ATOM     89  C   UNL A   1      40.239  36.470  37.807  1.00  0.00     0.059 A 
ATOM     90  C   UNL A   1      38.929  34.921  39.141  1.00  0.00     0.059 A 
ATOM     91  F   UNL A   1      38.527  32.752  38.345  1.00  0.00    -0.206 F 
ATOM     92  C   UNL A   1      39.518  36.173  38.965  1.00  0.00     0.060 A 
BRANCH  92  93
ATOM     93  S   UNL A   1      39.331  37.452  40.225  1.00  0.00     0.124 S 
ATOM     94  O   UNL A   1      38.658  36.718  41.291  1.00  0.00    -0.237 OA
ATOM     95  O   UNL A   1      40.715  37.832  40.493  1.00  0.00    -0.237 OA
ATOM     96  O   UNL A   1      38.527  38.471  39.558  1.00  0.00    -0.744 OA
ENDBRANCH  92  93
ENDBRANCH  60  85
ENDBRANCH  34  35
ENDBRANCH  26  29
ENDBRANCH  24  25
ENDBRANCH  23  24
ENDBRANCH   1  23
TORSDOF 19
ENDMDL
