MODEL 1
REMARK VINA RESULT:     -11.2      0.000      0.000
REMARK SMILES CC1(C)CCN(C(=O)[C@@H]([NH3+])CC(=O)NCCCNC(=O)c2ccc(-c3c4nc(c(-c5c(F)cc(S(=O)(=O)[O-])cc5F)c5ccc([nH]5)c(-c5c(F)cc(S(=O)(=O)[O-])cc5F)c5nc(c(-c6c(F)cc(S(=O)(=O)[O-])cc6F)c6ccc3[nH]6)C=C5)C=C4)cc2)C1
REMARK SMILES IDX 16 1 15 2 14 3 12 4 13 5 11 7 9 8 7 9 8 10 6 11 1 12 2 13
REMARK SMILES IDX 3 14 4 15 87 16 5 17 10 18 17 22 18 23 19 24 20 26 21 27
REMARK SMILES IDX 22 28 86 29 23 30 85 31 24 32 25 33 26 34 79 35 27 36 84 37
REMARK SMILES IDX 78 38 80 39 28 40 83 41 77 42 76 43 29 45 63 46 42 47 62 48
REMARK SMILES IDX 43 49 46 50 61 51 81 52 44 53 45 54 60 56 82 57 47 58 30 59
REMARK SMILES IDX 31 60 40 61 32 62 33 63 39 64 41 65 34 66 35 67 36 68 37 69
REMARK SMILES IDX 38 70 64 71 65 72 74 73 66 74 67 75 73 76 75 77 68 78 69 79
REMARK SMILES IDX 70 80 71 81 72 82 48 83 49 84 58 85 50 86 51 87 57 88 59 89
REMARK SMILES IDX 52 90 53 91 54 92 55 93 56 94
REMARK H PARENT 14 6 10 19 10 20 10 21 18 25 80 44 46 55
REMARK Flexibility Score: inf
ROOT
ATOM      1  C   UNL A   1      40.790  21.364  27.312  1.00  0.00     0.042 C 
ENDROOT
BRANCH   1   2
ATOM      2  C   UNL A   1      41.673  20.852  26.182  1.00  0.00     0.117 C 
BRANCH   2   3
ATOM      3  N   UNL A   1      41.651  19.404  26.140  1.00  0.00    -0.356 N 
ATOM      4  C   UNL A   1      42.671  18.529  25.924  1.00  0.00     0.226 C 
ATOM      5  O   UNL A   1      42.396  17.337  25.772  1.00  0.00    -0.275 OA
ATOM      6  H   UNL A   1      40.769  18.992  26.289  1.00  0.00     0.163 HD
BRANCH   4   7
ATOM      7  C   UNL A   1      44.112  19.000  25.939  1.00  0.00     0.175 C 
BRANCH   7   8
ATOM      8  C   UNL A   1      44.545  19.695  24.647  1.00  0.00     0.280 C 
BRANCH   8   9
ATOM      9  C   UNL A   1      45.633  20.790  24.807  1.00  0.00     0.281 C 
ATOM     10  O   UNL A   1      46.820  20.464  24.682  1.00  0.00    -0.268 OA
BRANCH   9  11
ATOM     11  N   UNL A   1      45.296  22.097  25.085  1.00  0.00    -0.337 N 
ATOM     12  C   UNL A   1      46.802  24.811  24.940  1.00  0.00     0.013 C 
ATOM     13  C   UNL A   1      45.563  24.362  25.730  1.00  0.00    -0.016 C 
ATOM     14  C   UNL A   1      45.307  25.324  26.888  1.00  0.00     0.013 C 
ATOM     15  C   UNL A   1      44.343  24.241  24.806  1.00  0.00     0.030 C 
ATOM     16  C   UNL A   1      45.719  22.912  26.217  1.00  0.00     0.126 C 
ATOM     17  C   UNL A   1      44.578  22.910  24.106  1.00  0.00     0.120 C 
ENDBRANCH   9  11
ENDBRANCH   8   9
BRANCH   8  18
ATOM     18  N   UNL A   1      45.019  18.707  23.642  1.00  0.00    -0.347 N 
ATOM     19  H   UNL A   1      45.823  19.088  23.144  1.00  0.00     0.345 HD
ATOM     20  H   UNL A   1      44.270  18.510  22.979  1.00  0.00     0.345 HD
ATOM     21  H   UNL A   1      45.290  17.844  24.115  1.00  0.00     0.345 HD
ENDBRANCH   8  18
ENDBRANCH   7   8
ENDBRANCH   4   7
ENDBRANCH   2   3
ENDBRANCH   1   2
BRANCH   1  22
ATOM     22  C   UNL A   1      41.023  22.819  27.672  1.00  0.00     0.118 C 
BRANCH  22  23
ATOM     23  N   UNL A   1      41.095  23.676  26.493  1.00  0.00    -0.352 N 
ATOM     24  C   UNL A   1      40.982  25.039  26.352  1.00  0.00     0.251 C 
ATOM     25  H   UNL A   1      41.252  23.192  25.650  1.00  0.00     0.163 HD
ATOM     26  O   UNL A   1      40.885  25.506  25.221  1.00  0.00    -0.269 OA
BRANCH  24  27
ATOM     27  C   UNL A   1      40.949  25.937  27.530  1.00  0.00     0.039 A 
ATOM     28  C   UNL A   1      42.015  26.819  27.737  1.00  0.00     0.014 A 
ATOM     29  C   UNL A   1      39.898  25.907  28.448  1.00  0.00     0.014 A 
ATOM     30  C   UNL A   1      41.983  27.717  28.807  1.00  0.00     0.010 A 
ATOM     31  C   UNL A   1      39.809  26.878  29.440  1.00  0.00     0.010 A 
ATOM     32  C   UNL A   1      40.855  27.789  29.638  1.00  0.00    -0.014 A 
BRANCH  32  33
ATOM     33  C   UNL A   1      40.741  28.802  30.721  1.00  0.00     0.031 A 
ATOM     34  C   UNL A   1      41.609  28.696  31.947  1.00  0.00     0.074 A 
ATOM     35  C   UNL A   1      39.801  29.763  30.635  1.00  0.00     0.049 A 
ATOM     36  N   UNL A   1      41.588  29.415  33.039  1.00  0.00    -0.248 NA
ATOM     37  C   UNL A   1      42.612  27.617  31.963  1.00  0.00     0.031 C 
ATOM     38  C   UNL A   1      38.863  29.935  29.522  1.00  0.00     0.029 A 
ATOM     39  N   UNL A   1      39.465  30.770  31.505  1.00  0.00    -0.354 N 
ATOM     40  C   UNL A   1      42.555  28.867  33.874  1.00  0.00     0.074 A 
ATOM     41  C   UNL A   1      43.104  27.719  33.188  1.00  0.00     0.031 C 
ATOM     42  C   UNL A   1      38.080  30.997  29.764  1.00  0.00     0.029 A 
ATOM     43  C   UNL A   1      38.420  31.552  31.070  1.00  0.00     0.049 A 
ATOM     44  H   UNL A   1      39.928  30.920  32.361  1.00  0.00     0.167 HD
ATOM     45  C   UNL A   1      42.965  29.297  35.091  1.00  0.00     0.037 A 
ATOM     46  C   UNL A   1      37.794  32.588  31.662  1.00  0.00     0.037 A 
ATOM     47  C   UNL A   1      42.429  30.458  35.753  1.00  0.00     0.049 A 
ATOM     48  C   UNL A   1      38.261  33.041  33.019  1.00  0.00     0.074 A 
ATOM     49  C   UNL A   1      42.818  31.017  36.957  1.00  0.00     0.029 A 
ATOM     50  N   UNL A   1      41.385  31.235  35.270  1.00  0.00    -0.354 N 
ATOM     51  N   UNL A   1      39.225  32.554  33.763  1.00  0.00    -0.248 NA
ATOM     52  C   UNL A   1      37.558  34.185  33.616  1.00  0.00     0.031 C 
ATOM     53  C   UNL A   1      41.974  32.098  37.228  1.00  0.00     0.029 A 
ATOM     54  C   UNL A   1      41.098  32.251  36.165  1.00  0.00     0.049 A 
ATOM     55  H   UNL A   1      40.918  31.085  34.417  1.00  0.00     0.167 HD
ATOM     56  C   UNL A   1      39.262  33.348  34.905  1.00  0.00     0.074 A 
ATOM     57  C   UNL A   1      38.233  34.354  34.745  1.00  0.00     0.031 C 
ATOM     58  C   UNL A   1      40.074  33.251  35.987  1.00  0.00     0.037 A 
BRANCH  45  59
ATOM     59  C   UNL A   1      44.048  28.512  35.784  1.00  0.00     0.058 A 
ATOM     60  C   UNL A   1      43.750  27.460  36.665  1.00  0.00     0.135 A 
ATOM     61  C   UNL A   1      45.402  28.790  35.534  1.00  0.00     0.135 A 
ATOM     62  F   UNL A   1      42.473  27.159  36.955  1.00  0.00    -0.206 F 
ATOM     63  C   UNL A   1      44.753  26.734  37.299  1.00  0.00     0.059 A 
ATOM     64  C   UNL A   1      46.422  28.055  36.131  1.00  0.00     0.059 A 
ATOM     65  F   UNL A   1      45.745  29.784  34.700  1.00  0.00    -0.206 F 
ATOM     66  C   UNL A   1      46.088  27.038  37.024  1.00  0.00     0.060 A 
BRANCH  66  67
ATOM     67  S   UNL A   1      47.375  26.079  37.848  1.00  0.00     0.124 S 
ATOM     68  O   UNL A   1      47.177  24.758  37.258  1.00  0.00    -0.237 OA
ATOM     69  O   UNL A   1      48.591  26.776  37.443  1.00  0.00    -0.237 OA
ATOM     70  O   UNL A   1      47.033  26.191  39.263  1.00  0.00    -0.744 OA
ENDBRANCH  66  67
ENDBRANCH  45  59
BRANCH  46  71
ATOM     71  C   UNL A   1      36.671  33.275  30.967  1.00  0.00     0.058 A 
ATOM     72  C   UNL A   1      35.344  33.093  31.388  1.00  0.00     0.135 A 
ATOM     73  C   UNL A   1      36.897  34.138  29.884  1.00  0.00     0.135 A 
ATOM     74  F   UNL A   1      35.073  32.273  32.415  1.00  0.00    -0.206 F 
ATOM     75  C   UNL A   1      34.283  33.726  30.750  1.00  0.00     0.059 A 
ATOM     76  C   UNL A   1      35.855  34.806  29.248  1.00  0.00     0.059 A 
ATOM     77  F   UNL A   1      38.149  34.361  29.452  1.00  0.00    -0.206 F 
ATOM     78  C   UNL A   1      34.549  34.585  29.683  1.00  0.00     0.060 A 
BRANCH  78  79
ATOM     79  S   UNL A   1      33.167  35.438  28.893  1.00  0.00     0.124 S 
ATOM     80  O   UNL A   1      33.859  36.446  28.098  1.00  0.00    -0.237 OA
ATOM     81  O   UNL A   1      32.532  34.359  28.142  1.00  0.00    -0.237 OA
ATOM     82  O   UNL A   1      32.394  35.944  30.022  1.00  0.00    -0.744 OA
ENDBRANCH  78  79
ENDBRANCH  46  71
BRANCH  58  83
ATOM     83  C   UNL A   1      39.908  34.278  37.073  1.00  0.00     0.058 A 
ATOM     84  C   UNL A   1      40.505  35.546  36.987  1.00  0.00     0.135 A 
ATOM     85  C   UNL A   1      39.087  34.013  38.181  1.00  0.00     0.135 A 
ATOM     86  F   UNL A   1      41.305  35.849  35.954  1.00  0.00    -0.206 F 
ATOM     87  C   UNL A   1      40.308  36.508  37.973  1.00  0.00     0.059 A 
ATOM     88  C   UNL A   1      38.851  34.971  39.161  1.00  0.00     0.059 A 
ATOM     89  F   UNL A   1      38.485  32.820  38.306  1.00  0.00    -0.206 F 
ATOM     90  C   UNL A   1      39.473  36.214  39.053  1.00  0.00     0.060 A 
BRANCH  90  91
ATOM     91  S   UNL A   1      39.189  37.488  40.298  1.00  0.00     0.124 S 
ATOM     92  O   UNL A   1      38.667  36.701  41.410  1.00  0.00    -0.237 OA
ATOM     93  O   UNL A   1      40.526  38.043  40.486  1.00  0.00    -0.237 OA
ATOM     94  O   UNL A   1      38.230  38.383  39.658  1.00  0.00    -0.744 OA
ENDBRANCH  90  91
ENDBRANCH  58  83
ENDBRANCH  32  33
ENDBRANCH  24  27
ENDBRANCH  22  23
ENDBRANCH   1  22
TORSDOF 17
ENDMDL
MODEL 2
REMARK VINA RESULT:     -11.0      5.959     11.759
REMARK SMILES CC1(C)CCN(C(=O)[C@@H]([NH3+])CC(=O)NCCCNC(=O)c2ccc(-c3c4nc(c(-c5c(F)cc(S(=O)(=O)[O-])cc5F)c5ccc([nH]5)c(-c5c(F)cc(S(=O)(=O)[O-])cc5F)c5nc(c(-c6c(F)cc(S(=O)(=O)[O-])cc6F)c6ccc3[nH]6)C=C5)C=C4)cc2)C1
REMARK SMILES IDX 16 1 15 2 14 3 12 4 13 5 11 7 9 8 7 9 8 10 6 11 1 12 2 13
REMARK SMILES IDX 3 14 4 15 87 16 5 17 10 18 17 22 18 23 19 24 20 26 21 27
REMARK SMILES IDX 22 28 86 29 23 30 85 31 24 32 25 33 26 34 79 35 27 36 84 37
REMARK SMILES IDX 78 38 80 39 28 40 83 41 77 42 76 43 29 45 63 46 42 47 62 48
REMARK SMILES IDX 43 49 46 50 61 51 81 52 44 53 45 54 60 56 82 57 47 58 30 59
REMARK SMILES IDX 31 60 40 61 32 62 33 63 39 64 41 65 34 66 35 67 36 68 37 69
REMARK SMILES IDX 38 70 64 71 65 72 74 73 66 74 67 75 73 76 75 77 68 78 69 79
REMARK SMILES IDX 70 80 71 81 72 82 48 83 49 84 58 85 50 86 51 87 57 88 59 89
REMARK SMILES IDX 52 90 53 91 54 92 55 93 56 94
REMARK H PARENT 14 6 10 19 10 20 10 21 18 25 80 44 46 55
REMARK Flexibility Score: inf
ROOT
ATOM      1  C   UNL A   1      32.360  27.691  26.880  1.00  0.00     0.042 C 
ENDROOT
BRANCH   1   2
ATOM      2  C   UNL A   1      32.290  26.408  26.062  1.00  0.00     0.117 C 
BRANCH   2   3
ATOM      3  N   UNL A   1      31.542  25.393  26.777  1.00  0.00    -0.356 N 
ATOM      4  C   UNL A   1      31.815  24.069  26.934  1.00  0.00     0.226 C 
ATOM      5  O   UNL A   1      30.954  23.354  27.450  1.00  0.00    -0.275 OA
ATOM      6  H   UNL A   1      30.716  25.707  27.211  1.00  0.00     0.163 HD
BRANCH   4   7
ATOM      7  C   UNL A   1      33.167  23.505  26.549  1.00  0.00     0.175 C 
BRANCH   7   8
ATOM      8  C   UNL A   1      33.230  21.977  26.588  1.00  0.00     0.280 C 
BRANCH   8   9
ATOM      9  C   UNL A   1      33.301  21.273  25.207  1.00  0.00     0.281 C 
ATOM     10  O   UNL A   1      33.099  21.947  24.190  1.00  0.00    -0.268 OA
BRANCH   9  11
ATOM     11  N   UNL A   1      33.578  19.926  25.105  1.00  0.00    -0.337 N 
ATOM     12  C   UNL A   1      32.883  17.712  23.039  1.00  0.00     0.013 C 
ATOM     13  C   UNL A   1      33.295  17.647  24.518  1.00  0.00    -0.016 C 
ATOM     14  C   UNL A   1      32.918  16.289  25.105  1.00  0.00     0.013 C 
ATOM     15  C   UNL A   1      34.792  17.945  24.679  1.00  0.00     0.030 C 
ATOM     16  C   UNL A   1      32.669  18.805  25.313  1.00  0.00     0.126 C 
ATOM     17  C   UNL A   1      34.852  19.462  24.562  1.00  0.00     0.120 C 
ENDBRANCH   9  11
ENDBRANCH   8   9
BRANCH   8  18
ATOM     18  N   UNL A   1      34.379  21.511  27.410  1.00  0.00    -0.347 N 
ATOM     19  H   UNL A   1      34.875  22.317  27.788  1.00  0.00     0.345 HD
ATOM     20  H   UNL A   1      35.013  20.964  26.829  1.00  0.00     0.345 HD
ATOM     21  H   UNL A   1      34.036  20.932  28.177  1.00  0.00     0.345 HD
ENDBRANCH   8  18
ENDBRANCH   7   8
ENDBRANCH   4   7
ENDBRANCH   2   3
ENDBRANCH   1   2
BRANCH   1  22
ATOM     22  C   UNL A   1      33.700  28.398  26.813  1.00  0.00     0.118 C 
BRANCH  22  23
ATOM     23  N   UNL A   1      33.639  29.750  27.360  1.00  0.00    -0.352 N 
ATOM     24  C   UNL A   1      34.540  30.466  28.113  1.00  0.00     0.251 C 
ATOM     25  H   UNL A   1      32.807  30.234  27.154  1.00  0.00     0.163 HD
ATOM     26  O   UNL A   1      34.173  31.523  28.618  1.00  0.00    -0.269 OA
BRANCH  24  27
ATOM     27  C   UNL A   1      35.919  29.975  28.342  1.00  0.00     0.039 A 
ATOM     28  C   UNL A   1      36.845  30.053  27.297  1.00  0.00     0.014 A 
ATOM     29  C   UNL A   1      36.307  29.415  29.561  1.00  0.00     0.014 A 
ATOM     30  C   UNL A   1      38.168  29.650  27.503  1.00  0.00     0.010 A 
ATOM     31  C   UNL A   1      37.646  29.127  29.801  1.00  0.00     0.010 A 
ATOM     32  C   UNL A   1      38.592  29.231  28.774  1.00  0.00    -0.014 A 
BRANCH  32  33
ATOM     33  C   UNL A   1      40.012  28.895  29.055  1.00  0.00     0.031 A 
ATOM     34  C   UNL A   1      40.936  29.939  29.625  1.00  0.00     0.074 A 
ATOM     35  C   UNL A   1      40.486  27.679  28.720  1.00  0.00     0.049 A 
ATOM     36  N   UNL A   1      42.224  29.873  29.841  1.00  0.00    -0.248 NA
ATOM     37  C   UNL A   1      40.340  31.243  29.964  1.00  0.00     0.031 C 
ATOM     38  C   UNL A   1      39.701  26.602  28.110  1.00  0.00     0.029 A 
ATOM     39  N   UNL A   1      41.746  27.146  28.829  1.00  0.00    -0.354 N 
ATOM     40  C   UNL A   1      42.593  31.125  30.322  1.00  0.00     0.074 A 
ATOM     41  C   UNL A   1      41.406  31.949  30.309  1.00  0.00     0.031 C 
ATOM     42  C   UNL A   1      40.489  25.532  27.925  1.00  0.00     0.029 A 
ATOM     43  C   UNL A   1      41.845  25.859  28.352  1.00  0.00     0.049 A 
ATOM     44  H   UNL A   1      42.508  27.636  29.212  1.00  0.00     0.167 HD
ATOM     45  C   UNL A   1      43.806  31.540  30.758  1.00  0.00     0.037 A 
ATOM     46  C   UNL A   1      42.910  25.039  28.254  1.00  0.00     0.037 A 
ATOM     47  C   UNL A   1      44.976  30.701  30.791  1.00  0.00     0.049 A 
ATOM     48  C   UNL A   1      44.250  25.527  28.735  1.00  0.00     0.074 A 
ATOM     49  C   UNL A   1      46.237  31.003  31.273  1.00  0.00     0.029 A 
ATOM     50  N   UNL A   1      45.030  29.397  30.318  1.00  0.00    -0.354 N 
ATOM     51  N   UNL A   1      44.566  26.690  29.253  1.00  0.00    -0.248 NA
ATOM     52  C   UNL A   1      45.377  24.592  28.622  1.00  0.00     0.031 C 
ATOM     53  C   UNL A   1      47.067  29.902  31.042  1.00  0.00     0.029 A 
ATOM     54  C   UNL A   1      46.310  28.891  30.471  1.00  0.00     0.049 A 
ATOM     55  H   UNL A   1      44.271  28.905  29.931  1.00  0.00     0.167 HD
ATOM     56  C   UNL A   1      45.922  26.618  29.551  1.00  0.00     0.074 A 
ATOM     57  C   UNL A   1      46.362  25.293  29.169  1.00  0.00     0.031 C 
ATOM     58  C   UNL A   1      46.730  27.565  30.092  1.00  0.00     0.037 A 
BRANCH  45  59
ATOM     59  C   UNL A   1      43.930  32.962  31.239  1.00  0.00     0.058 A 
ATOM     60  C   UNL A   1      44.189  34.022  30.354  1.00  0.00     0.135 A 
ATOM     61  C   UNL A   1      43.747  33.275  32.595  1.00  0.00     0.135 A 
ATOM     62  F   UNL A   1      44.389  33.780  29.048  1.00  0.00    -0.206 F 
ATOM     63  C   UNL A   1      44.298  35.335  30.801  1.00  0.00     0.059 A 
ATOM     64  C   UNL A   1      43.818  34.586  33.060  1.00  0.00     0.059 A 
ATOM     65  F   UNL A   1      43.496  32.303  33.486  1.00  0.00    -0.206 F 
ATOM     66  C   UNL A   1      44.108  35.608  32.156  1.00  0.00     0.060 A 
BRANCH  66  67
ATOM     67  S   UNL A   1      44.242  37.318  32.716  1.00  0.00     0.124 S 
ATOM     68  O   UNL A   1      45.529  37.298  33.407  1.00  0.00    -0.237 OA
ATOM     69  O   UNL A   1      44.211  38.060  31.461  1.00  0.00    -0.237 OA
ATOM     70  O   UNL A   1      43.073  37.490  33.573  1.00  0.00    -0.744 OA
ENDBRANCH  66  67
ENDBRANCH  45  59
BRANCH  46  71
ATOM     71  C   UNL A   1      42.748  23.671  27.690  1.00  0.00     0.058 A 
ATOM     72  C   UNL A   1      42.511  22.570  28.527  1.00  0.00     0.135 A 
ATOM     73  C   UNL A   1      42.807  23.437  26.308  1.00  0.00     0.135 A 
ATOM     74  F   UNL A   1      42.452  22.740  29.857  1.00  0.00    -0.206 F 
ATOM     75  C   UNL A   1      42.357  21.285  28.017  1.00  0.00     0.059 A 
ATOM     76  C   UNL A   1      42.627  22.166  25.771  1.00  0.00     0.059 A 
ATOM     77  F   UNL A   1      43.015  24.458  25.461  1.00  0.00    -0.206 F 
ATOM     78  C   UNL A   1      42.413  21.094  26.636  1.00  0.00     0.060 A 
BRANCH  78  79
ATOM     79  S   UNL A   1      42.166  19.428  25.982  1.00  0.00     0.124 S 
ATOM     80  O   UNL A   1      43.003  19.453  24.789  1.00  0.00    -0.237 OA
ATOM     81  O   UNL A   1      42.645  18.596  27.081  1.00  0.00    -0.237 OA
ATOM     82  O   UNL A   1      40.727  19.371  25.745  1.00  0.00    -0.744 OA
ENDBRANCH  78  79
ENDBRANCH  46  71
BRANCH  58  83
ATOM     83  C   UNL A   1      48.167  27.194  30.335  1.00  0.00     0.058 A 
ATOM     84  C   UNL A   1      49.164  27.431  29.376  1.00  0.00     0.135 A 
ATOM     85  C   UNL A   1      48.560  26.654  31.571  1.00  0.00     0.135 A 
ATOM     86  F   UNL A   1      48.841  27.938  28.176  1.00  0.00    -0.206 F 
ATOM     87  C   UNL A   1      50.498  27.129  29.627  1.00  0.00     0.059 A 
ATOM     88  C   UNL A   1      49.893  26.374  31.854  1.00  0.00     0.059 A 
ATOM     89  F   UNL A   1      47.648  26.417  32.526  1.00  0.00    -0.206 F 
ATOM     90  C   UNL A   1      50.854  26.607  30.872  1.00  0.00     0.060 A 
BRANCH  90  91
ATOM     91  S   UNL A   1      52.595  26.265  31.200  1.00  0.00     0.124 S 
ATOM     92  O   UNL A   1      52.519  24.978  31.883  1.00  0.00    -0.237 OA
ATOM     93  O   UNL A   1      53.166  26.237  29.857  1.00  0.00    -0.237 OA
ATOM     94  O   UNL A   1      53.015  27.390  32.029  1.00  0.00    -0.744 OA
ENDBRANCH  90  91
ENDBRANCH  58  83
ENDBRANCH  32  33
ENDBRANCH  24  27
ENDBRANCH  22  23
ENDBRANCH   1  22
TORSDOF 17
ENDMDL
MODEL 3
REMARK VINA RESULT:     -11.0      5.993     11.775
REMARK SMILES CC1(C)CCN(C(=O)[C@@H]([NH3+])CC(=O)NCCCNC(=O)c2ccc(-c3c4nc(c(-c5c(F)cc(S(=O)(=O)[O-])cc5F)c5ccc([nH]5)c(-c5c(F)cc(S(=O)(=O)[O-])cc5F)c5nc(c(-c6c(F)cc(S(=O)(=O)[O-])cc6F)c6ccc3[nH]6)C=C5)C=C4)cc2)C1
REMARK SMILES IDX 16 1 15 2 14 3 12 4 13 5 11 7 9 8 7 9 8 10 6 11 1 12 2 13
REMARK SMILES IDX 3 14 4 15 87 16 5 17 10 18 17 22 18 23 19 24 20 26 21 27
REMARK SMILES IDX 22 28 86 29 23 30 85 31 24 32 25 33 26 34 79 35 27 36 84 37
REMARK SMILES IDX 78 38 80 39 28 40 83 41 77 42 76 43 29 45 63 46 42 47 62 48
REMARK SMILES IDX 43 49 46 50 61 51 81 52 44 53 45 54 60 56 82 57 47 58 30 59
REMARK SMILES IDX 31 60 40 61 32 62 33 63 39 64 41 65 34 66 35 67 36 68 37 69
REMARK SMILES IDX 38 70 64 71 65 72 74 73 66 74 67 75 73 76 75 77 68 78 69 79
REMARK SMILES IDX 70 80 71 81 72 82 48 83 49 84 58 85 50 86 51 87 57 88 59 89
REMARK SMILES IDX 52 90 53 91 54 92 55 93 56 94
REMARK H PARENT 14 6 10 19 10 20 10 21 18 25 80 44 46 55
REMARK Flexibility Score: inf
ROOT
ATOM      1  C   UNL A   1      33.056  28.347  25.681  1.00  0.00     0.042 C 
ENDROOT
BRANCH   1   2
ATOM      2  C   UNL A   1      31.538  28.358  25.551  1.00  0.00     0.117 C 
BRANCH   2   3
ATOM      3  N   UNL A   1      31.152  28.477  24.159  1.00  0.00    -0.356 N 
ATOM      4  C   UNL A   1      30.966  27.502  23.227  1.00  0.00     0.226 C 
ATOM      5  O   UNL A   1      30.793  27.841  22.055  1.00  0.00    -0.275 OA
ATOM      6  H   UNL A   1      31.005  29.397  23.840  1.00  0.00     0.163 HD
BRANCH   4   7
ATOM      7  C   UNL A   1      30.903  26.044  23.634  1.00  0.00     0.175 C 
BRANCH   7   8
ATOM      8  C   UNL A   1      31.456  25.087  22.577  1.00  0.00     0.280 C 
BRANCH   8   9
ATOM      9  C   UNL A   1      33.003  25.020  22.476  1.00  0.00     0.281 C 
ATOM     10  O   UNL A   1      33.562  25.641  21.564  1.00  0.00    -0.268 OA
BRANCH   9  11
ATOM     11  N   UNL A   1      33.747  24.283  23.374  1.00  0.00    -0.337 N 
ATOM     12  C   UNL A   1      36.636  23.140  23.385  1.00  0.00     0.013 C 
ATOM     13  C   UNL A   1      35.373  22.756  24.171  1.00  0.00    -0.016 C 
ATOM     14  C   UNL A   1      35.526  21.349  24.747  1.00  0.00     0.013 C 
ATOM     15  C   UNL A   1      35.075  23.792  25.264  1.00  0.00     0.030 C 
ATOM     16  C   UNL A   1      34.119  22.877  23.290  1.00  0.00     0.126 C 
ATOM     17  C   UNL A   1      34.437  24.933  24.485  1.00  0.00     0.120 C 
ENDBRANCH   9  11
ENDBRANCH   8   9
BRANCH   8  18
ATOM     18  N   UNL A   1      30.941  23.707  22.784  1.00  0.00    -0.347 N 
ATOM     19  H   UNL A   1      31.277  23.103  22.035  1.00  0.00     0.345 HD
ATOM     20  H   UNL A   1      29.921  23.720  22.778  1.00  0.00     0.345 HD
ATOM     21  H   UNL A   1      31.271  23.352  23.682  1.00  0.00     0.345 HD
ENDBRANCH   8  18
ENDBRANCH   7   8
ENDBRANCH   4   7
ENDBRANCH   2   3
ENDBRANCH   1   2
BRANCH   1  22
ATOM     22  C   UNL A   1      33.558  28.485  27.106  1.00  0.00     0.118 C 
BRANCH  22  23
ATOM     23  N   UNL A   1      33.535  29.869  27.567  1.00  0.00    -0.352 N 
ATOM     24  C   UNL A   1      34.469  30.616  28.246  1.00  0.00     0.251 C 
ATOM     25  H   UNL A   1      32.705  30.354  27.355  1.00  0.00     0.163 HD
ATOM     26  O   UNL A   1      34.134  31.709  28.694  1.00  0.00    -0.269 OA
BRANCH  24  27
ATOM     27  C   UNL A   1      35.847  30.116  28.466  1.00  0.00     0.039 A 
ATOM     28  C   UNL A   1      36.738  30.099  27.388  1.00  0.00     0.014 A 
ATOM     29  C   UNL A   1      36.267  29.641  29.709  1.00  0.00     0.014 A 
ATOM     30  C   UNL A   1      38.060  29.686  27.579  1.00  0.00     0.010 A 
ATOM     31  C   UNL A   1      37.608  29.346  29.927  1.00  0.00     0.010 A 
ATOM     32  C   UNL A   1      38.520  29.355  28.863  1.00  0.00    -0.014 A 
BRANCH  32  33
ATOM     33  C   UNL A   1      39.943  29.013  29.122  1.00  0.00     0.031 A 
ATOM     34  C   UNL A   1      40.881  30.055  29.674  1.00  0.00     0.074 A 
ATOM     35  C   UNL A   1      40.406  27.794  28.783  1.00  0.00     0.049 A 
ATOM     36  N   UNL A   1      42.172  29.983  29.869  1.00  0.00    -0.248 NA
ATOM     37  C   UNL A   1      40.297  31.362  30.019  1.00  0.00     0.031 C 
ATOM     38  C   UNL A   1      39.606  26.719  28.189  1.00  0.00     0.029 A 
ATOM     39  N   UNL A   1      41.665  27.255  28.872  1.00  0.00    -0.354 N 
ATOM     40  C   UNL A   1      42.555  31.234  30.340  1.00  0.00     0.074 A 
ATOM     41  C   UNL A   1      41.372  32.064  30.345  1.00  0.00     0.031 C 
ATOM     42  C   UNL A   1      40.386  25.644  27.994  1.00  0.00     0.029 A 
ATOM     43  C   UNL A   1      41.750  25.966  28.397  1.00  0.00     0.049 A 
ATOM     44  H   UNL A   1      42.436  27.743  29.241  1.00  0.00     0.167 HD
ATOM     45  C   UNL A   1      43.777  31.645  30.754  1.00  0.00     0.037 A 
ATOM     46  C   UNL A   1      42.810  25.142  28.283  1.00  0.00     0.037 A 
ATOM     47  C   UNL A   1      44.943  30.801  30.770  1.00  0.00     0.049 A 
ATOM     48  C   UNL A   1      44.160  25.624  28.741  1.00  0.00     0.074 A 
ATOM     49  C   UNL A   1      46.214  31.098  31.230  1.00  0.00     0.029 A 
ATOM     50  N   UNL A   1      44.984  29.495  30.300  1.00  0.00    -0.354 N 
ATOM     51  N   UNL A   1      44.489  26.788  29.250  1.00  0.00    -0.248 NA
ATOM     52  C   UNL A   1      45.281  24.684  28.612  1.00  0.00     0.031 C 
ATOM     53  C   UNL A   1      47.035  29.993  30.989  1.00  0.00     0.029 A 
ATOM     54  C   UNL A   1      46.264  28.984  30.433  1.00  0.00     0.049 A 
ATOM     55  H   UNL A   1      44.216  29.006  29.927  1.00  0.00     0.167 HD
ATOM     56  C   UNL A   1      45.850  26.710  29.526  1.00  0.00     0.074 A 
ATOM     57  C   UNL A   1      46.278  25.382  29.141  1.00  0.00     0.031 C 
ATOM     58  C   UNL A   1      46.671  27.655  30.051  1.00  0.00     0.037 A 
BRANCH  45  59
ATOM     59  C   UNL A   1      43.915  33.067  31.229  1.00  0.00     0.058 A 
ATOM     60  C   UNL A   1      43.731  33.418  32.577  1.00  0.00     0.135 A 
ATOM     61  C   UNL A   1      44.273  34.088  30.333  1.00  0.00     0.135 A 
ATOM     62  F   UNL A   1      43.372  32.488  33.476  1.00  0.00    -0.206 F 
ATOM     63  C   UNL A   1      43.863  34.733  33.012  1.00  0.00     0.059 A 
ATOM     64  C   UNL A   1      44.444  35.404  30.752  1.00  0.00     0.059 A 
ATOM     65  F   UNL A   1      44.462  33.810  29.034  1.00  0.00    -0.206 F 
ATOM     66  C   UNL A   1      44.223  35.720  32.093  1.00  0.00     0.060 A 
BRANCH  66  67
ATOM     67  S   UNL A   1      44.400  37.417  32.678  1.00  0.00     0.124 S 
ATOM     68  O   UNL A   1      44.172  38.174  31.449  1.00  0.00    -0.237 OA
ATOM     69  O   UNL A   1      43.347  37.512  33.683  1.00  0.00    -0.237 OA
ATOM     70  O   UNL A   1      45.764  37.460  33.196  1.00  0.00    -0.744 OA
ENDBRANCH  66  67
ENDBRANCH  45  59
BRANCH  46  71
ATOM     71  C   UNL A   1      42.632  23.773  27.726  1.00  0.00     0.058 A 
ATOM     72  C   UNL A   1      42.467  22.666  28.573  1.00  0.00     0.135 A 
ATOM     73  C   UNL A   1      42.605  23.544  26.342  1.00  0.00     0.135 A 
ATOM     74  F   UNL A   1      42.491  22.831  29.904  1.00  0.00    -0.206 F 
ATOM     75  C   UNL A   1      42.300  21.380  28.068  1.00  0.00     0.059 A 
ATOM     76  C   UNL A   1      42.410  22.271  25.813  1.00  0.00     0.059 A 
ATOM     77  F   UNL A   1      42.742  24.571  25.487  1.00  0.00    -0.206 F 
ATOM     78  C   UNL A   1      42.268  21.194  26.686  1.00  0.00     0.060 A 
BRANCH  78  79
ATOM     79  S   UNL A   1      42.004  19.526  26.044  1.00  0.00     0.124 S 
ATOM     80  O   UNL A   1      42.917  19.501  24.907  1.00  0.00    -0.237 OA
ATOM     81  O   UNL A   1      42.382  18.698  27.184  1.00  0.00    -0.237 OA
ATOM     82  O   UNL A   1      40.583  19.514  25.714  1.00  0.00    -0.744 OA
ENDBRANCH  78  79
ENDBRANCH  46  71
BRANCH  58  83
ATOM     83  C   UNL A   1      48.110  27.277  30.271  1.00  0.00     0.058 A 
ATOM     84  C   UNL A   1      49.102  27.560  29.319  1.00  0.00     0.135 A 
ATOM     85  C   UNL A   1      48.511  26.685  31.480  1.00  0.00     0.135 A 
ATOM     86  F   UNL A   1      48.773  28.118  28.144  1.00  0.00    -0.206 F 
ATOM     87  C   UNL A   1      50.439  27.251  29.551  1.00  0.00     0.059 A 
ATOM     88  C   UNL A   1      49.846  26.397  31.745  1.00  0.00     0.059 A 
ATOM     89  F   UNL A   1      47.604  26.403  32.428  1.00  0.00    -0.206 F 
ATOM     90  C   UNL A   1      50.802  26.676  30.770  1.00  0.00     0.060 A 
BRANCH  90  91
ATOM     91  S   UNL A   1      52.545  26.325  31.075  1.00  0.00     0.124 S 
ATOM     92  O   UNL A   1      53.068  26.225  29.717  1.00  0.00    -0.237 OA
ATOM     93  O   UNL A   1      52.970  27.497  31.834  1.00  0.00    -0.237 OA
ATOM     94  O   UNL A   1      52.515  25.075  31.829  1.00  0.00    -0.744 OA
ENDBRANCH  90  91
ENDBRANCH  58  83
ENDBRANCH  32  33
ENDBRANCH  24  27
ENDBRANCH  22  23
ENDBRANCH   1  22
TORSDOF 17
ENDMDL
