MODEL 1
REMARK VINA RESULT:     -12.2      0.000      0.000
REMARK SMILES C[C@@H]1C[C@H](C)C[C@H]([N@@H+]2[C@@H](C(=O)NCCCNC(=O)c3ccc(-c4c5nc(c(-c6c(F)cc(S(=O)(=O)[O-])cc6F)c6ccc([nH]6)c(-c6c(F)cc(S(=O)(=O)[O-])cc6F)c6nc(c(-c7c(F)cc(S(=O)(=O)[O-])cc7F)c7ccc4[nH]7)C=C6)C=C5)cc3)CC[C@@H]3CCCC[C@@H]32)C1
REMARK SMILES IDX 15 1 14 2 13 3 12 4 10 5 11 6 9 8 8 9 92 10 85 12 87 13
REMARK SMILES IDX 91 14 86 15 88 16 90 17 89 18 7 19 5 20 4 21 6 22 3 23 2 24
REMARK SMILES IDX 93 25 1 26 16 27 17 28 18 30 19 31 20 32 84 33 21 34 83 35
REMARK SMILES IDX 22 36 23 37 24 38 77 39 25 40 82 41 76 42 78 43 26 44 81 45
REMARK SMILES IDX 75 46 74 47 27 49 61 50 40 51 60 52 41 53 44 54 59 55 79 56
REMARK SMILES IDX 42 57 43 58 58 60 80 61 45 62 28 63 29 64 38 65 30 66 31 67
REMARK SMILES IDX 37 68 39 69 32 70 33 71 34 72 35 73 36 74 62 75 63 76 72 77
REMARK SMILES IDX 64 78 65 79 71 80 73 81 66 82 67 83 68 84 69 85 70 86 46 87
REMARK SMILES IDX 47 88 56 89 48 90 49 91 55 92 57 93 50 94 51 95 52 96 53 97
REMARK SMILES IDX 54 98
REMARK H PARENT 12 7 8 11 16 29 78 48 44 59
REMARK Flexibility Score: inf
ROOT
ATOM      1  C   UNL A   1      40.166  22.890  26.876  1.00  0.00     0.118 C 
ENDROOT
BRANCH   1   2
ATOM      2  C   UNL A   1      39.361  21.843  26.135  1.00  0.00     0.042 C 
BRANCH   2   3
ATOM      3  C   UNL A   1      37.938  22.287  25.854  1.00  0.00     0.118 C 
BRANCH   3   4
ATOM      4  N   UNL A   1      37.557  22.349  24.438  1.00  0.00    -0.351 N 
ATOM      5  C   UNL A   1      36.420  22.884  23.836  1.00  0.00     0.278 C 
ATOM      6  O   UNL A   1      36.390  22.975  22.610  1.00  0.00    -0.268 OA
ATOM      7  H   UNL A   1      38.208  21.952  23.816  1.00  0.00     0.163 HD
BRANCH   5   8
ATOM      8  C   UNL A   1      35.246  23.238  24.771  1.00  0.00     0.274 C 
ATOM      9  N   UNL A   1      33.843  23.045  24.201  1.00  0.00    -0.320 N 
ATOM     10  C   UNL A   1      33.158  24.327  23.760  1.00  0.00     0.188 C 
ATOM     11  H   UNL A   1      33.882  22.506  23.337  1.00  0.00     0.349 HD
ATOM     12  C   UNL A   1      35.546  24.371  25.766  1.00  0.00     0.076 C 
ATOM     13  C   UNL A   1      33.448  25.627  25.128  1.00  0.00     0.048 C 
ATOM     14  C   UNL A   1      31.352  24.339  22.931  1.00  0.00     0.065 C 
ATOM     15  C   UNL A   1      34.852  25.680  25.662  1.00  0.00     0.016 C 
ATOM     16  C   UNL A   1      31.980  26.209  26.213  1.00  0.00     0.010 C 
ATOM     17  C   UNL A   1      29.810  25.202  23.859  1.00  0.00     0.006 C 
ATOM     18  C   UNL A   1      30.187  26.236  25.464  1.00  0.00     0.001 C 
BRANCH   9  19
ATOM     19  C   UNL A   1      33.105  22.371  25.273  1.00  0.00     0.185 C 
ATOM     20  C   UNL A   1      32.152  21.400  21.406  1.00  0.00     0.008 C 
ATOM     21  C   UNL A   1      32.001  20.934  23.447  1.00  0.00    -0.008 C 
ATOM     22  C   UNL A   1      31.792  21.913  24.702  1.00  0.00     0.068 C 
ATOM     23  C   UNL A   1      32.867  19.689  24.403  1.00  0.00     0.007 C 
ATOM     24  C   UNL A   1      34.026  19.990  25.380  1.00  0.00    -0.008 C 
ATOM     25  C   UNL A   1      33.916  21.335  26.039  1.00  0.00     0.068 C 
ATOM     26  C   UNL A   1      35.458  19.707  24.893  1.00  0.00     0.008 C 
ENDBRANCH   9  19
ENDBRANCH   5   8
ENDBRANCH   3   4
ENDBRANCH   2   3
ENDBRANCH   1   2
BRANCH   1  27
ATOM     27  N   UNL A   1      41.334  23.328  26.111  1.00  0.00    -0.352 N 
ATOM     28  C   UNL A   1      41.946  24.558  26.041  1.00  0.00     0.251 C 
ATOM     29  H   UNL A   1      41.749  22.628  25.557  1.00  0.00     0.163 HD
ATOM     30  O   UNL A   1      42.746  24.793  25.147  1.00  0.00    -0.269 OA
BRANCH  28  31
ATOM     31  C   UNL A   1      41.618  25.582  27.051  1.00  0.00     0.039 A 
ATOM     32  C   UNL A   1      40.675  25.304  28.043  1.00  0.00     0.014 A 
ATOM     33  C   UNL A   1      42.268  26.815  27.020  1.00  0.00     0.014 A 
ATOM     34  C   UNL A   1      40.456  26.238  29.058  1.00  0.00     0.010 A 
ATOM     35  C   UNL A   1      42.142  27.683  28.091  1.00  0.00     0.010 A 
ATOM     36  C   UNL A   1      41.226  27.410  29.115  1.00  0.00    -0.014 A 
BRANCH  36  37
ATOM     37  C   UNL A   1      41.096  28.392  30.220  1.00  0.00     0.031 A 
ATOM     38  C   UNL A   1      41.972  28.253  31.435  1.00  0.00     0.074 A 
ATOM     39  C   UNL A   1      40.126  29.326  30.173  1.00  0.00     0.049 A 
ATOM     40  N   UNL A   1      41.919  28.901  32.568  1.00  0.00    -0.248 NA
ATOM     41  C   UNL A   1      43.021  27.220  31.384  1.00  0.00     0.031 C 
ATOM     42  C   UNL A   1      39.185  29.519  29.067  1.00  0.00     0.029 A 
ATOM     43  N   UNL A   1      39.755  30.275  31.091  1.00  0.00    -0.354 N 
ATOM     44  C   UNL A   1      42.906  28.340  33.369  1.00  0.00     0.074 A 
ATOM     45  C   UNL A   1      43.499  27.257  32.618  1.00  0.00     0.031 C 
ATOM     46  C   UNL A   1      38.362  30.538  29.362  1.00  0.00     0.029 A 
ATOM     47  C   UNL A   1      38.679  31.034  30.696  1.00  0.00     0.049 A 
ATOM     48  H   UNL A   1      40.218  30.401  31.951  1.00  0.00     0.167 HD
ATOM     49  C   UNL A   1      43.300  28.713  34.609  1.00  0.00     0.037 A 
ATOM     50  C   UNL A   1      38.013  32.009  31.346  1.00  0.00     0.037 A 
ATOM     51  C   UNL A   1      42.720  29.812  35.332  1.00  0.00     0.049 A 
ATOM     52  C   UNL A   1      38.465  32.402  32.727  1.00  0.00     0.074 A 
ATOM     53  C   UNL A   1      43.083  30.313  36.569  1.00  0.00     0.029 A 
ATOM     54  N   UNL A   1      41.655  30.580  34.884  1.00  0.00    -0.354 N 
ATOM     55  N   UNL A   1      39.440  31.901  33.448  1.00  0.00    -0.248 NA
ATOM     56  C   UNL A   1      37.731  33.493  33.383  1.00  0.00     0.031 C 
ATOM     57  C   UNL A   1      42.201  31.349  36.893  1.00  0.00     0.029 A 
ATOM     58  C   UNL A   1      41.332  31.538  35.829  1.00  0.00     0.049 A 
ATOM     59  H   UNL A   1      41.197  30.462  34.021  1.00  0.00     0.167 HD
ATOM     60  C   UNL A   1      39.463  32.642  34.624  1.00  0.00     0.074 A 
ATOM     61  C   UNL A   1      38.405  33.626  34.517  1.00  0.00     0.031 C 
ATOM     62  C   UNL A   1      40.289  32.524  35.693  1.00  0.00     0.037 A 
BRANCH  49  63
ATOM     63  C   UNL A   1      44.411  27.931  35.256  1.00  0.00     0.058 A 
ATOM     64  C   UNL A   1      44.155  26.823  36.079  1.00  0.00     0.135 A 
ATOM     65  C   UNL A   1      45.754  28.274  35.024  1.00  0.00     0.135 A 
ATOM     66  F   UNL A   1      42.891  26.460  36.352  1.00  0.00    -0.206 F 
ATOM     67  C   UNL A   1      45.185  26.102  36.673  1.00  0.00     0.059 A 
ATOM     68  C   UNL A   1      46.802  27.547  35.580  1.00  0.00     0.059 A 
ATOM     69  F   UNL A   1      46.059  29.327  34.249  1.00  0.00    -0.206 F 
ATOM     70  C   UNL A   1      46.506  26.470  36.414  1.00  0.00     0.060 A 
BRANCH  70  71
ATOM     71  S   UNL A   1      47.830  25.514  37.183  1.00  0.00     0.124 S 
ATOM     72  O   UNL A   1      47.179  25.042  38.401  1.00  0.00    -0.237 OA
ATOM     73  O   UNL A   1      48.102  24.495  36.175  1.00  0.00    -0.237 OA
ATOM     74  O   UNL A   1      48.890  26.498  37.379  1.00  0.00    -0.744 OA
ENDBRANCH  70  71
ENDBRANCH  49  63
BRANCH  50  75
ATOM     75  C   UNL A   1      36.865  32.692  30.689  1.00  0.00     0.058 A 
ATOM     76  C   UNL A   1      35.543  32.383  31.046  1.00  0.00     0.135 A 
ATOM     77  C   UNL A   1      37.062  33.675  29.707  1.00  0.00     0.135 A 
ATOM     78  F   UNL A   1      35.301  31.449  31.978  1.00  0.00    -0.206 F 
ATOM     79  C   UNL A   1      34.459  33.009  30.441  1.00  0.00     0.059 A 
ATOM     80  C   UNL A   1      35.995  34.335  29.108  1.00  0.00     0.059 A 
ATOM     81  F   UNL A   1      38.307  34.023  29.343  1.00  0.00    -0.206 F 
ATOM     82  C   UNL A   1      34.695  33.988  29.474  1.00  0.00     0.060 A 
BRANCH  82  83
ATOM     83  S   UNL A   1      33.280  34.825  28.726  1.00  0.00     0.124 S 
ATOM     84  O   UNL A   1      33.919  35.968  28.086  1.00  0.00    -0.237 OA
ATOM     85  O   UNL A   1      32.757  33.798  27.830  1.00  0.00    -0.237 OA
ATOM     86  O   UNL A   1      32.431  35.135  29.873  1.00  0.00    -0.744 OA
ENDBRANCH  82  83
ENDBRANCH  50  75
BRANCH  62  87
ATOM     87  C   UNL A   1      40.131  33.516  36.812  1.00  0.00     0.058 A 
ATOM     88  C   UNL A   1      40.859  34.714  36.853  1.00  0.00     0.135 A 
ATOM     89  C   UNL A   1      39.168  33.297  37.811  1.00  0.00     0.135 A 
ATOM     90  F   UNL A   1      41.796  34.968  35.926  1.00  0.00    -0.206 F 
ATOM     91  C   UNL A   1      40.647  35.657  37.854  1.00  0.00     0.059 A 
ATOM     92  C   UNL A   1      38.918  34.239  38.803  1.00  0.00     0.059 A 
ATOM     93  F   UNL A   1      38.438  32.170  37.813  1.00  0.00    -0.206 F 
ATOM     94  C   UNL A   1      39.667  35.414  38.820  1.00  0.00     0.060 A 
BRANCH  94  95
ATOM     95  S   UNL A   1      39.361  36.672  40.076  1.00  0.00     0.124 S 
ATOM     96  O   UNL A   1      40.690  36.840  40.655  1.00  0.00    -0.237 OA
ATOM     97  O   UNL A   1      38.871  37.792  39.280  1.00  0.00    -0.237 OA
ATOM     98  O   UNL A   1      38.370  36.050  40.949  1.00  0.00    -0.744 OA
ENDBRANCH  94  95
ENDBRANCH  62  87
ENDBRANCH  36  37
ENDBRANCH  28  31
ENDBRANCH   1  27
TORSDOF 14
ENDMDL
MODEL 2
REMARK VINA RESULT:     -12.1      6.234     11.698
REMARK SMILES C[C@@H]1C[C@H](C)C[C@H]([N@@H+]2[C@@H](C(=O)NCCCNC(=O)c3ccc(-c4c5nc(c(-c6c(F)cc(S(=O)(=O)[O-])cc6F)c6ccc([nH]6)c(-c6c(F)cc(S(=O)(=O)[O-])cc6F)c6nc(c(-c7c(F)cc(S(=O)(=O)[O-])cc7F)c7ccc4[nH]7)C=C6)C=C5)cc3)CC[C@@H]3CCCC[C@@H]32)C1
REMARK SMILES IDX 15 1 14 2 13 3 12 4 10 5 11 6 9 8 8 9 92 10 85 12 87 13
REMARK SMILES IDX 91 14 86 15 88 16 90 17 89 18 7 19 5 20 4 21 6 22 3 23 2 24
REMARK SMILES IDX 93 25 1 26 16 27 17 28 18 30 19 31 20 32 84 33 21 34 83 35
REMARK SMILES IDX 22 36 23 37 24 38 77 39 25 40 82 41 76 42 78 43 26 44 81 45
REMARK SMILES IDX 75 46 74 47 27 49 61 50 40 51 60 52 41 53 44 54 59 55 79 56
REMARK SMILES IDX 42 57 43 58 58 60 80 61 45 62 28 63 29 64 38 65 30 66 31 67
REMARK SMILES IDX 37 68 39 69 32 70 33 71 34 72 35 73 36 74 62 75 63 76 72 77
REMARK SMILES IDX 64 78 65 79 71 80 73 81 66 82 67 83 68 84 69 85 70 86 46 87
REMARK SMILES IDX 47 88 56 89 48 90 49 91 55 92 57 93 50 94 51 95 52 96 53 97
REMARK SMILES IDX 54 98
REMARK H PARENT 12 7 8 11 16 29 78 48 44 59
REMARK Flexibility Score: inf
ROOT
ATOM      1  C   UNL A   1      35.337  30.952  28.475  1.00  0.00     0.118 C 
ENDROOT
BRANCH   1   2
ATOM      2  C   UNL A   1      34.022  31.436  27.902  1.00  0.00     0.042 C 
BRANCH   2   3
ATOM      3  C   UNL A   1      33.407  30.451  26.926  1.00  0.00     0.118 C 
BRANCH   3   4
ATOM      4  N   UNL A   1      32.296  29.646  27.447  1.00  0.00    -0.351 N 
ATOM      5  C   UNL A   1      31.900  28.348  27.129  1.00  0.00     0.278 C 
ATOM      6  O   UNL A   1      31.034  27.811  27.818  1.00  0.00    -0.268 OA
ATOM      7  H   UNL A   1      31.744  30.093  28.129  1.00  0.00     0.163 HD
BRANCH   5   8
ATOM      8  C   UNL A   1      32.530  27.724  25.868  1.00  0.00     0.274 C 
ATOM      9  N   UNL A   1      31.609  26.865  25.005  1.00  0.00    -0.320 N 
ATOM     10  C   UNL A   1      31.801  25.368  25.171  1.00  0.00     0.188 C 
ATOM     11  H   UNL A   1      30.637  26.996  25.283  1.00  0.00     0.349 HD
ATOM     12  C   UNL A   1      34.024  27.392  26.003  1.00  0.00     0.076 C 
ATOM     13  C   UNL A   1      33.682  25.031  25.166  1.00  0.00     0.048 C 
ATOM     14  C   UNL A   1      30.688  24.036  24.204  1.00  0.00     0.065 C 
ATOM     15  C   UNL A   1      34.495  25.983  25.998  1.00  0.00     0.016 C 
ATOM     16  C   UNL A   1      34.480  24.119  23.684  1.00  0.00     0.010 C 
ATOM     17  C   UNL A   1      31.501  22.819  22.848  1.00  0.00     0.006 C 
ATOM     18  C   UNL A   1      33.441  22.811  22.691  1.00  0.00     0.001 C 
BRANCH   9  19
ATOM     19  C   UNL A   1      31.884  27.303  23.634  1.00  0.00     0.185 C 
ATOM     20  C   UNL A   1      28.062  26.118  24.521  1.00  0.00     0.008 C 
ATOM     21  C   UNL A   1      29.361  27.081  23.183  1.00  0.00    -0.008 C 
ATOM     22  C   UNL A   1      30.850  26.676  22.741  1.00  0.00     0.068 C 
ATOM     23  C   UNL A   1      29.619  28.833  22.902  1.00  0.00     0.007 C 
ATOM     24  C   UNL A   1      30.845  29.626  23.409  1.00  0.00    -0.008 C 
ATOM     25  C   UNL A   1      32.098  28.803  23.483  1.00  0.00     0.068 C 
ATOM     26  C   UNL A   1      30.657  30.499  24.662  1.00  0.00     0.008 C 
ENDBRANCH   9  19
ENDBRANCH   5   8
ENDBRANCH   3   4
ENDBRANCH   2   3
ENDBRANCH   1   2
BRANCH   1  27
ATOM     27  N   UNL A   1      35.472  31.278  29.894  1.00  0.00    -0.352 N 
ATOM     28  C   UNL A   1      36.433  30.912  30.807  1.00  0.00     0.251 C 
ATOM     29  H   UNL A   1      34.758  31.853  30.254  1.00  0.00     0.163 HD
ATOM     30  O   UNL A   1      36.231  31.067  32.003  1.00  0.00    -0.269 OA
BRANCH  28  31
ATOM     31  C   UNL A   1      37.699  30.329  30.324  1.00  0.00     0.039 A 
ATOM     32  C   UNL A   1      38.048  30.445  28.976  1.00  0.00     0.014 A 
ATOM     33  C   UNL A   1      38.549  29.683  31.220  1.00  0.00     0.014 A 
ATOM     34  C   UNL A   1      39.298  29.989  28.553  1.00  0.00     0.010 A 
ATOM     35  C   UNL A   1      39.833  29.346  30.826  1.00  0.00     0.010 A 
ATOM     36  C   UNL A   1      40.217  29.484  29.486  1.00  0.00    -0.014 A 
BRANCH  36  37
ATOM     37  C   UNL A   1      41.589  29.069  29.104  1.00  0.00     0.031 A 
ATOM     38  C   UNL A   1      42.684  30.099  29.058  1.00  0.00     0.074 A 
ATOM     39  C   UNL A   1      41.816  27.804  28.698  1.00  0.00     0.049 A 
ATOM     40  N   UNL A   1      43.905  29.986  28.608  1.00  0.00    -0.248 NA
ATOM     41  C   UNL A   1      42.348  31.449  29.544  1.00  0.00     0.031 C 
ATOM     42  C   UNL A   1      40.817  26.734  28.653  1.00  0.00     0.029 A 
ATOM     43  N   UNL A   1      42.958  27.210  28.225  1.00  0.00    -0.354 N 
ATOM     44  C   UNL A   1      44.472  31.248  28.734  1.00  0.00     0.074 A 
ATOM     45  C   UNL A   1      43.444  32.128  29.242  1.00  0.00     0.031 C 
ATOM     46  C   UNL A   1      41.395  25.611  28.199  1.00  0.00     0.029 A 
ATOM     47  C   UNL A   1      42.788  25.892  27.871  1.00  0.00     0.049 A 
ATOM     48  H   UNL A   1      43.818  27.683  28.146  1.00  0.00     0.167 HD
ATOM     49  C   UNL A   1      45.743  31.632  28.477  1.00  0.00     0.037 A 
ATOM     50  C   UNL A   1      43.655  25.015  27.328  1.00  0.00     0.037 A 
ATOM     51  C   UNL A   1      46.764  30.738  28.000  1.00  0.00     0.049 A 
ATOM     52  C   UNL A   1      45.062  25.467  27.042  1.00  0.00     0.074 A 
ATOM     53  C   UNL A   1      48.099  31.009  27.762  1.00  0.00     0.029 A 
ATOM     54  N   UNL A   1      46.562  29.402  27.688  1.00  0.00    -0.354 N 
ATOM     55  N   UNL A   1      45.601  26.649  27.224  1.00  0.00    -0.248 NA
ATOM     56  C   UNL A   1      45.983  24.468  26.482  1.00  0.00     0.031 C 
ATOM     57  C   UNL A   1      48.693  29.849  27.253  1.00  0.00     0.029 A 
ATOM     58  C   UNL A   1      47.744  28.838  27.238  1.00  0.00     0.049 A 
ATOM     59  H   UNL A   1      45.706  28.924  27.774  1.00  0.00     0.167 HD
ATOM     60  C   UNL A   1      46.931  26.526  26.840  1.00  0.00     0.074 A 
ATOM     61  C   UNL A   1      47.116  25.152  26.417  1.00  0.00     0.031 C 
ATOM     62  C   UNL A   1      47.913  27.462  26.843  1.00  0.00     0.037 A 
BRANCH  49  63
ATOM     63  C   UNL A   1      46.101  33.075  28.710  1.00  0.00     0.058 A 
ATOM     64  C   UNL A   1      45.976  34.042  27.699  1.00  0.00     0.135 A 
ATOM     65  C   UNL A   1      46.544  33.506  29.972  1.00  0.00     0.135 A 
ATOM     66  F   UNL A   1      45.577  33.685  26.467  1.00  0.00    -0.206 F 
ATOM     67  C   UNL A   1      46.306  35.375  27.919  1.00  0.00     0.059 A 
ATOM     68  C   UNL A   1      46.846  34.840  30.225  1.00  0.00     0.059 A 
ATOM     69  F   UNL A   1      46.686  32.625  30.975  1.00  0.00    -0.206 F 
ATOM     70  C   UNL A   1      46.737  35.765  29.188  1.00  0.00     0.060 A 
BRANCH  70  71
ATOM     71  S   UNL A   1      47.147  37.501  29.460  1.00  0.00     0.124 S 
ATOM     72  O   UNL A   1      48.026  37.773  28.326  1.00  0.00    -0.237 OA
ATOM     73  O   UNL A   1      45.836  38.140  29.411  1.00  0.00    -0.237 OA
ATOM     74  O   UNL A   1      47.793  37.498  30.768  1.00  0.00    -0.744 OA
ENDBRANCH  70  71
ENDBRANCH  49  63
BRANCH  50  75
ATOM     75  C   UNL A   1      43.222  23.621  27.039  1.00  0.00     0.058 A 
ATOM     76  C   UNL A   1      43.059  22.688  28.074  1.00  0.00     0.135 A 
ATOM     77  C   UNL A   1      42.945  23.197  25.729  1.00  0.00     0.135 A 
ATOM     78  F   UNL A   1      43.314  23.042  29.342  1.00  0.00    -0.206 F 
ATOM     79  C   UNL A   1      42.658  21.380  27.822  1.00  0.00     0.059 A 
ATOM     80  C   UNL A   1      42.515  21.903  25.455  1.00  0.00     0.059 A 
ATOM     81  F   UNL A   1      43.064  24.056  24.704  1.00  0.00    -0.206 F 
ATOM     82  C   UNL A   1      42.385  20.998  26.507  1.00  0.00     0.060 A 
BRANCH  82  83
ATOM     83  S   UNL A   1      41.822  19.310  26.196  1.00  0.00     0.124 S 
ATOM     84  O   UNL A   1      42.633  18.937  25.044  1.00  0.00    -0.237 OA
ATOM     85  O   UNL A   1      42.150  18.644  27.453  1.00  0.00    -0.237 OA
ATOM     86  O   UNL A   1      40.394  19.475  25.938  1.00  0.00    -0.744 OA
ENDBRANCH  82  83
ENDBRANCH  50  75
BRANCH  62  87
ATOM     87  C   UNL A   1      49.293  27.028  26.435  1.00  0.00     0.058 A 
ATOM     88  C   UNL A   1      50.181  26.425  27.338  1.00  0.00     0.135 A 
ATOM     89  C   UNL A   1      49.696  27.143  25.094  1.00  0.00     0.135 A 
ATOM     90  F   UNL A   1      49.848  26.298  28.632  1.00  0.00    -0.206 F 
ATOM     91  C   UNL A   1      51.426  25.960  26.928  1.00  0.00     0.059 A 
ATOM     92  C   UNL A   1      50.923  26.657  24.656  1.00  0.00     0.059 A 
ATOM     93  F   UNL A   1      48.880  27.704  24.188  1.00  0.00    -0.206 F 
ATOM     94  C   UNL A   1      51.785  26.073  25.582  1.00  0.00     0.060 A 
BRANCH  94  95
ATOM     95  S   UNL A   1      53.378  25.411  25.054  1.00  0.00     0.124 S 
ATOM     96  O   UNL A   1      54.308  26.237  25.816  1.00  0.00    -0.237 OA
ATOM     97  O   UNL A   1      53.286  24.014  25.467  1.00  0.00    -0.237 OA
ATOM     98  O   UNL A   1      53.378  25.632  23.610  1.00  0.00    -0.744 OA
ENDBRANCH  94  95
ENDBRANCH  62  87
ENDBRANCH  36  37
ENDBRANCH  28  31
ENDBRANCH   1  27
TORSDOF 14
ENDMDL
MODEL 3
REMARK VINA RESULT:     -12.1      0.738      8.180
REMARK SMILES C[C@@H]1C[C@H](C)C[C@H]([N@@H+]2[C@@H](C(=O)NCCCNC(=O)c3ccc(-c4c5nc(c(-c6c(F)cc(S(=O)(=O)[O-])cc6F)c6ccc([nH]6)c(-c6c(F)cc(S(=O)(=O)[O-])cc6F)c6nc(c(-c7c(F)cc(S(=O)(=O)[O-])cc7F)c7ccc4[nH]7)C=C6)C=C5)cc3)CC[C@@H]3CCCC[C@@H]32)C1
REMARK SMILES IDX 15 1 14 2 13 3 12 4 10 5 11 6 9 8 8 9 92 10 85 12 87 13
REMARK SMILES IDX 91 14 86 15 88 16 90 17 89 18 7 19 5 20 4 21 6 22 3 23 2 24
REMARK SMILES IDX 93 25 1 26 16 27 17 28 18 30 19 31 20 32 84 33 21 34 83 35
REMARK SMILES IDX 22 36 23 37 24 38 77 39 25 40 82 41 76 42 78 43 26 44 81 45
REMARK SMILES IDX 75 46 74 47 27 49 61 50 40 51 60 52 41 53 44 54 59 55 79 56
REMARK SMILES IDX 42 57 43 58 58 60 80 61 45 62 28 63 29 64 38 65 30 66 31 67
REMARK SMILES IDX 37 68 39 69 32 70 33 71 34 72 35 73 36 74 62 75 63 76 72 77
REMARK SMILES IDX 64 78 65 79 71 80 73 81 66 82 67 83 68 84 69 85 70 86 46 87
REMARK SMILES IDX 47 88 56 89 48 90 49 91 55 92 57 93 50 94 51 95 52 96 53 97
REMARK SMILES IDX 54 98
REMARK H PARENT 12 7 8 11 16 29 78 48 44 59
REMARK Flexibility Score: inf
ROOT
ATOM      1  C   UNL A   1      40.086  23.434  26.979  1.00  0.00     0.118 C 
ENDROOT
BRANCH   1   2
ATOM      2  C   UNL A   1      39.437  22.240  26.311  1.00  0.00     0.042 C 
BRANCH   2   3
ATOM      3  C   UNL A   1      37.971  22.467  25.998  1.00  0.00     0.118 C 
BRANCH   3   4
ATOM      4  N   UNL A   1      37.620  22.497  24.573  1.00  0.00    -0.351 N 
ATOM      5  C   UNL A   1      36.481  22.988  23.938  1.00  0.00     0.278 C 
ATOM      6  O   UNL A   1      36.475  23.060  22.711  1.00  0.00    -0.268 OA
ATOM      7  H   UNL A   1      38.296  22.109  23.971  1.00  0.00     0.163 HD
BRANCH   5   8
ATOM      8  C   UNL A   1      35.276  23.320  24.842  1.00  0.00     0.274 C 
ATOM      9  N   UNL A   1      33.893  23.117  24.230  1.00  0.00    -0.320 N 
ATOM     10  C   UNL A   1      33.206  24.395  23.780  1.00  0.00     0.188 C 
ATOM     11  H   UNL A   1      33.963  22.586  23.362  1.00  0.00     0.349 HD
ATOM     12  C   UNL A   1      35.535  24.447  25.855  1.00  0.00     0.076 C 
ATOM     13  C   UNL A   1      33.441  25.686  25.168  1.00  0.00     0.048 C 
ATOM     14  C   UNL A   1      31.425  24.395  22.900  1.00  0.00     0.065 C 
ATOM     15  C   UNL A   1      34.829  25.749  25.742  1.00  0.00     0.016 C 
ATOM     16  C   UNL A   1      31.936  26.241  26.215  1.00  0.00     0.010 C 
ATOM     17  C   UNL A   1      29.847  25.232  23.790  1.00  0.00     0.006 C 
ATOM     18  C   UNL A   1      30.166  26.255  25.415  1.00  0.00     0.001 C 
BRANCH   9  19
ATOM     19  C   UNL A   1      33.132  22.425  25.274  1.00  0.00     0.185 C 
ATOM     20  C   UNL A   1      32.263  21.521  21.371  1.00  0.00     0.008 C 
ATOM     21  C   UNL A   1      32.067  21.019  23.400  1.00  0.00    -0.008 C 
ATOM     22  C   UNL A   1      31.832  21.977  24.667  1.00  0.00     0.068 C 
ATOM     23  C   UNL A   1      32.913  19.759  24.353  1.00  0.00     0.007 C 
ATOM     24  C   UNL A   1      34.051  20.042  25.360  1.00  0.00    -0.008 C 
ATOM     25  C   UNL A   1      33.926  21.376  26.039  1.00  0.00     0.068 C 
ATOM     26  C   UNL A   1      35.493  19.767  24.899  1.00  0.00     0.008 C 
ENDBRANCH   9  19
ENDBRANCH   5   8
ENDBRANCH   3   4
ENDBRANCH   2   3
ENDBRANCH   1   2
BRANCH   1  27
ATOM     27  N   UNL A   1      40.961  24.168  26.064  1.00  0.00    -0.352 N 
ATOM     28  C   UNL A   1      41.272  25.506  26.007  1.00  0.00     0.251 C 
ATOM     29  H   UNL A   1      41.398  23.613  25.378  1.00  0.00     0.163 HD
ATOM     30  O   UNL A   1      41.813  25.967  25.012  1.00  0.00    -0.269 OA
BRANCH  28  31
ATOM     31  C   UNL A   1      40.940  26.371  27.155  1.00  0.00     0.039 A 
ATOM     32  C   UNL A   1      40.021  25.935  28.112  1.00  0.00     0.014 A 
ATOM     33  C   UNL A   1      41.562  27.612  27.288  1.00  0.00     0.014 A 
ATOM     34  C   UNL A   1      39.798  26.712  29.250  1.00  0.00     0.010 A 
ATOM     35  C   UNL A   1      41.435  28.319  28.472  1.00  0.00     0.010 A 
ATOM     36  C   UNL A   1      40.543  27.883  29.460  1.00  0.00    -0.014 A 
BRANCH  36  37
ATOM     37  C   UNL A   1      40.411  28.697  30.693  1.00  0.00     0.031 A 
ATOM     38  C   UNL A   1      39.390  29.801  30.740  1.00  0.00     0.074 A 
ATOM     39  C   UNL A   1      41.274  28.514  31.711  1.00  0.00     0.049 A 
ATOM     40  N   UNL A   1      39.212  30.722  31.650  1.00  0.00    -0.248 NA
ATOM     41  C   UNL A   1      38.473  29.909  29.592  1.00  0.00     0.031 C 
ATOM     42  C   UNL A   1      42.337  27.507  31.752  1.00  0.00     0.029 A 
ATOM     43  N   UNL A   1      41.408  29.184  32.899  1.00  0.00    -0.354 N 
ATOM     44  C   UNL A   1      38.186  31.529  31.174  1.00  0.00     0.074 A 
ATOM     45  C   UNL A   1      37.822  31.029  29.868  1.00  0.00     0.031 C 
ATOM     46  C   UNL A   1      42.999  27.613  32.915  1.00  0.00     0.029 A 
ATOM     47  C   UNL A   1      42.445  28.725  33.678  1.00  0.00     0.049 A 
ATOM     48  H   UNL A   1      40.818  29.924  33.170  1.00  0.00     0.167 HD
ATOM     49  C   UNL A   1      37.582  32.574  31.784  1.00  0.00     0.037 A 
ATOM     50  C   UNL A   1      42.906  29.164  34.866  1.00  0.00     0.037 A 
ATOM     51  C   UNL A   1      37.935  33.042  33.098  1.00  0.00     0.049 A 
ATOM     52  C   UNL A   1      42.223  30.335  35.522  1.00  0.00     0.074 A 
ATOM     53  C   UNL A   1      37.349  34.055  33.834  1.00  0.00     0.029 A 
ATOM     54  N   UNL A   1      38.966  32.528  33.869  1.00  0.00    -0.354 N 
ATOM     55  N   UNL A   1      41.213  31.049  35.086  1.00  0.00    -0.248 NA
ATOM     56  C   UNL A   1      42.737  30.757  36.832  1.00  0.00     0.031 C 
ATOM     57  C   UNL A   1      38.062  34.191  35.029  1.00  0.00     0.029 A 
ATOM     58  C   UNL A   1      39.049  33.218  35.067  1.00  0.00     0.049 A 
ATOM     59  H   UNL A   1      39.553  31.783  33.605  1.00  0.00     0.167 HD
ATOM     60  C   UNL A   1      40.945  31.979  36.085  1.00  0.00     0.074 A 
ATOM     61  C   UNL A   1      41.898  31.734  37.148  1.00  0.00     0.031 C 
ATOM     62  C   UNL A   1      39.992  32.943  36.123  1.00  0.00     0.037 A 
BRANCH  49  63
ATOM     63  C   UNL A   1      36.478  33.278  31.041  1.00  0.00     0.058 A 
ATOM     64  C   UNL A   1      35.131  33.146  31.417  1.00  0.00     0.135 A 
ATOM     65  C   UNL A   1      36.773  34.122  29.958  1.00  0.00     0.135 A 
ATOM     66  F   UNL A   1      34.788  32.337  32.432  1.00  0.00    -0.206 F 
ATOM     67  C   UNL A   1      34.115  33.800  30.729  1.00  0.00     0.059 A 
ATOM     68  C   UNL A   1      35.776  34.814  29.276  1.00  0.00     0.059 A 
ATOM     69  F   UNL A   1      38.042  34.283  29.552  1.00  0.00    -0.206 F 
ATOM     70  C   UNL A   1      34.448  34.635  29.662  1.00  0.00     0.060 A 
BRANCH  70  71
ATOM     71  S   UNL A   1      33.118  35.486  28.789  1.00  0.00     0.124 S 
ATOM     72  O   UNL A   1      33.866  36.451  27.988  1.00  0.00    -0.237 OA
ATOM     73  O   UNL A   1      32.489  34.399  28.045  1.00  0.00    -0.237 OA
ATOM     74  O   UNL A   1      32.313  36.055  29.865  1.00  0.00    -0.744 OA
ENDBRANCH  70  71
ENDBRANCH  49  63
BRANCH  50  75
ATOM     75  C   UNL A   1      44.058  28.483  35.516  1.00  0.00     0.058 A 
ATOM     76  C   UNL A   1      43.854  27.434  36.426  1.00  0.00     0.135 A 
ATOM     77  C   UNL A   1      45.382  28.851  35.231  1.00  0.00     0.135 A 
ATOM     78  F   UNL A   1      42.607  27.047  36.735  1.00  0.00    -0.206 F 
ATOM     79  C   UNL A   1      44.919  26.788  37.045  1.00  0.00     0.059 A 
ATOM     80  C   UNL A   1      46.464  28.200  35.815  1.00  0.00     0.059 A 
ATOM     81  F   UNL A   1      45.633  29.833  34.351  1.00  0.00    -0.206 F 
ATOM     82  C   UNL A   1      46.222  27.177  36.730  1.00  0.00     0.060 A 
BRANCH  82  83
ATOM     83  S   UNL A   1      47.597  26.301  37.507  1.00  0.00     0.124 S 
ATOM     84  O   UNL A   1      47.797  27.085  38.720  1.00  0.00    -0.237 OA
ATOM     85  O   UNL A   1      47.041  24.965  37.693  1.00  0.00    -0.237 OA
ATOM     86  O   UNL A   1      48.661  26.396  36.510  1.00  0.00    -0.744 OA
ENDBRANCH  82  83
ENDBRANCH  50  75
BRANCH  62  87
ATOM     87  C   UNL A   1      39.884  33.771  37.373  1.00  0.00     0.058 A 
ATOM     88  C   UNL A   1      40.642  34.936  37.561  1.00  0.00     0.135 A 
ATOM     89  C   UNL A   1      38.939  33.435  38.357  1.00  0.00     0.135 A 
ATOM     90  F   UNL A   1      41.564  35.298  36.654  1.00  0.00    -0.206 F 
ATOM     91  C   UNL A   1      40.476  35.734  38.689  1.00  0.00     0.059 A 
ATOM     92  C   UNL A   1      38.735  34.234  39.476  1.00  0.00     0.059 A 
ATOM     93  F   UNL A   1      38.181  32.335  38.220  1.00  0.00    -0.206 F 
ATOM     94  C   UNL A   1      39.513  35.379  39.637  1.00  0.00     0.060 A 
BRANCH  94  95
ATOM     95  S   UNL A   1      39.268  36.455  41.064  1.00  0.00     0.124 S 
ATOM     96  O   UNL A   1      38.600  37.602  40.457  1.00  0.00    -0.237 OA
ATOM     97  O   UNL A   1      38.441  35.630  41.938  1.00  0.00    -0.237 OA
ATOM     98  O   UNL A   1      40.625  36.701  41.544  1.00  0.00    -0.744 OA
ENDBRANCH  94  95
ENDBRANCH  62  87
ENDBRANCH  36  37
ENDBRANCH  28  31
ENDBRANCH   1  27
TORSDOF 14
ENDMDL
