MODEL 1
REMARK VINA RESULT:     -13.9      0.000      0.000
REMARK SMILES Cc1ccc(S(=O)(=O)N(CC(=O)NCCCNC(=O)c2ccc(-c3c4nc(c(-c5c(F)cc(S(=O)(=O)[O-])cc5F)c5ccc([nH]5)c(-c5c(F)cc(S(=O)(=O)[O-])cc5F)c5nc(c(-c6c(F)cc(S(=O)(=O)[O-])cc6F)c6ccc3[nH]6)C=C5)C=C4)cc2)c2cc(Cl)cc(Cl)c2)cc1
REMARK SMILES IDX 15 1 14 2 13 3 11 4 12 5 10 7 9 8 6 9 7 10 8 11 5 12 1 13
REMARK SMILES IDX 2 14 3 15 95 16 4 17 94 18 86 19 87 20 93 21 88 22 91 23
REMARK SMILES IDX 89 24 90 25 92 26 16 27 17 28 18 29 19 31 20 32 21 33 85 34
REMARK SMILES IDX 22 35 84 36 23 37 24 38 25 39 78 40 26 41 83 42 77 43 79 44
REMARK SMILES IDX 27 45 82 46 76 47 75 48 28 50 62 51 41 52 61 53 42 54 45 55
REMARK SMILES IDX 60 56 80 57 43 58 44 59 59 61 81 62 46 63 29 64 30 65 39 66
REMARK SMILES IDX 31 67 32 68 38 69 40 70 33 71 34 72 35 73 36 74 37 75 63 76
REMARK SMILES IDX 64 77 73 78 65 79 66 80 72 81 74 82 67 83 68 84 69 85 70 86
REMARK SMILES IDX 71 87 47 88 48 89 57 90 49 91 50 92 56 93 58 94 51 95 52 96
REMARK SMILES IDX 53 97 54 98 55 99
REMARK H PARENT 13 6 17 30 79 49 45 60
REMARK Flexibility Score: inf
ROOT
ATOM      1  C   UNL A   1      33.297  30.293  26.538  1.00  0.00     0.042 C 
ENDROOT
BRANCH   1   2
ATOM      2  C   UNL A   1      32.779  29.229  25.577  1.00  0.00     0.117 C 
BRANCH   2   3
ATOM      3  N   UNL A   1      31.923  28.226  26.192  1.00  0.00    -0.354 N 
ATOM      4  C   UNL A   1      32.066  26.875  26.297  1.00  0.00     0.240 C 
ATOM      5  O   UNL A   1      31.313  26.285  27.079  1.00  0.00    -0.273 OA
ATOM      6  H   UNL A   1      31.102  28.584  26.601  1.00  0.00     0.163 HD
BRANCH   4   7
ATOM      7  C   UNL A   1      33.127  26.085  25.549  1.00  0.00     0.235 C 
BRANCH   7   8
ATOM      8  N   UNL A   1      32.684  25.260  24.380  1.00  0.00    -0.257 N 
BRANCH   8   9
ATOM      9  S   UNL A   1      32.576  26.131  22.885  1.00  0.00     0.264 S 
ATOM     10  O   UNL A   1      32.488  25.149  21.819  1.00  0.00    -0.201 OA
ATOM     11  O   UNL A   1      33.646  27.111  22.877  1.00  0.00    -0.201 OA
BRANCH   9  12
ATOM     12  C   UNL A   1      31.046  27.062  22.830  1.00  0.00     0.088 A 
ATOM     13  C   UNL A   1      27.516  29.532  23.128  1.00  0.00     0.044 C 
ATOM     14  C   UNL A   1      28.731  28.664  22.985  1.00  0.00    -0.051 A 
ATOM     15  C   UNL A   1      29.916  29.176  22.441  1.00  0.00     0.005 A 
ATOM     16  C   UNL A   1      28.723  27.355  23.471  1.00  0.00     0.005 A 
ATOM     17  C   UNL A   1      31.062  28.377  22.347  1.00  0.00     0.022 A 
ATOM     18  C   UNL A   1      29.883  26.578  23.438  1.00  0.00     0.022 A 
ENDBRANCH   9  12
ENDBRANCH   8   9
BRANCH   8  19
ATOM     19  C   UNL A   1      33.417  23.968  24.326  1.00  0.00     0.055 A 
ATOM     20  C   UNL A   1      32.675  22.774  24.359  1.00  0.00     0.047 A 
ATOM     21  C   UNL A   1      34.814  23.860  24.367  1.00  0.00     0.047 A 
ATOM     22  C   UNL A   1      33.307  21.533  24.490  1.00  0.00     0.044 A 
ATOM     23  C   UNL A   1      35.438  22.609  24.459  1.00  0.00     0.044 A 
ATOM     24  Cl  UNL A   1      32.359  20.105  24.633  1.00  0.00    -0.084 Cl
ATOM     25  C   UNL A   1      34.691  21.442  24.541  1.00  0.00     0.041 A 
ATOM     26  Cl  UNL A   1      37.158  22.516  24.504  1.00  0.00    -0.084 Cl
ENDBRANCH   8  19
ENDBRANCH   7   8
ENDBRANCH   4   7
ENDBRANCH   2   3
ENDBRANCH   1   2
BRANCH   1  27
ATOM     27  C   UNL A   1      34.606  29.909  27.215  1.00  0.00     0.118 C 
BRANCH  27  28
ATOM     28  N   UNL A   1      35.263  31.044  27.858  1.00  0.00    -0.352 N 
ATOM     29  C   UNL A   1      36.495  31.067  28.496  1.00  0.00     0.251 C 
ATOM     30  H   UNL A   1      34.770  31.897  27.837  1.00  0.00     0.163 HD
ATOM     31  O   UNL A   1      36.920  32.044  29.071  1.00  0.00    -0.269 OA
BRANCH  29  32
ATOM     32  C   UNL A   1      37.307  29.839  28.372  1.00  0.00     0.039 A 
ATOM     33  C   UNL A   1      37.378  29.006  29.492  1.00  0.00     0.014 A 
ATOM     34  C   UNL A   1      38.215  29.734  27.322  1.00  0.00     0.014 A 
ATOM     35  C   UNL A   1      38.493  28.191  29.658  1.00  0.00     0.010 A 
ATOM     36  C   UNL A   1      39.355  28.977  27.523  1.00  0.00     0.010 A 
ATOM     37  C   UNL A   1      39.520  28.260  28.720  1.00  0.00    -0.014 A 
BRANCH  37  38
ATOM     38  C   UNL A   1      40.848  27.699  28.944  1.00  0.00     0.031 A 
ATOM     39  C   UNL A   1      41.104  26.271  28.664  1.00  0.00     0.074 A 
ATOM     40  C   UNL A   1      41.869  28.497  29.332  1.00  0.00     0.049 A 
ATOM     41  N   UNL A   1      42.186  25.652  28.996  1.00  0.00    -0.248 NA
ATOM     42  C   UNL A   1      40.105  25.393  28.058  1.00  0.00     0.031 C 
ATOM     43  C   UNL A   1      43.298  28.207  29.254  1.00  0.00     0.029 A 
ATOM     44  N   UNL A   1      41.793  29.651  30.122  1.00  0.00    -0.354 N 
ATOM     45  C   UNL A   1      42.160  24.420  28.393  1.00  0.00     0.074 A 
ATOM     46  C   UNL A   1      40.797  24.253  27.961  1.00  0.00     0.031 C 
ATOM     47  C   UNL A   1      43.944  28.956  30.157  1.00  0.00     0.029 A 
ATOM     48  C   UNL A   1      42.941  29.640  30.949  1.00  0.00     0.049 A 
ATOM     49  H   UNL A   1      41.084  30.334  30.104  1.00  0.00     0.167 HD
ATOM     50  C   UNL A   1      43.337  23.760  28.211  1.00  0.00     0.037 A 
ATOM     51  C   UNL A   1      42.821  29.545  32.307  1.00  0.00     0.037 A 
ATOM     52  C   UNL A   1      44.373  24.284  29.108  1.00  0.00     0.049 A 
ATOM     53  C   UNL A   1      43.423  28.293  32.916  1.00  0.00     0.074 A 
ATOM     54  C   UNL A   1      45.536  25.022  28.969  1.00  0.00     0.029 A 
ATOM     55  N   UNL A   1      44.126  24.232  30.471  1.00  0.00    -0.354 N 
ATOM     56  N   UNL A   1      44.044  27.362  32.243  1.00  0.00    -0.248 NA
ATOM     57  C   UNL A   1      43.296  27.955  34.337  1.00  0.00     0.031 C 
ATOM     58  C   UNL A   1      45.934  25.471  30.270  1.00  0.00     0.029 A 
ATOM     59  C   UNL A   1      45.031  24.980  31.196  1.00  0.00     0.049 A 
ATOM     60  H   UNL A   1      43.388  23.720  30.876  1.00  0.00     0.167 HD
ATOM     61  C   UNL A   1      44.305  26.300  33.071  1.00  0.00     0.074 A 
ATOM     62  C   UNL A   1      43.846  26.731  34.379  1.00  0.00     0.031 C 
ATOM     63  C   UNL A   1      44.822  25.116  32.630  1.00  0.00     0.037 A 
BRANCH  50  64
ATOM     64  C   UNL A   1      43.591  22.732  27.119  1.00  0.00     0.058 A 
ATOM     65  C   UNL A   1      42.921  21.488  27.139  1.00  0.00     0.135 A 
ATOM     66  C   UNL A   1      44.577  22.840  26.109  1.00  0.00     0.135 A 
ATOM     67  F   UNL A   1      41.970  21.227  28.048  1.00  0.00    -0.206 F 
ATOM     68  C   UNL A   1      43.224  20.441  26.257  1.00  0.00     0.059 A 
ATOM     69  C   UNL A   1      44.860  21.830  25.189  1.00  0.00     0.059 A 
ATOM     70  F   UNL A   1      45.380  23.900  25.991  1.00  0.00    -0.206 F 
ATOM     71  C   UNL A   1      44.202  20.620  25.287  1.00  0.00     0.060 A 
BRANCH  71  72
ATOM     72  S   UNL A   1      44.644  19.263  24.188  1.00  0.00     0.124 S 
ATOM     73  O   UNL A   1      43.664  18.246  24.559  1.00  0.00    -0.237 OA
ATOM     74  O   UNL A   1      44.476  19.861  22.869  1.00  0.00    -0.237 OA
ATOM     75  O   UNL A   1      46.025  18.959  24.560  1.00  0.00    -0.744 OA
ENDBRANCH  71  72
ENDBRANCH  50  64
BRANCH  51  76
ATOM     76  C   UNL A   1      41.639  30.286  32.825  1.00  0.00     0.058 A 
ATOM     77  C   UNL A   1      40.456  29.552  33.045  1.00  0.00     0.135 A 
ATOM     78  C   UNL A   1      41.775  31.513  33.486  1.00  0.00     0.135 A 
ATOM     79  F   UNL A   1      40.271  28.374  32.427  1.00  0.00    -0.206 F 
ATOM     80  C   UNL A   1      39.531  29.931  34.010  1.00  0.00     0.059 A 
ATOM     81  C   UNL A   1      40.852  31.920  34.450  1.00  0.00     0.059 A 
ATOM     82  F   UNL A   1      42.878  32.257  33.313  1.00  0.00    -0.206 F 
ATOM     83  C   UNL A   1      39.776  31.083  34.752  1.00  0.00     0.060 A 
BRANCH  83  84
ATOM     84  S   UNL A   1      38.784  31.339  36.243  1.00  0.00     0.124 S 
ATOM     85  O   UNL A   1      37.675  32.138  35.734  1.00  0.00    -0.237 OA
ATOM     86  O   UNL A   1      38.453  29.963  36.614  1.00  0.00    -0.237 OA
ATOM     87  O   UNL A   1      39.702  32.029  37.141  1.00  0.00    -0.744 OA
ENDBRANCH  83  84
ENDBRANCH  51  76
BRANCH  63  88
ATOM     88  C   UNL A   1      45.122  23.968  33.553  1.00  0.00     0.058 A 
ATOM     89  C   UNL A   1      46.420  23.716  34.029  1.00  0.00     0.135 A 
ATOM     90  C   UNL A   1      44.139  23.017  33.895  1.00  0.00     0.135 A 
ATOM     91  F   UNL A   1      47.432  24.545  33.726  1.00  0.00    -0.206 F 
ATOM     92  C   UNL A   1      46.718  22.604  34.820  1.00  0.00     0.059 A 
ATOM     93  C   UNL A   1      44.422  21.877  34.642  1.00  0.00     0.059 A 
ATOM     94  F   UNL A   1      42.857  23.184  33.535  1.00  0.00    -0.206 F 
ATOM     95  C   UNL A   1      45.713  21.688  35.118  1.00  0.00     0.060 A 
BRANCH  95  96
ATOM     96  S   UNL A   1      46.101  20.227  36.103  1.00  0.00     0.124 S 
ATOM     97  O   UNL A   1      47.541  20.085  35.916  1.00  0.00    -0.237 OA
ATOM     98  O   UNL A   1      45.677  20.652  37.433  1.00  0.00    -0.237 OA
ATOM     99  O   UNL A   1      45.291  19.181  35.487  1.00  0.00    -0.744 OA
ENDBRANCH  95  96
ENDBRANCH  63  88
ENDBRANCH  37  38
ENDBRANCH  29  32
ENDBRANCH  27  28
ENDBRANCH   1  27
TORSDOF 17
ENDMDL
MODEL 2
REMARK VINA RESULT:     -13.5      1.244      2.954
REMARK SMILES Cc1ccc(S(=O)(=O)N(CC(=O)NCCCNC(=O)c2ccc(-c3c4nc(c(-c5c(F)cc(S(=O)(=O)[O-])cc5F)c5ccc([nH]5)c(-c5c(F)cc(S(=O)(=O)[O-])cc5F)c5nc(c(-c6c(F)cc(S(=O)(=O)[O-])cc6F)c6ccc3[nH]6)C=C5)C=C4)cc2)c2cc(Cl)cc(Cl)c2)cc1
REMARK SMILES IDX 15 1 14 2 13 3 11 4 12 5 10 7 9 8 6 9 7 10 8 11 5 12 1 13
REMARK SMILES IDX 2 14 3 15 95 16 4 17 94 18 86 19 87 20 93 21 88 22 91 23
REMARK SMILES IDX 89 24 90 25 92 26 16 27 17 28 18 29 19 31 20 32 21 33 85 34
REMARK SMILES IDX 22 35 84 36 23 37 24 38 25 39 78 40 26 41 83 42 77 43 79 44
REMARK SMILES IDX 27 45 82 46 76 47 75 48 28 50 62 51 41 52 61 53 42 54 45 55
REMARK SMILES IDX 60 56 80 57 43 58 44 59 59 61 81 62 46 63 29 64 30 65 39 66
REMARK SMILES IDX 31 67 32 68 38 69 40 70 33 71 34 72 35 73 36 74 37 75 63 76
REMARK SMILES IDX 64 77 73 78 65 79 66 80 72 81 74 82 67 83 68 84 69 85 70 86
REMARK SMILES IDX 71 87 47 88 48 89 57 90 49 91 50 92 56 93 58 94 51 95 52 96
REMARK SMILES IDX 53 97 54 98 55 99
REMARK H PARENT 13 6 17 30 79 49 45 60
REMARK Flexibility Score: inf
ROOT
ATOM      1  C   UNL A   1      32.944  29.705  27.178  1.00  0.00     0.042 C 
ENDROOT
BRANCH   1   2
ATOM      2  C   UNL A   1      32.226  28.371  27.013  1.00  0.00     0.117 C 
BRANCH   2   3
ATOM      3  N   UNL A   1      31.541  28.208  25.740  1.00  0.00    -0.354 N 
ATOM      4  C   UNL A   1      31.217  27.085  25.039  1.00  0.00     0.240 C 
ATOM      5  O   UNL A   1      30.421  27.212  24.102  1.00  0.00    -0.273 OA
ATOM      6  H   UNL A   1      31.263  29.051  25.314  1.00  0.00     0.163 HD
BRANCH   4   7
ATOM      7  C   UNL A   1      31.740  25.701  25.386  1.00  0.00     0.235 C 
BRANCH   7   8
ATOM      8  N   UNL A   1      32.355  24.894  24.284  1.00  0.00    -0.257 N 
BRANCH   8   9
ATOM      9  S   UNL A   1      33.831  25.550  23.650  1.00  0.00     0.264 S 
ATOM     10  O   UNL A   1      34.045  26.832  24.296  1.00  0.00    -0.201 OA
ATOM     11  O   UNL A   1      33.751  25.475  22.203  1.00  0.00    -0.201 OA
BRANCH   9  12
ATOM     12  C   UNL A   1      35.213  24.515  24.128  1.00  0.00     0.088 A 
ATOM     13  C   UNL A   1      38.196  21.671  25.417  1.00  0.00     0.044 C 
ATOM     14  C   UNL A   1      37.190  22.682  24.951  1.00  0.00    -0.051 A 
ATOM     15  C   UNL A   1      36.603  22.574  23.684  1.00  0.00     0.005 A 
ATOM     16  C   UNL A   1      36.763  23.698  25.809  1.00  0.00     0.005 A 
ATOM     17  C   UNL A   1      35.633  23.493  23.266  1.00  0.00     0.022 A 
ATOM     18  C   UNL A   1      35.749  24.576  25.418  1.00  0.00     0.022 A 
ENDBRANCH   9  12
ENDBRANCH   8   9
BRANCH   8  19
ATOM     19  C   UNL A   1      32.385  23.450  24.628  1.00  0.00     0.055 A 
ATOM     20  C   UNL A   1      32.777  23.077  25.926  1.00  0.00     0.047 A 
ATOM     21  C   UNL A   1      32.161  22.420  23.703  1.00  0.00     0.047 A 
ATOM     22  C   UNL A   1      32.996  21.737  26.260  1.00  0.00     0.044 A 
ATOM     23  C   UNL A   1      32.345  21.078  24.060  1.00  0.00     0.044 A 
ATOM     24  Cl  UNL A   1      33.578  21.332  27.827  1.00  0.00    -0.084 Cl
ATOM     25  C   UNL A   1      32.782  20.729  25.330  1.00  0.00     0.041 A 
ATOM     26  Cl  UNL A   1      32.058  19.840  22.895  1.00  0.00    -0.084 Cl
ENDBRANCH   8  19
ENDBRANCH   7   8
ENDBRANCH   4   7
ENDBRANCH   2   3
ENDBRANCH   1   2
BRANCH   1  27
ATOM     27  C   UNL A   1      34.462  29.575  27.200  1.00  0.00     0.118 C 
BRANCH  27  28
ATOM     28  N   UNL A   1      35.120  30.759  27.746  1.00  0.00    -0.352 N 
ATOM     29  C   UNL A   1      36.374  30.840  28.337  1.00  0.00     0.251 C 
ATOM     30  H   UNL A   1      34.613  31.601  27.690  1.00  0.00     0.163 HD
ATOM     31  O   UNL A   1      36.801  31.858  28.834  1.00  0.00    -0.269 OA
BRANCH  29  32
ATOM     32  C   UNL A   1      37.202  29.620  28.261  1.00  0.00     0.039 A 
ATOM     33  C   UNL A   1      37.333  28.864  29.430  1.00  0.00     0.014 A 
ATOM     34  C   UNL A   1      38.070  29.459  27.185  1.00  0.00     0.014 A 
ATOM     35  C   UNL A   1      38.467  28.079  29.604  1.00  0.00     0.010 A 
ATOM     36  C   UNL A   1      39.230  28.734  27.388  1.00  0.00     0.010 A 
ATOM     37  C   UNL A   1      39.456  28.102  28.622  1.00  0.00    -0.014 A 
BRANCH  37  38
ATOM     38  C   UNL A   1      40.801  27.577  28.829  1.00  0.00     0.031 A 
ATOM     39  C   UNL A   1      41.087  26.152  28.562  1.00  0.00     0.074 A 
ATOM     40  C   UNL A   1      41.808  28.406  29.187  1.00  0.00     0.049 A 
ATOM     41  N   UNL A   1      42.191  25.565  28.883  1.00  0.00    -0.248 NA
ATOM     42  C   UNL A   1      40.100  25.241  27.987  1.00  0.00     0.031 C 
ATOM     43  C   UNL A   1      43.243  28.150  29.085  1.00  0.00     0.029 A 
ATOM     44  N   UNL A   1      41.718  29.569  29.962  1.00  0.00    -0.354 N 
ATOM     45  C   UNL A   1      42.185  24.325  28.296  1.00  0.00     0.074 A 
ATOM     46  C   UNL A   1      40.819  24.117  27.893  1.00  0.00     0.031 C 
ATOM     47  C   UNL A   1      43.886  28.928  29.965  1.00  0.00     0.029 A 
ATOM     48  C   UNL A   1      42.881  29.597  30.768  1.00  0.00     0.049 A 
ATOM     49  H   UNL A   1      40.992  30.232  29.948  1.00  0.00     0.167 HD
ATOM     50  C   UNL A   1      43.375  23.691  28.101  1.00  0.00     0.037 A 
ATOM     51  C   UNL A   1      42.789  29.518  32.128  1.00  0.00     0.037 A 
ATOM     52  C   UNL A   1      44.414  24.254  28.971  1.00  0.00     0.049 A 
ATOM     53  C   UNL A   1      43.434  28.290  32.743  1.00  0.00     0.074 A 
ATOM     54  C   UNL A   1      45.555  25.018  28.800  1.00  0.00     0.029 A 
ATOM     55  N   UNL A   1      44.193  24.214  30.340  1.00  0.00    -0.354 N 
ATOM     56  N   UNL A   1      44.065  27.365  32.071  1.00  0.00    -0.248 NA
ATOM     57  C   UNL A   1      43.341  27.969  34.170  1.00  0.00     0.031 C 
ATOM     58  C   UNL A   1      45.965  25.495  30.087  1.00  0.00     0.029 A 
ATOM     59  C   UNL A   1      45.093  24.995  31.036  1.00  0.00     0.049 A 
ATOM     60  H   UNL A   1      43.476  23.690  30.765  1.00  0.00     0.167 HD
ATOM     61  C   UNL A   1      44.369  26.322  32.908  1.00  0.00     0.074 A 
ATOM     62  C   UNL A   1      43.923  26.759  34.218  1.00  0.00     0.031 C 
ATOM     63  C   UNL A   1      44.907  25.146  32.473  1.00  0.00     0.037 A 
BRANCH  50  64
ATOM     64  C   UNL A   1      43.634  22.656  27.019  1.00  0.00     0.058 A 
ATOM     65  C   UNL A   1      42.948  21.420  27.032  1.00  0.00     0.135 A 
ATOM     66  C   UNL A   1      44.638  22.746  26.025  1.00  0.00     0.135 A 
ATOM     67  F   UNL A   1      41.978  21.175  27.925  1.00  0.00    -0.206 F 
ATOM     68  C   UNL A   1      43.253  20.365  26.160  1.00  0.00     0.059 A 
ATOM     69  C   UNL A   1      44.925  21.728  25.115  1.00  0.00     0.059 A 
ATOM     70  F   UNL A   1      45.457  23.795  25.916  1.00  0.00    -0.206 F 
ATOM     71  C   UNL A   1      44.249  20.527  25.207  1.00  0.00     0.060 A 
BRANCH  71  72
ATOM     72  S   UNL A   1      44.693  19.159  24.122  1.00  0.00     0.124 S 
ATOM     73  O   UNL A   1      46.105  18.972  24.439  1.00  0.00    -0.237 OA
ATOM     74  O   UNL A   1      43.793  18.101  24.567  1.00  0.00    -0.237 OA
ATOM     75  O   UNL A   1      44.421  19.683  22.785  1.00  0.00    -0.744 OA
ENDBRANCH  71  72
ENDBRANCH  50  64
BRANCH  51  76
ATOM     76  C   UNL A   1      41.599  30.236  32.659  1.00  0.00     0.058 A 
ATOM     77  C   UNL A   1      40.475  29.462  33.011  1.00  0.00     0.135 A 
ATOM     78  C   UNL A   1      41.702  31.520  33.210  1.00  0.00     0.135 A 
ATOM     79  F   UNL A   1      40.322  28.228  32.501  1.00  0.00    -0.206 F 
ATOM     80  C   UNL A   1      39.587  29.871  33.998  1.00  0.00     0.059 A 
ATOM     81  C   UNL A   1      40.814  31.956  34.195  1.00  0.00     0.059 A 
ATOM     82  F   UNL A   1      42.749  32.303  32.909  1.00  0.00    -0.206 F 
ATOM     83  C   UNL A   1      39.808  31.092  34.630  1.00  0.00     0.060 A 
BRANCH  83  84
ATOM     84  S   UNL A   1      38.891  31.418  36.155  1.00  0.00     0.124 S 
ATOM     85  O   UNL A   1      39.944  31.898  37.042  1.00  0.00    -0.237 OA
ATOM     86  O   UNL A   1      37.931  32.427  35.710  1.00  0.00    -0.237 OA
ATOM     87  O   UNL A   1      38.326  30.116  36.489  1.00  0.00    -0.744 OA
ENDBRANCH  83  84
ENDBRANCH  51  76
BRANCH  63  88
ATOM     88  C   UNL A   1      45.254  24.018  33.404  1.00  0.00     0.058 A 
ATOM     89  C   UNL A   1      44.334  23.004  33.722  1.00  0.00     0.135 A 
ATOM     90  C   UNL A   1      46.481  23.983  34.098  1.00  0.00     0.135 A 
ATOM     91  F   UNL A   1      43.123  22.974  33.142  1.00  0.00    -0.206 F 
ATOM     92  C   UNL A   1      44.624  22.002  34.649  1.00  0.00     0.059 A 
ATOM     93  C   UNL A   1      46.775  23.020  35.060  1.00  0.00     0.059 A 
ATOM     94  F   UNL A   1      47.452  24.872  33.837  1.00  0.00    -0.206 F 
ATOM     95  C   UNL A   1      45.846  22.020  35.316  1.00  0.00     0.060 A 
BRANCH  95  96
ATOM     96  S   UNL A   1      46.211  20.751  36.546  1.00  0.00     0.124 S 
ATOM     97  O   UNL A   1      45.437  19.609  36.070  1.00  0.00    -0.237 OA
ATOM     98  O   UNL A   1      47.659  20.629  36.418  1.00  0.00    -0.237 OA
ATOM     99  O   UNL A   1      45.735  21.345  37.792  1.00  0.00    -0.744 OA
ENDBRANCH  95  96
ENDBRANCH  63  88
ENDBRANCH  37  38
ENDBRANCH  29  32
ENDBRANCH  27  28
ENDBRANCH   1  27
TORSDOF 17
ENDMDL
MODEL 3
REMARK VINA RESULT:     -13.4      1.047      1.571
REMARK SMILES Cc1ccc(S(=O)(=O)N(CC(=O)NCCCNC(=O)c2ccc(-c3c4nc(c(-c5c(F)cc(S(=O)(=O)[O-])cc5F)c5ccc([nH]5)c(-c5c(F)cc(S(=O)(=O)[O-])cc5F)c5nc(c(-c6c(F)cc(S(=O)(=O)[O-])cc6F)c6ccc3[nH]6)C=C5)C=C4)cc2)c2cc(Cl)cc(Cl)c2)cc1
REMARK SMILES IDX 15 1 14 2 13 3 11 4 12 5 10 7 9 8 6 9 7 10 8 11 5 12 1 13
REMARK SMILES IDX 2 14 3 15 95 16 4 17 94 18 86 19 87 20 93 21 88 22 91 23
REMARK SMILES IDX 89 24 90 25 92 26 16 27 17 28 18 29 19 31 20 32 21 33 85 34
REMARK SMILES IDX 22 35 84 36 23 37 24 38 25 39 78 40 26 41 83 42 77 43 79 44
REMARK SMILES IDX 27 45 82 46 76 47 75 48 28 50 62 51 41 52 61 53 42 54 45 55
REMARK SMILES IDX 60 56 80 57 43 58 44 59 59 61 81 62 46 63 29 64 30 65 39 66
REMARK SMILES IDX 31 67 32 68 38 69 40 70 33 71 34 72 35 73 36 74 37 75 63 76
REMARK SMILES IDX 64 77 73 78 65 79 66 80 72 81 74 82 67 83 68 84 69 85 70 86
REMARK SMILES IDX 71 87 47 88 48 89 57 90 49 91 50 92 56 93 58 94 51 95 52 96
REMARK SMILES IDX 53 97 54 98 55 99
REMARK H PARENT 13 6 17 30 79 49 45 60
REMARK Flexibility Score: inf
ROOT
ATOM      1  C   UNL A   1      32.894  30.458  26.210  1.00  0.00     0.042 C 
ENDROOT
BRANCH   1   2
ATOM      2  C   UNL A   1      32.465  29.273  25.352  1.00  0.00     0.117 C 
BRANCH   2   3
ATOM      3  N   UNL A   1      31.745  28.235  26.074  1.00  0.00    -0.354 N 
ATOM      4  C   UNL A   1      32.064  26.932  26.314  1.00  0.00     0.240 C 
ATOM      5  O   UNL A   1      31.391  26.330  27.159  1.00  0.00    -0.273 OA
ATOM      6  H   UNL A   1      30.883  28.522  26.453  1.00  0.00     0.163 HD
BRANCH   4   7
ATOM      7  C   UNL A   1      33.221  26.214  25.639  1.00  0.00     0.235 C 
BRANCH   7   8
ATOM      8  N   UNL A   1      32.913  24.962  24.877  1.00  0.00    -0.257 N 
BRANCH   8   9
ATOM      9  S   UNL A   1      32.501  25.217  23.212  1.00  0.00     0.264 S 
ATOM     10  O   UNL A   1      32.187  23.919  22.642  1.00  0.00    -0.201 OA
ATOM     11  O   UNL A   1      33.552  26.028  22.626  1.00  0.00    -0.201 OA
BRANCH   9  12
ATOM     12  C   UNL A   1      30.999  26.186  23.097  1.00  0.00     0.088 A 
ATOM     13  C   UNL A   1      27.559  28.794  23.214  1.00  0.00     0.044 C 
ATOM     14  C   UNL A   1      28.741  27.874  23.136  1.00  0.00    -0.051 A 
ATOM     15  C   UNL A   1      29.919  28.277  22.496  1.00  0.00     0.005 A 
ATOM     16  C   UNL A   1      28.711  26.633  23.775  1.00  0.00     0.005 A 
ATOM     17  C   UNL A   1      31.037  27.434  22.460  1.00  0.00     0.022 A 
ATOM     18  C   UNL A   1      29.845  25.819  23.797  1.00  0.00     0.022 A 
ENDBRANCH   9  12
ENDBRANCH   8   9
BRANCH   8  19
ATOM     19  C   UNL A   1      33.931  23.911  25.139  1.00  0.00     0.055 A 
ATOM     20  C   UNL A   1      35.237  24.310  25.474  1.00  0.00     0.047 A 
ATOM     21  C   UNL A   1      33.703  22.539  24.955  1.00  0.00     0.047 A 
ATOM     22  C   UNL A   1      36.278  23.381  25.559  1.00  0.00     0.044 A 
ATOM     23  C   UNL A   1      34.747  21.613  25.081  1.00  0.00     0.044 A 
ATOM     24  Cl  UNL A   1      37.882  23.923  25.867  1.00  0.00    -0.084 Cl
ATOM     25  C   UNL A   1      36.041  22.028  25.362  1.00  0.00     0.041 A 
ATOM     26  Cl  UNL A   1      34.428  19.935  24.851  1.00  0.00    -0.084 Cl
ENDBRANCH   8  19
ENDBRANCH   7   8
ENDBRANCH   4   7
ENDBRANCH   2   3
ENDBRANCH   1   2
BRANCH   1  27
ATOM     27  C   UNL A   1      33.753  30.058  27.404  1.00  0.00     0.118 C 
BRANCH  27  28
ATOM     28  N   UNL A   1      34.260  31.211  28.143  1.00  0.00    -0.352 N 
ATOM     29  C   UNL A   1      35.433  31.302  28.880  1.00  0.00     0.251 C 
ATOM     30  H   UNL A   1      33.701  32.022  28.117  1.00  0.00     0.163 HD
ATOM     31  O   UNL A   1      35.729  32.281  29.527  1.00  0.00    -0.269 OA
BRANCH  29  32
ATOM     32  C   UNL A   1      36.352  30.150  28.772  1.00  0.00     0.039 A 
ATOM     33  C   UNL A   1      36.567  29.396  29.930  1.00  0.00     0.014 A 
ATOM     34  C   UNL A   1      37.205  30.068  27.676  1.00  0.00     0.014 A 
ATOM     35  C   UNL A   1      37.762  28.700  30.070  1.00  0.00     0.010 A 
ATOM     36  C   UNL A   1      38.422  29.434  27.846  1.00  0.00     0.010 A 
ATOM     37  C   UNL A   1      38.724  28.809  29.068  1.00  0.00    -0.014 A 
BRANCH  37  38
ATOM     38  C   UNL A   1      40.110  28.388  29.239  1.00  0.00     0.031 A 
ATOM     39  C   UNL A   1      40.502  26.995  28.943  1.00  0.00     0.074 A 
ATOM     40  C   UNL A   1      41.056  29.289  29.592  1.00  0.00     0.049 A 
ATOM     41  N   UNL A   1      41.654  26.492  29.231  1.00  0.00    -0.248 NA
ATOM     42  C   UNL A   1      39.577  26.018  28.371  1.00  0.00     0.031 C 
ATOM     43  C   UNL A   1      42.504  29.148  29.459  1.00  0.00     0.029 A 
ATOM     44  N   UNL A   1      40.891  30.428  30.389  1.00  0.00    -0.354 N 
ATOM     45  C   UNL A   1      41.734  25.265  28.624  1.00  0.00     0.074 A 
ATOM     46  C   UNL A   1      40.380  24.956  28.243  1.00  0.00     0.031 C 
ATOM     47  C   UNL A   1      43.103  29.960  30.340  1.00  0.00     0.029 A 
ATOM     48  C   UNL A   1      42.064  30.535  31.173  1.00  0.00     0.049 A 
ATOM     49  H   UNL A   1      40.115  31.033  30.401  1.00  0.00     0.167 HD
ATOM     50  C   UNL A   1      42.965  24.730  28.395  1.00  0.00     0.037 A 
ATOM     51  C   UNL A   1      42.007  30.427  32.534  1.00  0.00     0.037 A 
ATOM     52  C   UNL A   1      43.975  25.359  29.254  1.00  0.00     0.049 A 
ATOM     53  C   UNL A   1      42.758  29.245  33.114  1.00  0.00     0.074 A 
ATOM     54  C   UNL A   1      45.049  26.213  29.075  1.00  0.00     0.029 A 
ATOM     55  N   UNL A   1      43.786  25.280  30.626  1.00  0.00    -0.354 N 
ATOM     56  N   UNL A   1      43.446  28.383  32.414  1.00  0.00    -0.248 NA
ATOM     57  C   UNL A   1      42.721  28.895  34.537  1.00  0.00     0.031 C 
ATOM     58  C   UNL A   1      45.447  26.700  30.362  1.00  0.00     0.029 A 
ATOM     59  C   UNL A   1      44.635  26.118  31.319  1.00  0.00     0.049 A 
ATOM     60  H   UNL A   1      43.121  24.695  31.056  1.00  0.00     0.167 HD
ATOM     61  C   UNL A   1      43.848  27.354  33.227  1.00  0.00     0.074 A 
ATOM     62  C   UNL A   1      43.397  27.734  34.553  1.00  0.00     0.031 C 
ATOM     63  C   UNL A   1      44.467  26.231  32.761  1.00  0.00     0.037 A 
BRANCH  50  64
ATOM     64  C   UNL A   1      43.283  23.735  27.290  1.00  0.00     0.058 A 
ATOM     65  C   UNL A   1      42.932  22.374  27.431  1.00  0.00     0.135 A 
ATOM     66  C   UNL A   1      44.052  24.015  26.134  1.00  0.00     0.135 A 
ATOM     67  F   UNL A   1      42.216  21.947  28.482  1.00  0.00    -0.206 F 
ATOM     68  C   UNL A   1      43.333  21.381  26.525  1.00  0.00     0.059 A 
ATOM     69  C   UNL A   1      44.420  23.052  25.194  1.00  0.00     0.059 A 
ATOM     70  F   UNL A   1      44.559  25.223  25.877  1.00  0.00    -0.206 F 
ATOM     71  C   UNL A   1      44.084  21.730  25.410  1.00  0.00     0.060 A 
BRANCH  71  72
ATOM     72  S   UNL A   1      44.658  20.458  24.272  1.00  0.00     0.124 S 
ATOM     73  O   UNL A   1      43.659  19.411  24.466  1.00  0.00    -0.237 OA
ATOM     74  O   UNL A   1      44.621  21.146  22.987  1.00  0.00    -0.237 OA
ATOM     75  O   UNL A   1      45.996  20.138  24.766  1.00  0.00    -0.744 OA
ENDBRANCH  71  72
ENDBRANCH  50  64
BRANCH  51  76
ATOM     76  C   UNL A   1      40.775  31.041  33.099  1.00  0.00     0.058 A 
ATOM     77  C   UNL A   1      39.716  30.177  33.444  1.00  0.00     0.135 A 
ATOM     78  C   UNL A   1      40.792  32.314  33.685  1.00  0.00     0.135 A 
ATOM     79  F   UNL A   1      39.647  28.950  32.902  1.00  0.00    -0.206 F 
ATOM     80  C   UNL A   1      38.816  30.492  34.454  1.00  0.00     0.059 A 
ATOM     81  C   UNL A   1      39.889  32.657  34.693  1.00  0.00     0.059 A 
ATOM     82  F   UNL A   1      41.773  33.180  33.392  1.00  0.00    -0.206 F 
ATOM     83  C   UNL A   1      38.956  31.709  35.116  1.00  0.00     0.060 A 
BRANCH  83  84
ATOM     84  S   UNL A   1      38.040  31.925  36.661  1.00  0.00     0.124 S 
ATOM     85  O   UNL A   1      37.772  30.545  37.048  1.00  0.00    -0.237 OA
ATOM     86  O   UNL A   1      39.019  32.634  37.485  1.00  0.00    -0.237 OA
ATOM     87  O   UNL A   1      36.878  32.706  36.254  1.00  0.00    -0.744 OA
ENDBRANCH  83  84
ENDBRANCH  51  76
BRANCH  63  88
ATOM     88  C   UNL A   1      44.921  25.120  33.666  1.00  0.00     0.058 A 
ATOM     89  C   UNL A   1      46.280  24.806  33.838  1.00  0.00     0.135 A 
ATOM     90  C   UNL A   1      44.000  24.260  34.300  1.00  0.00     0.135 A 
ATOM     91  F   UNL A   1      47.231  25.544  33.243  1.00  0.00    -0.206 F 
ATOM     92  C   UNL A   1      46.701  23.724  34.613  1.00  0.00     0.059 A 
ATOM     93  C   UNL A   1      44.394  23.148  35.040  1.00  0.00     0.059 A 
ATOM     94  F   UNL A   1      42.680  24.495  34.246  1.00  0.00    -0.206 F 
ATOM     95  C   UNL A   1      45.750  22.898  35.207  1.00  0.00     0.060 A 
BRANCH  95  96
ATOM     96  S   UNL A   1      46.286  21.473  36.175  1.00  0.00     0.124 S 
ATOM     97  O   UNL A   1      45.888  21.837  37.532  1.00  0.00    -0.237 OA
ATOM     98  O   UNL A   1      45.517  20.396  35.560  1.00  0.00    -0.237 OA
ATOM     99  O   UNL A   1      47.727  21.432  35.943  1.00  0.00    -0.744 OA
ENDBRANCH  95  96
ENDBRANCH  63  88
ENDBRANCH  37  38
ENDBRANCH  29  32
ENDBRANCH  27  28
ENDBRANCH   1  27
TORSDOF 17
ENDMDL
