MODEL 1
REMARK VINA RESULT:     -13.1      0.000      0.000
REMARK SMILES COc1ccccc1-n1nnc(C(=O)NCCCNC(=O)c2ccc(-c3c4nc(c(-c5c(F)cc(S(=O)(=O)[O-])cc5F)c5ccc([nH]5)c(-c5c(F)cc(S(=O)(=O)[O-])cc5F)c5nc(c(-c6c(F)cc(S(=O)(=O)[O-])cc6F)c6ccc3[nH]6)C=C5)C=C4)cc2)c1-c1ccc(Cl)cc1
REMARK SMILES IDX 17 1 16 2 15 3 13 4 14 5 12 7 9 8 10 9 88 10 11 11 8 12 3 13
REMARK SMILES IDX 4 14 5 15 7 16 6 17 2 18 1 19 89 20 90 21 95 22 91 23 94 24
REMARK SMILES IDX 92 25 93 26 18 27 19 28 20 29 21 31 22 32 23 33 87 34 24 35
REMARK SMILES IDX 86 36 25 37 26 38 27 39 80 40 28 41 85 42 79 43 81 44 29 45
REMARK SMILES IDX 84 46 78 47 77 48 30 50 64 51 43 52 63 53 44 54 47 55 62 56
REMARK SMILES IDX 82 57 45 58 46 59 61 61 83 62 48 63 31 64 32 65 41 66 33 67
REMARK SMILES IDX 34 68 40 69 42 70 35 71 36 72 37 73 38 74 39 75 65 76 66 77
REMARK SMILES IDX 75 78 67 79 68 80 74 81 76 82 69 83 70 84 71 85 72 86 73 87
REMARK SMILES IDX 49 88 50 89 59 90 51 91 52 92 58 93 60 94 53 95 54 96 55 97
REMARK SMILES IDX 56 98 57 99
REMARK H PARENT 15 6 19 30 81 49 47 60
REMARK Flexibility Score: inf
ROOT
ATOM      1  C   UNL A   1      33.749  28.070  26.373  1.00  0.00     0.042 C 
ENDROOT
BRANCH   1   2
ATOM      2  C   UNL A   1      33.041  28.714  25.187  1.00  0.00     0.118 C 
BRANCH   2   3
ATOM      3  N   UNL A   1      33.686  28.509  23.921  1.00  0.00    -0.351 N 
ATOM      4  C   UNL A   1      33.604  27.547  22.954  1.00  0.00     0.274 C 
ATOM      5  O   UNL A   1      34.145  27.863  21.888  1.00  0.00    -0.267 OA
ATOM      6  H   UNL A   1      34.332  29.219  23.701  1.00  0.00     0.163 HD
BRANCH   4   7
ATOM      7  C   UNL A   1      32.984  26.225  23.092  1.00  0.00     0.178 A 
ATOM      8  N   UNL A   1      32.183  24.209  23.391  1.00  0.00    -0.208 N 
ATOM      9  N   UNL A   1      31.248  24.900  22.727  1.00  0.00    -0.061 NA
ATOM     10  C   UNL A   1      33.357  24.952  23.536  1.00  0.00     0.108 A 
ATOM     11  N   UNL A   1      31.672  26.143  22.637  1.00  0.00    -0.124 NA
BRANCH   8  12
ATOM     12  C   UNL A   1      31.970  22.864  23.743  1.00  0.00     0.109 A 
ATOM     13  C   UNL A   1      31.855  22.470  25.081  1.00  0.00     0.144 A 
ATOM     14  C   UNL A   1      32.061  21.126  25.398  1.00  0.00     0.049 A 
ATOM     15  C   UNL A   1      32.314  20.188  24.393  1.00  0.00     0.004 A 
ATOM     16  C   UNL A   1      32.135  21.915  22.719  1.00  0.00     0.032 A 
ATOM     17  C   UNL A   1      32.326  20.577  23.055  1.00  0.00     0.003 A 
BRANCH  13  18
ATOM     18  O   UNL A   1      31.651  23.291  26.158  1.00  0.00    -0.494 OA
ATOM     19  C   UNL A   1      32.484  23.063  27.294  1.00  0.00     0.278 C 
ENDBRANCH  13  18
ENDBRANCH   8  12
BRANCH  10  20
ATOM     20  C   UNL A   1      34.598  24.296  23.956  1.00  0.00     0.003 A 
ATOM     21  C   UNL A   1      35.325  23.458  23.099  1.00  0.00     0.012 A 
ATOM     22  C   UNL A   1      35.095  24.540  25.248  1.00  0.00     0.012 A 
ATOM     23  C   UNL A   1      36.443  22.763  23.572  1.00  0.00     0.021 A 
ATOM     24  C   UNL A   1      36.230  23.869  25.711  1.00  0.00     0.021 A 
ATOM     25  C   UNL A   1      36.877  22.958  24.882  1.00  0.00     0.041 A 
ATOM     26  Cl  UNL A   1      38.181  22.025  25.499  1.00  0.00    -0.084 Cl
ENDBRANCH  10  20
ENDBRANCH   4   7
ENDBRANCH   2   3
ENDBRANCH   1   2
BRANCH   1  27
ATOM     27  C   UNL A   1      34.880  28.960  26.858  1.00  0.00     0.118 C 
BRANCH  27  28
ATOM     28  N   UNL A   1      34.519  30.381  26.968  1.00  0.00    -0.352 N 
ATOM     29  C   UNL A   1      34.919  31.273  27.949  1.00  0.00     0.251 C 
ATOM     30  H   UNL A   1      33.927  30.738  26.266  1.00  0.00     0.163 HD
ATOM     31  O   UNL A   1      34.356  32.354  28.104  1.00  0.00    -0.269 OA
BRANCH  29  32
ATOM     32  C   UNL A   1      36.045  30.874  28.809  1.00  0.00     0.039 A 
ATOM     33  C   UNL A   1      36.056  29.646  29.469  1.00  0.00     0.014 A 
ATOM     34  C   UNL A   1      37.184  31.671  28.742  1.00  0.00     0.014 A 
ATOM     35  C   UNL A   1      37.277  29.157  29.927  1.00  0.00     0.010 A 
ATOM     36  C   UNL A   1      38.401  31.095  29.004  1.00  0.00     0.010 A 
ATOM     37  C   UNL A   1      38.465  29.853  29.625  1.00  0.00    -0.014 A 
BRANCH  37  38
ATOM     38  C   UNL A   1      39.771  29.198  29.758  1.00  0.00     0.031 A 
ATOM     39  C   UNL A   1      40.186  29.016  31.178  1.00  0.00     0.074 A 
ATOM     40  C   UNL A   1      40.449  28.628  28.731  1.00  0.00     0.049 A 
ATOM     41  N   UNL A   1      41.011  29.754  31.844  1.00  0.00    -0.248 NA
ATOM     42  C   UNL A   1      39.438  28.071  32.030  1.00  0.00     0.031 C 
ATOM     43  C   UNL A   1      40.000  28.463  27.342  1.00  0.00     0.029 A 
ATOM     44  N   UNL A   1      41.656  27.988  28.721  1.00  0.00    -0.354 N 
ATOM     45  C   UNL A   1      41.129  29.150  33.093  1.00  0.00     0.074 A 
ATOM     46  C   UNL A   1      39.965  28.322  33.234  1.00  0.00     0.031 C 
ATOM     47  C   UNL A   1      40.793  27.577  26.699  1.00  0.00     0.029 A 
ATOM     48  C   UNL A   1      41.921  27.264  27.554  1.00  0.00     0.049 A 
ATOM     49  H   UNL A   1      42.289  28.034  29.473  1.00  0.00     0.167 HD
ATOM     50  C   UNL A   1      42.342  29.115  33.718  1.00  0.00     0.037 A 
ATOM     51  C   UNL A   1      43.004  26.488  27.287  1.00  0.00     0.037 A 
ATOM     52  C   UNL A   1      43.261  30.000  33.038  1.00  0.00     0.049 A 
ATOM     53  C   UNL A   1      44.082  26.945  28.192  1.00  0.00     0.074 A 
ATOM     54  C   UNL A   1      43.392  31.358  32.849  1.00  0.00     0.029 A 
ATOM     55  N   UNL A   1      43.987  29.376  32.055  1.00  0.00    -0.354 N 
ATOM     56  N   UNL A   1      44.649  28.114  28.093  1.00  0.00    -0.248 NA
ATOM     57  C   UNL A   1      44.285  26.255  29.458  1.00  0.00     0.031 C 
ATOM     58  C   UNL A   1      44.037  31.516  31.586  1.00  0.00     0.029 A 
ATOM     59  C   UNL A   1      44.351  30.256  31.077  1.00  0.00     0.049 A 
ATOM     60  H   UNL A   1      44.215  28.419  32.055  1.00  0.00     0.167 HD
ATOM     61  C   UNL A   1      44.876  28.493  29.401  1.00  0.00     0.074 A 
ATOM     62  C   UNL A   1      44.806  27.257  30.172  1.00  0.00     0.031 C 
ATOM     63  C   UNL A   1      44.762  29.803  29.765  1.00  0.00     0.037 A 
BRANCH  50  64
ATOM     64  C   UNL A   1      42.883  27.954  34.547  1.00  0.00     0.058 A 
ATOM     65  C   UNL A   1      43.210  28.190  35.905  1.00  0.00     0.135 A 
ATOM     66  C   UNL A   1      43.378  26.743  34.019  1.00  0.00     0.135 A 
ATOM     67  F   UNL A   1      42.792  29.306  36.526  1.00  0.00    -0.206 F 
ATOM     68  C   UNL A   1      44.034  27.338  36.644  1.00  0.00     0.059 A 
ATOM     69  C   UNL A   1      44.163  25.857  34.752  1.00  0.00     0.059 A 
ATOM     70  F   UNL A   1      43.206  26.384  32.744  1.00  0.00    -0.206 F 
ATOM     71  C   UNL A   1      44.516  26.177  36.052  1.00  0.00     0.060 A 
BRANCH  71  72
ATOM     72  S   UNL A   1      45.619  25.097  36.979  1.00  0.00     0.124 S 
ATOM     73  O   UNL A   1      44.744  24.637  38.051  1.00  0.00    -0.237 OA
ATOM     74  O   UNL A   1      45.981  24.105  35.972  1.00  0.00    -0.237 OA
ATOM     75  O   UNL A   1      46.699  25.992  37.384  1.00  0.00    -0.744 OA
ENDBRANCH  71  72
ENDBRANCH  50  64
BRANCH  51  76
ATOM     76  C   UNL A   1      43.162  25.271  26.446  1.00  0.00     0.058 A 
ATOM     77  C   UNL A   1      44.151  25.202  25.444  1.00  0.00     0.135 A 
ATOM     78  C   UNL A   1      42.578  24.049  26.825  1.00  0.00     0.135 A 
ATOM     79  F   UNL A   1      44.759  26.318  25.017  1.00  0.00    -0.206 F 
ATOM     80  C   UNL A   1      44.599  23.987  24.915  1.00  0.00     0.059 A 
ATOM     81  C   UNL A   1      43.006  22.823  26.307  1.00  0.00     0.059 A 
ATOM     82  F   UNL A   1      41.644  24.004  27.787  1.00  0.00    -0.206 F 
ATOM     83  C   UNL A   1      44.042  22.797  25.379  1.00  0.00     0.060 A 
BRANCH  83  84
ATOM     84  S   UNL A   1      44.773  21.220  24.870  1.00  0.00     0.124 S 
ATOM     85  O   UNL A   1      46.143  21.348  25.355  1.00  0.00    -0.237 OA
ATOM     86  O   UNL A   1      43.936  20.250  25.569  1.00  0.00    -0.237 OA
ATOM     87  O   UNL A   1      44.622  21.233  23.416  1.00  0.00    -0.744 OA
ENDBRANCH  83  84
ENDBRANCH  51  76
BRANCH  63  88
ATOM     88  C   UNL A   1      44.979  30.838  28.700  1.00  0.00     0.058 A 
ATOM     89  C   UNL A   1      46.221  31.232  28.175  1.00  0.00     0.135 A 
ATOM     90  C   UNL A   1      43.830  31.420  28.144  1.00  0.00     0.135 A 
ATOM     91  F   UNL A   1      47.361  30.660  28.588  1.00  0.00    -0.206 F 
ATOM     92  C   UNL A   1      46.314  32.205  27.176  1.00  0.00     0.059 A 
ATOM     93  C   UNL A   1      43.896  32.360  27.125  1.00  0.00     0.059 A 
ATOM     94  F   UNL A   1      42.612  31.048  28.571  1.00  0.00    -0.206 F 
ATOM     95  C   UNL A   1      45.143  32.766  26.662  1.00  0.00     0.060 A 
BRANCH  95  96
ATOM     96  S   UNL A   1      45.251  34.007  25.356  1.00  0.00     0.124 S 
ATOM     97  O   UNL A   1      44.457  35.101  25.906  1.00  0.00    -0.237 OA
ATOM     98  O   UNL A   1      46.689  34.248  25.266  1.00  0.00    -0.237 OA
ATOM     99  O   UNL A   1      44.668  33.335  24.197  1.00  0.00    -0.744 OA
ENDBRANCH  95  96
ENDBRANCH  63  88
ENDBRANCH  37  38
ENDBRANCH  29  32
ENDBRANCH  27  28
ENDBRANCH   1  27
TORSDOF 16
ENDMDL
MODEL 2
REMARK VINA RESULT:     -12.4      3.224      7.560
REMARK SMILES COc1ccccc1-n1nnc(C(=O)NCCCNC(=O)c2ccc(-c3c4nc(c(-c5c(F)cc(S(=O)(=O)[O-])cc5F)c5ccc([nH]5)c(-c5c(F)cc(S(=O)(=O)[O-])cc5F)c5nc(c(-c6c(F)cc(S(=O)(=O)[O-])cc6F)c6ccc3[nH]6)C=C5)C=C4)cc2)c1-c1ccc(Cl)cc1
REMARK SMILES IDX 17 1 16 2 15 3 13 4 14 5 12 7 9 8 10 9 88 10 11 11 8 12 3 13
REMARK SMILES IDX 4 14 5 15 7 16 6 17 2 18 1 19 89 20 90 21 95 22 91 23 94 24
REMARK SMILES IDX 92 25 93 26 18 27 19 28 20 29 21 31 22 32 23 33 87 34 24 35
REMARK SMILES IDX 86 36 25 37 26 38 27 39 80 40 28 41 85 42 79 43 81 44 29 45
REMARK SMILES IDX 84 46 78 47 77 48 30 50 64 51 43 52 63 53 44 54 47 55 62 56
REMARK SMILES IDX 82 57 45 58 46 59 61 61 83 62 48 63 31 64 32 65 41 66 33 67
REMARK SMILES IDX 34 68 40 69 42 70 35 71 36 72 37 73 38 74 39 75 65 76 66 77
REMARK SMILES IDX 75 78 67 79 68 80 74 81 76 82 69 83 70 84 71 85 72 86 73 87
REMARK SMILES IDX 49 88 50 89 59 90 51 91 52 92 58 93 60 94 53 95 54 96 55 97
REMARK SMILES IDX 56 98 57 99
REMARK H PARENT 15 6 19 30 81 49 47 60
REMARK Flexibility Score: inf
ROOT
ATOM      1  C   UNL A   1      32.667  29.421  26.222  1.00  0.00     0.042 C 
ENDROOT
BRANCH   1   2
ATOM      2  C   UNL A   1      33.767  28.446  25.817  1.00  0.00     0.118 C 
BRANCH   2   3
ATOM      3  N   UNL A   1      34.100  28.466  24.421  1.00  0.00    -0.351 N 
ATOM      4  C   UNL A   1      33.748  27.698  23.347  1.00  0.00     0.274 C 
ATOM      5  O   UNL A   1      34.054  28.195  22.257  1.00  0.00    -0.267 OA
ATOM      6  H   UNL A   1      34.719  29.193  24.185  1.00  0.00     0.163 HD
BRANCH   4   7
ATOM      7  C   UNL A   1      33.100  26.382  23.391  1.00  0.00     0.178 A 
ATOM      8  N   UNL A   1      32.257  24.367  23.546  1.00  0.00    -0.208 N 
ATOM      9  N   UNL A   1      31.333  25.126  22.941  1.00  0.00    -0.061 NA
ATOM     10  C   UNL A   1      33.447  25.073  23.737  1.00  0.00     0.108 A 
ATOM     11  N   UNL A   1      31.784  26.363  22.941  1.00  0.00    -0.124 NA
BRANCH   8  12
ATOM     12  C   UNL A   1      32.017  23.005  23.799  1.00  0.00     0.109 A 
ATOM     13  C   UNL A   1      31.911  22.514  25.106  1.00  0.00     0.144 A 
ATOM     14  C   UNL A   1      32.088  21.146  25.317  1.00  0.00     0.049 A 
ATOM     15  C   UNL A   1      32.304  20.280  24.241  1.00  0.00     0.004 A 
ATOM     16  C   UNL A   1      32.144  22.132  22.705  1.00  0.00     0.032 A 
ATOM     17  C   UNL A   1      32.306  20.769  22.936  1.00  0.00     0.003 A 
BRANCH  13  18
ATOM     18  O   UNL A   1      31.742  23.256  26.245  1.00  0.00    -0.494 OA
ATOM     19  C   UNL A   1      32.591  22.929  27.344  1.00  0.00     0.278 C 
ENDBRANCH  13  18
ENDBRANCH   8  12
BRANCH  10  20
ATOM     20  C   UNL A   1      34.676  24.361  24.099  1.00  0.00     0.003 A 
ATOM     21  C   UNL A   1      35.361  23.545  23.187  1.00  0.00     0.012 A 
ATOM     22  C   UNL A   1      35.206  24.526  25.390  1.00  0.00     0.012 A 
ATOM     23  C   UNL A   1      36.466  22.796  23.602  1.00  0.00     0.021 A 
ATOM     24  C   UNL A   1      36.328  23.800  25.796  1.00  0.00     0.021 A 
ATOM     25  C   UNL A   1      36.931  22.913  24.910  1.00  0.00     0.041 A 
ATOM     26  Cl  UNL A   1      38.218  21.913  25.454  1.00  0.00    -0.084 Cl
ENDBRANCH  10  20
ENDBRANCH   4   7
ENDBRANCH   2   3
ENDBRANCH   1   2
BRANCH   1  27
ATOM     27  C   UNL A   1      33.241  30.535  27.079  1.00  0.00     0.118 C 
BRANCH  27  28
ATOM     28  N   UNL A   1      32.549  31.824  26.929  1.00  0.00    -0.352 N 
ATOM     29  C   UNL A   1      32.795  32.993  27.630  1.00  0.00     0.251 C 
ATOM     30  H   UNL A   1      31.831  31.859  26.255  1.00  0.00     0.163 HD
ATOM     31  O   UNL A   1      31.996  33.926  27.624  1.00  0.00    -0.269 OA
BRANCH  29  32
ATOM     32  C   UNL A   1      34.051  33.074  28.392  1.00  0.00     0.039 A 
ATOM     33  C   UNL A   1      34.252  32.318  29.546  1.00  0.00     0.014 A 
ATOM     34  C   UNL A   1      35.100  33.754  27.781  1.00  0.00     0.014 A 
ATOM     35  C   UNL A   1      35.559  32.127  29.988  1.00  0.00     0.010 A 
ATOM     36  C   UNL A   1      36.386  33.393  28.095  1.00  0.00     0.010 A 
ATOM     37  C   UNL A   1      36.634  32.606  29.213  1.00  0.00    -0.014 A 
BRANCH  37  38
ATOM     38  C   UNL A   1      37.999  32.115  29.439  1.00  0.00     0.031 A 
ATOM     39  C   UNL A   1      38.173  30.688  29.042  1.00  0.00     0.074 A 
ATOM     40  C   UNL A   1      39.050  32.903  29.772  1.00  0.00     0.049 A 
ATOM     41  N   UNL A   1      38.175  29.662  29.827  1.00  0.00    -0.248 NA
ATOM     42  C   UNL A   1      38.098  30.324  27.614  1.00  0.00     0.031 C 
ATOM     43  C   UNL A   1      39.073  34.368  29.882  1.00  0.00     0.029 A 
ATOM     44  N   UNL A   1      40.357  32.577  30.002  1.00  0.00    -0.354 N 
ATOM     45  C   UNL A   1      38.440  28.567  29.009  1.00  0.00     0.074 A 
ATOM     46  C   UNL A   1      38.107  28.988  27.678  1.00  0.00     0.031 C 
ATOM     47  C   UNL A   1      40.350  34.812  29.914  1.00  0.00     0.029 A 
ATOM     48  C   UNL A   1      41.231  33.667  30.033  1.00  0.00     0.049 A 
ATOM     49  H   UNL A   1      40.658  31.649  30.135  1.00  0.00     0.167 HD
ATOM     50  C   UNL A   1      39.241  27.559  29.463  1.00  0.00     0.037 A 
ATOM     51  C   UNL A   1      42.582  33.644  30.181  1.00  0.00     0.037 A 
ATOM     52  C   UNL A   1      39.451  27.713  30.885  1.00  0.00     0.049 A 
ATOM     53  C   UNL A   1      42.913  32.350  30.820  1.00  0.00     0.074 A 
ATOM     54  C   UNL A   1      38.686  27.626  32.028  1.00  0.00     0.029 A 
ATOM     55  N   UNL A   1      40.565  28.452  31.192  1.00  0.00    -0.354 N 
ATOM     56  N   UNL A   1      42.575  32.052  32.044  1.00  0.00    -0.248 NA
ATOM     57  C   UNL A   1      43.293  31.222  29.982  1.00  0.00     0.031 C 
ATOM     58  C   UNL A   1      39.276  28.528  32.963  1.00  0.00     0.029 A 
ATOM     59  C   UNL A   1      40.425  29.080  32.395  1.00  0.00     0.049 A 
ATOM     60  H   UNL A   1      41.362  28.520  30.618  1.00  0.00     0.167 HD
ATOM     61  C   UNL A   1      42.263  30.708  31.992  1.00  0.00     0.074 A 
ATOM     62  C   UNL A   1      42.890  30.220  30.769  1.00  0.00     0.031 C 
ATOM     63  C   UNL A   1      41.254  30.209  32.762  1.00  0.00     0.037 A 
BRANCH  50  64
ATOM     64  C   UNL A   1      40.256  26.784  28.628  1.00  0.00     0.058 A 
ATOM     65  C   UNL A   1      40.100  25.382  28.507  1.00  0.00     0.135 A 
ATOM     66  C   UNL A   1      41.510  27.280  28.212  1.00  0.00     0.135 A 
ATOM     67  F   UNL A   1      38.949  24.788  28.864  1.00  0.00    -0.206 F 
ATOM     68  C   UNL A   1      41.133  24.538  28.094  1.00  0.00     0.059 A 
ATOM     69  C   UNL A   1      42.539  26.460  27.754  1.00  0.00     0.059 A 
ATOM     70  F   UNL A   1      41.846  28.569  28.302  1.00  0.00    -0.206 F 
ATOM     71  C   UNL A   1      42.356  25.089  27.730  1.00  0.00     0.060 A 
BRANCH  71  72
ATOM     72  S   UNL A   1      43.710  24.007  27.245  1.00  0.00     0.124 S 
ATOM     73  O   UNL A   1      44.870  24.835  27.553  1.00  0.00    -0.237 OA
ATOM     74  O   UNL A   1      43.495  22.852  28.111  1.00  0.00    -0.237 OA
ATOM     75  O   UNL A   1      43.458  23.773  25.826  1.00  0.00    -0.744 OA
ENDBRANCH  71  72
ENDBRANCH  50  64
BRANCH  51  76
ATOM     76  C   UNL A   1      43.647  34.551  29.673  1.00  0.00     0.058 A 
ATOM     77  C   UNL A   1      44.079  34.487  28.333  1.00  0.00     0.135 A 
ATOM     78  C   UNL A   1      44.018  35.703  30.390  1.00  0.00     0.135 A 
ATOM     79  F   UNL A   1      43.774  33.424  27.575  1.00  0.00    -0.206 F 
ATOM     80  C   UNL A   1      44.759  35.541  27.714  1.00  0.00     0.059 A 
ATOM     81  C   UNL A   1      44.702  36.766  29.794  1.00  0.00     0.059 A 
ATOM     82  F   UNL A   1      43.636  35.870  31.665  1.00  0.00    -0.206 F 
ATOM     83  C   UNL A   1      45.037  36.694  28.446  1.00  0.00     0.060 A 
BRANCH  83  84
ATOM     84  S   UNL A   1      45.709  38.144  27.592  1.00  0.00     0.124 S 
ATOM     85  O   UNL A   1      44.514  38.724  26.991  1.00  0.00    -0.237 OA
ATOM     86  O   UNL A   1      46.305  38.901  28.689  1.00  0.00    -0.237 OA
ATOM     87  O   UNL A   1      46.664  37.566  26.650  1.00  0.00    -0.744 OA
ENDBRANCH  83  84
ENDBRANCH  51  76
BRANCH  63  88
ATOM     88  C   UNL A   1      40.918  30.946  34.026  1.00  0.00     0.058 A 
ATOM     89  C   UNL A   1      41.632  30.878  35.234  1.00  0.00     0.135 A 
ATOM     90  C   UNL A   1      39.825  31.825  33.971  1.00  0.00     0.135 A 
ATOM     91  F   UNL A   1      42.740  30.132  35.343  1.00  0.00    -0.206 F 
ATOM     92  C   UNL A   1      41.237  31.613  36.355  1.00  0.00     0.059 A 
ATOM     93  C   UNL A   1      39.438  32.593  35.060  1.00  0.00     0.059 A 
ATOM     94  F   UNL A   1      39.133  31.970  32.828  1.00  0.00    -0.206 F 
ATOM     95  C   UNL A   1      40.134  32.465  36.257  1.00  0.00     0.060 A 
BRANCH  95  96
ATOM     96  S   UNL A   1      39.631  33.436  37.693  1.00  0.00     0.124 S 
ATOM     97  O   UNL A   1      40.570  34.552  37.652  1.00  0.00    -0.237 OA
ATOM     98  O   UNL A   1      38.241  33.762  37.383  1.00  0.00    -0.237 OA
ATOM     99  O   UNL A   1      39.809  32.511  38.810  1.00  0.00    -0.744 OA
ENDBRANCH  95  96
ENDBRANCH  63  88
ENDBRANCH  37  38
ENDBRANCH  29  32
ENDBRANCH  27  28
ENDBRANCH   1  27
TORSDOF 16
ENDMDL
MODEL 3
REMARK VINA RESULT:     -12.3      4.993     11.630
REMARK SMILES COc1ccccc1-n1nnc(C(=O)NCCCNC(=O)c2ccc(-c3c4nc(c(-c5c(F)cc(S(=O)(=O)[O-])cc5F)c5ccc([nH]5)c(-c5c(F)cc(S(=O)(=O)[O-])cc5F)c5nc(c(-c6c(F)cc(S(=O)(=O)[O-])cc6F)c6ccc3[nH]6)C=C5)C=C4)cc2)c1-c1ccc(Cl)cc1
REMARK SMILES IDX 17 1 16 2 15 3 13 4 14 5 12 7 9 8 10 9 88 10 11 11 8 12 3 13
REMARK SMILES IDX 4 14 5 15 7 16 6 17 2 18 1 19 89 20 90 21 95 22 91 23 94 24
REMARK SMILES IDX 92 25 93 26 18 27 19 28 20 29 21 31 22 32 23 33 87 34 24 35
REMARK SMILES IDX 86 36 25 37 26 38 27 39 80 40 28 41 85 42 79 43 81 44 29 45
REMARK SMILES IDX 84 46 78 47 77 48 30 50 64 51 43 52 63 53 44 54 47 55 62 56
REMARK SMILES IDX 82 57 45 58 46 59 61 61 83 62 48 63 31 64 32 65 41 66 33 67
REMARK SMILES IDX 34 68 40 69 42 70 35 71 36 72 37 73 38 74 39 75 65 76 66 77
REMARK SMILES IDX 75 78 67 79 68 80 74 81 76 82 69 83 70 84 71 85 72 86 73 87
REMARK SMILES IDX 49 88 50 89 59 90 51 91 52 92 58 93 60 94 53 95 54 96 55 97
REMARK SMILES IDX 56 98 57 99
REMARK H PARENT 15 6 19 30 81 49 47 60
REMARK Flexibility Score: inf
ROOT
ATOM      1  C   UNL A   1      43.377  22.967  24.580  1.00  0.00     0.042 C 
ENDROOT
BRANCH   1   2
ATOM      2  C   UNL A   1      44.473  23.957  24.956  1.00  0.00     0.118 C 
BRANCH   2   3
ATOM      3  N   UNL A   1      44.064  25.333  24.953  1.00  0.00    -0.351 N 
ATOM      4  C   UNL A   1      44.659  26.505  25.328  1.00  0.00     0.274 C 
ATOM      5  O   UNL A   1      44.065  27.514  24.932  1.00  0.00    -0.267 OA
ATOM      6  H   UNL A   1      43.153  25.461  24.604  1.00  0.00     0.163 HD
BRANCH   4   7
ATOM      7  C   UNL A   1      45.865  26.645  26.151  1.00  0.00     0.178 A 
ATOM      8  N   UNL A   1      47.606  26.741  27.476  1.00  0.00    -0.208 N 
ATOM      9  N   UNL A   1      47.883  27.517  26.420  1.00  0.00    -0.061 NA
ATOM     10  C   UNL A   1      46.293  26.267  27.427  1.00  0.00     0.108 A 
ATOM     11  N   UNL A   1      46.891  27.380  25.565  1.00  0.00    -0.124 NA
BRANCH   8  12
ATOM     12  C   UNL A   1      48.536  26.587  28.520  1.00  0.00     0.109 A 
ATOM     13  C   UNL A   1      49.028  27.691  29.226  1.00  0.00     0.144 A 
ATOM     14  C   UNL A   1      50.218  27.546  29.941  1.00  0.00     0.049 A 
ATOM     15  C   UNL A   1      50.867  26.309  29.999  1.00  0.00     0.004 A 
ATOM     16  C   UNL A   1      49.133  25.321  28.646  1.00  0.00     0.032 A 
ATOM     17  C   UNL A   1      50.312  25.193  29.375  1.00  0.00     0.003 A 
BRANCH  13  18
ATOM     18  O   UNL A   1      48.512  28.959  29.219  1.00  0.00    -0.494 OA
ATOM     19  C   UNL A   1      49.262  29.952  29.919  1.00  0.00     0.278 C 
ENDBRANCH  13  18
ENDBRANCH   8  12
BRANCH  10  20
ATOM     20  C   UNL A   1      45.685  25.658  28.613  1.00  0.00     0.003 A 
ATOM     21  C   UNL A   1      45.362  26.407  29.753  1.00  0.00     0.012 A 
ATOM     22  C   UNL A   1      45.383  24.285  28.597  1.00  0.00     0.012 A 
ATOM     23  C   UNL A   1      44.886  25.771  30.905  1.00  0.00     0.021 A 
ATOM     24  C   UNL A   1      44.879  23.655  29.737  1.00  0.00     0.021 A 
ATOM     25  C   UNL A   1      44.666  24.396  30.896  1.00  0.00     0.041 A 
ATOM     26  Cl  UNL A   1      44.188  23.596  32.339  1.00  0.00    -0.084 Cl
ENDBRANCH  10  20
ENDBRANCH   4   7
ENDBRANCH   2   3
ENDBRANCH   1   2
BRANCH   1  27
ATOM     27  C   UNL A   1      42.775  22.349  25.829  1.00  0.00     0.118 C 
BRANCH  27  28
ATOM     28  N   UNL A   1      41.305  22.360  25.856  1.00  0.00    -0.352 N 
ATOM     29  C   UNL A   1      40.485  23.329  26.409  1.00  0.00     0.251 C 
ATOM     30  H   UNL A   1      40.854  21.593  25.432  1.00  0.00     0.163 HD
ATOM     31  O   UNL A   1      39.292  23.119  26.617  1.00  0.00    -0.269 OA
BRANCH  29  32
ATOM     32  C   UNL A   1      41.098  24.623  26.748  1.00  0.00     0.039 A 
ATOM     33  C   UNL A   1      40.720  25.799  26.102  1.00  0.00     0.014 A 
ATOM     34  C   UNL A   1      41.891  24.648  27.892  1.00  0.00     0.014 A 
ATOM     35  C   UNL A   1      41.021  27.012  26.715  1.00  0.00     0.010 A 
ATOM     36  C   UNL A   1      41.997  25.825  28.588  1.00  0.00     0.010 A 
ATOM     37  C   UNL A   1      41.596  27.020  28.002  1.00  0.00    -0.014 A 
BRANCH  37  38
ATOM     38  C   UNL A   1      41.585  28.237  28.821  1.00  0.00     0.031 A 
ATOM     39  C   UNL A   1      42.733  29.142  28.530  1.00  0.00     0.074 A 
ATOM     40  C   UNL A   1      40.550  28.618  29.610  1.00  0.00     0.049 A 
ATOM     41  N   UNL A   1      43.823  29.253  29.215  1.00  0.00    -0.248 NA
ATOM     42  C   UNL A   1      42.800  29.822  27.222  1.00  0.00     0.031 C 
ATOM     43  C   UNL A   1      39.235  27.975  29.737  1.00  0.00     0.029 A 
ATOM     44  N   UNL A   1      40.410  29.717  30.409  1.00  0.00    -0.354 N 
ATOM     45  C   UNL A   1      44.552  30.265  28.595  1.00  0.00     0.074 A 
ATOM     46  C   UNL A   1      44.021  30.366  27.265  1.00  0.00     0.031 C 
ATOM     47  C   UNL A   1      38.369  28.806  30.357  1.00  0.00     0.029 A 
ATOM     48  C   UNL A   1      39.105  29.952  30.852  1.00  0.00     0.049 A 
ATOM     49  H   UNL A   1      41.168  30.297  30.653  1.00  0.00     0.167 HD
ATOM     50  C   UNL A   1      45.262  31.151  29.353  1.00  0.00     0.037 A 
ATOM     51  C   UNL A   1      38.658  30.994  31.603  1.00  0.00     0.037 A 
ATOM     52  C   UNL A   1      45.336  30.672  30.714  1.00  0.00     0.049 A 
ATOM     53  C   UNL A   1      39.840  31.543  32.305  1.00  0.00     0.074 A 
ATOM     54  C   UNL A   1      45.930  29.621  31.378  1.00  0.00     0.029 A 
ATOM     55  N   UNL A   1      44.317  31.135  31.508  1.00  0.00    -0.354 N 
ATOM     56  N   UNL A   1      40.484  30.893  33.234  1.00  0.00    -0.248 NA
ATOM     57  C   UNL A   1      40.552  32.670  31.720  1.00  0.00     0.031 C 
ATOM     58  C   UNL A   1      45.084  29.333  32.491  1.00  0.00     0.029 A 
ATOM     59  C   UNL A   1      44.044  30.262  32.521  1.00  0.00     0.049 A 
ATOM     60  H   UNL A   1      43.844  31.987  31.364  1.00  0.00     0.167 HD
ATOM     61  C   UNL A   1      41.807  31.229  33.027  1.00  0.00     0.074 A 
ATOM     62  C   UNL A   1      41.770  32.443  32.221  1.00  0.00     0.031 C 
ATOM     63  C   UNL A   1      42.789  30.306  33.241  1.00  0.00     0.037 A 
BRANCH  50  64
ATOM     64  C   UNL A   1      45.420  32.641  29.066  1.00  0.00     0.058 A 
ATOM     65  C   UNL A   1      44.251  33.421  28.888  1.00  0.00     0.135 A 
ATOM     66  C   UNL A   1      46.618  33.266  28.659  1.00  0.00     0.135 A 
ATOM     67  F   UNL A   1      43.048  32.942  29.243  1.00  0.00    -0.206 F 
ATOM     68  C   UNL A   1      44.265  34.676  28.274  1.00  0.00     0.059 A 
ATOM     69  C   UNL A   1      46.659  34.534  28.086  1.00  0.00     0.059 A 
ATOM     70  F   UNL A   1      47.806  32.658  28.710  1.00  0.00    -0.206 F 
ATOM     71  C   UNL A   1      45.477  35.219  27.865  1.00  0.00     0.060 A 
BRANCH  71  72
ATOM     72  S   UNL A   1      45.500  36.812  27.028  1.00  0.00     0.124 S 
ATOM     73  O   UNL A   1      44.106  36.952  26.626  1.00  0.00    -0.237 OA
ATOM     74  O   UNL A   1      45.957  37.702  28.091  1.00  0.00    -0.237 OA
ATOM     75  O   UNL A   1      46.453  36.604  25.942  1.00  0.00    -0.744 OA
ENDBRANCH  71  72
ENDBRANCH  50  64
BRANCH  51  76
ATOM     76  C   UNL A   1      37.339  31.681  31.651  1.00  0.00     0.058 A 
ATOM     77  C   UNL A   1      36.666  31.877  32.874  1.00  0.00     0.135 A 
ATOM     78  C   UNL A   1      36.879  32.441  30.561  1.00  0.00     0.135 A 
ATOM     79  F   UNL A   1      37.034  31.192  33.966  1.00  0.00    -0.206 F 
ATOM     80  C   UNL A   1      35.658  32.835  33.028  1.00  0.00     0.059 A 
ATOM     81  C   UNL A   1      35.871  33.400  30.691  1.00  0.00     0.059 A 
ATOM     82  F   UNL A   1      37.469  32.344  29.360  1.00  0.00    -0.206 F 
ATOM     83  C   UNL A   1      35.290  33.618  31.936  1.00  0.00     0.060 A 
BRANCH  83  84
ATOM     84  S   UNL A   1      34.155  35.007  32.185  1.00  0.00     0.124 S 
ATOM     85  O   UNL A   1      33.856  35.405  30.814  1.00  0.00    -0.237 OA
ATOM     86  O   UNL A   1      33.060  34.384  32.922  1.00  0.00    -0.237 OA
ATOM     87  O   UNL A   1      34.953  35.960  32.953  1.00  0.00    -0.744 OA
ENDBRANCH  83  84
ENDBRANCH  51  76
BRANCH  63  88
ATOM     88  C   UNL A   1      42.502  29.205  34.220  1.00  0.00     0.058 A 
ATOM     89  C   UNL A   1      42.515  29.322  35.620  1.00  0.00     0.135 A 
ATOM     90  C   UNL A   1      42.131  27.963  33.681  1.00  0.00     0.135 A 
ATOM     91  F   UNL A   1      42.771  30.496  36.215  1.00  0.00    -0.206 F 
ATOM     92  C   UNL A   1      42.226  28.232  36.445  1.00  0.00     0.059 A 
ATOM     93  C   UNL A   1      41.803  26.878  34.480  1.00  0.00     0.059 A 
ATOM     94  F   UNL A   1      42.053  27.804  32.349  1.00  0.00    -0.206 F 
ATOM     95  C   UNL A   1      41.876  27.012  35.862  1.00  0.00     0.060 A 
BRANCH  95  96
ATOM     96  S   UNL A   1      41.478  25.604  36.920  1.00  0.00     0.124 S 
ATOM     97  O   UNL A   1      42.705  25.445  37.693  1.00  0.00    -0.237 OA
ATOM     98  O   UNL A   1      40.316  26.085  37.663  1.00  0.00    -0.237 OA
ATOM     99  O   UNL A   1      41.197  24.532  35.969  1.00  0.00    -0.744 OA
ENDBRANCH  95  96
ENDBRANCH  63  88
ENDBRANCH  37  38
ENDBRANCH  29  32
ENDBRANCH  27  28
ENDBRANCH   1  27
TORSDOF 16
ENDMDL
