MODEL 1
REMARK VINA RESULT:     -13.1      0.000      0.000
REMARK SMILES CCc1ccnc(C(=O)c2[nH]c3ccc(OC(F)(F)F)cc3c2CC(=O)NCCCNC(=O)c2ccc(-c3c4nc(c(-c5c(F)cc(S(=O)(=O)[O-])cc5F)c5ccc([nH]5)c(-c5c(F)cc(S(=O)(=O)[O-])cc5F)c5nc(c(-c6c(F)cc(S(=O)(=O)[O-])cc6F)c6ccc3[nH]6)C=C5)C=C4)cc2)c1
REMARK SMILES IDX 28 1 27 2 25 3 26 4 24 6 23 7 10 8 11 9 12 10 22 12 13 13
REMARK SMILES IDX 21 14 14 15 15 16 8 17 9 18 7 19 3 20 4 21 100 22 5 23 6 24
REMARK SMILES IDX 2 25 1 26 16 27 17 28 18 29 19 30 20 31 29 32 30 33 31 34
REMARK SMILES IDX 32 35 33 37 34 38 35 39 99 40 36 41 98 42 37 43 38 44 39 45
REMARK SMILES IDX 92 46 40 47 97 48 91 49 93 50 41 51 96 52 90 53 89 54 42 56
REMARK SMILES IDX 76 57 55 58 75 59 56 60 59 61 74 62 94 63 57 64 58 65 73 67
REMARK SMILES IDX 95 68 60 69 43 70 44 71 53 72 45 73 46 74 52 75 54 76 47 77
REMARK SMILES IDX 48 78 49 79 50 80 51 81 77 82 78 83 87 84 79 85 80 86 86 87
REMARK SMILES IDX 88 88 81 89 82 90 83 91 84 92 85 93 61 94 62 95 71 96 63 97
REMARK SMILES IDX 64 98 70 99 72 100 65 101 66 102 67 103 68 104 69 105
REMARK H PARENT 27 5 11 11 31 36 93 55 59 66
REMARK Flexibility Score: inf
ROOT
ATOM      1  C   UNL A   1      34.018  29.832  27.076  1.00  0.00     0.117 C 
ENDROOT
BRANCH   1   2
ATOM      2  N   UNL A   1      32.874  29.238  27.740  1.00  0.00    -0.356 N 
ATOM      3  C   UNL A   1      32.109  28.170  27.367  1.00  0.00     0.224 C 
ATOM      4  O   UNL A   1      31.297  27.728  28.184  1.00  0.00    -0.275 OA
ATOM      5  H   UNL A   1      32.609  29.669  28.584  1.00  0.00     0.163 HD
BRANCH   3   6
ATOM      6  C   UNL A   1      32.341  27.462  26.040  1.00  0.00     0.138 C 
BRANCH   6   7
ATOM      7  C   UNL A   1      31.099  26.951  25.369  1.00  0.00    -0.002 A 
ATOM      8  C   UNL A   1      30.589  25.656  25.405  1.00  0.00     0.093 A 
ATOM      9  N   UNL A   1      29.376  25.673  24.756  1.00  0.00    -0.352 N 
ATOM     10  C   UNL A   1      29.180  26.883  24.135  1.00  0.00     0.046 A 
ATOM     11  H   UNL A   1      28.737  24.925  24.739  1.00  0.00     0.167 HD
ATOM     12  C   UNL A   1      30.245  27.703  24.494  1.00  0.00     0.008 A 
ATOM     13  C   UNL A   1      28.140  27.312  23.307  1.00  0.00     0.030 A 
ATOM     14  C   UNL A   1      30.269  29.019  23.988  1.00  0.00     0.057 A 
ATOM     15  C   UNL A   1      28.190  28.625  22.819  1.00  0.00     0.049 A 
ATOM     16  C   UNL A   1      29.241  29.478  23.151  1.00  0.00     0.130 A 
BRANCH   8  17
ATOM     17  C   UNL A   1      31.132  24.471  26.048  1.00  0.00     0.227 C 
ATOM     18  O   UNL A   1      31.232  24.402  27.268  1.00  0.00    -0.285 OA
BRANCH  17  19
ATOM     19  C   UNL A   1      31.564  23.320  25.164  1.00  0.00     0.113 A 
ATOM     20  C   UNL A   1      32.388  21.072  24.824  1.00  0.00    -0.044 A 
ATOM     21  C   UNL A   1      32.366  21.326  23.452  1.00  0.00     0.024 A 
ATOM     22  C   UNL A   1      31.974  22.093  25.690  1.00  0.00     0.036 A 
ATOM     23  C   UNL A   1      31.933  22.565  23.008  1.00  0.00     0.112 A 
ATOM     24  N   UNL A   1      31.541  23.561  23.828  1.00  0.00    -0.253 NA
BRANCH  20  25
ATOM     25  C   UNL A   1      32.913  19.760  25.354  1.00  0.00     0.032 C 
ATOM     26  C   UNL A   1      33.504  18.851  24.284  1.00  0.00     0.009 C 
ENDBRANCH  20  25
ENDBRANCH  17  19
ENDBRANCH   8  17
BRANCH  16  27
ATOM     27  O   UNL A   1      29.396  30.773  22.745  1.00  0.00    -0.406 OA
BRANCH  27  28
ATOM     28  C   UNL A   1      28.773  31.788  23.514  1.00  0.00     0.573 C 
ATOM     29  F   UNL A   1      28.680  32.938  22.813  1.00  0.00    -0.132 F 
ATOM     30  F   UNL A   1      27.551  31.404  23.933  1.00  0.00    -0.132 F 
ATOM     31  F   UNL A   1      29.537  32.025  24.605  1.00  0.00    -0.132 F 
ENDBRANCH  27  28
ENDBRANCH  16  27
ENDBRANCH   6   7
ENDBRANCH   3   6
ENDBRANCH   1   2
BRANCH   1  32
ATOM     32  C   UNL A   1      34.400  31.201  27.634  1.00  0.00     0.042 C 
BRANCH  32  33
ATOM     33  C   UNL A   1      35.749  31.247  28.347  1.00  0.00     0.118 C 
BRANCH  33  34
ATOM     34  N   UNL A   1      35.692  30.703  29.697  1.00  0.00    -0.352 N 
ATOM     35  C   UNL A   1      36.589  29.931  30.392  1.00  0.00     0.251 C 
ATOM     36  H   UNL A   1      34.873  30.926  30.194  1.00  0.00     0.163 HD
ATOM     37  O   UNL A   1      36.243  29.445  31.466  1.00  0.00    -0.269 OA
BRANCH  35  38
ATOM     38  C   UNL A   1      37.952  29.661  29.872  1.00  0.00     0.039 A 
ATOM     39  C   UNL A   1      38.959  29.329  30.786  1.00  0.00     0.014 A 
ATOM     40  C   UNL A   1      38.269  29.797  28.517  1.00  0.00     0.014 A 
ATOM     41  C   UNL A   1      40.261  29.082  30.341  1.00  0.00     0.010 A 
ATOM     42  C   UNL A   1      39.554  29.495  28.065  1.00  0.00     0.010 A 
ATOM     43  C   UNL A   1      40.564  29.140  28.972  1.00  0.00    -0.014 A 
BRANCH  43  44
ATOM     44  C   UNL A   1      41.931  28.833  28.475  1.00  0.00     0.031 A 
ATOM     45  C   UNL A   1      42.280  27.443  28.017  1.00  0.00     0.074 A 
ATOM     46  C   UNL A   1      42.878  29.788  28.499  1.00  0.00     0.049 A 
ATOM     47  N   UNL A   1      43.436  26.967  27.631  1.00  0.00    -0.248 NA
ATOM     48  C   UNL A   1      41.192  26.454  28.019  1.00  0.00     0.031 C 
ATOM     49  C   UNL A   1      42.682  31.162  28.965  1.00  0.00     0.029 A 
ATOM     50  N   UNL A   1      44.202  29.745  28.139  1.00  0.00    -0.354 N 
ATOM     51  C   UNL A   1      43.223  25.620  27.368  1.00  0.00     0.074 A 
ATOM     52  C   UNL A   1      41.832  25.348  27.668  1.00  0.00     0.031 C 
ATOM     53  C   UNL A   1      43.841  31.831  28.857  1.00  0.00     0.029 A 
ATOM     54  C   UNL A   1      44.867  30.930  28.341  1.00  0.00     0.049 A 
ATOM     55  H   UNL A   1      44.635  28.940  27.770  1.00  0.00     0.167 HD
ATOM     56  C   UNL A   1      44.100  24.695  26.908  1.00  0.00     0.037 A 
ATOM     57  C   UNL A   1      46.160  31.255  28.141  1.00  0.00     0.037 A 
ATOM     58  C   UNL A   1      45.475  24.969  26.580  1.00  0.00     0.049 A 
ATOM     59  C   UNL A   1      47.104  30.229  27.585  1.00  0.00     0.074 A 
ATOM     60  C   UNL A   1      46.424  24.112  26.050  1.00  0.00     0.029 A 
ATOM     61  N   UNL A   1      46.096  26.198  26.749  1.00  0.00    -0.354 N 
ATOM     62  N   UNL A   1      46.873  28.971  27.295  1.00  0.00    -0.248 NA
ATOM     63  C   UNL A   1      48.481  30.666  27.323  1.00  0.00     0.031 C 
ATOM     64  C   UNL A   1      47.626  24.817  25.917  1.00  0.00     0.029 A 
ATOM     65  C   UNL A   1      47.418  26.121  26.341  1.00  0.00     0.049 A 
ATOM     66  H   UNL A   1      45.662  27.006  27.105  1.00  0.00     0.167 HD
ATOM     67  C   UNL A   1      48.071  28.469  26.804  1.00  0.00     0.074 A 
ATOM     68  C   UNL A   1      49.023  29.561  26.827  1.00  0.00     0.031 C 
ATOM     69  C   UNL A   1      48.355  27.215  26.373  1.00  0.00     0.037 A 
BRANCH  56  70
ATOM     70  C   UNL A   1      43.585  23.292  26.743  1.00  0.00     0.058 A 
ATOM     71  C   UNL A   1      43.315  22.476  27.853  1.00  0.00     0.135 A 
ATOM     72  C   UNL A   1      43.380  22.752  25.465  1.00  0.00     0.135 A 
ATOM     73  F   UNL A   1      43.508  22.940  29.097  1.00  0.00    -0.206 F 
ATOM     74  C   UNL A   1      42.903  21.156  27.700  1.00  0.00     0.059 A 
ATOM     75  C   UNL A   1      42.947  21.442  25.288  1.00  0.00     0.059 A 
ATOM     76  F   UNL A   1      43.621  23.493  24.372  1.00  0.00    -0.206 F 
ATOM     77  C   UNL A   1      42.735  20.643  26.412  1.00  0.00     0.060 A 
BRANCH  77  78
ATOM     78  S   UNL A   1      42.242  18.917  26.218  1.00  0.00     0.124 S 
ATOM     79  O   UNL A   1      40.830  19.058  25.875  1.00  0.00    -0.237 OA
ATOM     80  O   UNL A   1      43.111  18.456  25.140  1.00  0.00    -0.237 OA
ATOM     81  O   UNL A   1      42.517  18.340  27.530  1.00  0.00    -0.744 OA
ENDBRANCH  77  78
ENDBRANCH  56  70
BRANCH  57  82
ATOM     82  C   UNL A   1      46.614  32.633  28.452  1.00  0.00     0.058 A 
ATOM     83  C   UNL A   1      46.560  33.642  27.481  1.00  0.00     0.135 A 
ATOM     84  C   UNL A   1      47.038  32.981  29.742  1.00  0.00     0.135 A 
ATOM     85  F   UNL A   1      46.164  33.351  26.233  1.00  0.00    -0.206 F 
ATOM     86  C   UNL A   1      46.903  34.956  27.780  1.00  0.00     0.059 A 
ATOM     87  C   UNL A   1      47.374  34.291  30.069  1.00  0.00     0.059 A 
ATOM     88  F   UNL A   1      47.090  32.050  30.708  1.00  0.00    -0.206 F 
ATOM     89  C   UNL A   1      47.301  35.273  29.080  1.00  0.00     0.060 A 
BRANCH  89  90
ATOM     90  S   UNL A   1      47.642  36.997  29.493  1.00  0.00     0.124 S 
ATOM     91  O   UNL A   1      48.593  37.367  28.452  1.00  0.00    -0.237 OA
ATOM     92  O   UNL A   1      46.320  37.608  29.398  1.00  0.00    -0.237 OA
ATOM     93  O   UNL A   1      48.185  36.913  30.847  1.00  0.00    -0.744 OA
ENDBRANCH  89  90
ENDBRANCH  57  82
BRANCH  69  94
ATOM     94  C   UNL A   1      49.750  26.960  25.880  1.00  0.00     0.058 A 
ATOM     95  C   UNL A   1      50.748  26.463  26.732  1.00  0.00     0.135 A 
ATOM     96  C   UNL A   1      50.080  27.172  24.532  1.00  0.00     0.135 A 
ATOM     97  F   UNL A   1      50.482  26.252  28.031  1.00  0.00    -0.206 F 
ATOM     98  C   UNL A   1      52.032  26.200  26.269  1.00  0.00     0.059 A 
ATOM     99  C   UNL A   1      51.354  26.899  24.043  1.00  0.00     0.059 A 
ATOM    100  F   UNL A   1      49.158  27.639  23.676  1.00  0.00    -0.206 F 
ATOM    101  C   UNL A   1      52.327  26.424  24.923  1.00  0.00     0.060 A 
BRANCH 101 102
ATOM    102  S   UNL A   1      53.988  26.050  24.320  1.00  0.00     0.124 S 
ATOM    103  O   UNL A   1      53.793  26.103  22.875  1.00  0.00    -0.237 OA
ATOM    104  O   UNL A   1      54.785  27.130  24.892  1.00  0.00    -0.237 OA
ATOM    105  O   UNL A   1      54.255  24.724  24.871  1.00  0.00    -0.744 OA
ENDBRANCH 101 102
ENDBRANCH  69  94
ENDBRANCH  43  44
ENDBRANCH  35  38
ENDBRANCH  33  34
ENDBRANCH  32  33
ENDBRANCH   1  32
TORSDOF 19
ENDMDL
MODEL 2
REMARK VINA RESULT:     -12.9      6.626     11.909
REMARK SMILES CCc1ccnc(C(=O)c2[nH]c3ccc(OC(F)(F)F)cc3c2CC(=O)NCCCNC(=O)c2ccc(-c3c4nc(c(-c5c(F)cc(S(=O)(=O)[O-])cc5F)c5ccc([nH]5)c(-c5c(F)cc(S(=O)(=O)[O-])cc5F)c5nc(c(-c6c(F)cc(S(=O)(=O)[O-])cc6F)c6ccc3[nH]6)C=C5)C=C4)cc2)c1
REMARK SMILES IDX 28 1 27 2 25 3 26 4 24 6 23 7 10 8 11 9 12 10 22 12 13 13
REMARK SMILES IDX 21 14 14 15 15 16 8 17 9 18 7 19 3 20 4 21 100 22 5 23 6 24
REMARK SMILES IDX 2 25 1 26 16 27 17 28 18 29 19 30 20 31 29 32 30 33 31 34
REMARK SMILES IDX 32 35 33 37 34 38 35 39 99 40 36 41 98 42 37 43 38 44 39 45
REMARK SMILES IDX 92 46 40 47 97 48 91 49 93 50 41 51 96 52 90 53 89 54 42 56
REMARK SMILES IDX 76 57 55 58 75 59 56 60 59 61 74 62 94 63 57 64 58 65 73 67
REMARK SMILES IDX 95 68 60 69 43 70 44 71 53 72 45 73 46 74 52 75 54 76 47 77
REMARK SMILES IDX 48 78 49 79 50 80 51 81 77 82 78 83 87 84 79 85 80 86 86 87
REMARK SMILES IDX 88 88 81 89 82 90 83 91 84 92 85 93 61 94 62 95 71 96 63 97
REMARK SMILES IDX 64 98 70 99 72 100 65 101 66 102 67 103 68 104 69 105
REMARK H PARENT 27 5 11 11 31 36 93 55 59 66
REMARK Flexibility Score: inf
ROOT
ATOM      1  C   UNL A   1      37.988  22.773  26.120  1.00  0.00     0.117 C 
ENDROOT
BRANCH   1   2
ATOM      2  N   UNL A   1      37.802  22.873  24.686  1.00  0.00    -0.356 N 
ATOM      3  C   UNL A   1      36.669  23.136  23.972  1.00  0.00     0.224 C 
ATOM      4  O   UNL A   1      36.786  23.355  22.764  1.00  0.00    -0.275 OA
ATOM      5  H   UNL A   1      38.614  22.729  24.147  1.00  0.00     0.163 HD
BRANCH   3   6
ATOM      6  C   UNL A   1      35.322  23.288  24.663  1.00  0.00     0.138 C 
BRANCH   6   7
ATOM      7  C   UNL A   1      34.142  22.814  23.864  1.00  0.00    -0.002 A 
ATOM      8  C   UNL A   1      33.310  23.577  23.049  1.00  0.00     0.093 A 
ATOM      9  N   UNL A   1      32.445  22.711  22.419  1.00  0.00    -0.352 N 
ATOM     10  C   UNL A   1      32.561  21.448  22.946  1.00  0.00     0.046 A 
ATOM     11  H   UNL A   1      31.830  22.962  21.693  1.00  0.00     0.167 HD
ATOM     12  C   UNL A   1      33.611  21.480  23.857  1.00  0.00     0.008 A 
ATOM     13  C   UNL A   1      31.833  20.287  22.670  1.00  0.00     0.030 A 
ATOM     14  C   UNL A   1      33.941  20.287  24.532  1.00  0.00     0.057 A 
ATOM     15  C   UNL A   1      32.184  19.116  23.355  1.00  0.00     0.049 A 
ATOM     16  C   UNL A   1      33.226  19.106  24.280  1.00  0.00     0.130 A 
BRANCH   8  17
ATOM     17  C   UNL A   1      33.329  25.008  22.798  1.00  0.00     0.227 C 
ATOM     18  O   UNL A   1      33.944  25.474  21.845  1.00  0.00    -0.285 OA
BRANCH  17  19
ATOM     19  C   UNL A   1      32.559  25.905  23.744  1.00  0.00     0.113 A 
ATOM     20  C   UNL A   1      32.411  27.376  25.657  1.00  0.00    -0.044 A 
ATOM     21  C   UNL A   1      31.040  27.468  25.417  1.00  0.00     0.024 A 
ATOM     22  C   UNL A   1      33.179  26.580  24.797  1.00  0.00     0.036 A 
ATOM     23  C   UNL A   1      30.502  26.777  24.343  1.00  0.00     0.112 A 
ATOM     24  N   UNL A   1      31.225  26.000  23.511  1.00  0.00    -0.253 NA
BRANCH  20  25
ATOM     25  C   UNL A   1      33.029  28.059  26.853  1.00  0.00     0.032 C 
ATOM     26  C   UNL A   1      34.393  28.678  26.578  1.00  0.00     0.009 C 
ENDBRANCH  20  25
ENDBRANCH  17  19
ENDBRANCH   8  17
BRANCH  16  27
ATOM     27  O   UNL A   1      33.663  18.031  25.001  1.00  0.00    -0.406 OA
BRANCH  27  28
ATOM     28  C   UNL A   1      34.190  16.925  24.289  1.00  0.00     0.573 C 
ATOM     29  F   UNL A   1      34.936  17.336  23.242  1.00  0.00    -0.132 F 
ATOM     30  F   UNL A   1      34.923  16.129  25.092  1.00  0.00    -0.132 F 
ATOM     31  F   UNL A   1      33.157  16.198  23.805  1.00  0.00    -0.132 F 
ENDBRANCH  27  28
ENDBRANCH  16  27
ENDBRANCH   6   7
ENDBRANCH   3   6
ENDBRANCH   1   2
BRANCH   1  32
ATOM     32  C   UNL A   1      39.290  22.080  26.516  1.00  0.00     0.042 C 
BRANCH  32  33
ATOM     33  C   UNL A   1      40.334  22.994  27.152  1.00  0.00     0.118 C 
BRANCH  33  34
ATOM     34  N   UNL A   1      41.242  23.578  26.174  1.00  0.00    -0.352 N 
ATOM     35  C   UNL A   1      41.769  24.841  26.081  1.00  0.00     0.251 C 
ATOM     36  H   UNL A   1      41.525  22.962  25.460  1.00  0.00     0.163 HD
ATOM     37  O   UNL A   1      42.383  25.152  25.062  1.00  0.00    -0.269 OA
BRANCH  35  38
ATOM     38  C   UNL A   1      41.605  25.837  27.168  1.00  0.00     0.039 A 
ATOM     39  C   UNL A   1      40.586  25.634  28.108  1.00  0.00     0.014 A 
ATOM     40  C   UNL A   1      42.384  26.995  27.238  1.00  0.00     0.014 A 
ATOM     41  C   UNL A   1      40.386  26.555  29.139  1.00  0.00     0.010 A 
ATOM     42  C   UNL A   1      42.223  27.885  28.300  1.00  0.00     0.010 A 
ATOM     43  C   UNL A   1      41.219  27.678  29.259  1.00  0.00    -0.014 A 
BRANCH  43  44
ATOM     44  C   UNL A   1      41.053  28.643  30.377  1.00  0.00     0.031 A 
ATOM     45  C   UNL A   1      41.925  28.548  31.599  1.00  0.00     0.074 A 
ATOM     46  C   UNL A   1      40.071  29.562  30.323  1.00  0.00     0.049 A 
ATOM     47  N   UNL A   1      41.873  29.245  32.705  1.00  0.00    -0.248 NA
ATOM     48  C   UNL A   1      42.975  27.519  31.583  1.00  0.00     0.031 C 
ATOM     49  C   UNL A   1      39.127  29.726  29.217  1.00  0.00     0.029 A 
ATOM     50  N   UNL A   1      39.693  30.520  31.229  1.00  0.00    -0.354 N 
ATOM     51  C   UNL A   1      42.864  28.725  33.528  1.00  0.00     0.074 A 
ATOM     52  C   UNL A   1      43.481  27.633  32.803  1.00  0.00     0.031 C 
ATOM     53  C   UNL A   1      38.282  30.728  29.507  1.00  0.00     0.029 A 
ATOM     54  C   UNL A   1      38.607  31.260  30.827  1.00  0.00     0.049 A 
ATOM     55  H   UNL A   1      40.156  30.666  32.086  1.00  0.00     0.167 HD
ATOM     56  C   UNL A   1      43.235  29.123  34.768  1.00  0.00     0.037 A 
ATOM     57  C   UNL A   1      37.940  32.249  31.454  1.00  0.00     0.037 A 
ATOM     58  C   UNL A   1      42.644  30.228  35.479  1.00  0.00     0.049 A 
ATOM     59  C   UNL A   1      38.397  32.710  32.807  1.00  0.00     0.074 A 
ATOM     60  C   UNL A   1      42.994  30.746  36.714  1.00  0.00     0.029 A 
ATOM     61  N   UNL A   1      41.579  30.986  35.014  1.00  0.00    -0.354 N 
ATOM     62  N   UNL A   1      39.370  32.238  33.550  1.00  0.00    -0.248 NA
ATOM     63  C   UNL A   1      37.674  33.840  33.405  1.00  0.00     0.031 C 
ATOM     64  C   UNL A   1      42.126  31.806  37.005  1.00  0.00     0.029 A 
ATOM     65  C   UNL A   1      41.253  31.963  35.940  1.00  0.00     0.049 A 
ATOM     66  H   UNL A   1      41.124  30.850  34.152  1.00  0.00     0.167 HD
ATOM     67  C   UNL A   1      39.384  33.021  34.698  1.00  0.00     0.074 A 
ATOM     68  C   UNL A   1      38.329  34.003  34.547  1.00  0.00     0.031 C 
ATOM     69  C   UNL A   1      40.198  32.932  35.778  1.00  0.00     0.037 A 
BRANCH  56  70
ATOM     70  C   UNL A   1      44.335  28.344  35.434  1.00  0.00     0.058 A 
ATOM     71  C   UNL A   1      44.069  27.166  36.149  1.00  0.00     0.135 A 
ATOM     72  C   UNL A   1      45.664  28.790  35.373  1.00  0.00     0.135 A 
ATOM     73  F   UNL A   1      42.813  26.705  36.249  1.00  0.00    -0.206 F 
ATOM     74  C   UNL A   1      45.077  26.482  36.821  1.00  0.00     0.059 A 
ATOM     75  C   UNL A   1      46.691  28.109  36.018  1.00  0.00     0.059 A 
ATOM     76  F   UNL A   1      45.971  29.909  34.698  1.00  0.00    -0.206 F 
ATOM     77  C   UNL A   1      46.383  26.969  36.761  1.00  0.00     0.060 A 
BRANCH  77  78
ATOM     78  S   UNL A   1      47.681  26.102  37.669  1.00  0.00     0.124 S 
ATOM     79  O   UNL A   1      48.233  25.238  36.630  1.00  0.00    -0.237 OA
ATOM     80  O   UNL A   1      48.545  27.191  38.110  1.00  0.00    -0.237 OA
ATOM     81  O   UNL A   1      46.948  25.420  38.732  1.00  0.00    -0.744 OA
ENDBRANCH  77  78
ENDBRANCH  56  70
BRANCH  57  82
ATOM     82  C   UNL A   1      36.781  32.881  30.775  1.00  0.00     0.058 A 
ATOM     83  C   UNL A   1      35.473  32.622  31.202  1.00  0.00     0.135 A 
ATOM     84  C   UNL A   1      36.966  33.808  29.740  1.00  0.00     0.135 A 
ATOM     85  F   UNL A   1      35.250  31.738  32.186  1.00  0.00    -0.206 F 
ATOM     86  C   UNL A   1      34.382  33.269  30.631  1.00  0.00     0.059 A 
ATOM     87  C   UNL A   1      35.892  34.478  29.163  1.00  0.00     0.059 A 
ATOM     88  F   UNL A   1      38.204  34.099  29.310  1.00  0.00    -0.206 F 
ATOM     89  C   UNL A   1      34.603  34.202  29.617  1.00  0.00     0.060 A 
BRANCH  89  90
ATOM     90  S   UNL A   1      33.196  35.119  28.953  1.00  0.00     0.124 S 
ATOM     91  O   UNL A   1      32.606  34.140  28.049  1.00  0.00    -0.237 OA
ATOM     92  O   UNL A   1      32.427  35.424  30.156  1.00  0.00    -0.237 OA
ATOM     93  O   UNL A   1      33.823  36.274  28.315  1.00  0.00    -0.744 OA
ENDBRANCH  89  90
ENDBRANCH  57  82
BRANCH  69  94
ATOM     94  C   UNL A   1      39.989  33.932  36.878  1.00  0.00     0.058 A 
ATOM     95  C   UNL A   1      40.726  35.124  36.933  1.00  0.00     0.135 A 
ATOM     96  C   UNL A   1      39.010  33.716  37.861  1.00  0.00     0.135 A 
ATOM     97  F   UNL A   1      41.679  35.371  36.019  1.00  0.00    -0.206 F 
ATOM     98  C   UNL A   1      40.513  36.064  37.936  1.00  0.00     0.059 A 
ATOM     99  C   UNL A   1      38.769  34.650  38.865  1.00  0.00     0.059 A 
ATOM    100  F   UNL A   1      38.274  32.595  37.848  1.00  0.00    -0.206 F 
ATOM    101  C   UNL A   1      39.533  35.817  38.900  1.00  0.00     0.060 A 
BRANCH 101 102
ATOM    102  S   UNL A   1      39.238  37.055  40.181  1.00  0.00     0.124 S 
ATOM    103  O   UNL A   1      38.474  38.058  39.447  1.00  0.00    -0.237 OA
ATOM    104  O   UNL A   1      38.496  36.302  41.186  1.00  0.00    -0.237 OA
ATOM    105  O   UNL A   1      40.586  37.456  40.577  1.00  0.00    -0.744 OA
ENDBRANCH 101 102
ENDBRANCH  69  94
ENDBRANCH  43  44
ENDBRANCH  35  38
ENDBRANCH  33  34
ENDBRANCH  32  33
ENDBRANCH   1  32
TORSDOF 19
ENDMDL
MODEL 3
REMARK VINA RESULT:     -12.8      1.251      7.993
REMARK SMILES CCc1ccnc(C(=O)c2[nH]c3ccc(OC(F)(F)F)cc3c2CC(=O)NCCCNC(=O)c2ccc(-c3c4nc(c(-c5c(F)cc(S(=O)(=O)[O-])cc5F)c5ccc([nH]5)c(-c5c(F)cc(S(=O)(=O)[O-])cc5F)c5nc(c(-c6c(F)cc(S(=O)(=O)[O-])cc6F)c6ccc3[nH]6)C=C5)C=C4)cc2)c1
REMARK SMILES IDX 28 1 27 2 25 3 26 4 24 6 23 7 10 8 11 9 12 10 22 12 13 13
REMARK SMILES IDX 21 14 14 15 15 16 8 17 9 18 7 19 3 20 4 21 100 22 5 23 6 24
REMARK SMILES IDX 2 25 1 26 16 27 17 28 18 29 19 30 20 31 29 32 30 33 31 34
REMARK SMILES IDX 32 35 33 37 34 38 35 39 99 40 36 41 98 42 37 43 38 44 39 45
REMARK SMILES IDX 92 46 40 47 97 48 91 49 93 50 41 51 96 52 90 53 89 54 42 56
REMARK SMILES IDX 76 57 55 58 75 59 56 60 59 61 74 62 94 63 57 64 58 65 73 67
REMARK SMILES IDX 95 68 60 69 43 70 44 71 53 72 45 73 46 74 52 75 54 76 47 77
REMARK SMILES IDX 48 78 49 79 50 80 51 81 77 82 78 83 87 84 79 85 80 86 86 87
REMARK SMILES IDX 88 88 81 89 82 90 83 91 84 92 85 93 61 94 62 95 71 96 63 97
REMARK SMILES IDX 64 98 70 99 72 100 65 101 66 102 67 103 68 104 69 105
REMARK H PARENT 27 5 11 11 31 36 93 55 59 66
REMARK Flexibility Score: inf
ROOT
ATOM      1  C   UNL A   1      33.428  30.644  27.285  1.00  0.00     0.117 C 
ENDROOT
BRANCH   1   2
ATOM      2  N   UNL A   1      33.980  29.812  26.234  1.00  0.00    -0.356 N 
ATOM      3  C   UNL A   1      33.623  28.553  25.843  1.00  0.00     0.224 C 
ATOM      4  O   UNL A   1      34.113  28.113  24.800  1.00  0.00    -0.275 OA
ATOM      5  H   UNL A   1      34.721  30.215  25.727  1.00  0.00     0.163 HD
BRANCH   3   6
ATOM      6  C   UNL A   1      32.557  27.769  26.594  1.00  0.00     0.138 C 
BRANCH   6   7
ATOM      7  C   UNL A   1      31.523  27.112  25.725  1.00  0.00    -0.002 A 
ATOM      8  C   UNL A   1      31.260  25.751  25.604  1.00  0.00     0.093 A 
ATOM      9  N   UNL A   1      30.154  25.616  24.797  1.00  0.00    -0.352 N 
ATOM     10  C   UNL A   1      29.816  26.824  24.237  1.00  0.00     0.046 A 
ATOM     11  H   UNL A   1      29.671  24.772  24.642  1.00  0.00     0.167 HD
ATOM     12  C   UNL A   1      30.659  27.781  24.793  1.00  0.00     0.008 A 
ATOM     13  C   UNL A   1      28.825  27.139  23.304  1.00  0.00     0.030 A 
ATOM     14  C   UNL A   1      30.502  29.121  24.384  1.00  0.00     0.057 A 
ATOM     15  C   UNL A   1      28.692  28.479  22.917  1.00  0.00     0.049 A 
ATOM     16  C   UNL A   1      29.519  29.468  23.446  1.00  0.00     0.130 A 
BRANCH   8  17
ATOM     17  C   UNL A   1      31.929  24.625  26.234  1.00  0.00     0.227 C 
ATOM     18  O   UNL A   1      31.660  24.292  27.383  1.00  0.00    -0.285 OA
BRANCH  17  19
ATOM     19  C   UNL A   1      32.962  23.870  25.425  1.00  0.00     0.113 A 
ATOM     20  C   UNL A   1      35.236  23.434  24.728  1.00  0.00    -0.044 A 
ATOM     21  C   UNL A   1      34.732  22.459  23.868  1.00  0.00     0.024 A 
ATOM     22  C   UNL A   1      34.328  24.147  25.521  1.00  0.00     0.036 A 
ATOM     23  C   UNL A   1      33.364  22.234  23.840  1.00  0.00     0.112 A 
ATOM     24  N   UNL A   1      32.476  22.918  24.589  1.00  0.00    -0.253 NA
BRANCH  20  25
ATOM     25  C   UNL A   1      36.711  23.757  24.743  1.00  0.00     0.032 C 
ATOM     26  C   UNL A   1      37.363  23.612  26.112  1.00  0.00     0.009 C 
ENDBRANCH  20  25
ENDBRANCH  17  19
ENDBRANCH   8  17
BRANCH  16  27
ATOM     27  O   UNL A   1      29.481  30.802  23.153  1.00  0.00    -0.406 OA
BRANCH  27  28
ATOM     28  C   UNL A   1      28.211  31.421  23.044  1.00  0.00     0.573 C 
ATOM     29  F   UNL A   1      28.327  32.766  23.042  1.00  0.00    -0.132 F 
ATOM     30  F   UNL A   1      27.561  31.014  21.936  1.00  0.00    -0.132 F 
ATOM     31  F   UNL A   1      27.471  31.068  24.120  1.00  0.00    -0.132 F 
ENDBRANCH  27  28
ENDBRANCH  16  27
ENDBRANCH   6   7
ENDBRANCH   3   6
ENDBRANCH   1   2
BRANCH   1  32
ATOM     32  C   UNL A   1      34.324  31.822  27.660  1.00  0.00     0.042 C 
BRANCH  32  33
ATOM     33  C   UNL A   1      35.645  31.436  28.321  1.00  0.00     0.118 C 
BRANCH  33  34
ATOM     34  N   UNL A   1      35.515  31.222  29.756  1.00  0.00    -0.352 N 
ATOM     35  C   UNL A   1      36.344  30.588  30.648  1.00  0.00     0.251 C 
ATOM     36  H   UNL A   1      34.695  31.595  30.153  1.00  0.00     0.163 HD
ATOM     37  O   UNL A   1      35.937  30.382  31.789  1.00  0.00    -0.269 OA
BRANCH  35  38
ATOM     38  C   UNL A   1      37.703  30.137  30.263  1.00  0.00     0.039 A 
ATOM     39  C   UNL A   1      37.999  30.002  28.901  1.00  0.00     0.014 A 
ATOM     40  C   UNL A   1      38.663  29.780  31.215  1.00  0.00     0.014 A 
ATOM     41  C   UNL A   1      39.263  29.565  28.495  1.00  0.00     0.010 A 
ATOM     42  C   UNL A   1      39.943  29.400  30.810  1.00  0.00     0.010 A 
ATOM     43  C   UNL A   1      40.255  29.283  29.446  1.00  0.00    -0.014 A 
BRANCH  43  44
ATOM     44  C   UNL A   1      41.620  28.864  29.033  1.00  0.00     0.031 A 
ATOM     45  C   UNL A   1      42.738  29.868  28.974  1.00  0.00     0.074 A 
ATOM     46  C   UNL A   1      41.837  27.594  28.644  1.00  0.00     0.049 A 
ATOM     47  N   UNL A   1      43.969  29.709  28.560  1.00  0.00    -0.248 NA
ATOM     48  C   UNL A   1      42.423  31.235  29.415  1.00  0.00     0.031 C 
ATOM     49  C   UNL A   1      40.826  26.536  28.608  1.00  0.00     0.029 A 
ATOM     50  N   UNL A   1      42.977  26.982  28.187  1.00  0.00    -0.354 N 
ATOM     51  C   UNL A   1      44.570  30.957  28.665  1.00  0.00     0.074 A 
ATOM     52  C   UNL A   1      43.557  31.870  29.155  1.00  0.00     0.031 C 
ATOM     53  C   UNL A   1      41.392  25.405  28.159  1.00  0.00     0.029 A 
ATOM     54  C   UNL A   1      42.796  25.662  27.851  1.00  0.00     0.049 A 
ATOM     55  H   UNL A   1      43.843  27.444  28.108  1.00  0.00     0.167 HD
ATOM     56  C   UNL A   1      45.848  31.311  28.391  1.00  0.00     0.037 A 
ATOM     57  C   UNL A   1      43.660  24.760  27.344  1.00  0.00     0.037 A 
ATOM     58  C   UNL A   1      46.865  30.399  27.934  1.00  0.00     0.049 A 
ATOM     59  C   UNL A   1      45.085  25.159  27.093  1.00  0.00     0.074 A 
ATOM     60  C   UNL A   1      48.204  30.651  27.688  1.00  0.00     0.029 A 
ATOM     61  N   UNL A   1      46.653  29.057  27.655  1.00  0.00    -0.354 N 
ATOM     62  N   UNL A   1      45.649  26.333  27.245  1.00  0.00    -0.248 NA
ATOM     63  C   UNL A   1      45.993  24.112  26.608  1.00  0.00     0.031 C 
ATOM     64  C   UNL A   1      48.797  29.465  27.241  1.00  0.00     0.029 A 
ATOM     65  C   UNL A   1      47.834  28.468  27.233  1.00  0.00     0.049 A 
ATOM     66  H   UNL A   1      45.791  28.591  27.746  1.00  0.00     0.167 HD
ATOM     67  C   UNL A   1      46.980  26.164  26.888  1.00  0.00     0.074 A 
ATOM     68  C   UNL A   1      47.141  24.772  26.520  1.00  0.00     0.031 C 
ATOM     69  C   UNL A   1      47.979  27.082  26.867  1.00  0.00     0.037 A 
BRANCH  56  70
ATOM     70  C   UNL A   1      46.209  32.758  28.576  1.00  0.00     0.058 A 
ATOM     71  C   UNL A   1      46.637  33.253  29.819  1.00  0.00     0.135 A 
ATOM     72  C   UNL A   1      46.107  33.663  27.509  1.00  0.00     0.135 A 
ATOM     73  F   UNL A   1      46.738  32.432  30.875  1.00  0.00    -0.206 F 
ATOM     74  C   UNL A   1      46.906  34.605  30.008  1.00  0.00     0.059 A 
ATOM     75  C   UNL A   1      46.392  35.014  27.669  1.00  0.00     0.059 A 
ATOM     76  F   UNL A   1      45.706  33.238  26.300  1.00  0.00    -0.206 F 
ATOM     77  C   UNL A   1      46.768  35.480  28.929  1.00  0.00     0.060 A 
BRANCH  77  78
ATOM     78  S   UNL A   1      47.077  37.241  29.190  1.00  0.00     0.124 S 
ATOM     79  O   UNL A   1      45.726  37.739  29.429  1.00  0.00    -0.237 OA
ATOM     80  O   UNL A   1      47.966  37.241  30.347  1.00  0.00    -0.237 OA
ATOM     81  O   UNL A   1      47.691  37.663  27.934  1.00  0.00    -0.744 OA
ENDBRANCH  77  78
ENDBRANCH  56  70
BRANCH  57  82
ATOM     82  C   UNL A   1      43.185  23.381  27.070  1.00  0.00     0.058 A 
ATOM     83  C   UNL A   1      43.004  22.933  25.755  1.00  0.00     0.135 A 
ATOM     84  C   UNL A   1      42.977  22.467  28.113  1.00  0.00     0.135 A 
ATOM     85  F   UNL A   1      43.188  23.776  24.728  1.00  0.00    -0.206 F 
ATOM     86  C   UNL A   1      42.640  21.619  25.480  1.00  0.00     0.059 A 
ATOM     87  C   UNL A   1      42.626  21.145  27.862  1.00  0.00     0.059 A 
ATOM     88  F   UNL A   1      43.155  22.848  29.387  1.00  0.00    -0.206 F 
ATOM     89  C   UNL A   1      42.461  20.730  26.541  1.00  0.00     0.060 A 
BRANCH  89  90
ATOM     90  S   UNL A   1      42.095  18.999  26.176  1.00  0.00     0.124 S 
ATOM     91  O   UNL A   1      42.409  18.358  27.447  1.00  0.00    -0.237 OA
ATOM     92  O   UNL A   1      40.681  19.049  25.817  1.00  0.00    -0.237 OA
ATOM     93  O   UNL A   1      43.000  18.694  25.071  1.00  0.00    -0.744 OA
ENDBRANCH  89  90
ENDBRANCH  57  82
BRANCH  69  94
ATOM     94  C   UNL A   1      49.337  26.606  26.443  1.00  0.00     0.058 A 
ATOM     95  C   UNL A   1      49.802  26.793  25.133  1.00  0.00     0.135 A 
ATOM     96  C   UNL A   1      50.200  25.995  27.367  1.00  0.00     0.135 A 
ATOM     97  F   UNL A   1      49.011  27.366  24.211  1.00  0.00    -0.206 F 
ATOM     98  C   UNL A   1      51.072  26.378  24.747  1.00  0.00     0.059 A 
ATOM     99  C   UNL A   1      51.481  25.586  27.007  1.00  0.00     0.059 A 
ATOM    100  F   UNL A   1      49.804  25.799  28.634  1.00  0.00    -0.206 F 
ATOM    101  C   UNL A   1      51.904  25.772  25.691  1.00  0.00     0.060 A 
BRANCH 101 102
ATOM    102  S   UNL A   1      53.563  25.263  25.193  1.00  0.00     0.124 S 
ATOM    103  O   UNL A   1      53.501  23.820  25.402  1.00  0.00    -0.237 OA
ATOM    104  O   UNL A   1      53.626  25.700  23.802  1.00  0.00    -0.237 OA
ATOM    105  O   UNL A   1      54.430  25.995  26.112  1.00  0.00    -0.744 OA
ENDBRANCH 101 102
ENDBRANCH  69  94
ENDBRANCH  43  44
ENDBRANCH  35  38
ENDBRANCH  33  34
ENDBRANCH  32  33
ENDBRANCH   1  32
TORSDOF 19
ENDMDL
