MODEL 1
REMARK VINA RESULT:     -10.8      0.000      0.000
REMARK SMILES C=CC[N@@H+](CC(=O)NCCCNC(=O)c1ccc(-c2c3nc(c(-c4c(F)cc(S(=O)(=O)[O-])cc4F)c4ccc([nH]4)c(-c4c(F)cc(S(=O)(=O)[O-])cc4F)c4nc(c(-c5c(F)cc(S(=O)(=O)[O-])cc5F)c5ccc2[nH]5)C=C4)C=C3)cc1)Cc1ccc([N+](=O)[O-])o1
REMARK SMILES IDX 9 1 8 2 6 3 7 4 5 6 4 7 3 9 2 10 1 11 81 12 82 13 83 14
REMARK SMILES IDX 89 15 84 16 85 17 86 18 87 19 88 20 10 21 11 22 12 23 13 24
REMARK SMILES IDX 14 26 15 27 16 28 80 29 17 30 79 31 18 32 19 33 20 34 73 35
REMARK SMILES IDX 21 36 78 37 72 38 74 39 22 40 77 41 71 42 70 43 23 45 57 46
REMARK SMILES IDX 36 47 56 48 37 49 40 50 55 51 75 52 38 53 39 54 54 56 76 57
REMARK SMILES IDX 41 58 24 59 25 60 34 61 26 62 27 63 33 64 35 65 28 66 29 67
REMARK SMILES IDX 30 68 31 69 32 70 58 71 59 72 68 73 60 74 61 75 67 76 69 77
REMARK SMILES IDX 62 78 63 79 64 80 65 81 66 82 42 83 43 84 52 85 44 86 45 87
REMARK SMILES IDX 51 88 53 89 46 90 47 91 48 92 49 93 50 94
REMARK H PARENT 8 5 4 8 12 25 74 44 40 55
REMARK Flexibility Score: inf
ROOT
ATOM      1  C   UNL A   1      32.923  29.661  25.928  1.00  0.00     0.118 C 
ENDROOT
BRANCH   1   2
ATOM      2  N   UNL A   1      33.647  29.515  24.672  1.00  0.00    -0.351 N 
ATOM      3  C   UNL A   1      33.544  28.633  23.637  1.00  0.00     0.275 C 
ATOM      4  O   UNL A   1      34.238  28.867  22.641  1.00  0.00    -0.269 OA
ATOM      5  H   UNL A   1      34.353  30.189  24.547  1.00  0.00     0.163 HD
BRANCH   3   6
ATOM      6  C   UNL A   1      32.610  27.423  23.665  1.00  0.00     0.364 C 
BRANCH   6   7
ATOM      7  N   UNL A   1      31.165  27.718  23.625  1.00  0.00    -0.318 N 
ATOM      8  H   UNL A   1      31.029  28.456  24.316  1.00  0.00     0.349 HD
BRANCH   7   9
ATOM      9  C   UNL A   1      30.344  26.644  24.143  1.00  0.00     0.291 C 
BRANCH   9  10
ATOM     10  C   UNL A   1      30.464  26.354  25.605  1.00  0.00     0.025 C 
ATOM     11  C   UNL A   1      30.872  25.171  26.087  1.00  0.00     0.010 C 
ENDBRANCH   9  10
ENDBRANCH   7   9
BRANCH   7  12
ATOM     12  C   UNL A   1      30.679  28.448  22.445  1.00  0.00     0.339 C 
BRANCH  12  13
ATOM     13  C   UNL A   1      29.484  29.344  22.568  1.00  0.00     0.165 A 
ATOM     14  C   UNL A   1      28.417  29.478  23.439  1.00  0.00     0.059 A 
ATOM     15  O   UNL A   1      29.379  30.304  21.589  1.00  0.00    -0.400 OA
ATOM     16  C   UNL A   1      27.578  30.503  22.940  1.00  0.00     0.134 A 
ATOM     17  C   UNL A   1      28.229  30.987  21.834  1.00  0.00     0.433 A 
BRANCH  17  18
ATOM     18  N   UNL A   1      27.898  32.039  20.929  1.00  0.00     0.102 N 
ATOM     19  O   UNL A   1      27.998  33.193  21.371  1.00  0.00    -0.256 OA
ATOM     20  O   UNL A   1      27.547  31.732  19.783  1.00  0.00    -0.256 OA
ENDBRANCH  17  18
ENDBRANCH  12  13
ENDBRANCH   7  12
ENDBRANCH   6   7
ENDBRANCH   3   6
ENDBRANCH   1   2
BRANCH   1  21
ATOM     21  C   UNL A   1      33.581  28.985  27.141  1.00  0.00     0.042 C 
BRANCH  21  22
ATOM     22  C   UNL A   1      35.041  29.345  27.414  1.00  0.00     0.118 C 
BRANCH  22  23
ATOM     23  N   UNL A   1      35.190  30.141  28.614  1.00  0.00    -0.352 N 
ATOM     24  C   UNL A   1      36.267  30.285  29.455  1.00  0.00     0.251 C 
ATOM     25  H   UNL A   1      34.393  30.661  28.868  1.00  0.00     0.163 HD
ATOM     26  O   UNL A   1      36.079  30.800  30.556  1.00  0.00    -0.269 OA
BRANCH  24  27
ATOM     27  C   UNL A   1      37.634  29.831  29.083  1.00  0.00     0.039 A 
ATOM     28  C   UNL A   1      38.534  29.539  30.115  1.00  0.00     0.014 A 
ATOM     29  C   UNL A   1      38.085  29.799  27.760  1.00  0.00     0.014 A 
ATOM     30  C   UNL A   1      39.862  29.202  29.826  1.00  0.00     0.010 A 
ATOM     31  C   UNL A   1      39.396  29.399  27.467  1.00  0.00     0.010 A 
ATOM     32  C   UNL A   1      40.308  29.119  28.497  1.00  0.00    -0.014 A 
BRANCH  32  33
ATOM     33  C   UNL A   1      41.729  28.789  28.189  1.00  0.00     0.031 A 
ATOM     34  C   UNL A   1      42.128  27.378  27.831  1.00  0.00     0.074 A 
ATOM     35  C   UNL A   1      42.673  29.750  28.233  1.00  0.00     0.049 A 
ATOM     36  N   UNL A   1      43.313  26.900  27.539  1.00  0.00    -0.248 NA
ATOM     37  C   UNL A   1      41.057  26.371  27.814  1.00  0.00     0.031 C 
ATOM     38  C   UNL A   1      42.434  31.152  28.576  1.00  0.00     0.029 A 
ATOM     39  N   UNL A   1      44.023  29.696  27.983  1.00  0.00    -0.354 N 
ATOM     40  C   UNL A   1      43.131  25.540  27.311  1.00  0.00     0.074 A 
ATOM     41  C   UNL A   1      41.731  25.261  27.552  1.00  0.00     0.031 C 
ATOM     42  C   UNL A   1      43.589  31.832  28.483  1.00  0.00     0.029 A 
ATOM     43  C   UNL A   1      44.659  30.909  28.108  1.00  0.00     0.049 A 
ATOM     44  H   UNL A   1      44.491  28.866  27.736  1.00  0.00     0.167 HD
ATOM     45  C   UNL A   1      44.035  24.610  26.915  1.00  0.00     0.037 A 
ATOM     46  C   UNL A   1      45.953  31.245  27.939  1.00  0.00     0.037 A 
ATOM     47  C   UNL A   1      45.427  24.886  26.661  1.00  0.00     0.049 A 
ATOM     48  C   UNL A   1      46.948  30.193  27.533  1.00  0.00     0.074 A 
ATOM     49  C   UNL A   1      46.413  24.015  26.226  1.00  0.00     0.029 A 
ATOM     50  N   UNL A   1      46.032  26.123  26.822  1.00  0.00    -0.354 N 
ATOM     51  N   UNL A   1      46.748  28.920  27.285  1.00  0.00    -0.248 NA
ATOM     52  C   UNL A   1      48.345  30.623  27.380  1.00  0.00     0.031 C 
ATOM     53  C   UNL A   1      47.622  24.719  26.161  1.00  0.00     0.029 A 
ATOM     54  C   UNL A   1      47.381  26.037  26.512  1.00  0.00     0.049 A 
ATOM     55  H   UNL A   1      45.573  26.944  27.113  1.00  0.00     0.167 HD
ATOM     56  C   UNL A   1      47.988  28.406  26.918  1.00  0.00     0.074 A 
ATOM     57  C   UNL A   1      48.929  29.504  26.972  1.00  0.00     0.031 C 
ATOM     58  C   UNL A   1      48.312  27.137  26.564  1.00  0.00     0.037 A 
BRANCH  45  59
ATOM     59  C   UNL A   1      43.539  23.200  26.736  1.00  0.00     0.058 A 
ATOM     60  C   UNL A   1      43.246  22.379  27.838  1.00  0.00     0.135 A 
ATOM     61  C   UNL A   1      43.356  22.660  25.453  1.00  0.00     0.135 A 
ATOM     62  F   UNL A   1      43.412  22.839  29.088  1.00  0.00    -0.206 F 
ATOM     63  C   UNL A   1      42.841  21.057  27.674  1.00  0.00     0.059 A 
ATOM     64  C   UNL A   1      42.923  21.350  25.265  1.00  0.00     0.059 A 
ATOM     65  F   UNL A   1      43.612  23.403  24.364  1.00  0.00    -0.206 F 
ATOM     66  C   UNL A   1      42.692  20.549  26.384  1.00  0.00     0.060 A 
BRANCH  66  67
ATOM     67  S   UNL A   1      42.207  18.821  26.186  1.00  0.00     0.124 S 
ATOM     68  O   UNL A   1      43.175  18.361  25.195  1.00  0.00    -0.237 OA
ATOM     69  O   UNL A   1      42.378  18.289  27.533  1.00  0.00    -0.237 OA
ATOM     70  O   UNL A   1      40.825  18.907  25.720  1.00  0.00    -0.744 OA
ENDBRANCH  66  67
ENDBRANCH  45  59
BRANCH  46  71
ATOM     71  C   UNL A   1      46.376  32.659  28.116  1.00  0.00     0.058 A 
ATOM     72  C   UNL A   1      46.268  33.577  27.060  1.00  0.00     0.135 A 
ATOM     73  C   UNL A   1      46.871  33.129  29.342  1.00  0.00     0.135 A 
ATOM     74  F   UNL A   1      45.809  33.172  25.866  1.00  0.00    -0.206 F 
ATOM     75  C   UNL A   1      46.636  34.909  27.211  1.00  0.00     0.059 A 
ATOM     76  C   UNL A   1      47.226  34.461  29.524  1.00  0.00     0.059 A 
ATOM     77  F   UNL A   1      46.982  32.293  30.386  1.00  0.00    -0.206 F 
ATOM     78  C   UNL A   1      47.109  35.343  28.451  1.00  0.00     0.060 A 
BRANCH  78  79
ATOM     79  S   UNL A   1      47.516  37.092  28.657  1.00  0.00     0.124 S 
ATOM     80  O   UNL A   1      48.108  37.100  29.989  1.00  0.00    -0.237 OA
ATOM     81  O   UNL A   1      48.435  37.326  27.548  1.00  0.00    -0.237 OA
ATOM     82  O   UNL A   1      46.219  37.752  28.536  1.00  0.00    -0.744 OA
ENDBRANCH  78  79
ENDBRANCH  46  71
BRANCH  58  83
ATOM     83  C   UNL A   1      49.740  26.871  26.169  1.00  0.00     0.058 A 
ATOM     84  C   UNL A   1      50.692  26.424  27.098  1.00  0.00     0.135 A 
ATOM     85  C   UNL A   1      50.147  27.022  24.833  1.00  0.00     0.135 A 
ATOM     86  F   UNL A   1      50.357  26.271  28.388  1.00  0.00    -0.206 F 
ATOM     87  C   UNL A   1      52.006  26.158  26.720  1.00  0.00     0.059 A 
ATOM     88  C   UNL A   1      51.448  26.738  24.429  1.00  0.00     0.059 A 
ATOM     89  F   UNL A   1      49.274  27.438  23.902  1.00  0.00    -0.206 F 
ATOM     90  C   UNL A   1      52.374  26.317  25.383  1.00  0.00     0.060 A 
BRANCH  90  91
ATOM     91  S   UNL A   1      54.072  25.938  24.898  1.00  0.00     0.124 S 
ATOM     92  O   UNL A   1      54.090  26.393  23.513  1.00  0.00    -0.237 OA
ATOM     93  O   UNL A   1      54.852  26.737  25.838  1.00  0.00    -0.237 OA
ATOM     94  O   UNL A   1      54.165  24.493  25.087  1.00  0.00    -0.744 OA
ENDBRANCH  90  91
ENDBRANCH  58  83
ENDBRANCH  32  33
ENDBRANCH  24  27
ENDBRANCH  22  23
ENDBRANCH  21  22
ENDBRANCH   1  21
TORSDOF 19
ENDMDL
MODEL 2
REMARK VINA RESULT:     -10.6      1.261      8.464
REMARK SMILES C=CC[N@@H+](CC(=O)NCCCNC(=O)c1ccc(-c2c3nc(c(-c4c(F)cc(S(=O)(=O)[O-])cc4F)c4ccc([nH]4)c(-c4c(F)cc(S(=O)(=O)[O-])cc4F)c4nc(c(-c5c(F)cc(S(=O)(=O)[O-])cc5F)c5ccc2[nH]5)C=C4)C=C3)cc1)Cc1ccc([N+](=O)[O-])o1
REMARK SMILES IDX 9 1 8 2 6 3 7 4 5 6 4 7 3 9 2 10 1 11 81 12 82 13 83 14
REMARK SMILES IDX 89 15 84 16 85 17 86 18 87 19 88 20 10 21 11 22 12 23 13 24
REMARK SMILES IDX 14 26 15 27 16 28 80 29 17 30 79 31 18 32 19 33 20 34 73 35
REMARK SMILES IDX 21 36 78 37 72 38 74 39 22 40 77 41 71 42 70 43 23 45 57 46
REMARK SMILES IDX 36 47 56 48 37 49 40 50 55 51 75 52 38 53 39 54 54 56 76 57
REMARK SMILES IDX 41 58 24 59 25 60 34 61 26 62 27 63 33 64 35 65 28 66 29 67
REMARK SMILES IDX 30 68 31 69 32 70 58 71 59 72 68 73 60 74 61 75 67 76 69 77
REMARK SMILES IDX 62 78 63 79 64 80 65 81 66 82 42 83 43 84 52 85 44 86 45 87
REMARK SMILES IDX 51 88 53 89 46 90 47 91 48 92 49 93 50 94
REMARK H PARENT 8 5 4 8 12 25 74 44 40 55
REMARK Flexibility Score: inf
ROOT
ATOM      1  C   UNL A   1      33.228  30.744  26.861  1.00  0.00     0.118 C 
ENDROOT
BRANCH   1   2
ATOM      2  N   UNL A   1      32.429  29.726  27.531  1.00  0.00    -0.351 N 
ATOM      3  C   UNL A   1      32.004  28.484  27.160  1.00  0.00     0.275 C 
ATOM      4  O   UNL A   1      31.438  27.812  28.028  1.00  0.00    -0.269 OA
ATOM      5  H   UNL A   1      32.137  29.989  28.433  1.00  0.00     0.163 HD
BRANCH   3   6
ATOM      6  C   UNL A   1      32.222  27.916  25.757  1.00  0.00     0.364 C 
BRANCH   6   7
ATOM      7  N   UNL A   1      31.087  28.043  24.823  1.00  0.00    -0.318 N 
ATOM      8  H   UNL A   1      30.475  28.739  25.248  1.00  0.00     0.349 HD
BRANCH   7   9
ATOM      9  C   UNL A   1      30.245  26.866  24.778  1.00  0.00     0.291 C 
BRANCH   9  10
ATOM     10  C   UNL A   1      30.715  25.738  23.916  1.00  0.00     0.025 C 
ATOM     11  C   UNL A   1      31.284  24.627  24.408  1.00  0.00     0.010 C 
ENDBRANCH   9  10
ENDBRANCH   7   9
BRANCH   7  12
ATOM     12  C   UNL A   1      31.355  28.747  23.561  1.00  0.00     0.339 C 
BRANCH  12  13
ATOM     13  C   UNL A   1      30.230  29.419  22.834  1.00  0.00     0.165 A 
ATOM     14  C   UNL A   1      29.625  29.301  21.595  1.00  0.00     0.059 A 
ATOM     15  O   UNL A   1      29.598  30.414  23.542  1.00  0.00    -0.400 OA
ATOM     16  C   UNL A   1      28.636  30.309  21.499  1.00  0.00     0.134 A 
ATOM     17  C   UNL A   1      28.645  30.932  22.721  1.00  0.00     0.433 A 
BRANCH  17  18
ATOM     18  N   UNL A   1      27.858  32.002  23.242  1.00  0.00     0.102 N 
ATOM     19  O   UNL A   1      26.934  31.680  24.004  1.00  0.00    -0.256 OA
ATOM     20  O   UNL A   1      28.151  33.156  22.907  1.00  0.00    -0.256 OA
ENDBRANCH  17  18
ENDBRANCH  12  13
ENDBRANCH   7  12
ENDBRANCH   6   7
ENDBRANCH   3   6
ENDBRANCH   1   2
BRANCH   1  21
ATOM     21  C   UNL A   1      33.919  31.748  27.798  1.00  0.00     0.042 C 
BRANCH  21  22
ATOM     22  C   UNL A   1      35.308  31.363  28.306  1.00  0.00     0.118 C 
BRANCH  22  23
ATOM     23  N   UNL A   1      35.355  31.279  29.750  1.00  0.00    -0.352 N 
ATOM     24  C   UNL A   1      36.249  30.637  30.572  1.00  0.00     0.251 C 
ATOM     25  H   UNL A   1      34.631  31.755  30.217  1.00  0.00     0.163 HD
ATOM     26  O   UNL A   1      35.941  30.476  31.752  1.00  0.00    -0.269 OA
BRANCH  24  27
ATOM     27  C   UNL A   1      37.559  30.129  30.083  1.00  0.00     0.039 A 
ATOM     28  C   UNL A   1      38.497  29.706  31.032  1.00  0.00     0.014 A 
ATOM     29  C   UNL A   1      37.928  30.167  28.734  1.00  0.00     0.014 A 
ATOM     30  C   UNL A   1      39.780  29.309  30.636  1.00  0.00     0.010 A 
ATOM     31  C   UNL A   1      39.189  29.709  28.331  1.00  0.00     0.010 A 
ATOM     32  C   UNL A   1      40.140  29.297  29.279  1.00  0.00    -0.014 A 
BRANCH  32  33
ATOM     33  C   UNL A   1      41.515  28.903  28.858  1.00  0.00     0.031 A 
ATOM     34  C   UNL A   1      42.641  29.907  28.881  1.00  0.00     0.074 A 
ATOM     35  C   UNL A   1      41.763  27.643  28.447  1.00  0.00     0.049 A 
ATOM     36  N   UNL A   1      43.898  29.751  28.545  1.00  0.00    -0.248 NA
ATOM     37  C   UNL A   1      42.305  31.268  29.324  1.00  0.00     0.031 C 
ATOM     38  C   UNL A   1      40.769  26.572  28.362  1.00  0.00     0.029 A 
ATOM     39  N   UNL A   1      42.928  27.047  28.029  1.00  0.00    -0.354 N 
ATOM     40  C   UNL A   1      44.500  30.991  28.730  1.00  0.00     0.074 A 
ATOM     41  C   UNL A   1      43.457  31.902  29.155  1.00  0.00     0.031 C 
ATOM     42  C   UNL A   1      41.372  25.444  27.952  1.00  0.00     0.029 A 
ATOM     43  C   UNL A   1      42.787  25.717  27.710  1.00  0.00     0.049 A 
ATOM     44  H   UNL A   1      43.785  27.528  27.965  1.00  0.00     0.167 HD
ATOM     45  C   UNL A   1      45.802  31.341  28.585  1.00  0.00     0.037 A 
ATOM     46  C   UNL A   1      43.691  24.816  27.276  1.00  0.00     0.037 A 
ATOM     47  C   UNL A   1      46.847  30.436  28.175  1.00  0.00     0.049 A 
ATOM     48  C   UNL A   1      45.124  25.232  27.087  1.00  0.00     0.074 A 
ATOM     49  C   UNL A   1      48.200  30.691  28.029  1.00  0.00     0.029 A 
ATOM     50  N   UNL A   1      46.655  29.104  27.841  1.00  0.00    -0.354 N 
ATOM     51  N   UNL A   1      45.680  26.400  27.305  1.00  0.00    -0.248 NA
ATOM     52  C   UNL A   1      46.055  24.204  26.598  1.00  0.00     0.031 C 
ATOM     53  C   UNL A   1      48.820  29.522  27.571  1.00  0.00     0.029 A 
ATOM     54  C   UNL A   1      47.861  28.528  27.473  1.00  0.00     0.049 A 
ATOM     55  H   UNL A   1      45.789  28.635  27.862  1.00  0.00     0.167 HD
ATOM     56  C   UNL A   1      47.030  26.239  27.007  1.00  0.00     0.074 A 
ATOM     57  C   UNL A   1      47.207  24.862  26.599  1.00  0.00     0.031 C 
ATOM     58  C   UNL A   1      48.031  27.152  27.073  1.00  0.00     0.037 A 
BRANCH  45  59
ATOM     59  C   UNL A   1      46.166  32.775  28.870  1.00  0.00     0.058 A 
ATOM     60  C   UNL A   1      46.119  33.758  27.869  1.00  0.00     0.135 A 
ATOM     61  C   UNL A   1      46.569  33.171  30.156  1.00  0.00     0.135 A 
ATOM     62  F   UNL A   1      45.751  33.434  26.618  1.00  0.00    -0.206 F 
ATOM     63  C   UNL A   1      46.508  35.071  28.118  1.00  0.00     0.059 A 
ATOM     64  C   UNL A   1      46.934  34.485  30.435  1.00  0.00     0.059 A 
ATOM     65  F   UNL A   1      46.623  32.274  31.154  1.00  0.00    -0.206 F 
ATOM     66  C   UNL A   1      46.924  35.422  29.402  1.00  0.00     0.060 A 
BRANCH  66  67
ATOM     67  S   UNL A   1      47.467  37.118  29.702  1.00  0.00     0.124 S 
ATOM     68  O   UNL A   1      47.489  37.160  31.160  1.00  0.00    -0.237 OA
ATOM     69  O   UNL A   1      48.770  37.152  29.047  1.00  0.00    -0.237 OA
ATOM     70  O   UNL A   1      46.428  37.925  29.066  1.00  0.00    -0.744 OA
ENDBRANCH  66  67
ENDBRANCH  45  59
BRANCH  46  71
ATOM     71  C   UNL A   1      43.270  23.412  27.027  1.00  0.00     0.058 A 
ATOM     72  C   UNL A   1      43.140  22.924  25.718  1.00  0.00     0.135 A 
ATOM     73  C   UNL A   1      43.014  22.525  28.084  1.00  0.00     0.135 A 
ATOM     74  F   UNL A   1      43.365  23.738  24.675  1.00  0.00    -0.206 F 
ATOM     75  C   UNL A   1      42.770  21.608  25.464  1.00  0.00     0.059 A 
ATOM     76  C   UNL A   1      42.664  21.199  27.856  1.00  0.00     0.059 A 
ATOM     77  F   UNL A   1      43.137  22.941  29.354  1.00  0.00    -0.206 F 
ATOM     78  C   UNL A   1      42.539  20.751  26.541  1.00  0.00     0.060 A 
BRANCH  78  79
ATOM     79  S   UNL A   1      42.130  19.024  26.200  1.00  0.00     0.124 S 
ATOM     80  O   UNL A   1      40.733  19.127  25.800  1.00  0.00    -0.237 OA
ATOM     81  O   UNL A   1      43.076  18.689  25.141  1.00  0.00    -0.237 OA
ATOM     82  O   UNL A   1      42.376  18.364  27.479  1.00  0.00    -0.744 OA
ENDBRANCH  78  79
ENDBRANCH  46  71
BRANCH  58  83
ATOM     83  C   UNL A   1      49.419  26.685  26.730  1.00  0.00     0.058 A 
ATOM     84  C   UNL A   1      50.269  26.122  27.695  1.00  0.00     0.135 A 
ATOM     85  C   UNL A   1      49.888  26.761  25.408  1.00  0.00     0.135 A 
ATOM     86  F   UNL A   1      49.873  26.032  28.974  1.00  0.00    -0.206 F 
ATOM     87  C   UNL A   1      51.544  25.670  27.365  1.00  0.00     0.059 A 
ATOM     88  C   UNL A   1      51.150  26.294  25.052  1.00  0.00     0.059 A 
ATOM     89  F   UNL A   1      49.113  27.283  24.444  1.00  0.00    -0.206 F 
ATOM     90  C   UNL A   1      51.976  25.760  26.041  1.00  0.00     0.060 A 
BRANCH  90  91
ATOM     91  S   UNL A   1      53.619  25.143  25.619  1.00  0.00     0.124 S 
ATOM     92  O   UNL A   1      54.331  25.316  26.880  1.00  0.00    -0.237 OA
ATOM     93  O   UNL A   1      53.345  23.762  25.231  1.00  0.00    -0.237 OA
ATOM     94  O   UNL A   1      54.043  26.019  24.531  1.00  0.00    -0.744 OA
ENDBRANCH  90  91
ENDBRANCH  58  83
ENDBRANCH  32  33
ENDBRANCH  24  27
ENDBRANCH  22  23
ENDBRANCH  21  22
ENDBRANCH   1  21
TORSDOF 19
ENDMDL
MODEL 3
REMARK VINA RESULT:     -10.5      7.099     11.902
REMARK SMILES C=CC[N@@H+](CC(=O)NCCCNC(=O)c1ccc(-c2c3nc(c(-c4c(F)cc(S(=O)(=O)[O-])cc4F)c4ccc([nH]4)c(-c4c(F)cc(S(=O)(=O)[O-])cc4F)c4nc(c(-c5c(F)cc(S(=O)(=O)[O-])cc5F)c5ccc2[nH]5)C=C4)C=C3)cc1)Cc1ccc([N+](=O)[O-])o1
REMARK SMILES IDX 9 1 8 2 6 3 7 4 5 6 4 7 3 9 2 10 1 11 81 12 82 13 83 14
REMARK SMILES IDX 89 15 84 16 85 17 86 18 87 19 88 20 10 21 11 22 12 23 13 24
REMARK SMILES IDX 14 26 15 27 16 28 80 29 17 30 79 31 18 32 19 33 20 34 73 35
REMARK SMILES IDX 21 36 78 37 72 38 74 39 22 40 77 41 71 42 70 43 23 45 57 46
REMARK SMILES IDX 36 47 56 48 37 49 40 50 55 51 75 52 38 53 39 54 54 56 76 57
REMARK SMILES IDX 41 58 24 59 25 60 34 61 26 62 27 63 33 64 35 65 28 66 29 67
REMARK SMILES IDX 30 68 31 69 32 70 58 71 59 72 68 73 60 74 61 75 67 76 69 77
REMARK SMILES IDX 62 78 63 79 64 80 65 81 66 82 42 83 43 84 52 85 44 86 45 87
REMARK SMILES IDX 51 88 53 89 46 90 47 91 48 92 49 93 50 94
REMARK H PARENT 8 5 4 8 12 25 74 44 40 55
REMARK Flexibility Score: inf
ROOT
ATOM      1  C   UNL A   1      38.615  22.883  26.330  1.00  0.00     0.118 C 
ENDROOT
BRANCH   1   2
ATOM      2  N   UNL A   1      38.111  22.581  24.997  1.00  0.00    -0.351 N 
ATOM      3  C   UNL A   1      36.971  22.928  24.333  1.00  0.00     0.275 C 
ATOM      4  O   UNL A   1      36.906  22.604  23.142  1.00  0.00    -0.269 OA
ATOM      5  H   UNL A   1      38.715  22.010  24.471  1.00  0.00     0.163 HD
BRANCH   3   6
ATOM      6  C   UNL A   1      35.827  23.698  24.992  1.00  0.00     0.364 C 
BRANCH   6   7
ATOM      7  N   UNL A   1      34.659  22.895  25.405  1.00  0.00    -0.318 N 
ATOM      8  H   UNL A   1      34.056  23.549  25.904  1.00  0.00     0.349 HD
BRANCH   7   9
ATOM      9  C   UNL A   1      34.969  21.911  26.420  1.00  0.00     0.291 C 
BRANCH   9  10
ATOM     10  C   UNL A   1      33.844  21.490  27.311  1.00  0.00     0.025 C 
ATOM     11  C   UNL A   1      33.116  22.356  28.032  1.00  0.00     0.010 C 
ENDBRANCH   9  10
ENDBRANCH   7   9
BRANCH   7  12
ATOM     12  C   UNL A   1      33.718  22.515  24.342  1.00  0.00     0.339 C 
BRANCH  12  13
ATOM     13  C   UNL A   1      32.457  23.303  24.152  1.00  0.00     0.165 A 
ATOM     14  C   UNL A   1      31.474  23.403  23.183  1.00  0.00     0.059 A 
ATOM     15  O   UNL A   1      32.148  24.156  25.186  1.00  0.00    -0.400 OA
ATOM     16  C   UNL A   1      30.567  24.411  23.590  1.00  0.00     0.134 A 
ATOM     17  C   UNL A   1      31.010  24.808  24.826  1.00  0.00     0.433 A 
BRANCH  17  18
ATOM     18  N   UNL A   1      30.498  25.767  25.749  1.00  0.00     0.102 N 
ATOM     19  O   UNL A   1      29.652  25.353  26.555  1.00  0.00    -0.256 OA
ATOM     20  O   UNL A   1      30.930  26.925  25.686  1.00  0.00    -0.256 OA
ENDBRANCH  17  18
ENDBRANCH  12  13
ENDBRANCH   7  12
ENDBRANCH   6   7
ENDBRANCH   3   6
ENDBRANCH   1   2
BRANCH   1  21
ATOM     21  C   UNL A   1      39.844  22.066  26.762  1.00  0.00     0.042 C 
BRANCH  21  22
ATOM     22  C   UNL A   1      41.081  22.862  27.174  1.00  0.00     0.118 C 
BRANCH  22  23
ATOM     23  N   UNL A   1      41.569  23.703  26.102  1.00  0.00    -0.352 N 
ATOM     24  C   UNL A   1      41.690  25.070  26.030  1.00  0.00     0.251 C 
ATOM     25  H   UNL A   1      41.861  23.219  25.295  1.00  0.00     0.163 HD
ATOM     26  O   UNL A   1      41.875  25.580  24.927  1.00  0.00    -0.269 OA
BRANCH  24  27
ATOM     27  C   UNL A   1      41.593  25.942  27.232  1.00  0.00     0.039 A 
ATOM     28  C   UNL A   1      40.432  25.863  28.011  1.00  0.00     0.014 A 
ATOM     29  C   UNL A   1      42.555  26.908  27.543  1.00  0.00     0.014 A 
ATOM     30  C   UNL A   1      40.244  26.727  29.096  1.00  0.00     0.010 A 
ATOM     31  C   UNL A   1      42.397  27.729  28.668  1.00  0.00     0.010 A 
ATOM     32  C   UNL A   1      41.229  27.666  29.444  1.00  0.00    -0.014 A 
BRANCH  32  33
ATOM     33  C   UNL A   1      41.017  28.607  30.582  1.00  0.00     0.031 A 
ATOM     34  C   UNL A   1      41.916  28.559  31.793  1.00  0.00     0.074 A 
ATOM     35  C   UNL A   1      40.015  29.507  30.539  1.00  0.00     0.049 A 
ATOM     36  N   UNL A   1      41.882  29.291  32.880  1.00  0.00    -0.248 NA
ATOM     37  C   UNL A   1      42.982  27.547  31.787  1.00  0.00     0.031 C 
ATOM     38  C   UNL A   1      39.062  29.657  29.438  1.00  0.00     0.029 A 
ATOM     39  N   UNL A   1      39.633  30.470  31.441  1.00  0.00    -0.354 N 
ATOM     40  C   UNL A   1      42.913  28.824  33.687  1.00  0.00     0.074 A 
ATOM     41  C   UNL A   1      43.519  27.710  32.987  1.00  0.00     0.031 C 
ATOM     42  C   UNL A   1      38.227  30.673  29.714  1.00  0.00     0.029 A 
ATOM     43  C   UNL A   1      38.561  31.225  31.026  1.00  0.00     0.049 A 
ATOM     44  H   UNL A   1      40.085  30.607  32.305  1.00  0.00     0.167 HD
ATOM     45  C   UNL A   1      43.338  29.289  34.889  1.00  0.00     0.037 A 
ATOM     46  C   UNL A   1      37.919  32.246  31.628  1.00  0.00     0.037 A 
ATOM     47  C   UNL A   1      42.747  30.405  35.584  1.00  0.00     0.049 A 
ATOM     48  C   UNL A   1      38.381  32.725  32.976  1.00  0.00     0.074 A 
ATOM     49  C   UNL A   1      43.127  30.968  36.790  1.00  0.00     0.029 A 
ATOM     50  N   UNL A   1      41.650  31.126  35.137  1.00  0.00    -0.354 N 
ATOM     51  N   UNL A   1      39.383  32.295  33.705  1.00  0.00    -0.248 NA
ATOM     52  C   UNL A   1      37.629  33.833  33.582  1.00  0.00     0.031 C 
ATOM     53  C   UNL A   1      42.236  32.006  37.091  1.00  0.00     0.029 A 
ATOM     54  C   UNL A   1      41.327  32.117  36.051  1.00  0.00     0.049 A 
ATOM     55  H   UNL A   1      41.169  30.959  34.294  1.00  0.00     0.167 HD
ATOM     56  C   UNL A   1      39.399  33.098  34.841  1.00  0.00     0.074 A 
ATOM     57  C   UNL A   1      38.311  34.042  34.701  1.00  0.00     0.031 C 
ATOM     58  C   UNL A   1      40.244  33.058  35.901  1.00  0.00     0.037 A 
BRANCH  45  59
ATOM     59  C   UNL A   1      44.501  28.580  35.530  1.00  0.00     0.058 A 
ATOM     60  C   UNL A   1      44.310  27.516  36.427  1.00  0.00     0.135 A 
ATOM     61  C   UNL A   1      45.821  28.966  35.248  1.00  0.00     0.135 A 
ATOM     62  F   UNL A   1      43.069  27.110  36.741  1.00  0.00    -0.206 F 
ATOM     63  C   UNL A   1      45.382  26.896  37.062  1.00  0.00     0.059 A 
ATOM     64  C   UNL A   1      46.911  28.341  35.849  1.00  0.00     0.059 A 
ATOM     65  F   UNL A   1      46.063  29.970  34.390  1.00  0.00    -0.206 F 
ATOM     66  C   UNL A   1      46.679  27.324  36.774  1.00  0.00     0.060 A 
BRANCH  66  67
ATOM     67  S   UNL A   1      48.058  26.540  37.637  1.00  0.00     0.124 S 
ATOM     68  O   UNL A   1      48.951  27.676  37.843  1.00  0.00    -0.237 OA
ATOM     69  O   UNL A   1      47.420  26.011  38.837  1.00  0.00    -0.237 OA
ATOM     70  O   UNL A   1      48.528  25.537  36.685  1.00  0.00    -0.744 OA
ENDBRANCH  66  67
ENDBRANCH  45  59
BRANCH  46  71
ATOM     71  C   UNL A   1      36.786  32.914  30.934  1.00  0.00     0.058 A 
ATOM     72  C   UNL A   1      35.461  32.667  31.323  1.00  0.00     0.135 A 
ATOM     73  C   UNL A   1      37.001  33.827  29.890  1.00  0.00     0.135 A 
ATOM     74  F   UNL A   1      35.205  31.795  32.310  1.00  0.00    -0.206 F 
ATOM     75  C   UNL A   1      34.389  33.299  30.703  1.00  0.00     0.059 A 
ATOM     76  C   UNL A   1      35.947  34.488  29.269  1.00  0.00     0.059 A 
ATOM     77  F   UNL A   1      38.251  34.106  29.489  1.00  0.00    -0.206 F 
ATOM     78  C   UNL A   1      34.643  34.213  29.679  1.00  0.00     0.060 A 
BRANCH  78  79
ATOM     79  S   UNL A   1      33.248  35.083  28.930  1.00  0.00     0.124 S 
ATOM     80  O   UNL A   1      32.742  34.080  28.001  1.00  0.00    -0.237 OA
ATOM     81  O   UNL A   1      32.405  35.365  30.088  1.00  0.00    -0.237 OA
ATOM     82  O   UNL A   1      33.872  36.253  28.321  1.00  0.00    -0.744 OA
ENDBRANCH  78  79
ENDBRANCH  46  71
BRANCH  58  83
ATOM     83  C   UNL A   1      40.052  34.088  36.981  1.00  0.00     0.058 A 
ATOM     84  C   UNL A   1      40.749  35.306  36.973  1.00  0.00     0.135 A 
ATOM     85  C   UNL A   1      39.124  33.871  38.013  1.00  0.00     0.135 A 
ATOM     86  F   UNL A   1      41.652  35.561  36.013  1.00  0.00    -0.206 F 
ATOM     87  C   UNL A   1      40.548  36.265  37.963  1.00  0.00     0.059 A 
ATOM     88  C   UNL A   1      38.890  34.824  38.999  1.00  0.00     0.059 A 
ATOM     89  F   UNL A   1      38.425  32.726  38.064  1.00  0.00    -0.206 F 
ATOM     90  C   UNL A   1      39.617  36.015  38.972  1.00  0.00     0.060 A 
BRANCH  90  91
ATOM     91  S   UNL A   1      39.342  37.278  40.233  1.00  0.00     0.124 S 
ATOM     92  O   UNL A   1      38.475  38.214  39.527  1.00  0.00    -0.237 OA
ATOM     93  O   UNL A   1      38.711  36.516  41.307  1.00  0.00    -0.237 OA
ATOM     94  O   UNL A   1      40.687  37.764  40.526  1.00  0.00    -0.744 OA
ENDBRANCH  90  91
ENDBRANCH  58  83
ENDBRANCH  32  33
ENDBRANCH  24  27
ENDBRANCH  22  23
ENDBRANCH  21  22
ENDBRANCH   1  21
TORSDOF 19
ENDMDL
