MODEL 1
REMARK VINA RESULT:      -8.9      0.000      0.000
REMARK SMILES CCCC[C@H](C(=O)NCCCNC(=O)c1ccc(-c2c3nc(c(-c4c(F)cc(S(=O)(=O)[O-])cc4F)c4ccc([nH]4)c(-c4c(F)cc(S(=O)(=O)[O-])cc4F)c4nc(c(-c5c(F)cc(S(=O)(=O)[O-])cc5F)c5ccc2[nH]5)C=C4)C=C3)cc1)[C@H](C)O
REMARK SMILES IDX 10 1 9 2 8 3 6 4 7 5 5 7 4 8 3 9 2 10 1 11 81 12 82 13 83 14
REMARK SMILES IDX 11 16 12 17 13 18 14 20 15 21 16 22 80 23 17 24 79 25 18 26
REMARK SMILES IDX 19 27 20 28 73 29 21 30 78 31 72 32 74 33 22 34 77 35 71 36
REMARK SMILES IDX 70 37 23 39 57 40 36 41 56 42 37 43 40 44 55 45 75 46 38 47
REMARK SMILES IDX 39 48 54 50 76 51 41 52 24 53 25 54 34 55 26 56 27 57 33 58
REMARK SMILES IDX 35 59 28 60 29 61 30 62 31 63 32 64 58 65 59 66 68 67 60 68
REMARK SMILES IDX 61 69 67 70 69 71 62 72 63 73 64 74 65 75 66 76 42 77 43 78
REMARK SMILES IDX 52 79 44 80 45 81 51 82 53 83 46 84 47 85 48 86 49 87 50 88
REMARK H PARENT 8 6 83 15 12 19 74 38 40 49
REMARK Flexibility Score: inf
ROOT
ATOM      1  C   UNL A   1      33.572  33.789  28.596  1.00  0.00     0.042 C 
ENDROOT
BRANCH   1   2
ATOM      2  C   UNL A   1      34.233  34.537  29.749  1.00  0.00     0.117 C 
BRANCH   2   3
ATOM      3  N   UNL A   1      35.667  34.332  29.762  1.00  0.00    -0.356 N 
ATOM      4  C   UNL A   1      36.514  33.859  30.708  1.00  0.00     0.225 C 
ATOM      5  O   UNL A   1      37.719  33.876  30.418  1.00  0.00    -0.275 OA
ATOM      6  H   UNL A   1      36.112  34.582  28.920  1.00  0.00     0.163 HD
BRANCH   4   7
ATOM      7  C   UNL A   1      36.083  33.321  32.079  1.00  0.00     0.107 C 
BRANCH   7   8
ATOM      8  C   UNL A   1      36.548  31.875  32.377  1.00  0.00     0.016 C 
BRANCH   8   9
ATOM      9  C   UNL A   1      37.913  31.555  32.995  1.00  0.00     0.001 C 
BRANCH   9  10
ATOM     10  C   UNL A   1      38.134  30.171  33.601  1.00  0.00    -0.003 C 
ATOM     11  C   UNL A   1      39.341  29.451  33.021  1.00  0.00     0.004 C 
ENDBRANCH   9  10
ENDBRANCH   8   9
ENDBRANCH   7   8
BRANCH   7  12
ATOM     12  C   UNL A   1      36.133  34.379  33.196  1.00  0.00     0.123 C 
ATOM     13  C   UNL A   1      35.248  34.046  34.393  1.00  0.00     0.039 C 
BRANCH  12  14
ATOM     14  O   UNL A   1      35.674  35.643  32.697  1.00  0.00    -0.393 OA
ATOM     15  H   UNL A   1      35.645  36.287  33.421  1.00  0.00     0.210 HD
ENDBRANCH  12  14
ENDBRANCH   7  12
ENDBRANCH   4   7
ENDBRANCH   2   3
ENDBRANCH   1   2
BRANCH   1  16
ATOM     16  C   UNL A   1      34.435  32.697  27.988  1.00  0.00     0.118 C 
BRANCH  16  17
ATOM     17  N   UNL A   1      33.766  31.408  27.962  1.00  0.00    -0.352 N 
ATOM     18  C   UNL A   1      34.282  30.134  27.971  1.00  0.00     0.251 C 
ATOM     19  H   UNL A   1      32.782  31.454  27.933  1.00  0.00     0.163 HD
ATOM     20  O   UNL A   1      33.534  29.189  27.733  1.00  0.00    -0.269 OA
BRANCH  18  21
ATOM     21  C   UNL A   1      35.720  29.888  28.238  1.00  0.00     0.039 A 
ATOM     22  C   UNL A   1      36.110  29.502  29.525  1.00  0.00     0.014 A 
ATOM     23  C   UNL A   1      36.694  30.074  27.254  1.00  0.00     0.014 A 
ATOM     24  C   UNL A   1      37.457  29.247  29.801  1.00  0.00     0.010 A 
ATOM     25  C   UNL A   1      38.017  29.718  27.500  1.00  0.00     0.010 A 
ATOM     26  C   UNL A   1      38.420  29.318  28.782  1.00  0.00    -0.014 A 
BRANCH  26  27
ATOM     27  C   UNL A   1      39.852  29.012  29.040  1.00  0.00     0.031 A 
ATOM     28  C   UNL A   1      40.756  30.066  29.628  1.00  0.00     0.074 A 
ATOM     29  C   UNL A   1      40.354  27.809  28.694  1.00  0.00     0.049 A 
ATOM     30  N   UNL A   1      42.043  30.018  29.857  1.00  0.00    -0.248 NA
ATOM     31  C   UNL A   1      40.136  31.355  29.975  1.00  0.00     0.031 C 
ATOM     32  C   UNL A   1      39.596  26.722  28.070  1.00  0.00     0.029 A 
ATOM     33  N   UNL A   1      41.625  27.302  28.807  1.00  0.00    -0.354 N 
ATOM     34  C   UNL A   1      42.388  31.271  30.352  1.00  0.00     0.074 A 
ATOM     35  C   UNL A   1      41.188  32.076  30.335  1.00  0.00     0.031 C 
ATOM     36  C   UNL A   1      40.407  25.670  27.881  1.00  0.00     0.029 A 
ATOM     37  C   UNL A   1      41.752  26.017  28.331  1.00  0.00     0.049 A 
ATOM     38  H   UNL A   1      42.375  27.809  29.192  1.00  0.00     0.167 HD
ATOM     39  C   UNL A   1      43.589  31.704  30.806  1.00  0.00     0.037 A 
ATOM     40  C   UNL A   1      42.830  25.213  28.257  1.00  0.00     0.037 A 
ATOM     41  C   UNL A   1      44.772  30.885  30.853  1.00  0.00     0.049 A 
ATOM     42  C   UNL A   1      44.152  25.711  28.775  1.00  0.00     0.074 A 
ATOM     43  C   UNL A   1      46.022  31.208  31.351  1.00  0.00     0.029 A 
ATOM     44  N   UNL A   1      44.852  29.582  30.385  1.00  0.00    -0.354 N 
ATOM     45  N   UNL A   1      44.445  26.878  29.298  1.00  0.00    -0.248 NA
ATOM     46  C   UNL A   1      45.288  24.783  28.702  1.00  0.00     0.031 C 
ATOM     47  C   UNL A   1      46.870  30.113  31.146  1.00  0.00     0.029 A 
ATOM     48  C   UNL A   1      46.135  29.092  30.567  1.00  0.00     0.049 A 
ATOM     49  H   UNL A   1      44.107  29.079  29.984  1.00  0.00     0.167 HD
ATOM     50  C   UNL A   1      45.791  26.815  29.640  1.00  0.00     0.074 A 
ATOM     51  C   UNL A   1      46.251  25.491  29.275  1.00  0.00     0.031 C 
ATOM     52  C   UNL A   1      46.575  27.767  30.205  1.00  0.00     0.037 A 
BRANCH  39  53
ATOM     53  C   UNL A   1      43.681  33.124  31.294  1.00  0.00     0.058 A 
ATOM     54  C   UNL A   1      43.584  33.443  32.659  1.00  0.00     0.135 A 
ATOM     55  C   UNL A   1      43.901  34.179  30.393  1.00  0.00     0.135 A 
ATOM     56  F   UNL A   1      43.360  32.477  33.565  1.00  0.00    -0.206 F 
ATOM     57  C   UNL A   1      43.667  34.757  33.109  1.00  0.00     0.059 A 
ATOM     58  C   UNL A   1      44.017  35.498  30.823  1.00  0.00     0.059 A 
ATOM     59  F   UNL A   1      44.002  33.933  29.078  1.00  0.00    -0.206 F 
ATOM     60  C   UNL A   1      43.883  35.778  32.183  1.00  0.00     0.060 A 
BRANCH  60  61
ATOM     61  S   UNL A   1      43.991  37.477  32.783  1.00  0.00     0.124 S 
ATOM     62  O   UNL A   1      43.815  38.234  31.548  1.00  0.00    -0.237 OA
ATOM     63  O   UNL A   1      42.883  37.544  33.731  1.00  0.00    -0.237 OA
ATOM     64  O   UNL A   1      45.323  37.545  33.377  1.00  0.00    -0.744 OA
ENDBRANCH  60  61
ENDBRANCH  39  53
BRANCH  40  65
ATOM     65  C   UNL A   1      42.697  23.842  27.692  1.00  0.00     0.058 A 
ATOM     66  C   UNL A   1      42.674  23.634  26.305  1.00  0.00     0.135 A 
ATOM     67  C   UNL A   1      42.610  22.715  28.524  1.00  0.00     0.135 A 
ATOM     68  F   UNL A   1      42.749  24.680  25.468  1.00  0.00    -0.206 F 
ATOM     69  C   UNL A   1      42.553  22.358  25.760  1.00  0.00     0.059 A 
ATOM     70  C   UNL A   1      42.514  21.428  28.003  1.00  0.00     0.059 A 
ATOM     71  F   UNL A   1      42.645  22.859  29.857  1.00  0.00    -0.206 F 
ATOM     72  C   UNL A   1      42.477  21.260  26.619  1.00  0.00     0.060 A 
BRANCH  72  73
ATOM     73  S   UNL A   1      42.372  19.606  25.903  1.00  0.00     0.124 S 
ATOM     74  O   UNL A   1      43.429  19.653  24.900  1.00  0.00    -0.237 OA
ATOM     75  O   UNL A   1      42.626  18.755  27.061  1.00  0.00    -0.237 OA
ATOM     76  O   UNL A   1      41.009  19.553  25.382  1.00  0.00    -0.744 OA
ENDBRANCH  72  73
ENDBRANCH  40  65
BRANCH  52  77
ATOM     77  C   UNL A   1      48.004  27.403  30.498  1.00  0.00     0.058 A 
ATOM     78  C   UNL A   1      48.388  26.845  31.726  1.00  0.00     0.135 A 
ATOM     79  C   UNL A   1      48.994  27.568  29.514  1.00  0.00     0.135 A 
ATOM     80  F   UNL A   1      47.483  26.672  32.702  1.00  0.00    -0.206 F 
ATOM     81  C   UNL A   1      49.707  26.481  31.979  1.00  0.00     0.059 A 
ATOM     82  C   UNL A   1      50.313  27.186  29.734  1.00  0.00     0.059 A 
ATOM     83  F   UNL A   1      48.678  28.089  28.317  1.00  0.00    -0.206 F 
ATOM     84  C   UNL A   1      50.662  26.654  30.974  1.00  0.00     0.060 A 
BRANCH  84  85
ATOM     85  S   UNL A   1      52.363  26.146  31.303  1.00  0.00     0.124 S 
ATOM     86  O   UNL A   1      52.970  26.282  29.983  1.00  0.00    -0.237 OA
ATOM     87  O   UNL A   1      52.793  27.119  32.301  1.00  0.00    -0.237 OA
ATOM     88  O   UNL A   1      52.220  24.778  31.790  1.00  0.00    -0.744 OA
ENDBRANCH  84  85
ENDBRANCH  52  77
ENDBRANCH  26  27
ENDBRANCH  18  21
ENDBRANCH  16  17
ENDBRANCH   1  16
TORSDOF 18
ENDMDL
MODEL 2
REMARK VINA RESULT:      -8.9      2.633      5.055
REMARK SMILES CCCC[C@H](C(=O)NCCCNC(=O)c1ccc(-c2c3nc(c(-c4c(F)cc(S(=O)(=O)[O-])cc4F)c4ccc([nH]4)c(-c4c(F)cc(S(=O)(=O)[O-])cc4F)c4nc(c(-c5c(F)cc(S(=O)(=O)[O-])cc5F)c5ccc2[nH]5)C=C4)C=C3)cc1)[C@H](C)O
REMARK SMILES IDX 10 1 9 2 8 3 6 4 7 5 5 7 4 8 3 9 2 10 1 11 81 12 82 13 83 14
REMARK SMILES IDX 11 16 12 17 13 18 14 20 15 21 16 22 80 23 17 24 79 25 18 26
REMARK SMILES IDX 19 27 20 28 73 29 21 30 78 31 72 32 74 33 22 34 77 35 71 36
REMARK SMILES IDX 70 37 23 39 57 40 36 41 56 42 37 43 40 44 55 45 75 46 38 47
REMARK SMILES IDX 39 48 54 50 76 51 41 52 24 53 25 54 34 55 26 56 27 57 33 58
REMARK SMILES IDX 35 59 28 60 29 61 30 62 31 63 32 64 58 65 59 66 68 67 60 68
REMARK SMILES IDX 61 69 67 70 69 71 62 72 63 73 64 74 65 75 66 76 42 77 43 78
REMARK SMILES IDX 52 79 44 80 45 81 51 82 53 83 46 84 47 85 48 86 49 87 50 88
REMARK H PARENT 8 6 83 15 12 19 74 38 40 49
REMARK Flexibility Score: inf
ROOT
ATOM      1  C   UNL A   1      33.780  27.897  25.589  1.00  0.00     0.042 C 
ENDROOT
BRANCH   1   2
ATOM      2  C   UNL A   1      33.289  26.537  25.102  1.00  0.00     0.117 C 
BRANCH   2   3
ATOM      3  N   UNL A   1      32.397  25.920  26.062  1.00  0.00    -0.356 N 
ATOM      4  C   UNL A   1      32.221  24.634  26.451  1.00  0.00     0.225 C 
ATOM      5  O   UNL A   1      31.307  24.431  27.262  1.00  0.00    -0.275 OA
ATOM      6  H   UNL A   1      31.805  26.558  26.522  1.00  0.00     0.163 HD
BRANCH   4   7
ATOM      7  C   UNL A   1      33.062  23.448  25.960  1.00  0.00     0.107 C 
BRANCH   7   8
ATOM      8  C   UNL A   1      34.521  23.436  26.476  1.00  0.00     0.016 C 
BRANCH   8   9
ATOM      9  C   UNL A   1      35.731  23.534  25.541  1.00  0.00     0.001 C 
BRANCH   9  10
ATOM     10  C   UNL A   1      35.488  23.570  24.034  1.00  0.00    -0.003 C 
ATOM     11  C   UNL A   1      36.605  22.922  23.234  1.00  0.00     0.004 C 
ENDBRANCH   9  10
ENDBRANCH   8   9
ENDBRANCH   7   8
BRANCH   7  12
ATOM     12  C   UNL A   1      32.273  22.128  25.884  1.00  0.00     0.123 C 
ATOM     13  C   UNL A   1      32.941  21.066  25.016  1.00  0.00     0.039 C 
BRANCH  12  14
ATOM     14  O   UNL A   1      30.979  22.360  25.309  1.00  0.00    -0.393 OA
ATOM     15  H   UNL A   1      30.738  23.293  25.420  1.00  0.00     0.210 HD
ENDBRANCH  12  14
ENDBRANCH   7  12
ENDBRANCH   4   7
ENDBRANCH   2   3
ENDBRANCH   1   2
BRANCH   1  16
ATOM     16  C   UNL A   1      33.559  28.142  27.072  1.00  0.00     0.118 C 
BRANCH  16  17
ATOM     17  N   UNL A   1      33.444  29.555  27.391  1.00  0.00    -0.352 N 
ATOM     18  C   UNL A   1      34.330  30.405  28.009  1.00  0.00     0.251 C 
ATOM     19  H   UNL A   1      32.593  29.971  27.121  1.00  0.00     0.163 HD
ATOM     20  O   UNL A   1      33.938  31.514  28.363  1.00  0.00    -0.269 OA
BRANCH  18  21
ATOM     21  C   UNL A   1      35.731  29.997  28.272  1.00  0.00     0.039 A 
ATOM     22  C   UNL A   1      36.661  30.073  27.230  1.00  0.00     0.014 A 
ATOM     23  C   UNL A   1      36.132  29.502  29.516  1.00  0.00     0.014 A 
ATOM     24  C   UNL A   1      37.994  29.711  27.454  1.00  0.00     0.010 A 
ATOM     25  C   UNL A   1      37.477  29.245  29.767  1.00  0.00     0.010 A 
ATOM     26  C   UNL A   1      38.423  29.327  28.735  1.00  0.00    -0.014 A 
BRANCH  26  27
ATOM     27  C   UNL A   1      39.842  28.977  29.009  1.00  0.00     0.031 A 
ATOM     28  C   UNL A   1      40.775  30.008  29.594  1.00  0.00     0.074 A 
ATOM     29  C   UNL A   1      40.308  27.756  28.678  1.00  0.00     0.049 A 
ATOM     30  N   UNL A   1      42.058  29.921  29.834  1.00  0.00    -0.248 NA
ATOM     31  C   UNL A   1      40.194  31.320  29.924  1.00  0.00     0.031 C 
ATOM     32  C   UNL A   1      39.521  26.688  28.057  1.00  0.00     0.029 A 
ATOM     33  N   UNL A   1      41.561  27.209  28.806  1.00  0.00    -0.354 N 
ATOM     34  C   UNL A   1      42.439  31.167  30.321  1.00  0.00     0.074 A 
ATOM     35  C   UNL A   1      41.265  32.009  30.287  1.00  0.00     0.031 C 
ATOM     36  C   UNL A   1      40.299  25.608  27.885  1.00  0.00     0.029 A 
ATOM     37  C   UNL A   1      41.650  25.917  28.343  1.00  0.00     0.049 A 
ATOM     38  H   UNL A   1      42.324  27.696  29.193  1.00  0.00     0.167 HD
ATOM     39  C   UNL A   1      43.649  31.565  30.781  1.00  0.00     0.037 A 
ATOM     40  C   UNL A   1      42.703  25.078  28.285  1.00  0.00     0.037 A 
ATOM     41  C   UNL A   1      44.805  30.710  30.845  1.00  0.00     0.049 A 
ATOM     42  C   UNL A   1      44.036  25.538  28.810  1.00  0.00     0.074 A 
ATOM     43  C   UNL A   1      46.061  30.996  31.351  1.00  0.00     0.029 A 
ATOM     44  N   UNL A   1      44.847  29.399  30.390  1.00  0.00    -0.354 N 
ATOM     45  N   UNL A   1      44.362  26.700  29.325  1.00  0.00    -0.248 NA
ATOM     46  C   UNL A   1      45.142  24.573  28.754  1.00  0.00     0.031 C 
ATOM     47  C   UNL A   1      46.875  29.874  31.163  1.00  0.00     0.029 A 
ATOM     48  C   UNL A   1      46.112  28.871  30.587  1.00  0.00     0.049 A 
ATOM     49  H   UNL A   1      44.090  28.917  29.987  1.00  0.00     0.167 HD
ATOM     50  C   UNL A   1      45.703  26.598  29.678  1.00  0.00     0.074 A 
ATOM     51  C   UNL A   1      46.123  25.256  29.330  1.00  0.00     0.031 C 
ATOM     52  C   UNL A   1      46.512  27.529  30.241  1.00  0.00     0.037 A 
BRANCH  39  53
ATOM     53  C   UNL A   1      43.783  32.986  31.257  1.00  0.00     0.058 A 
ATOM     54  C   UNL A   1      44.116  34.030  30.378  1.00  0.00     0.135 A 
ATOM     55  C   UNL A   1      43.547  33.316  32.601  1.00  0.00     0.135 A 
ATOM     56  F   UNL A   1      44.367  33.772  29.084  1.00  0.00    -0.206 F 
ATOM     57  C   UNL A   1      44.242  35.343  30.820  1.00  0.00     0.059 A 
ATOM     58  C   UNL A   1      43.638  34.628  33.060  1.00  0.00     0.059 A 
ATOM     59  F   UNL A   1      43.226  32.359  33.486  1.00  0.00    -0.206 F 
ATOM     60  C   UNL A   1      44.001  35.632  32.164  1.00  0.00     0.060 A 
BRANCH  60  61
ATOM     61  S   UNL A   1      44.166  37.342  32.721  1.00  0.00     0.124 S 
ATOM     62  O   UNL A   1      43.059  37.448  33.665  1.00  0.00    -0.237 OA
ATOM     63  O   UNL A   1      45.502  37.351  33.308  1.00  0.00    -0.237 OA
ATOM     64  O   UNL A   1      44.020  38.116  31.492  1.00  0.00    -0.744 OA
ENDBRANCH  60  61
ENDBRANCH  39  53
BRANCH  40  65
ATOM     65  C   UNL A   1      42.531  23.707  27.732  1.00  0.00     0.058 A 
ATOM     66  C   UNL A   1      42.524  23.485  26.347  1.00  0.00     0.135 A 
ATOM     67  C   UNL A   1      42.389  22.592  28.573  1.00  0.00     0.135 A 
ATOM     68  F   UNL A   1      42.651  24.519  25.501  1.00  0.00    -0.206 F 
ATOM     69  C   UNL A   1      42.366  22.209  25.813  1.00  0.00     0.059 A 
ATOM     70  C   UNL A   1      42.256  21.304  28.064  1.00  0.00     0.059 A 
ATOM     71  F   UNL A   1      42.406  22.749  29.905  1.00  0.00    -0.206 F 
ATOM     72  C   UNL A   1      42.236  21.123  26.681  1.00  0.00     0.060 A 
BRANCH  72  73
ATOM     73  S   UNL A   1      42.084  19.466  25.979  1.00  0.00     0.124 S 
ATOM     74  O   UNL A   1      42.921  19.573  24.791  1.00  0.00    -0.237 OA
ATOM     75  O   UNL A   1      42.605  18.630  27.056  1.00  0.00    -0.237 OA
ATOM     76  O   UNL A   1      40.651  19.337  25.734  1.00  0.00    -0.744 OA
ENDBRANCH  72  73
ENDBRANCH  40  65
BRANCH  52  77
ATOM     77  C   UNL A   1      47.926  27.122  30.549  1.00  0.00     0.058 A 
ATOM     78  C   UNL A   1      48.989  27.433  29.688  1.00  0.00     0.135 A 
ATOM     79  C   UNL A   1      48.228  26.459  31.750  1.00  0.00     0.135 A 
ATOM     80  F   UNL A   1      48.755  28.061  28.525  1.00  0.00    -0.206 F 
ATOM     81  C   UNL A   1      50.300  27.081  29.995  1.00  0.00     0.059 A 
ATOM     82  C   UNL A   1      49.533  26.122  32.091  1.00  0.00     0.059 A 
ATOM     83  F   UNL A   1      47.249  26.147  32.615  1.00  0.00    -0.206 F 
ATOM     84  C   UNL A   1      50.562  26.428  31.202  1.00  0.00     0.060 A 
BRANCH  84  85
ATOM     85  S   UNL A   1      52.271  26.009  31.604  1.00  0.00     0.124 S 
ATOM     86  O   UNL A   1      52.117  24.681  32.190  1.00  0.00    -0.237 OA
ATOM     87  O   UNL A   1      52.920  26.054  30.299  1.00  0.00    -0.237 OA
ATOM     88  O   UNL A   1      52.669  27.062  32.533  1.00  0.00    -0.744 OA
ENDBRANCH  84  85
ENDBRANCH  52  77
ENDBRANCH  26  27
ENDBRANCH  18  21
ENDBRANCH  16  17
ENDBRANCH   1  16
TORSDOF 18
ENDMDL
MODEL 3
REMARK VINA RESULT:      -8.8      2.928      3.647
REMARK SMILES CCCC[C@H](C(=O)NCCCNC(=O)c1ccc(-c2c3nc(c(-c4c(F)cc(S(=O)(=O)[O-])cc4F)c4ccc([nH]4)c(-c4c(F)cc(S(=O)(=O)[O-])cc4F)c4nc(c(-c5c(F)cc(S(=O)(=O)[O-])cc5F)c5ccc2[nH]5)C=C4)C=C3)cc1)[C@H](C)O
REMARK SMILES IDX 10 1 9 2 8 3 6 4 7 5 5 7 4 8 3 9 2 10 1 11 81 12 82 13 83 14
REMARK SMILES IDX 11 16 12 17 13 18 14 20 15 21 16 22 80 23 17 24 79 25 18 26
REMARK SMILES IDX 19 27 20 28 73 29 21 30 78 31 72 32 74 33 22 34 77 35 71 36
REMARK SMILES IDX 70 37 23 39 57 40 36 41 56 42 37 43 40 44 55 45 75 46 38 47
REMARK SMILES IDX 39 48 54 50 76 51 41 52 24 53 25 54 34 55 26 56 27 57 33 58
REMARK SMILES IDX 35 59 28 60 29 61 30 62 31 63 32 64 58 65 59 66 68 67 60 68
REMARK SMILES IDX 61 69 67 70 69 71 62 72 63 73 64 74 65 75 66 76 42 77 43 78
REMARK SMILES IDX 52 79 44 80 45 81 51 82 53 83 46 84 47 85 48 86 49 87 50 88
REMARK H PARENT 8 6 83 15 12 19 74 38 40 49
REMARK Flexibility Score: inf
ROOT
ATOM      1  C   UNL A   1      33.512  33.812  27.878  1.00  0.00     0.042 C 
ENDROOT
BRANCH   1   2
ATOM      2  C   UNL A   1      34.326  34.976  28.435  1.00  0.00     0.117 C 
BRANCH   2   3
ATOM      3  N   UNL A   1      33.661  35.596  29.563  1.00  0.00    -0.356 N 
ATOM      4  C   UNL A   1      33.704  35.353  30.896  1.00  0.00     0.225 C 
ATOM      5  O   UNL A   1      32.945  36.034  31.599  1.00  0.00    -0.275 OA
ATOM      6  H   UNL A   1      33.063  36.337  29.315  1.00  0.00     0.163 HD
BRANCH   4   7
ATOM      7  C   UNL A   1      34.612  34.313  31.568  1.00  0.00     0.107 C 
BRANCH   7   8
ATOM      8  C   UNL A   1      36.078  34.324  31.073  1.00  0.00     0.016 C 
BRANCH   8   9
ATOM      9  C   UNL A   1      36.724  33.124  30.372  1.00  0.00     0.001 C 
BRANCH   9  10
ATOM     10  C   UNL A   1      37.612  33.379  29.157  1.00  0.00    -0.003 C 
ATOM     11  C   UNL A   1      38.899  34.110  29.501  1.00  0.00     0.004 C 
ENDBRANCH   9  10
ENDBRANCH   8   9
ENDBRANCH   7   8
BRANCH   7  12
ATOM     12  C   UNL A   1      34.319  34.122  33.067  1.00  0.00     0.123 C 
ATOM     13  C   UNL A   1      35.209  33.078  33.735  1.00  0.00     0.039 C 
BRANCH  12  14
ATOM     14  O   UNL A   1      32.968  33.675  33.251  1.00  0.00    -0.393 OA
ATOM     15  H   UNL A   1      32.539  33.575  32.387  1.00  0.00     0.210 HD
ENDBRANCH  12  14
ENDBRANCH   7  12
ENDBRANCH   4   7
ENDBRANCH   2   3
ENDBRANCH   1   2
BRANCH   1  16
ATOM     16  C   UNL A   1      33.862  32.464  28.484  1.00  0.00     0.118 C 
BRANCH  16  17
ATOM     17  N   UNL A   1      33.610  31.361  27.572  1.00  0.00    -0.352 N 
ATOM     18  C   UNL A   1      34.412  30.308  27.203  1.00  0.00     0.251 C 
ATOM     19  H   UNL A   1      32.720  31.371  27.149  1.00  0.00     0.163 HD
ATOM     20  O   UNL A   1      34.069  29.606  26.255  1.00  0.00    -0.269 OA
BRANCH  18  21
ATOM     21  C   UNL A   1      35.683  30.023  27.912  1.00  0.00     0.039 A 
ATOM     22  C   UNL A   1      35.632  29.619  29.250  1.00  0.00     0.014 A 
ATOM     23  C   UNL A   1      36.924  30.190  27.293  1.00  0.00     0.014 A 
ATOM     24  C   UNL A   1      36.814  29.327  29.939  1.00  0.00     0.010 A 
ATOM     25  C   UNL A   1      38.091  29.798  27.944  1.00  0.00     0.010 A 
ATOM     26  C   UNL A   1      38.054  29.380  29.281  1.00  0.00    -0.014 A 
BRANCH  26  27
ATOM     27  C   UNL A   1      39.321  29.035  29.980  1.00  0.00     0.031 A 
ATOM     28  C   UNL A   1      39.734  29.795  31.215  1.00  0.00     0.074 A 
ATOM     29  C   UNL A   1      40.129  28.082  29.472  1.00  0.00     0.049 A 
ATOM     30  N   UNL A   1      40.831  29.695  31.919  1.00  0.00    -0.248 NA
ATOM     31  C   UNL A   1      38.803  30.824  31.705  1.00  0.00     0.031 C 
ATOM     32  C   UNL A   1      39.868  27.311  28.255  1.00  0.00     0.029 A 
ATOM     33  N   UNL A   1      41.340  27.606  29.911  1.00  0.00    -0.354 N 
ATOM     34  C   UNL A   1      40.732  30.659  32.917  1.00  0.00     0.074 A 
ATOM     35  C   UNL A   1      39.495  31.371  32.693  1.00  0.00     0.031 C 
ATOM     36  C   UNL A   1      40.872  26.441  28.059  1.00  0.00     0.029 A 
ATOM     37  C   UNL A   1      41.868  26.618  29.112  1.00  0.00     0.049 A 
ATOM     38  H   UNL A   1      41.787  27.939  30.722  1.00  0.00     0.167 HD
ATOM     39  C   UNL A   1      41.580  30.909  33.944  1.00  0.00     0.037 A 
ATOM     40  C   UNL A   1      43.027  25.938  29.210  1.00  0.00     0.037 A 
ATOM     41  C   UNL A   1      42.793  30.171  34.182  1.00  0.00     0.049 A 
ATOM     42  C   UNL A   1      43.949  26.227  30.364  1.00  0.00     0.074 A 
ATOM     43  C   UNL A   1      43.689  30.303  35.228  1.00  0.00     0.029 A 
ATOM     44  N   UNL A   1      43.279  29.161  33.364  1.00  0.00    -0.354 N 
ATOM     45  N   UNL A   1      43.807  27.099  31.334  1.00  0.00    -0.248 NA
ATOM     46  C   UNL A   1      45.183  25.434  30.443  1.00  0.00     0.031 C 
ATOM     47  C   UNL A   1      44.740  29.403  35.020  1.00  0.00     0.029 A 
ATOM     48  C   UNL A   1      44.472  28.675  33.872  1.00  0.00     0.049 A 
ATOM     49  H   UNL A   1      42.841  28.838  32.544  1.00  0.00     0.167 HD
ATOM     50  C   UNL A   1      44.921  26.942  32.152  1.00  0.00     0.074 A 
ATOM     51  C   UNL A   1      45.719  25.883  31.570  1.00  0.00     0.031 C 
ATOM     52  C   UNL A   1      45.252  27.613  33.283  1.00  0.00     0.037 A 
BRANCH  39  53
ATOM     53  C   UNL A   1      41.221  32.022  34.891  1.00  0.00     0.058 A 
ATOM     54  C   UNL A   1      40.388  31.806  36.001  1.00  0.00     0.135 A 
ATOM     55  C   UNL A   1      41.740  33.314  34.708  1.00  0.00     0.135 A 
ATOM     56  F   UNL A   1      39.851  30.595  36.219  1.00  0.00    -0.206 F 
ATOM     57  C   UNL A   1      40.056  32.837  36.875  1.00  0.00     0.059 A 
ATOM     58  C   UNL A   1      41.446  34.353  35.585  1.00  0.00     0.059 A 
ATOM     59  F   UNL A   1      42.542  33.578  33.664  1.00  0.00    -0.206 F 
ATOM     60  C   UNL A   1      40.589  34.108  36.658  1.00  0.00     0.060 A 
BRANCH  60  61
ATOM     61  S   UNL A   1      40.150  35.433  37.802  1.00  0.00     0.124 S 
ATOM     62  O   UNL A   1      39.997  36.564  36.892  1.00  0.00    -0.237 OA
ATOM     63  O   UNL A   1      38.918  34.932  38.402  1.00  0.00    -0.237 OA
ATOM     64  O   UNL A   1      41.298  35.502  38.701  1.00  0.00    -0.744 OA
ENDBRANCH  60  61
ENDBRANCH  39  53
BRANCH  40  65
ATOM     65  C   UNL A   1      43.367  24.900  28.200  1.00  0.00     0.058 A 
ATOM     66  C   UNL A   1      42.961  23.568  28.370  1.00  0.00     0.135 A 
ATOM     67  C   UNL A   1      44.087  25.221  27.038  1.00  0.00     0.135 A 
ATOM     68  F   UNL A   1      42.276  23.211  29.467  1.00  0.00    -0.206 F 
ATOM     69  C   UNL A   1      43.270  22.586  27.433  1.00  0.00     0.059 A 
ATOM     70  C   UNL A   1      44.385  24.261  26.074  1.00  0.00     0.059 A 
ATOM     71  F   UNL A   1      44.483  26.484  26.820  1.00  0.00    -0.206 F 
ATOM     72  C   UNL A   1      43.980  22.944  26.286  1.00  0.00     0.060 A 
BRANCH  72  73
ATOM     73  S   UNL A   1      44.330  21.673  25.052  1.00  0.00     0.124 S 
ATOM     74  O   UNL A   1      45.709  21.327  25.370  1.00  0.00    -0.237 OA
ATOM     75  O   UNL A   1      43.328  20.659  25.365  1.00  0.00    -0.237 OA
ATOM     76  O   UNL A   1      44.130  22.371  23.785  1.00  0.00    -0.744 OA
ENDBRANCH  72  73
ENDBRANCH  40  65
BRANCH  52  77
ATOM     77  C   UNL A   1      46.514  27.202  33.989  1.00  0.00     0.058 A 
ATOM     78  C   UNL A   1      46.522  26.187  34.957  1.00  0.00     0.135 A 
ATOM     79  C   UNL A   1      47.741  27.798  33.652  1.00  0.00     0.135 A 
ATOM     80  F   UNL A   1      45.376  25.590  35.320  1.00  0.00    -0.206 F 
ATOM     81  C   UNL A   1      47.699  25.790  35.583  1.00  0.00     0.059 A 
ATOM     82  C   UNL A   1      48.934  27.398  34.244  1.00  0.00     0.059 A 
ATOM     83  F   UNL A   1      47.790  28.768  32.724  1.00  0.00    -0.206 F 
ATOM     84  C   UNL A   1      48.901  26.401  35.217  1.00  0.00     0.060 A 
BRANCH  84  85
ATOM     85  S   UNL A   1      50.427  25.852  36.012  1.00  0.00     0.124 S 
ATOM     86  O   UNL A   1      50.709  24.620  35.284  1.00  0.00    -0.237 OA
ATOM     87  O   UNL A   1      51.334  26.965  35.751  1.00  0.00    -0.237 OA
ATOM     88  O   UNL A   1      50.039  25.682  37.409  1.00  0.00    -0.744 OA
ENDBRANCH  84  85
ENDBRANCH  52  77
ENDBRANCH  26  27
ENDBRANCH  18  21
ENDBRANCH  16  17
ENDBRANCH   1  16
TORSDOF 18
ENDMDL
