MODEL 1
REMARK VINA RESULT:     -12.2      0.000      0.000
REMARK SMILES O=C(NCCCNC(=O)[C@@H]1CN(c2nc(-c3ccccc3)no2)CC[NH2+]1)c1ccc(-c2c3nc(c(-c4c(F)cc(S(=O)(=O)[O-])cc4F)c4ccc([nH]4)c(-c4c(F)cc(S(=O)(=O)[O-])cc4F)c4nc(c(-c5c(F)cc(S(=O)(=O)[O-])cc5F)c5ccc2[nH]5)C=C4)C=C3)cc1
REMARK SMILES IDX 4 1 3 2 1 3 2 4 27 6 28 7 92 8 29 9 91 10 30 11 31 12 32 13
REMARK SMILES IDX 85 14 33 15 90 16 84 17 86 18 34 19 89 20 83 21 82 22 35 24
REMARK SMILES IDX 69 25 48 26 68 27 49 28 52 29 67 30 87 31 50 32 51 33 66 35
REMARK SMILES IDX 88 36 53 37 36 38 37 39 46 40 38 41 39 42 45 43 47 44 40 45
REMARK SMILES IDX 41 46 42 47 43 48 44 49 70 50 71 51 80 52 72 53 73 54 79 55
REMARK SMILES IDX 81 56 74 57 75 58 76 59 77 60 78 61 54 62 55 63 64 64 56 65
REMARK SMILES IDX 57 66 63 67 65 68 58 69 59 70 60 71 61 72 62 73 5 74 6 75
REMARK SMILES IDX 7 76 8 77 9 79 10 80 11 81 26 82 12 83 25 84 24 87 13 88
REMARK SMILES IDX 14 89 23 90 15 91 22 92 16 93 17 94 21 95 18 96 20 97 19 98
REMARK H PARENT 3 5 86 23 52 34 7 78 26 85 26 86
REMARK Flexibility Score: inf
ROOT
ATOM      1  C   UNL A   1      35.268  29.649  27.790  1.00  0.00     0.118 C 
ENDROOT
BRANCH   1   2
ATOM      2  N   UNL A   1      35.332  30.263  29.115  1.00  0.00    -0.352 N 
ATOM      3  O   UNL A   1      36.101  30.599  31.200  1.00  0.00    -0.269 OA
ATOM      4  C   UNL A   1      36.345  30.269  30.045  1.00  0.00     0.251 C 
ATOM      5  H   UNL A   1      34.520  30.750  29.385  1.00  0.00     0.163 HD
BRANCH   4   6
ATOM      6  C   UNL A   1      37.716  29.885  29.649  1.00  0.00     0.039 A 
ATOM      7  C   UNL A   1      38.127  30.027  28.325  1.00  0.00     0.014 A 
ATOM      8  C   UNL A   1      38.620  29.426  30.615  1.00  0.00     0.014 A 
ATOM      9  C   UNL A   1      39.370  29.558  27.933  1.00  0.00     0.010 A 
ATOM     10  C   UNL A   1      39.918  29.066  30.237  1.00  0.00     0.010 A 
ATOM     11  C   UNL A   1      40.297  29.110  28.888  1.00  0.00    -0.014 A 
BRANCH  11  12
ATOM     12  C   UNL A   1      41.674  28.798  28.428  1.00  0.00     0.031 A 
ATOM     13  C   UNL A   1      42.766  29.828  28.453  1.00  0.00     0.074 A 
ATOM     14  C   UNL A   1      41.938  27.526  28.061  1.00  0.00     0.049 A 
ATOM     15  N   UNL A   1      44.033  29.683  28.159  1.00  0.00    -0.248 NA
ATOM     16  C   UNL A   1      42.396  31.196  28.847  1.00  0.00     0.031 C 
ATOM     17  C   UNL A   1      40.941  26.452  27.976  1.00  0.00     0.029 A 
ATOM     18  N   UNL A   1      43.114  26.905  27.735  1.00  0.00    -0.354 N 
ATOM     19  C   UNL A   1      44.611  30.935  28.322  1.00  0.00     0.074 A 
ATOM     20  C   UNL A   1      43.550  31.840  28.714  1.00  0.00     0.031 C 
ATOM     21  C   UNL A   1      41.557  25.296  27.698  1.00  0.00     0.029 A 
ATOM     22  C   UNL A   1      42.978  25.556  27.508  1.00  0.00     0.049 A 
ATOM     23  H   UNL A   1      43.975  27.380  27.669  1.00  0.00     0.167 HD
ATOM     24  C   UNL A   1      45.910  31.290  28.168  1.00  0.00     0.037 A 
ATOM     25  C   UNL A   1      43.890  24.627  27.168  1.00  0.00     0.037 A 
ATOM     26  C   UNL A   1      46.958  30.374  27.790  1.00  0.00     0.049 A 
ATOM     27  C   UNL A   1      45.319  25.053  27.008  1.00  0.00     0.074 A 
ATOM     28  C   UNL A   1      48.306  30.634  27.612  1.00  0.00     0.029 A 
ATOM     29  N   UNL A   1      46.777  29.022  27.537  1.00  0.00    -0.354 N 
ATOM     30  N   UNL A   1      45.846  26.243  27.175  1.00  0.00    -0.248 NA
ATOM     31  C   UNL A   1      46.278  24.018  26.606  1.00  0.00     0.031 C 
ATOM     32  C   UNL A   1      48.934  29.446  27.218  1.00  0.00     0.029 A 
ATOM     33  C   UNL A   1      47.985  28.437  27.193  1.00  0.00     0.049 A 
ATOM     34  H   UNL A   1      45.916  28.547  27.593  1.00  0.00     0.167 HD
ATOM     35  C   UNL A   1      47.198  26.100  26.896  1.00  0.00     0.074 A 
ATOM     36  C   UNL A   1      47.414  24.700  26.590  1.00  0.00     0.031 C 
ATOM     37  C   UNL A   1      48.173  27.042  26.882  1.00  0.00     0.037 A 
BRANCH  24  38
ATOM     38  C   UNL A   1      46.281  32.730  28.403  1.00  0.00     0.058 A 
ATOM     39  C   UNL A   1      46.232  33.680  27.370  1.00  0.00     0.135 A 
ATOM     40  C   UNL A   1      46.619  33.180  29.690  1.00  0.00     0.135 A 
ATOM     41  F   UNL A   1      45.932  33.301  26.118  1.00  0.00    -0.206 F 
ATOM     42  C   UNL A   1      46.510  35.023  27.604  1.00  0.00     0.059 A 
ATOM     43  C   UNL A   1      46.879  34.524  29.951  1.00  0.00     0.059 A 
ATOM     44  F   UNL A   1      46.684  32.315  30.713  1.00  0.00    -0.206 F 
ATOM     45  C   UNL A   1      46.828  35.437  28.898  1.00  0.00     0.060 A 
BRANCH  45  46
ATOM     46  S   UNL A   1      47.154  37.190  29.189  1.00  0.00     0.124 S 
ATOM     47  O   UNL A   1      47.502  37.191  30.606  1.00  0.00    -0.237 OA
ATOM     48  O   UNL A   1      48.252  37.459  28.267  1.00  0.00    -0.237 OA
ATOM     49  O   UNL A   1      45.886  37.831  28.854  1.00  0.00    -0.744 OA
ENDBRANCH  45  46
ENDBRANCH  24  38
BRANCH  25  50
ATOM     50  C   UNL A   1      43.469  23.222  26.928  1.00  0.00     0.058 A 
ATOM     51  C   UNL A   1      43.152  22.362  27.987  1.00  0.00     0.135 A 
ATOM     52  C   UNL A   1      43.368  22.716  25.621  1.00  0.00     0.135 A 
ATOM     53  F   UNL A   1      43.233  22.798  29.254  1.00  0.00    -0.206 F 
ATOM     54  C   UNL A   1      42.775  21.041  27.764  1.00  0.00     0.059 A 
ATOM     55  C   UNL A   1      42.964  21.410  25.372  1.00  0.00     0.059 A 
ATOM     56  F   UNL A   1      43.640  23.506  24.571  1.00  0.00    -0.206 F 
ATOM     57  C   UNL A   1      42.687  20.575  26.451  1.00  0.00     0.060 A 
BRANCH  57  58
ATOM     58  S   UNL A   1      42.174  18.867  26.163  1.00  0.00     0.124 S 
ATOM     59  O   UNL A   1      43.146  18.436  25.165  1.00  0.00    -0.237 OA
ATOM     60  O   UNL A   1      42.312  18.274  27.488  1.00  0.00    -0.237 OA
ATOM     61  O   UNL A   1      40.800  19.009  25.688  1.00  0.00    -0.744 OA
ENDBRANCH  57  58
ENDBRANCH  25  50
BRANCH  37  62
ATOM     62  C   UNL A   1      49.556  26.574  26.527  1.00  0.00     0.058 A 
ATOM     63  C   UNL A   1      50.027  26.619  25.206  1.00  0.00     0.135 A 
ATOM     64  C   UNL A   1      50.415  26.073  27.517  1.00  0.00     0.135 A 
ATOM     65  F   UNL A   1      49.239  27.082  24.222  1.00  0.00    -0.206 F 
ATOM     66  C   UNL A   1      51.291  26.146  24.870  1.00  0.00     0.059 A 
ATOM     67  C   UNL A   1      51.693  25.621  27.209  1.00  0.00     0.059 A 
ATOM     68  F   UNL A   1      50.014  26.018  28.796  1.00  0.00    -0.206 F 
ATOM     69  C   UNL A   1      52.114  25.643  25.879  1.00  0.00     0.060 A 
BRANCH  69  70
ATOM     70  S   UNL A   1      53.751  25.028  25.434  1.00  0.00     0.124 S 
ATOM     71  O   UNL A   1      53.499  23.598  25.295  1.00  0.00    -0.237 OA
ATOM     72  O   UNL A   1      54.031  25.746  24.194  1.00  0.00    -0.237 OA
ATOM     73  O   UNL A   1      54.579  25.413  26.573  1.00  0.00    -0.744 OA
ENDBRANCH  69  70
ENDBRANCH  37  62
ENDBRANCH  11  12
ENDBRANCH   4   6
ENDBRANCH   1   2
BRANCH   1  74
ATOM     74  C   UNL A   1      34.085  30.168  26.979  1.00  0.00     0.042 C 
BRANCH  74  75
ATOM     75  C   UNL A   1      32.835  29.326  27.202  1.00  0.00     0.118 C 
BRANCH  75  76
ATOM     76  N   UNL A   1      31.917  29.435  26.079  1.00  0.00    -0.351 N 
ATOM     77  C   UNL A   1      31.511  28.588  25.097  1.00  0.00     0.280 C 
ATOM     78  H   UNL A   1      31.493  30.321  26.018  1.00  0.00     0.163 HD
ATOM     79  O   UNL A   1      30.821  29.112  24.209  1.00  0.00    -0.268 OA
BRANCH  77  80
ATOM     80  C   UNL A   1      31.700  27.058  25.086  1.00  0.00     0.292 C 
ATOM     81  C   UNL A   1      32.636  26.748  23.887  1.00  0.00     0.197 C 
ATOM     82  N   UNL A   1      30.432  26.270  25.099  1.00  0.00    -0.333 N 
ATOM     83  N   UNL A   1      32.713  25.318  23.578  1.00  0.00    -0.312 N 
ATOM     84  C   UNL A   1      30.764  24.833  24.981  1.00  0.00     0.283 C 
ATOM     85  H   UNL A   1      29.846  26.551  24.313  1.00  0.00     0.347 HD
ATOM     86  H   UNL A   1      29.927  26.440  25.968  1.00  0.00     0.347 HD
ATOM     87  C   UNL A   1      31.481  24.540  23.646  1.00  0.00     0.183 C 
BRANCH  83  88
ATOM     88  C   UNL A   1      33.891  24.665  23.613  1.00  0.00     0.324 A 
ATOM     89  N   UNL A   1      34.775  24.570  24.574  1.00  0.00    -0.171 NA
ATOM     90  O   UNL A   1      34.239  23.953  22.497  1.00  0.00    -0.315 OA
ATOM     91  C   UNL A   1      35.701  23.707  24.037  1.00  0.00     0.204 A 
ATOM     92  N   UNL A   1      35.458  23.342  22.770  1.00  0.00    -0.055 NA
BRANCH  91  93
ATOM     93  C   UNL A   1      36.787  23.136  24.810  1.00  0.00     0.023 A 
ATOM     94  C   UNL A   1      37.498  23.918  25.727  1.00  0.00     0.012 A 
ATOM     95  C   UNL A   1      37.178  21.811  24.578  1.00  0.00     0.012 A 
ATOM     96  C   UNL A   1      38.596  23.381  26.401  1.00  0.00     0.001 A 
ATOM     97  C   UNL A   1      38.286  21.281  25.242  1.00  0.00     0.001 A 
ATOM     98  C   UNL A   1      38.994  22.066  26.152  1.00  0.00     0.000 A 
ENDBRANCH  91  93
ENDBRANCH  83  88
ENDBRANCH  77  80
ENDBRANCH  75  76
ENDBRANCH  74  75
ENDBRANCH   1  74
TORSDOF 15
ENDMDL
MODEL 2
REMARK VINA RESULT:     -12.2      2.414      8.581
REMARK SMILES O=C(NCCCNC(=O)[C@@H]1CN(c2nc(-c3ccccc3)no2)CC[NH2+]1)c1ccc(-c2c3nc(c(-c4c(F)cc(S(=O)(=O)[O-])cc4F)c4ccc([nH]4)c(-c4c(F)cc(S(=O)(=O)[O-])cc4F)c4nc(c(-c5c(F)cc(S(=O)(=O)[O-])cc5F)c5ccc2[nH]5)C=C4)C=C3)cc1
REMARK SMILES IDX 4 1 3 2 1 3 2 4 27 6 28 7 92 8 29 9 91 10 30 11 31 12 32 13
REMARK SMILES IDX 85 14 33 15 90 16 84 17 86 18 34 19 89 20 83 21 82 22 35 24
REMARK SMILES IDX 69 25 48 26 68 27 49 28 52 29 67 30 87 31 50 32 51 33 66 35
REMARK SMILES IDX 88 36 53 37 36 38 37 39 46 40 38 41 39 42 45 43 47 44 40 45
REMARK SMILES IDX 41 46 42 47 43 48 44 49 70 50 71 51 80 52 72 53 73 54 79 55
REMARK SMILES IDX 81 56 74 57 75 58 76 59 77 60 78 61 54 62 55 63 64 64 56 65
REMARK SMILES IDX 57 66 63 67 65 68 58 69 59 70 60 71 61 72 62 73 5 74 6 75
REMARK SMILES IDX 7 76 8 77 9 79 10 80 11 81 26 82 12 83 25 84 24 87 13 88
REMARK SMILES IDX 14 89 23 90 15 91 22 92 16 93 17 94 21 95 18 96 20 97 19 98
REMARK H PARENT 3 5 86 23 52 34 7 78 26 85 26 86
REMARK Flexibility Score: inf
ROOT
ATOM      1  C   UNL A   1      34.106  28.339  26.532  1.00  0.00     0.118 C 
ENDROOT
BRANCH   1   2
ATOM      2  N   UNL A   1      33.904  29.688  27.056  1.00  0.00    -0.352 N 
ATOM      3  O   UNL A   1      34.179  31.419  28.464  1.00  0.00    -0.269 OA
ATOM      4  C   UNL A   1      34.662  30.424  27.937  1.00  0.00     0.251 C 
ATOM      5  H   UNL A   1      33.095  30.143  26.727  1.00  0.00     0.163 HD
BRANCH   4   6
ATOM      6  C   UNL A   1      36.051  30.016  28.238  1.00  0.00     0.039 A 
ATOM      7  C   UNL A   1      37.058  30.216  27.296  1.00  0.00     0.014 A 
ATOM      8  C   UNL A   1      36.365  29.474  29.490  1.00  0.00     0.014 A 
ATOM      9  C   UNL A   1      38.333  29.728  27.532  1.00  0.00     0.010 A 
ATOM     10  C   UNL A   1      37.681  29.092  29.773  1.00  0.00     0.010 A 
ATOM     11  C   UNL A   1      38.672  29.197  28.787  1.00  0.00    -0.014 A 
BRANCH  11  12
ATOM     12  C   UNL A   1      40.097  28.864  29.039  1.00  0.00     0.031 A 
ATOM     13  C   UNL A   1      40.679  27.537  28.645  1.00  0.00     0.074 A 
ATOM     14  C   UNL A   1      40.881  29.830  29.563  1.00  0.00     0.049 A 
ATOM     15  N   UNL A   1      41.920  27.133  28.727  1.00  0.00    -0.248 NA
ATOM     16  C   UNL A   1      39.757  26.531  28.097  1.00  0.00     0.031 C 
ATOM     17  C   UNL A   1      40.410  31.147  30.006  1.00  0.00     0.029 A 
ATOM     18  N   UNL A   1      42.234  29.880  29.774  1.00  0.00    -0.354 N 
ATOM     19  C   UNL A   1      41.931  25.827  28.253  1.00  0.00     0.074 A 
ATOM     20  C   UNL A   1      40.565  25.494  27.910  1.00  0.00     0.031 C 
ATOM     21  C   UNL A   1      41.460  31.898  30.362  1.00  0.00     0.029 A 
ATOM     22  C   UNL A   1      42.671  31.095  30.248  1.00  0.00     0.049 A 
ATOM     23  H   UNL A   1      42.835  29.119  29.603  1.00  0.00     0.167 HD
ATOM     24  C   UNL A   1      42.989  24.992  28.109  1.00  0.00     0.037 A 
ATOM     25  C   UNL A   1      43.906  31.517  30.571  1.00  0.00     0.037 A 
ATOM     26  C   UNL A   1      44.347  25.344  28.444  1.00  0.00     0.049 A 
ATOM     27  C   UNL A   1      45.055  30.568  30.399  1.00  0.00     0.074 A 
ATOM     28  C   UNL A   1      45.490  24.571  28.331  1.00  0.00     0.029 A 
ATOM     29  N   UNL A   1      44.747  26.572  28.951  1.00  0.00    -0.354 N 
ATOM     30  N   UNL A   1      45.043  29.338  29.940  1.00  0.00    -0.248 NA
ATOM     31  C   UNL A   1      46.382  31.055  30.792  1.00  0.00     0.031 C 
ATOM     32  C   UNL A   1      46.575  25.320  28.802  1.00  0.00     0.029 A 
ATOM     33  C   UNL A   1      46.116  26.574  29.168  1.00  0.00     0.049 A 
ATOM     34  H   UNL A   1      44.146  27.332  29.131  1.00  0.00     0.167 HD
ATOM     35  C   UNL A   1      46.361  28.904  29.993  1.00  0.00     0.074 A 
ATOM     36  C   UNL A   1      47.146  30.017  30.489  1.00  0.00     0.031 C 
ATOM     37  C   UNL A   1      46.875  27.691  29.673  1.00  0.00     0.037 A 
BRANCH  24  38
ATOM     38  C   UNL A   1      42.730  23.610  27.571  1.00  0.00     0.058 A 
ATOM     39  C   UNL A   1      42.833  23.323  26.201  1.00  0.00     0.135 A 
ATOM     40  C   UNL A   1      42.449  22.546  28.443  1.00  0.00     0.135 A 
ATOM     41  F   UNL A   1      43.083  24.307  25.322  1.00  0.00    -0.206 F 
ATOM     42  C   UNL A   1      42.661  22.032  25.714  1.00  0.00     0.059 A 
ATOM     43  C   UNL A   1      42.295  21.241  27.980  1.00  0.00     0.059 A 
ATOM     44  F   UNL A   1      42.336  22.764  29.762  1.00  0.00    -0.206 F 
ATOM     45  C   UNL A   1      42.396  20.996  26.611  1.00  0.00     0.060 A 
BRANCH  45  46
ATOM     46  S   UNL A   1      42.209  19.320  25.964  1.00  0.00     0.124 S 
ATOM     47  O   UNL A   1      43.038  19.376  24.764  1.00  0.00    -0.237 OA
ATOM     48  O   UNL A   1      42.730  18.503  27.055  1.00  0.00    -0.237 OA
ATOM     49  O   UNL A   1      40.772  19.204  25.728  1.00  0.00    -0.744 OA
ENDBRANCH  45  46
ENDBRANCH  24  38
BRANCH  25  50
ATOM     50  C   UNL A   1      44.107  32.884  31.118  1.00  0.00     0.058 A 
ATOM     51  C   UNL A   1      44.057  33.136  32.496  1.00  0.00     0.135 A 
ATOM     52  C   UNL A   1      44.363  33.969  30.264  1.00  0.00     0.135 A 
ATOM     53  F   UNL A   1      43.815  32.132  33.353  1.00  0.00    -0.206 F 
ATOM     54  C   UNL A   1      44.226  34.419  33.008  1.00  0.00     0.059 A 
ATOM     55  C   UNL A   1      44.567  35.254  30.753  1.00  0.00     0.059 A 
ATOM     56  F   UNL A   1      44.444  33.778  28.938  1.00  0.00    -0.206 F 
ATOM     57  C   UNL A   1      44.479  35.471  32.126  1.00  0.00     0.060 A 
BRANCH  57  58
ATOM     58  S   UNL A   1      44.723  37.131  32.794  1.00  0.00     0.124 S 
ATOM     59  O   UNL A   1      43.416  37.404  33.381  1.00  0.00    -0.237 OA
ATOM     60  O   UNL A   1      45.817  36.928  33.737  1.00  0.00    -0.237 OA
ATOM     61  O   UNL A   1      45.063  37.919  31.612  1.00  0.00    -0.744 OA
ENDBRANCH  57  58
ENDBRANCH  25  50
BRANCH  37  62
ATOM     62  C   UNL A   1      48.357  27.521  29.848  1.00  0.00     0.058 A 
ATOM     63  C   UNL A   1      49.257  27.846  28.821  1.00  0.00     0.135 A 
ATOM     64  C   UNL A   1      48.881  27.026  31.052  1.00  0.00     0.135 A 
ATOM     65  F   UNL A   1      48.803  28.314  27.646  1.00  0.00    -0.206 F 
ATOM     66  C   UNL A   1      50.625  27.648  28.967  1.00  0.00     0.059 A 
ATOM     67  C   UNL A   1      50.248  26.847  31.230  1.00  0.00     0.059 A 
ATOM     68  F   UNL A   1      48.062  26.711  32.067  1.00  0.00    -0.206 F 
ATOM     69  C   UNL A   1      51.111  27.142  30.174  1.00  0.00     0.060 A 
BRANCH  69  70
ATOM     70  S   UNL A   1      52.887  26.886  30.353  1.00  0.00     0.124 S 
ATOM     71  O   UNL A   1      52.935  25.898  31.425  1.00  0.00    -0.237 OA
ATOM     72  O   UNL A   1      53.272  26.406  29.029  1.00  0.00    -0.237 OA
ATOM     73  O   UNL A   1      53.388  28.214  30.700  1.00  0.00    -0.744 OA
ENDBRANCH  69  70
ENDBRANCH  37  62
ENDBRANCH  11  12
ENDBRANCH   4   6
ENDBRANCH   1   2
BRANCH   1  74
ATOM     74  C   UNL A   1      32.783  27.626  26.274  1.00  0.00     0.042 C 
BRANCH  74  75
ATOM     75  C   UNL A   1      32.235  27.935  24.887  1.00  0.00     0.118 C 
BRANCH  75  76
ATOM     76  N   UNL A   1      30.835  27.558  24.774  1.00  0.00    -0.351 N 
ATOM     77  C   UNL A   1      30.148  26.395  24.926  1.00  0.00     0.280 C 
ATOM     78  H   UNL A   1      30.255  28.316  24.532  1.00  0.00     0.163 HD
ATOM     79  O   UNL A   1      28.958  26.445  24.579  1.00  0.00    -0.268 OA
BRANCH  77  80
ATOM     80  C   UNL A   1      30.669  25.120  25.618  1.00  0.00     0.292 C 
ATOM     81  C   UNL A   1      31.353  24.277  24.509  1.00  0.00     0.197 C 
ATOM     82  N   UNL A   1      29.648  24.379  26.415  1.00  0.00    -0.333 N 
ATOM     83  N   UNL A   1      31.678  22.917  24.944  1.00  0.00    -0.312 N 
ATOM     84  C   UNL A   1      30.260  23.134  26.930  1.00  0.00     0.283 C 
ATOM     85  H   UNL A   1      28.850  24.149  25.822  1.00  0.00     0.347 HD
ATOM     86  H   UNL A   1      29.329  24.956  27.193  1.00  0.00     0.347 HD
ATOM     87  C   UNL A   1      30.702  22.215  25.770  1.00  0.00     0.183 C 
BRANCH  83  88
ATOM     88  C   UNL A   1      32.949  22.471  24.929  1.00  0.00     0.324 A 
ATOM     89  N   UNL A   1      34.075  23.125  25.066  1.00  0.00    -0.171 NA
ATOM     90  O   UNL A   1      33.131  21.122  24.778  1.00  0.00    -0.315 OA
ATOM     91  C   UNL A   1      35.006  22.113  25.049  1.00  0.00     0.204 A 
ATOM     92  N   UNL A   1      34.502  20.891  24.827  1.00  0.00    -0.055 NA
BRANCH  91  93
ATOM     93  C   UNL A   1      36.405  22.325  25.366  1.00  0.00     0.023 A 
ATOM     94  C   UNL A   1      37.320  21.269  25.296  1.00  0.00     0.012 A 
ATOM     95  C   UNL A   1      36.827  23.579  25.825  1.00  0.00     0.012 A 
ATOM     96  C   UNL A   1      38.646  21.465  25.687  1.00  0.00     0.001 A 
ATOM     97  C   UNL A   1      38.150  23.768  26.230  1.00  0.00     0.001 A 
ATOM     98  C   UNL A   1      39.057  22.711  26.162  1.00  0.00     0.000 A 
ENDBRANCH  91  93
ENDBRANCH  83  88
ENDBRANCH  77  80
ENDBRANCH  75  76
ENDBRANCH  74  75
ENDBRANCH   1  74
TORSDOF 15
ENDMDL
MODEL 3
REMARK VINA RESULT:     -12.2      1.279      1.918
REMARK SMILES O=C(NCCCNC(=O)[C@@H]1CN(c2nc(-c3ccccc3)no2)CC[NH2+]1)c1ccc(-c2c3nc(c(-c4c(F)cc(S(=O)(=O)[O-])cc4F)c4ccc([nH]4)c(-c4c(F)cc(S(=O)(=O)[O-])cc4F)c4nc(c(-c5c(F)cc(S(=O)(=O)[O-])cc5F)c5ccc2[nH]5)C=C4)C=C3)cc1
REMARK SMILES IDX 4 1 3 2 1 3 2 4 27 6 28 7 92 8 29 9 91 10 30 11 31 12 32 13
REMARK SMILES IDX 85 14 33 15 90 16 84 17 86 18 34 19 89 20 83 21 82 22 35 24
REMARK SMILES IDX 69 25 48 26 68 27 49 28 52 29 67 30 87 31 50 32 51 33 66 35
REMARK SMILES IDX 88 36 53 37 36 38 37 39 46 40 38 41 39 42 45 43 47 44 40 45
REMARK SMILES IDX 41 46 42 47 43 48 44 49 70 50 71 51 80 52 72 53 73 54 79 55
REMARK SMILES IDX 81 56 74 57 75 58 76 59 77 60 78 61 54 62 55 63 64 64 56 65
REMARK SMILES IDX 57 66 63 67 65 68 58 69 59 70 60 71 61 72 62 73 5 74 6 75
REMARK SMILES IDX 7 76 8 77 9 79 10 80 11 81 26 82 12 83 25 84 24 87 13 88
REMARK SMILES IDX 14 89 23 90 15 91 22 92 16 93 17 94 21 95 18 96 20 97 19 98
REMARK H PARENT 3 5 86 23 52 34 7 78 26 85 26 86
REMARK Flexibility Score: inf
ROOT
ATOM      1  C   UNL A   1      35.568  31.319  28.537  1.00  0.00     0.118 C 
ENDROOT
BRANCH   1   2
ATOM      2  N   UNL A   1      35.582  30.942  29.949  1.00  0.00    -0.352 N 
ATOM      3  O   UNL A   1      36.179  29.757  31.764  1.00  0.00    -0.269 OA
ATOM      4  C   UNL A   1      36.489  30.193  30.661  1.00  0.00     0.251 C 
ATOM      5  H   UNL A   1      34.819  31.276  30.475  1.00  0.00     0.163 HD
BRANCH   4   6
ATOM      6  C   UNL A   1      37.830  29.924  30.100  1.00  0.00     0.039 A 
ATOM      7  C   UNL A   1      38.891  29.607  30.945  1.00  0.00     0.014 A 
ATOM      8  C   UNL A   1      38.022  29.938  28.713  1.00  0.00     0.014 A 
ATOM      9  C   UNL A   1      40.169  29.470  30.429  1.00  0.00     0.010 A 
ATOM     10  C   UNL A   1      39.292  29.680  28.185  1.00  0.00     0.010 A 
ATOM     11  C   UNL A   1      40.381  29.465  29.041  1.00  0.00    -0.014 A 
BRANCH  11  12
ATOM     12  C   UNL A   1      41.740  29.129  28.547  1.00  0.00     0.031 A 
ATOM     13  C   UNL A   1      42.856  30.134  28.559  1.00  0.00     0.074 A 
ATOM     14  C   UNL A   1      41.968  27.856  28.158  1.00  0.00     0.049 A 
ATOM     15  N   UNL A   1      44.112  29.965  28.236  1.00  0.00    -0.248 NA
ATOM     16  C   UNL A   1      42.525  31.505  28.978  1.00  0.00     0.031 C 
ATOM     17  C   UNL A   1      40.946  26.805  28.083  1.00  0.00     0.029 A 
ATOM     18  N   UNL A   1      43.123  27.214  27.798  1.00  0.00    -0.354 N 
ATOM     19  C   UNL A   1      44.721  31.202  28.401  1.00  0.00     0.074 A 
ATOM     20  C   UNL A   1      43.690  32.125  28.828  1.00  0.00     0.031 C 
ATOM     21  C   UNL A   1      41.530  25.640  27.776  1.00  0.00     0.029 A 
ATOM     22  C   UNL A   1      42.952  25.871  27.558  1.00  0.00     0.049 A 
ATOM     23  H   UNL A   1      43.992  27.670  27.719  1.00  0.00     0.167 HD
ATOM     24  C   UNL A   1      46.024  31.531  28.223  1.00  0.00     0.037 A 
ATOM     25  C   UNL A   1      43.835  24.927  27.186  1.00  0.00     0.037 A 
ATOM     26  C   UNL A   1      47.043  30.596  27.809  1.00  0.00     0.049 A 
ATOM     27  C   UNL A   1      45.269  25.323  26.999  1.00  0.00     0.074 A 
ATOM     28  C   UNL A   1      48.392  30.829  27.605  1.00  0.00     0.029 A 
ATOM     29  N   UNL A   1      46.826  29.252  27.544  1.00  0.00    -0.354 N 
ATOM     30  N   UNL A   1      45.826  26.499  27.169  1.00  0.00    -0.248 NA
ATOM     31  C   UNL A   1      46.196  24.272  26.563  1.00  0.00     0.031 C 
ATOM     32  C   UNL A   1      48.984  29.633  27.182  1.00  0.00     0.029 A 
ATOM     33  C   UNL A   1      48.013  28.645  27.166  1.00  0.00     0.049 A 
ATOM     34  H   UNL A   1      45.956  28.795  27.614  1.00  0.00     0.167 HD
ATOM     35  C   UNL A   1      47.168  26.330  26.858  1.00  0.00     0.074 A 
ATOM     36  C   UNL A   1      47.346  24.929  26.530  1.00  0.00     0.031 C 
ATOM     37  C   UNL A   1      48.163  27.251  26.833  1.00  0.00     0.037 A 
BRANCH  24  38
ATOM     38  C   UNL A   1      46.432  32.959  28.466  1.00  0.00     0.058 A 
ATOM     39  C   UNL A   1      46.388  33.921  27.445  1.00  0.00     0.135 A 
ATOM     40  C   UNL A   1      46.801  33.387  29.752  1.00  0.00     0.135 A 
ATOM     41  F   UNL A   1      46.060  33.563  26.193  1.00  0.00    -0.206 F 
ATOM     42  C   UNL A   1      46.702  35.254  27.688  1.00  0.00     0.059 A 
ATOM     43  C   UNL A   1      47.096  34.721  30.023  1.00  0.00     0.059 A 
ATOM     44  F   UNL A   1      46.863  32.509  30.765  1.00  0.00    -0.206 F 
ATOM     45  C   UNL A   1      47.050  35.646  28.982  1.00  0.00     0.060 A 
BRANCH  45  46
ATOM     46  S   UNL A   1      47.420  37.388  29.285  1.00  0.00     0.124 S 
ATOM     47  O   UNL A   1      47.138  37.978  27.981  1.00  0.00    -0.237 OA
ATOM     48  O   UNL A   1      46.480  37.726  30.349  1.00  0.00    -0.237 OA
ATOM     49  O   UNL A   1      48.827  37.374  29.676  1.00  0.00    -0.744 OA
ENDBRANCH  45  46
ENDBRANCH  24  38
BRANCH  25  50
ATOM     50  C   UNL A   1      43.378  23.535  26.938  1.00  0.00     0.058 A 
ATOM     51  C   UNL A   1      43.142  22.643  27.993  1.00  0.00     0.135 A 
ATOM     52  C   UNL A   1      43.159  23.073  25.630  1.00  0.00     0.135 A 
ATOM     53  F   UNL A   1      43.336  23.037  29.261  1.00  0.00    -0.206 F 
ATOM     54  C   UNL A   1      42.731  21.333  27.761  1.00  0.00     0.059 A 
ATOM     55  C   UNL A   1      42.719  21.780  25.374  1.00  0.00     0.059 A 
ATOM     56  F   UNL A   1      43.350  23.894  24.585  1.00  0.00    -0.206 F 
ATOM     57  C   UNL A   1      42.525  20.912  26.446  1.00  0.00     0.060 A 
BRANCH  57  58
ATOM     58  S   UNL A   1      41.968  19.220  26.148  1.00  0.00     0.124 S 
ATOM     59  O   UNL A   1      42.307  18.576  27.412  1.00  0.00    -0.237 OA
ATOM     60  O   UNL A   1      40.545  19.403  25.885  1.00  0.00    -0.237 OA
ATOM     61  O   UNL A   1      42.763  18.807  24.994  1.00  0.00    -0.744 OA
ENDBRANCH  57  58
ENDBRANCH  25  50
BRANCH  37  62
ATOM     62  C   UNL A   1      49.527  26.757  26.442  1.00  0.00     0.058 A 
ATOM     63  C   UNL A   1      49.962  26.789  25.108  1.00  0.00     0.135 A 
ATOM     64  C   UNL A   1      50.405  26.245  27.409  1.00  0.00     0.135 A 
ATOM     65  F   UNL A   1      49.154  27.261  24.144  1.00  0.00    -0.206 F 
ATOM     66  C   UNL A   1      51.207  26.292  24.739  1.00  0.00     0.059 A 
ATOM     67  C   UNL A   1      51.665  25.769  27.067  1.00  0.00     0.059 A 
ATOM     68  F   UNL A   1      50.039  26.202  28.700  1.00  0.00    -0.206 F 
ATOM     69  C   UNL A   1      52.050  25.778  25.726  1.00  0.00     0.060 A 
BRANCH  69  70
ATOM     70  S   UNL A   1      53.662  25.133  25.238  1.00  0.00     0.124 S 
ATOM     71  O   UNL A   1      53.772  25.625  23.869  1.00  0.00    -0.237 OA
ATOM     72  O   UNL A   1      54.558  25.754  26.209  1.00  0.00    -0.237 OA
ATOM     73  O   UNL A   1      53.505  23.688  25.375  1.00  0.00    -0.744 OA
ENDBRANCH  69  70
ENDBRANCH  37  62
ENDBRANCH  11  12
ENDBRANCH   4   6
ENDBRANCH   1   2
BRANCH   1  74
ATOM     74  C   UNL A   1      34.148  31.528  28.020  1.00  0.00     0.042 C 
BRANCH  74  75
ATOM     75  C   UNL A   1      33.745  30.449  27.023  1.00  0.00     0.118 C 
BRANCH  75  76
ATOM     76  N   UNL A   1      32.856  29.472  27.632  1.00  0.00    -0.351 N 
ATOM     77  C   UNL A   1      32.011  28.524  27.148  1.00  0.00     0.280 C 
ATOM     78  H   UNL A   1      32.871  29.504  28.615  1.00  0.00     0.163 HD
ATOM     79  O   UNL A   1      31.290  27.985  28.001  1.00  0.00    -0.268 OA
BRANCH  77  80
ATOM     80  C   UNL A   1      31.995  27.977  25.707  1.00  0.00     0.292 C 
ATOM     81  C   UNL A   1      33.344  27.234  25.512  1.00  0.00     0.197 C 
ATOM     82  N   UNL A   1      31.691  28.991  24.654  1.00  0.00    -0.333 N 
ATOM     83  N   UNL A   1      33.601  26.873  24.116  1.00  0.00    -0.312 N 
ATOM     84  C   UNL A   1      31.812  28.349  23.327  1.00  0.00     0.283 C 
ATOM     85  H   UNL A   1      32.353  29.764  24.723  1.00  0.00     0.347 HD
ATOM     86  H   UNL A   1      30.746  29.350  24.782  1.00  0.00     0.347 HD
ATOM     87  C   UNL A   1      33.252  27.846  23.086  1.00  0.00     0.183 C 
BRANCH  83  88
ATOM     88  C   UNL A   1      33.778  25.588  23.755  1.00  0.00     0.324 A 
ATOM     89  N   UNL A   1      33.809  24.503  24.487  1.00  0.00    -0.171 NA
ATOM     90  O   UNL A   1      33.922  25.332  22.418  1.00  0.00    -0.315 OA
ATOM     91  C   UNL A   1      33.929  23.512  23.540  1.00  0.00     0.204 A 
ATOM     92  N   UNL A   1      34.053  23.955  22.280  1.00  0.00    -0.055 NA
BRANCH  91  93
ATOM     93  C   UNL A   1      33.809  22.103  23.855  1.00  0.00     0.023 A 
ATOM     94  C   UNL A   1      32.668  21.384  23.483  1.00  0.00     0.012 A 
ATOM     95  C   UNL A   1      34.809  21.475  24.608  1.00  0.00     0.012 A 
ATOM     96  C   UNL A   1      32.526  20.049  23.867  1.00  0.00     0.001 A 
ATOM     97  C   UNL A   1      34.658  20.145  25.005  1.00  0.00     0.001 A 
ATOM     98  C   UNL A   1      33.516  19.434  24.635  1.00  0.00     0.000 A 
ENDBRANCH  91  93
ENDBRANCH  83  88
ENDBRANCH  77  80
ENDBRANCH  75  76
ENDBRANCH  74  75
ENDBRANCH   1  74
TORSDOF 15
ENDMDL
