MODEL 1
REMARK VINA RESULT:     -13.0      0.000      0.000
REMARK SMILES Cc1cc(F)cc(N[C@](C)(C(=O)NCCCNC(=O)c2ccc(-c3c4nc(c(-c5c(F)cc(S(=O)(=O)[O-])cc5F)c5ccc([nH]5)c(-c5c(F)cc(S(=O)(=O)[O-])cc5F)c5nc(c(-c6c(F)cc(S(=O)(=O)[O-])cc6F)c6ccc3[nH]6)C=C5)C=C4)cc2)c2cccc(F)c2)c1
REMARK SMILES IDX 15 1 14 2 13 3 11 4 12 5 9 7 10 8 8 9 7 11 1 12 2 13 3 14
REMARK SMILES IDX 93 15 4 16 5 17 6 18 86 19 87 20 92 21 88 22 90 23 89 24
REMARK SMILES IDX 91 25 16 26 17 27 18 28 19 30 20 31 21 32 85 33 22 34 84 35
REMARK SMILES IDX 23 36 24 37 25 38 78 39 26 40 83 41 77 42 79 43 27 44 82 45
REMARK SMILES IDX 76 46 75 47 28 49 62 50 41 51 61 52 42 53 45 54 60 55 80 56
REMARK SMILES IDX 43 57 44 58 59 60 81 61 46 62 29 63 30 64 39 65 31 66 32 67
REMARK SMILES IDX 38 68 40 69 33 70 34 71 35 72 36 73 37 74 63 75 64 76 73 77
REMARK SMILES IDX 65 78 66 79 72 80 74 81 67 82 68 83 69 84 70 85 71 86 47 87
REMARK SMILES IDX 48 88 57 89 49 90 50 91 56 92 58 93 51 94 52 95 53 96 54 97
REMARK SMILES IDX 55 98
REMARK H PARENT 13 6 8 10 17 29 79 48 45 59
REMARK Flexibility Score: inf
ROOT
ATOM      1  C   UNL A   1      37.504  23.647  25.553  1.00  0.00     0.042 C 
ENDROOT
BRANCH   1   2
ATOM      2  C   UNL A   1      37.050  22.214  25.287  1.00  0.00     0.117 C 
BRANCH   2   3
ATOM      3  N   UNL A   1      36.110  21.767  26.294  1.00  0.00    -0.354 N 
ATOM      4  C   UNL A   1      34.767  21.931  26.431  1.00  0.00     0.250 C 
ATOM      5  O   UNL A   1      34.347  21.741  27.585  1.00  0.00    -0.272 OA
ATOM      6  H   UNL A   1      36.523  21.245  27.019  1.00  0.00     0.163 HD
BRANCH   4   7
ATOM      7  C   UNL A   1      33.765  22.340  25.261  1.00  0.00     0.139 C 
ATOM      8  C   UNL A   1      34.313  22.362  23.813  1.00  0.00     0.051 C 
BRANCH   7   9
ATOM      9  N   UNL A   1      32.682  21.298  25.259  1.00  0.00    -0.368 N 
ATOM     10  H   UNL A   1      31.890  21.490  25.810  1.00  0.00     0.161 HD
BRANCH   9  11
ATOM     11  C   UNL A   1      32.672  20.086  24.566  1.00  0.00     0.038 A 
ATOM     12  C   UNL A   1      33.248  16.412  25.511  1.00  0.00     0.044 C 
ATOM     13  C   UNL A   1      32.937  17.639  24.709  1.00  0.00    -0.046 A 
ATOM     14  C   UNL A   1      32.664  17.529  23.346  1.00  0.00     0.042 A 
ATOM     15  C   UNL A   1      32.920  18.912  25.305  1.00  0.00     0.029 A 
ATOM     16  C   UNL A   1      32.398  18.674  22.612  1.00  0.00     0.125 A 
ATOM     17  F   UNL A   1      32.141  18.568  21.300  1.00  0.00    -0.207 F 
ATOM     18  C   UNL A   1      32.400  19.936  23.206  1.00  0.00     0.065 A 
ENDBRANCH   9  11
ENDBRANCH   7   9
BRANCH   7  19
ATOM     19  C   UNL A   1      33.172  23.742  25.623  1.00  0.00    -0.011 A 
ATOM     20  C   UNL A   1      33.909  24.943  25.568  1.00  0.00     0.007 A 
ATOM     21  C   UNL A   1      31.801  23.876  25.931  1.00  0.00     0.046 A 
ATOM     22  C   UNL A   1      33.309  26.194  25.797  1.00  0.00     0.003 A 
ATOM     23  C   UNL A   1      31.208  25.121  26.136  1.00  0.00     0.123 A 
ATOM     24  C   UNL A   1      31.950  26.284  26.070  1.00  0.00     0.039 A 
ATOM     25  F   UNL A   1      29.892  25.184  26.374  1.00  0.00    -0.207 F 
ENDBRANCH   7  19
ENDBRANCH   4   7
ENDBRANCH   2   3
ENDBRANCH   1   2
BRANCH   1  26
ATOM     26  C   UNL A   1      38.530  23.772  26.672  1.00  0.00     0.118 C 
BRANCH  26  27
ATOM     27  N   UNL A   1      39.880  23.936  26.158  1.00  0.00    -0.352 N 
ATOM     28  C   UNL A   1      40.811  24.915  26.404  1.00  0.00     0.251 C 
ATOM     29  H   UNL A   1      40.174  23.234  25.533  1.00  0.00     0.163 HD
ATOM     30  O   UNL A   1      41.800  24.984  25.679  1.00  0.00    -0.269 OA
BRANCH  28  31
ATOM     31  C   UNL A   1      40.640  25.880  27.516  1.00  0.00     0.039 A 
ATOM     32  C   UNL A   1      41.499  26.981  27.584  1.00  0.00     0.014 A 
ATOM     33  C   UNL A   1      39.694  25.679  28.526  1.00  0.00     0.014 A 
ATOM     34  C   UNL A   1      41.388  27.891  28.640  1.00  0.00     0.010 A 
ATOM     35  C   UNL A   1      39.527  26.632  29.530  1.00  0.00     0.010 A 
ATOM     36  C   UNL A   1      40.388  27.735  29.613  1.00  0.00    -0.014 A 
BRANCH  36  37
ATOM     37  C   UNL A   1      40.257  28.696  30.738  1.00  0.00     0.031 A 
ATOM     38  C   UNL A   1      41.143  28.571  31.950  1.00  0.00     0.074 A 
ATOM     39  C   UNL A   1      39.317  29.660  30.687  1.00  0.00     0.049 A 
ATOM     40  N   UNL A   1      41.172  29.305  33.033  1.00  0.00    -0.248 NA
ATOM     41  C   UNL A   1      42.102  27.456  31.959  1.00  0.00     0.031 C 
ATOM     42  C   UNL A   1      38.365  29.852  29.592  1.00  0.00     0.029 A 
ATOM     43  N   UNL A   1      39.007  30.657  31.576  1.00  0.00    -0.354 N 
ATOM     44  C   UNL A   1      42.134  28.731  33.856  1.00  0.00     0.074 A 
ATOM     45  C   UNL A   1      42.623  27.554  33.172  1.00  0.00     0.031 C 
ATOM     46  C   UNL A   1      37.606  30.928  29.854  1.00  0.00     0.029 A 
ATOM     47  C   UNL A   1      37.994  31.482  31.148  1.00  0.00     0.049 A 
ATOM     48  H   UNL A   1      39.467  30.772  32.439  1.00  0.00     0.167 HD
ATOM     49  C   UNL A   1      42.587  29.157  35.061  1.00  0.00     0.037 A 
ATOM     50  C   UNL A   1      37.447  32.567  31.728  1.00  0.00     0.037 A 
ATOM     51  C   UNL A   1      42.117  30.345  35.721  1.00  0.00     0.049 A 
ATOM     52  C   UNL A   1      37.976  33.036  33.054  1.00  0.00     0.074 A 
ATOM     53  C   UNL A   1      42.554  30.903  36.910  1.00  0.00     0.029 A 
ATOM     54  N   UNL A   1      41.096  31.160  35.250  1.00  0.00    -0.354 N 
ATOM     55  N   UNL A   1      38.933  32.521  33.788  1.00  0.00    -0.248 NA
ATOM     56  C   UNL A   1      37.357  34.238  33.628  1.00  0.00     0.031 C 
ATOM     57  C   UNL A   1      41.774  32.033  37.176  1.00  0.00     0.029 A 
ATOM     58  C   UNL A   1      40.877  32.205  36.132  1.00  0.00     0.049 A 
ATOM     59  H   UNL A   1      40.602  31.016  34.412  1.00  0.00     0.167 HD
ATOM     60  C   UNL A   1      39.050  33.349  34.899  1.00  0.00     0.074 A 
ATOM     61  C   UNL A   1      38.069  34.402  34.736  1.00  0.00     0.031 C 
ATOM     62  C   UNL A   1      39.895  33.246  35.955  1.00  0.00     0.037 A 
BRANCH  49  63
ATOM     63  C   UNL A   1      43.645  28.322  35.732  1.00  0.00     0.058 A 
ATOM     64  C   UNL A   1      43.317  27.314  36.654  1.00  0.00     0.135 A 
ATOM     65  C   UNL A   1      45.006  28.543  35.466  1.00  0.00     0.135 A 
ATOM     66  F   UNL A   1      42.032  27.066  36.955  1.00  0.00    -0.206 F 
ATOM     67  C   UNL A   1      44.298  26.595  37.328  1.00  0.00     0.059 A 
ATOM     68  C   UNL A   1      46.005  27.814  36.107  1.00  0.00     0.059 A 
ATOM     69  F   UNL A   1      45.379  29.489  34.589  1.00  0.00    -0.206 F 
ATOM     70  C   UNL A   1      45.640  26.861  37.057  1.00  0.00     0.060 A 
BRANCH  70  71
ATOM     71  S   UNL A   1      46.905  25.954  37.972  1.00  0.00     0.124 S 
ATOM     72  O   UNL A   1      46.997  24.723  37.193  1.00  0.00    -0.237 OA
ATOM     73  O   UNL A   1      48.057  26.844  37.885  1.00  0.00    -0.237 OA
ATOM     74  O   UNL A   1      46.325  25.813  39.304  1.00  0.00    -0.744 OA
ENDBRANCH  70  71
ENDBRANCH  49  63
BRANCH  50  75
ATOM     75  C   UNL A   1      36.379  33.317  31.015  1.00  0.00     0.058 A 
ATOM     76  C   UNL A   1      35.050  33.261  31.458  1.00  0.00     0.135 A 
ATOM     77  C   UNL A   1      36.671  34.146  29.922  1.00  0.00     0.135 A 
ATOM     78  F   UNL A   1      34.722  32.477  32.497  1.00  0.00    -0.206 F 
ATOM     79  C   UNL A   1      34.046  34.003  30.847  1.00  0.00     0.059 A 
ATOM     80  C   UNL A   1      35.688  34.915  29.305  1.00  0.00     0.059 A 
ATOM     81  F   UNL A   1      37.932  34.246  29.471  1.00  0.00    -0.206 F 
ATOM     82  C   UNL A   1      34.376  34.834  29.775  1.00  0.00     0.060 A 
BRANCH  82  83
ATOM     83  S   UNL A   1      33.081  35.858  29.044  1.00  0.00     0.124 S 
ATOM     84  O   UNL A   1      32.364  34.887  28.226  1.00  0.00    -0.237 OA
ATOM     85  O   UNL A   1      32.373  36.346  30.224  1.00  0.00    -0.237 OA
ATOM     86  O   UNL A   1      33.830  36.874  28.310  1.00  0.00    -0.744 OA
ENDBRANCH  82  83
ENDBRANCH  50  75
BRANCH  62  87
ATOM     87  C   UNL A   1      39.816  34.317  37.007  1.00  0.00     0.058 A 
ATOM     88  C   UNL A   1      40.431  35.566  36.834  1.00  0.00     0.135 A 
ATOM     89  C   UNL A   1      39.071  34.107  38.178  1.00  0.00     0.135 A 
ATOM     90  F   UNL A   1      41.160  35.814  35.735  1.00  0.00    -0.206 F 
ATOM     91  C   UNL A   1      40.326  36.566  37.796  1.00  0.00     0.059 A 
ATOM     92  C   UNL A   1      38.932  35.101  39.142  1.00  0.00     0.059 A 
ATOM     93  F   UNL A   1      38.456  32.933  38.388  1.00  0.00    -0.206 F 
ATOM     94  C   UNL A   1      39.573  36.324  38.947  1.00  0.00     0.060 A 
BRANCH  94  95
ATOM     95  S   UNL A   1      39.413  37.640  40.171  1.00  0.00     0.124 S 
ATOM     96  O   UNL A   1      40.782  38.138  40.249  1.00  0.00    -0.237 OA
ATOM     97  O   UNL A   1      38.448  38.538  39.543  1.00  0.00    -0.237 OA
ATOM     98  O   UNL A   1      38.929  36.943  41.359  1.00  0.00    -0.744 OA
ENDBRANCH  94  95
ENDBRANCH  62  87
ENDBRANCH  36  37
ENDBRANCH  28  31
ENDBRANCH  26  27
ENDBRANCH   1  26
TORSDOF 16
ENDMDL
MODEL 2
REMARK VINA RESULT:     -12.9      6.732     12.096
REMARK SMILES Cc1cc(F)cc(N[C@](C)(C(=O)NCCCNC(=O)c2ccc(-c3c4nc(c(-c5c(F)cc(S(=O)(=O)[O-])cc5F)c5ccc([nH]5)c(-c5c(F)cc(S(=O)(=O)[O-])cc5F)c5nc(c(-c6c(F)cc(S(=O)(=O)[O-])cc6F)c6ccc3[nH]6)C=C5)C=C4)cc2)c2cccc(F)c2)c1
REMARK SMILES IDX 15 1 14 2 13 3 11 4 12 5 9 7 10 8 8 9 7 11 1 12 2 13 3 14
REMARK SMILES IDX 93 15 4 16 5 17 6 18 86 19 87 20 92 21 88 22 90 23 89 24
REMARK SMILES IDX 91 25 16 26 17 27 18 28 19 30 20 31 21 32 85 33 22 34 84 35
REMARK SMILES IDX 23 36 24 37 25 38 78 39 26 40 83 41 77 42 79 43 27 44 82 45
REMARK SMILES IDX 76 46 75 47 28 49 62 50 41 51 61 52 42 53 45 54 60 55 80 56
REMARK SMILES IDX 43 57 44 58 59 60 81 61 46 62 29 63 30 64 39 65 31 66 32 67
REMARK SMILES IDX 38 68 40 69 33 70 34 71 35 72 36 73 37 74 63 75 64 76 73 77
REMARK SMILES IDX 65 78 66 79 72 80 74 81 67 82 68 83 69 84 70 85 71 86 47 87
REMARK SMILES IDX 48 88 57 89 49 90 50 91 56 92 58 93 51 94 52 95 53 96 54 97
REMARK SMILES IDX 55 98
REMARK H PARENT 13 6 8 10 17 29 79 48 45 59
REMARK Flexibility Score: inf
ROOT
ATOM      1  C   UNL A   1      34.434  30.777  27.471  1.00  0.00     0.042 C 
ENDROOT
BRANCH   1   2
ATOM      2  C   UNL A   1      34.521  29.276  27.207  1.00  0.00     0.117 C 
BRANCH   2   3
ATOM      3  N   UNL A   1      33.320  28.597  27.643  1.00  0.00    -0.354 N 
ATOM      4  C   UNL A   1      32.342  27.937  26.966  1.00  0.00     0.250 C 
ATOM      5  O   UNL A   1      31.284  27.802  27.603  1.00  0.00    -0.272 OA
ATOM      6  H   UNL A   1      33.183  28.617  28.618  1.00  0.00     0.163 HD
BRANCH   4   7
ATOM      7  C   UNL A   1      32.472  27.372  25.481  1.00  0.00     0.139 C 
ATOM      8  C   UNL A   1      33.706  27.798  24.649  1.00  0.00     0.051 C 
BRANCH   7   9
ATOM      9  N   UNL A   1      32.580  25.878  25.615  1.00  0.00    -0.368 N 
ATOM     10  H   UNL A   1      31.988  25.455  26.278  1.00  0.00     0.161 HD
BRANCH   9  11
ATOM     11  C   UNL A   1      33.425  25.022  24.906  1.00  0.00     0.038 A 
ATOM     12  C   UNL A   1      36.987  23.689  25.415  1.00  0.00     0.044 C 
ATOM     13  C   UNL A   1      35.627  23.915  24.829  1.00  0.00    -0.046 A 
ATOM     14  C   UNL A   1      35.271  23.289  23.635  1.00  0.00     0.042 A 
ATOM     15  C   UNL A   1      34.695  24.759  25.457  1.00  0.00     0.029 A 
ATOM     16  C   UNL A   1      34.016  23.522  23.094  1.00  0.00     0.125 A 
ATOM     17  F   UNL A   1      33.676  22.923  21.943  1.00  0.00    -0.207 F 
ATOM     18  C   UNL A   1      33.104  24.374  23.714  1.00  0.00     0.065 A 
ENDBRANCH   9  11
ENDBRANCH   7   9
BRANCH   7  19
ATOM     19  C   UNL A   1      31.161  27.757  24.718  1.00  0.00    -0.011 A 
ATOM     20  C   UNL A   1      30.945  29.014  24.117  1.00  0.00     0.007 A 
ATOM     21  C   UNL A   1      30.151  26.793  24.508  1.00  0.00     0.046 A 
ATOM     22  C   UNL A   1      29.799  29.283  23.349  1.00  0.00     0.003 A 
ATOM     23  C   UNL A   1      29.027  27.060  23.728  1.00  0.00     0.123 A 
ATOM     24  C   UNL A   1      28.841  28.297  23.143  1.00  0.00     0.039 A 
ATOM     25  F   UNL A   1      28.130  26.086  23.525  1.00  0.00    -0.207 F 
ENDBRANCH   7  19
ENDBRANCH   4   7
ENDBRANCH   2   3
ENDBRANCH   1   2
BRANCH   1  26
ATOM     26  C   UNL A   1      35.621  31.338  28.244  1.00  0.00     0.118 C 
BRANCH  26  27
ATOM     27  N   UNL A   1      35.532  31.048  29.666  1.00  0.00    -0.352 N 
ATOM     28  C   UNL A   1      36.382  30.344  30.483  1.00  0.00     0.251 C 
ATOM     29  H   UNL A   1      34.736  31.414  30.114  1.00  0.00     0.163 HD
ATOM     30  O   UNL A   1      35.991  30.021  31.602  1.00  0.00    -0.269 OA
BRANCH  28  31
ATOM     31  C   UNL A   1      37.745  29.969  30.038  1.00  0.00     0.039 A 
ATOM     32  C   UNL A   1      38.023  29.962  28.668  1.00  0.00     0.014 A 
ATOM     33  C   UNL A   1      38.728  29.560  30.944  1.00  0.00     0.014 A 
ATOM     34  C   UNL A   1      39.288  29.578  28.213  1.00  0.00     0.010 A 
ATOM     35  C   UNL A   1      40.014  29.261  30.496  1.00  0.00     0.010 A 
ATOM     36  C   UNL A   1      40.302  29.243  29.124  1.00  0.00    -0.014 A 
BRANCH  36  37
ATOM     37  C   UNL A   1      41.651  28.837  28.654  1.00  0.00     0.031 A 
ATOM     38  C   UNL A   1      42.770  29.844  28.598  1.00  0.00     0.074 A 
ATOM     39  C   UNL A   1      41.862  27.572  28.241  1.00  0.00     0.049 A 
ATOM     40  N   UNL A   1      44.009  29.684  28.208  1.00  0.00    -0.248 NA
ATOM     41  C   UNL A   1      42.446  31.220  29.005  1.00  0.00     0.031 C 
ATOM     42  C   UNL A   1      40.847  26.518  28.199  1.00  0.00     0.029 A 
ATOM     43  N   UNL A   1      42.999  26.958  27.780  1.00  0.00    -0.354 N 
ATOM     44  C   UNL A   1      44.603  30.937  28.304  1.00  0.00     0.074 A 
ATOM     45  C   UNL A   1      43.574  31.858  28.734  1.00  0.00     0.031 C 
ATOM     46  C   UNL A   1      41.416  25.378  27.777  1.00  0.00     0.029 A 
ATOM     47  C   UNL A   1      42.826  25.625  27.489  1.00  0.00     0.049 A 
ATOM     48  H   UNL A   1      43.857  27.426  27.668  1.00  0.00     0.167 HD
ATOM     49  C   UNL A   1      45.894  31.286  28.080  1.00  0.00     0.037 A 
ATOM     50  C   UNL A   1      43.706  24.705  27.049  1.00  0.00     0.037 A 
ATOM     51  C   UNL A   1      46.919  30.359  27.683  1.00  0.00     0.049 A 
ATOM     52  C   UNL A   1      45.137  25.106  26.826  1.00  0.00     0.074 A 
ATOM     53  C   UNL A   1      48.270  30.594  27.494  1.00  0.00     0.029 A 
ATOM     54  N   UNL A   1      46.706  29.015  27.407  1.00  0.00    -0.354 N 
ATOM     55  N   UNL A   1      45.698  26.281  26.987  1.00  0.00    -0.248 NA
ATOM     56  C   UNL A   1      46.056  24.057  26.367  1.00  0.00     0.031 C 
ATOM     57  C   UNL A   1      48.866  29.402  27.069  1.00  0.00     0.029 A 
ATOM     58  C   UNL A   1      47.895  28.412  27.034  1.00  0.00     0.049 A 
ATOM     59  H   UNL A   1      45.837  28.558  27.470  1.00  0.00     0.167 HD
ATOM     60  C   UNL A   1      47.042  26.107  26.675  1.00  0.00     0.074 A 
ATOM     61  C   UNL A   1      47.209  24.712  26.322  1.00  0.00     0.031 C 
ATOM     62  C   UNL A   1      48.045  27.021  26.685  1.00  0.00     0.037 A 
BRANCH  49  63
ATOM     63  C   UNL A   1      46.256  32.736  28.263  1.00  0.00     0.058 A 
ATOM     64  C   UNL A   1      46.708  33.236  29.496  1.00  0.00     0.135 A 
ATOM     65  C   UNL A   1      46.131  33.644  27.199  1.00  0.00     0.135 A 
ATOM     66  F   UNL A   1      46.836  32.416  30.551  1.00  0.00    -0.206 F 
ATOM     67  C   UNL A   1      46.970  34.589  29.682  1.00  0.00     0.059 A 
ATOM     68  C   UNL A   1      46.417  34.998  27.355  1.00  0.00     0.059 A 
ATOM     69  F   UNL A   1      45.709  33.222  25.996  1.00  0.00    -0.206 F 
ATOM     70  C   UNL A   1      46.809  35.465  28.609  1.00  0.00     0.060 A 
BRANCH  70  71
ATOM     71  S   UNL A   1      47.107  37.225  28.875  1.00  0.00     0.124 S 
ATOM     72  O   UNL A   1      46.386  37.813  27.750  1.00  0.00    -0.237 OA
ATOM     73  O   UNL A   1      46.518  37.451  30.190  1.00  0.00    -0.237 OA
ATOM     74  O   UNL A   1      48.562  37.336  28.815  1.00  0.00    -0.744 OA
ENDBRANCH  70  71
ENDBRANCH  49  63
BRANCH  50  75
ATOM     75  C   UNL A   1      43.260  23.300  26.858  1.00  0.00     0.058 A 
ATOM     76  C   UNL A   1      43.131  22.760  25.571  1.00  0.00     0.135 A 
ATOM     77  C   UNL A   1      43.014  22.455  27.951  1.00  0.00     0.135 A 
ATOM     78  F   UNL A   1      43.350  23.532  24.495  1.00  0.00    -0.206 F 
ATOM     79  C   UNL A   1      42.777  21.431  25.370  1.00  0.00     0.059 A 
ATOM     80  C   UNL A   1      42.678  21.115  27.777  1.00  0.00     0.059 A 
ATOM     81  F   UNL A   1      43.140  22.921  29.204  1.00  0.00    -0.206 F 
ATOM     82  C   UNL A   1      42.561  20.613  26.480  1.00  0.00     0.060 A 
BRANCH  82  83
ATOM     83  S   UNL A   1      42.187  18.867  26.208  1.00  0.00     0.124 S 
ATOM     84  O   UNL A   1      43.132  18.525  25.152  1.00  0.00    -0.237 OA
ATOM     85  O   UNL A   1      42.456  18.287  27.519  1.00  0.00    -0.237 OA
ATOM     86  O   UNL A   1      40.780  18.883  25.815  1.00  0.00    -0.744 OA
ENDBRANCH  82  83
ENDBRANCH  50  75
BRANCH  62  87
ATOM     87  C   UNL A   1      49.422  26.535  26.327  1.00  0.00     0.058 A 
ATOM     88  C   UNL A   1      49.951  26.706  25.038  1.00  0.00     0.135 A 
ATOM     89  C   UNL A   1      50.239  25.939  27.300  1.00  0.00     0.135 A 
ATOM     90  F   UNL A   1      49.207  27.264  24.071  1.00  0.00    -0.206 F 
ATOM     91  C   UNL A   1      51.238  26.284  24.721  1.00  0.00     0.059 A 
ATOM     92  C   UNL A   1      51.538  25.532  27.011  1.00  0.00     0.059 A 
ATOM     93  F   UNL A   1      49.784  25.760  28.550  1.00  0.00    -0.206 F 
ATOM     94  C   UNL A   1      52.025  25.700  25.716  1.00  0.00     0.060 A 
BRANCH  94  95
ATOM     95  S   UNL A   1      53.707  25.191  25.303  1.00  0.00     0.124 S 
ATOM     96  O   UNL A   1      53.854  25.726  23.953  1.00  0.00    -0.237 OA
ATOM     97  O   UNL A   1      54.498  25.853  26.336  1.00  0.00    -0.237 OA
ATOM     98  O   UNL A   1      53.655  23.735  25.399  1.00  0.00    -0.744 OA
ENDBRANCH  94  95
ENDBRANCH  62  87
ENDBRANCH  36  37
ENDBRANCH  28  31
ENDBRANCH  26  27
ENDBRANCH   1  26
TORSDOF 16
ENDMDL
MODEL 3
REMARK VINA RESULT:     -12.8      7.154     12.081
REMARK SMILES Cc1cc(F)cc(N[C@](C)(C(=O)NCCCNC(=O)c2ccc(-c3c4nc(c(-c5c(F)cc(S(=O)(=O)[O-])cc5F)c5ccc([nH]5)c(-c5c(F)cc(S(=O)(=O)[O-])cc5F)c5nc(c(-c6c(F)cc(S(=O)(=O)[O-])cc6F)c6ccc3[nH]6)C=C5)C=C4)cc2)c2cccc(F)c2)c1
REMARK SMILES IDX 15 1 14 2 13 3 11 4 12 5 9 7 10 8 8 9 7 11 1 12 2 13 3 14
REMARK SMILES IDX 93 15 4 16 5 17 6 18 86 19 87 20 92 21 88 22 90 23 89 24
REMARK SMILES IDX 91 25 16 26 17 27 18 28 19 30 20 31 21 32 85 33 22 34 84 35
REMARK SMILES IDX 23 36 24 37 25 38 78 39 26 40 83 41 77 42 79 43 27 44 82 45
REMARK SMILES IDX 76 46 75 47 28 49 62 50 41 51 61 52 42 53 45 54 60 55 80 56
REMARK SMILES IDX 43 57 44 58 59 60 81 61 46 62 29 63 30 64 39 65 31 66 32 67
REMARK SMILES IDX 38 68 40 69 33 70 34 71 35 72 36 73 37 74 63 75 64 76 73 77
REMARK SMILES IDX 65 78 66 79 72 80 74 81 67 82 68 83 69 84 70 85 71 86 47 87
REMARK SMILES IDX 48 88 57 89 49 90 50 91 56 92 58 93 51 94 52 95 53 96 54 97
REMARK SMILES IDX 55 98
REMARK H PARENT 13 6 8 10 17 29 79 48 45 59
REMARK Flexibility Score: inf
ROOT
ATOM      1  C   UNL A   1      34.055  28.710  27.029  1.00  0.00     0.042 C 
ENDROOT
BRANCH   1   2
ATOM      2  C   UNL A   1      33.043  29.642  26.368  1.00  0.00     0.117 C 
BRANCH   2   3
ATOM      3  N   UNL A   1      33.273  29.739  24.942  1.00  0.00    -0.354 N 
ATOM      4  C   UNL A   1      33.055  28.873  23.917  1.00  0.00     0.250 C 
ATOM      5  O   UNL A   1      33.703  29.128  22.889  1.00  0.00    -0.272 OA
ATOM      6  H   UNL A   1      33.664  30.597  24.660  1.00  0.00     0.163 HD
BRANCH   4   7
ATOM      7  C   UNL A   1      32.077  27.615  23.967  1.00  0.00     0.139 C 
ATOM      8  C   UNL A   1      31.192  27.435  25.226  1.00  0.00     0.051 C 
BRANCH   7   9
ATOM      9  N   UNL A   1      31.113  27.794  22.828  1.00  0.00    -0.368 N 
ATOM     10  H   UNL A   1      31.361  27.370  21.975  1.00  0.00     0.161 HD
BRANCH   9  11
ATOM     11  C   UNL A   1      29.905  28.495  22.840  1.00  0.00     0.038 A 
ATOM     12  C   UNL A   1      28.825  32.059  21.913  1.00  0.00     0.044 C 
ATOM     13  C   UNL A   1      28.768  30.630  22.358  1.00  0.00    -0.046 A 
ATOM     14  C   UNL A   1      27.554  30.074  22.760  1.00  0.00     0.042 A 
ATOM     15  C   UNL A   1      29.924  29.829  22.387  1.00  0.00     0.029 A 
ATOM     16  C   UNL A   1      27.519  28.756  23.188  1.00  0.00     0.125 A 
ATOM     17  F   UNL A   1      26.352  28.224  23.580  1.00  0.00    -0.207 F 
ATOM     18  C   UNL A   1      28.672  27.974  23.231  1.00  0.00     0.065 A 
ENDBRANCH   9  11
ENDBRANCH   7   9
BRANCH   7  19
ATOM     19  C   UNL A   1      32.950  26.335  23.747  1.00  0.00    -0.011 A 
ATOM     20  C   UNL A   1      33.918  25.879  24.665  1.00  0.00     0.007 A 
ATOM     21  C   UNL A   1      32.722  25.503  22.629  1.00  0.00     0.046 A 
ATOM     22  C   UNL A   1      34.604  24.666  24.480  1.00  0.00     0.003 A 
ATOM     23  C   UNL A   1      33.390  24.291  22.463  1.00  0.00     0.123 A 
ATOM     24  C   UNL A   1      34.330  23.863  23.380  1.00  0.00     0.039 A 
ATOM     25  F   UNL A   1      33.093  23.524  21.407  1.00  0.00    -0.207 F 
ENDBRANCH   7  19
ENDBRANCH   4   7
ENDBRANCH   2   3
ENDBRANCH   1   2
BRANCH   1  26
ATOM     26  C   UNL A   1      35.349  29.398  27.445  1.00  0.00     0.118 C 
BRANCH  26  27
ATOM     27  N   UNL A   1      35.319  29.824  28.834  1.00  0.00    -0.352 N 
ATOM     28  C   UNL A   1      36.296  29.782  29.797  1.00  0.00     0.251 C 
ATOM     29  H   UNL A   1      34.460  30.202  29.132  1.00  0.00     0.163 HD
ATOM     30  O   UNL A   1      35.979  29.975  30.968  1.00  0.00    -0.269 OA
BRANCH  28  31
ATOM     31  C   UNL A   1      37.710  29.506  29.449  1.00  0.00     0.039 A 
ATOM     32  C   UNL A   1      38.124  29.699  28.127  1.00  0.00     0.014 A 
ATOM     33  C   UNL A   1      38.613  28.996  30.387  1.00  0.00     0.014 A 
ATOM     34  C   UNL A   1      39.441  29.415  27.757  1.00  0.00     0.010 A 
ATOM     35  C   UNL A   1      39.948  28.795  30.038  1.00  0.00     0.010 A 
ATOM     36  C   UNL A   1      40.371  28.978  28.714  1.00  0.00    -0.014 A 
BRANCH  36  37
ATOM     37  C   UNL A   1      41.775  28.675  28.335  1.00  0.00     0.031 A 
ATOM     38  C   UNL A   1      42.163  27.283  27.910  1.00  0.00     0.074 A 
ATOM     39  C   UNL A   1      42.711  29.642  28.410  1.00  0.00     0.049 A 
ATOM     40  N   UNL A   1      43.335  26.822  27.553  1.00  0.00    -0.248 NA
ATOM     41  C   UNL A   1      41.099  26.267  27.914  1.00  0.00     0.031 C 
ATOM     42  C   UNL A   1      42.471  31.015  28.856  1.00  0.00     0.029 A 
ATOM     43  N   UNL A   1      44.049  29.618  28.111  1.00  0.00    -0.354 N 
ATOM     44  C   UNL A   1      43.154  25.466  27.311  1.00  0.00     0.074 A 
ATOM     45  C   UNL A   1      41.773  25.166  27.617  1.00  0.00     0.031 C 
ATOM     46  C   UNL A   1      43.613  31.712  28.763  1.00  0.00     0.029 A 
ATOM     47  C   UNL A   1      44.673  30.831  28.281  1.00  0.00     0.049 A 
ATOM     48  H   UNL A   1      44.519  28.810  27.804  1.00  0.00     0.167 HD
ATOM     49  C   UNL A   1      44.048  24.556  26.851  1.00  0.00     0.037 A 
ATOM     50  C   UNL A   1      45.951  31.195  28.062  1.00  0.00     0.037 A 
ATOM     51  C   UNL A   1      45.413  24.869  26.520  1.00  0.00     0.049 A 
ATOM     52  C   UNL A   1      46.923  30.178  27.534  1.00  0.00     0.074 A 
ATOM     53  C   UNL A   1      46.383  24.039  25.985  1.00  0.00     0.029 A 
ATOM     54  N   UNL A   1      46.004  26.112  26.696  1.00  0.00    -0.354 N 
ATOM     55  N   UNL A   1      46.719  28.915  27.246  1.00  0.00    -0.248 NA
ATOM     56  C   UNL A   1      48.298  30.636  27.295  1.00  0.00     0.031 C 
ATOM     57  C   UNL A   1      47.570  24.771  25.872  1.00  0.00     0.029 A 
ATOM     58  C   UNL A   1      47.329  26.069  26.297  1.00  0.00     0.049 A 
ATOM     59  H   UNL A   1      45.547  26.908  27.051  1.00  0.00     0.167 HD
ATOM     60  C   UNL A   1      47.932  28.432  26.766  1.00  0.00     0.074 A 
ATOM     61  C   UNL A   1      48.862  29.542  26.798  1.00  0.00     0.031 C 
ATOM     62  C   UNL A   1      48.243  27.184  26.336  1.00  0.00     0.037 A 
BRANCH  49  63
ATOM     63  C   UNL A   1      43.565  23.140  26.686  1.00  0.00     0.058 A 
ATOM     64  C   UNL A   1      43.298  22.316  27.793  1.00  0.00     0.135 A 
ATOM     65  C   UNL A   1      43.385  22.590  25.407  1.00  0.00     0.135 A 
ATOM     66  F   UNL A   1      43.465  22.785  29.040  1.00  0.00    -0.206 F 
ATOM     67  C   UNL A   1      42.924  20.985  27.638  1.00  0.00     0.059 A 
ATOM     68  C   UNL A   1      42.982  21.269  25.228  1.00  0.00     0.059 A 
ATOM     69  F   UNL A   1      43.619  23.333  24.313  1.00  0.00    -0.206 F 
ATOM     70  C   UNL A   1      42.781  20.467  26.351  1.00  0.00     0.060 A 
BRANCH  70  71
ATOM     71  S   UNL A   1      42.340  18.727  26.162  1.00  0.00     0.124 S 
ATOM     72  O   UNL A   1      43.289  18.299  25.139  1.00  0.00    -0.237 OA
ATOM     73  O   UNL A   1      42.571  18.195  27.500  1.00  0.00    -0.237 OA
ATOM     74  O   UNL A   1      40.943  18.774  25.742  1.00  0.00    -0.744 OA
ENDBRANCH  70  71
ENDBRANCH  49  63
BRANCH  50  75
ATOM     75  C   UNL A   1      46.357  32.608  28.285  1.00  0.00     0.058 A 
ATOM     76  C   UNL A   1      46.923  33.004  29.505  1.00  0.00     0.135 A 
ATOM     77  C   UNL A   1      46.247  33.570  27.271  1.00  0.00     0.135 A 
ATOM     78  F   UNL A   1      47.044  32.119  30.507  1.00  0.00    -0.206 F 
ATOM     79  C   UNL A   1      47.369  34.304  29.713  1.00  0.00     0.059 A 
ATOM     80  C   UNL A   1      46.704  34.873  27.447  1.00  0.00     0.059 A 
ATOM     81  F   UNL A   1      45.726  33.235  26.079  1.00  0.00    -0.206 F 
ATOM     82  C   UNL A   1      47.262  35.231  28.675  1.00  0.00     0.060 A 
BRANCH  82  83
ATOM     83  S   UNL A   1      47.923  36.892  28.927  1.00  0.00     0.124 S 
ATOM     84  O   UNL A   1      46.735  37.619  29.359  1.00  0.00    -0.237 OA
ATOM     85  O   UNL A   1      48.940  36.666  29.949  1.00  0.00    -0.237 OA
ATOM     86  O   UNL A   1      48.440  37.251  27.609  1.00  0.00    -0.744 OA
ENDBRANCH  82  83
ENDBRANCH  50  75
BRANCH  62  87
ATOM     87  C   UNL A   1      49.643  26.957  25.838  1.00  0.00     0.058 A 
ATOM     88  C   UNL A   1      50.653  26.465  26.679  1.00  0.00     0.135 A 
ATOM     89  C   UNL A   1      49.963  27.185  24.490  1.00  0.00     0.135 A 
ATOM     90  F   UNL A   1      50.400  26.238  27.977  1.00  0.00    -0.206 F 
ATOM     91  C   UNL A   1      51.938  26.225  26.205  1.00  0.00     0.059 A 
ATOM     92  C   UNL A   1      51.236  26.928  23.989  1.00  0.00     0.059 A 
ATOM     93  F   UNL A   1      49.031  27.647  23.642  1.00  0.00    -0.206 F 
ATOM     94  C   UNL A   1      52.220  26.458  24.858  1.00  0.00     0.060 A 
BRANCH  94  95
ATOM     95  S   UNL A   1      53.881  26.108  24.245  1.00  0.00     0.124 S 
ATOM     96  O   UNL A   1      54.132  24.787  24.812  1.00  0.00    -0.237 OA
ATOM     97  O   UNL A   1      53.698  26.151  22.798  1.00  0.00    -0.237 OA
ATOM     98  O   UNL A   1      54.684  27.193  24.801  1.00  0.00    -0.744 OA
ENDBRANCH  94  95
ENDBRANCH  62  87
ENDBRANCH  36  37
ENDBRANCH  28  31
ENDBRANCH  26  27
ENDBRANCH   1  26
TORSDOF 16
ENDMDL
