MODEL 1
REMARK VINA RESULT:      -9.9      0.000      0.000
REMARK SMILES CCC[N@H+](CC)[C@H]1CC[C@]([NH2+]C)(C(=O)NCCCNC(=O)c2ccc(-c3c4nc(c(-c5c(F)cc(S(=O)(=O)[O-])cc5F)c5ccc([nH]5)c(-c5c(F)cc(S(=O)(=O)[O-])cc5F)c5nc(c(-c6c(F)cc(S(=O)(=O)[O-])cc6F)c6ccc3[nH]6)C=C5)C=C4)cc2)C1
REMARK SMILES IDX 17 1 16 2 15 3 13 4 14 5 10 7 7 8 8 9 88 10 9 11 4 12 3 14
REMARK SMILES IDX 2 15 1 16 5 17 6 18 11 19 12 20 18 23 19 24 20 25 21 27
REMARK SMILES IDX 22 28 23 29 87 30 24 31 86 32 25 33 26 34 27 35 80 36 28 37
REMARK SMILES IDX 85 38 79 39 81 40 29 41 84 42 78 43 77 44 30 46 64 47 43 48
REMARK SMILES IDX 63 49 44 50 47 51 62 52 82 53 45 54 46 55 61 57 83 58 48 59
REMARK SMILES IDX 31 60 32 61 41 62 33 63 34 64 40 65 42 66 35 67 36 68 37 69
REMARK SMILES IDX 38 70 39 71 65 72 66 73 75 74 67 75 68 76 74 77 76 78 69 79
REMARK SMILES IDX 70 80 71 81 72 82 73 83 49 84 50 85 59 86 51 87 52 88 58 89
REMARK SMILES IDX 60 90 53 91 54 92 55 93 56 94 57 95
REMARK H PARENT 15 6 4 13 11 21 11 22 19 26 81 45 47 56
REMARK Flexibility Score: inf
ROOT
ATOM      1  C   UNL A   1      34.002  28.305  25.620  1.00  0.00     0.042 C 
ENDROOT
BRANCH   1   2
ATOM      2  C   UNL A   1      32.833  27.755  24.814  1.00  0.00     0.118 C 
BRANCH   2   3
ATOM      3  N   UNL A   1      31.772  27.292  25.681  1.00  0.00    -0.351 N 
ATOM      4  C   UNL A   1      31.199  26.074  25.873  1.00  0.00     0.281 C 
ATOM      5  O   UNL A   1      30.134  26.136  26.499  1.00  0.00    -0.268 OA
ATOM      6  H   UNL A   1      31.389  28.000  26.246  1.00  0.00     0.163 HD
BRANCH   4   7
ATOM      7  C   UNL A   1      31.877  24.726  25.431  1.00  0.00     0.181 C 
ATOM      8  C   UNL A   1      34.156  23.731  25.221  1.00  0.00     0.191 C 
ATOM      9  C   UNL A   1      33.772  24.408  23.883  1.00  0.00     0.072 C 
ATOM     10  C   UNL A   1      33.222  24.516  26.166  1.00  0.00     0.144 C 
ATOM     11  C   UNL A   1      32.272  24.693  23.938  1.00  0.00     0.085 C 
BRANCH   8  12
ATOM     12  N   UNL A   1      34.046  22.234  25.262  1.00  0.00    -0.333 N 
ATOM     13  H   UNL A   1      33.324  21.988  25.939  1.00  0.00     0.348 HD
BRANCH  12  14
ATOM     14  C   UNL A   1      35.347  21.610  25.658  1.00  0.00     0.262 C 
BRANCH  14  15
ATOM     15  C   UNL A   1      36.568  21.810  24.747  1.00  0.00     0.058 C 
ATOM     16  C   UNL A   1      37.840  22.195  25.481  1.00  0.00     0.010 C 
ENDBRANCH  14  15
ENDBRANCH  12  14
BRANCH  12  17
ATOM     17  C   UNL A   1      33.721  21.738  23.888  1.00  0.00     0.258 C 
ATOM     18  C   UNL A   1      32.540  20.769  23.815  1.00  0.00     0.071 C 
ENDBRANCH  12  17
ENDBRANCH   8  12
BRANCH   7  19
ATOM     19  N   UNL A   1      30.962  23.557  25.588  1.00  0.00    -0.336 N 
ATOM     20  C   UNL A   1      30.929  22.919  26.895  1.00  0.00     0.331 C 
ATOM     21  H   UNL A   1      31.244  22.851  24.907  1.00  0.00     0.346 HD
ATOM     22  H   UNL A   1      30.024  23.933  25.451  1.00  0.00     0.346 HD
ENDBRANCH   7  19
ENDBRANCH   4   7
ENDBRANCH   2   3
ENDBRANCH   1   2
BRANCH   1  23
ATOM     23  C   UNL A   1      33.693  28.437  27.105  1.00  0.00     0.118 C 
BRANCH  23  24
ATOM     24  N   UNL A   1      33.587  29.830  27.519  1.00  0.00    -0.352 N 
ATOM     25  C   UNL A   1      34.477  30.590  28.236  1.00  0.00     0.251 C 
ATOM     26  H   UNL A   1      32.761  30.291  27.245  1.00  0.00     0.163 HD
ATOM     27  O   UNL A   1      34.119  31.659  28.719  1.00  0.00    -0.269 OA
BRANCH  25  28
ATOM     28  C   UNL A   1      35.856  30.100  28.429  1.00  0.00     0.039 A 
ATOM     29  C   UNL A   1      36.746  30.123  27.354  1.00  0.00     0.014 A 
ATOM     30  C   UNL A   1      36.267  29.628  29.678  1.00  0.00     0.014 A 
ATOM     31  C   UNL A   1      38.071  29.731  27.553  1.00  0.00     0.010 A 
ATOM     32  C   UNL A   1      37.605  29.329  29.896  1.00  0.00     0.010 A 
ATOM     33  C   UNL A   1      38.520  29.368  28.833  1.00  0.00    -0.014 A 
BRANCH  33  34
ATOM     34  C   UNL A   1      39.937  29.011  29.091  1.00  0.00     0.031 A 
ATOM     35  C   UNL A   1      40.880  30.050  29.635  1.00  0.00     0.074 A 
ATOM     36  C   UNL A   1      40.387  27.784  28.762  1.00  0.00     0.049 A 
ATOM     37  N   UNL A   1      42.170  29.971  29.832  1.00  0.00    -0.248 NA
ATOM     38  C   UNL A   1      40.301  31.360  29.975  1.00  0.00     0.031 C 
ATOM     39  C   UNL A   1      39.575  26.710  28.186  1.00  0.00     0.029 A 
ATOM     40  N   UNL A   1      41.643  27.238  28.849  1.00  0.00    -0.354 N 
ATOM     41  C   UNL A   1      42.558  31.221  30.299  1.00  0.00     0.074 A 
ATOM     42  C   UNL A   1      41.379  32.057  30.303  1.00  0.00     0.031 C 
ATOM     43  C   UNL A   1      40.348  25.630  27.991  1.00  0.00     0.029 A 
ATOM     44  C   UNL A   1      41.717  25.947  28.382  1.00  0.00     0.049 A 
ATOM     45  H   UNL A   1      42.417  27.724  29.213  1.00  0.00     0.167 HD
ATOM     46  C   UNL A   1      43.782  31.626  30.711  1.00  0.00     0.037 A 
ATOM     47  C   UNL A   1      42.773  25.118  28.266  1.00  0.00     0.037 A 
ATOM     48  C   UNL A   1      44.944  30.777  30.723  1.00  0.00     0.049 A 
ATOM     49  C   UNL A   1      44.128  25.597  28.714  1.00  0.00     0.074 A 
ATOM     50  C   UNL A   1      46.219  31.072  31.174  1.00  0.00     0.029 A 
ATOM     51  N   UNL A   1      44.976  29.469  30.260  1.00  0.00    -0.354 N 
ATOM     52  N   UNL A   1      44.466  26.762  29.216  1.00  0.00    -0.248 NA
ATOM     53  C   UNL A   1      45.246  24.652  28.586  1.00  0.00     0.031 C 
ATOM     54  C   UNL A   1      47.033  29.961  30.933  1.00  0.00     0.029 A 
ATOM     55  C   UNL A   1      46.253  28.952  30.391  1.00  0.00     0.049 A 
ATOM     56  H   UNL A   1      44.203  28.982  29.893  1.00  0.00     0.167 HD
ATOM     57  C   UNL A   1      45.826  26.677  29.491  1.00  0.00     0.074 A 
ATOM     58  C   UNL A   1      46.248  25.346  29.108  1.00  0.00     0.031 C 
ATOM     59  C   UNL A   1      46.651  27.616  30.018  1.00  0.00     0.037 A 
BRANCH  46  60
ATOM     60  C   UNL A   1      43.927  33.048  31.183  1.00  0.00     0.058 A 
ATOM     61  C   UNL A   1      44.280  34.086  30.306  1.00  0.00     0.135 A 
ATOM     62  C   UNL A   1      43.676  33.385  32.523  1.00  0.00     0.135 A 
ATOM     63  F   UNL A   1      44.548  33.820  29.017  1.00  0.00    -0.206 F 
ATOM     64  C   UNL A   1      44.409  35.398  30.744  1.00  0.00     0.059 A 
ATOM     65  C   UNL A   1      43.768  34.697  32.979  1.00  0.00     0.059 A 
ATOM     66  F   UNL A   1      43.335  32.434  33.408  1.00  0.00    -0.206 F 
ATOM     67  C   UNL A   1      44.150  35.695  32.083  1.00  0.00     0.060 A 
BRANCH  67  68
ATOM     68  S   UNL A   1      44.315  37.407  32.633  1.00  0.00     0.124 S 
ATOM     69  O   UNL A   1      43.931  38.137  31.429  1.00  0.00    -0.237 OA
ATOM     70  O   UNL A   1      43.368  37.469  33.741  1.00  0.00    -0.237 OA
ATOM     71  O   UNL A   1      45.722  37.510  33.007  1.00  0.00    -0.744 OA
ENDBRANCH  67  68
ENDBRANCH  46  60
BRANCH  47  72
ATOM     72  C   UNL A   1      42.587  23.747  27.717  1.00  0.00     0.058 A 
ATOM     73  C   UNL A   1      42.446  22.641  28.569  1.00  0.00     0.135 A 
ATOM     74  C   UNL A   1      42.528  23.516  26.333  1.00  0.00     0.135 A 
ATOM     75  F   UNL A   1      42.501  22.810  29.899  1.00  0.00    -0.206 F 
ATOM     76  C   UNL A   1      42.271  21.355  28.072  1.00  0.00     0.059 A 
ATOM     77  C   UNL A   1      42.327  22.242  25.812  1.00  0.00     0.059 A 
ATOM     78  F   UNL A   1      42.638  24.541  25.475  1.00  0.00    -0.206 F 
ATOM     79  C   UNL A   1      42.209  21.165  26.690  1.00  0.00     0.060 A 
BRANCH  79  80
ATOM     80  S   UNL A   1      41.933  19.497  26.058  1.00  0.00     0.124 S 
ATOM     81  O   UNL A   1      42.293  18.682  27.213  1.00  0.00    -0.237 OA
ATOM     82  O   UNL A   1      40.516  19.530  25.716  1.00  0.00    -0.237 OA
ATOM     83  O   UNL A   1      42.843  19.414  24.919  1.00  0.00    -0.744 OA
ENDBRANCH  79  80
ENDBRANCH  47  72
BRANCH  59  84
ATOM     84  C   UNL A   1      48.085  27.233  30.257  1.00  0.00     0.058 A 
ATOM     85  C   UNL A   1      49.094  27.518  29.325  1.00  0.00     0.135 A 
ATOM     86  C   UNL A   1      48.464  26.644  31.476  1.00  0.00     0.135 A 
ATOM     87  F   UNL A   1      48.785  28.072  28.142  1.00  0.00    -0.206 F 
ATOM     88  C   UNL A   1      50.428  27.224  29.587  1.00  0.00     0.059 A 
ATOM     89  C   UNL A   1      49.795  26.368  31.771  1.00  0.00     0.059 A 
ATOM     90  F   UNL A   1      47.538  26.357  32.405  1.00  0.00    -0.206 F 
ATOM     91  C   UNL A   1      50.770  26.656  30.817  1.00  0.00     0.060 A 
BRANCH  91  92
ATOM     92  S   UNL A   1      52.511  26.337  31.167  1.00  0.00     0.124 S 
ATOM     93  O   UNL A   1      53.069  26.243  29.822  1.00  0.00    -0.237 OA
ATOM     94  O   UNL A   1      52.896  27.517  31.933  1.00  0.00    -0.237 OA
ATOM     95  O   UNL A   1      52.484  25.088  31.922  1.00  0.00    -0.744 OA
ENDBRANCH  91  92
ENDBRANCH  59  84
ENDBRANCH  33  34
ENDBRANCH  25  28
ENDBRANCH  23  24
ENDBRANCH   1  23
TORSDOF 18
ENDMDL
MODEL 2
REMARK VINA RESULT:      -9.9      4.067     10.942
REMARK SMILES CCC[N@H+](CC)[C@H]1CC[C@]([NH2+]C)(C(=O)NCCCNC(=O)c2ccc(-c3c4nc(c(-c5c(F)cc(S(=O)(=O)[O-])cc5F)c5ccc([nH]5)c(-c5c(F)cc(S(=O)(=O)[O-])cc5F)c5nc(c(-c6c(F)cc(S(=O)(=O)[O-])cc6F)c6ccc3[nH]6)C=C5)C=C4)cc2)C1
REMARK SMILES IDX 17 1 16 2 15 3 13 4 14 5 10 7 7 8 8 9 88 10 9 11 4 12 3 14
REMARK SMILES IDX 2 15 1 16 5 17 6 18 11 19 12 20 18 23 19 24 20 25 21 27
REMARK SMILES IDX 22 28 23 29 87 30 24 31 86 32 25 33 26 34 27 35 80 36 28 37
REMARK SMILES IDX 85 38 79 39 81 40 29 41 84 42 78 43 77 44 30 46 64 47 43 48
REMARK SMILES IDX 63 49 44 50 47 51 62 52 82 53 45 54 46 55 61 57 83 58 48 59
REMARK SMILES IDX 31 60 32 61 41 62 33 63 34 64 40 65 42 66 35 67 36 68 37 69
REMARK SMILES IDX 38 70 39 71 65 72 66 73 75 74 67 75 68 76 74 77 76 78 69 79
REMARK SMILES IDX 70 80 71 81 72 82 73 83 49 84 50 85 59 86 51 87 52 88 58 89
REMARK SMILES IDX 60 90 53 91 54 92 55 93 56 94 57 95
REMARK H PARENT 15 6 4 13 11 21 11 22 19 26 81 45 47 56
REMARK Flexibility Score: inf
ROOT
ATOM      1  C   UNL A   1      41.851  22.146  25.959  1.00  0.00     0.042 C 
ENDROOT
BRANCH   1   2
ATOM      2  C   UNL A   1      42.904  22.357  27.039  1.00  0.00     0.118 C 
BRANCH   2   3
ATOM      3  N   UNL A   1      44.199  21.881  26.608  1.00  0.00    -0.351 N 
ATOM      4  C   UNL A   1      45.349  22.515  26.255  1.00  0.00     0.281 C 
ATOM      5  O   UNL A   1      46.153  21.773  25.679  1.00  0.00    -0.268 OA
ATOM      6  H   UNL A   1      44.262  20.900  26.560  1.00  0.00     0.163 HD
BRANCH   4   7
ATOM      7  C   UNL A   1      45.656  24.010  26.634  1.00  0.00     0.181 C 
ATOM      8  C   UNL A   1      45.960  26.223  25.521  1.00  0.00     0.191 C 
ATOM      9  C   UNL A   1      47.335  25.522  25.643  1.00  0.00     0.072 C 
ATOM     10  C   UNL A   1      45.048  24.981  25.594  1.00  0.00     0.144 C 
ATOM     11  C   UNL A   1      47.161  24.357  26.616  1.00  0.00     0.085 C 
BRANCH   8  12
ATOM     12  N   UNL A   1      45.684  27.316  26.513  1.00  0.00    -0.333 N 
ATOM     13  H   UNL A   1      45.282  26.891  27.348  1.00  0.00     0.348 HD
BRANCH  12  14
ATOM     14  C   UNL A   1      44.733  28.326  25.949  1.00  0.00     0.262 C 
BRANCH  14  15
ATOM     15  C   UNL A   1      43.375  28.524  26.640  1.00  0.00     0.058 C 
ATOM     16  C   UNL A   1      43.111  29.947  27.102  1.00  0.00     0.010 C 
ENDBRANCH  14  15
ENDBRANCH  12  14
BRANCH  12  17
ATOM     17  C   UNL A   1      46.963  28.034  26.807  1.00  0.00     0.258 C 
ATOM     18  C   UNL A   1      46.965  29.520  26.446  1.00  0.00     0.071 C 
ENDBRANCH  12  17
ENDBRANCH   8  12
BRANCH   7  19
ATOM     19  N   UNL A   1      45.226  24.338  28.025  1.00  0.00    -0.336 N 
ATOM     20  C   UNL A   1      46.261  24.787  28.945  1.00  0.00     0.331 C 
ATOM     21  H   UNL A   1      44.803  23.499  28.424  1.00  0.00     0.346 HD
ATOM     22  H   UNL A   1      44.593  25.132  27.929  1.00  0.00     0.346 HD
ENDBRANCH   7  19
ENDBRANCH   4   7
ENDBRANCH   2   3
ENDBRANCH   1   2
BRANCH   1  23
ATOM     23  C   UNL A   1      40.509  21.690  26.516  1.00  0.00     0.118 C 
BRANCH  23  24
ATOM     24  N   UNL A   1      39.393  22.179  25.717  1.00  0.00    -0.352 N 
ATOM     25  C   UNL A   1      38.690  23.351  25.836  1.00  0.00     0.251 C 
ATOM     26  H   UNL A   1      39.102  21.583  24.989  1.00  0.00     0.163 HD
ATOM     27  O   UNL A   1      37.621  23.487  25.253  1.00  0.00    -0.269 OA
BRANCH  25  28
ATOM     28  C   UNL A   1      39.230  24.435  26.682  1.00  0.00     0.039 A 
ATOM     29  C   UNL A   1      40.056  25.403  26.108  1.00  0.00     0.014 A 
ATOM     30  C   UNL A   1      38.907  24.495  28.040  1.00  0.00     0.014 A 
ATOM     31  C   UNL A   1      40.506  26.470  26.888  1.00  0.00     0.010 A 
ATOM     32  C   UNL A   1      39.277  25.605  28.788  1.00  0.00     0.010 A 
ATOM     33  C   UNL A   1      40.089  26.599  28.222  1.00  0.00    -0.014 A 
BRANCH  33  34
ATOM     34  C   UNL A   1      40.495  27.756  29.058  1.00  0.00     0.031 A 
ATOM     35  C   UNL A   1      41.787  27.704  29.827  1.00  0.00     0.074 A 
ATOM     36  C   UNL A   1      39.666  28.812  29.183  1.00  0.00     0.049 A 
ATOM     37  N   UNL A   1      42.269  28.561  30.688  1.00  0.00    -0.248 NA
ATOM     38  C   UNL A   1      42.635  26.517  29.624  1.00  0.00     0.031 C 
ATOM     39  C   UNL A   1      38.369  28.954  28.520  1.00  0.00     0.029 A 
ATOM     40  N   UNL A   1      39.785  29.960  29.925  1.00  0.00    -0.354 N 
ATOM     41  C   UNL A   1      43.462  28.010  31.141  1.00  0.00     0.074 A 
ATOM     42  C   UNL A   1      43.603  26.721  30.504  1.00  0.00     0.031 C 
ATOM     43  C   UNL A   1      37.821  30.129  28.869  1.00  0.00     0.029 A 
ATOM     44  C   UNL A   1      38.704  30.803  29.816  1.00  0.00     0.049 A 
ATOM     45  H   UNL A   1      40.570  30.162  30.483  1.00  0.00     0.167 HD
ATOM     46  C   UNL A   1      44.370  28.543  31.993  1.00  0.00     0.037 A 
ATOM     47  C   UNL A   1      38.446  31.978  30.422  1.00  0.00     0.037 A 
ATOM     48  C   UNL A   1      44.228  29.838  32.605  1.00  0.00     0.049 A 
ATOM     49  C   UNL A   1      39.461  32.543  31.379  1.00  0.00     0.074 A 
ATOM     50  C   UNL A   1      45.116  30.496  33.438  1.00  0.00     0.029 A 
ATOM     51  N   UNL A   1      43.128  30.671  32.454  1.00  0.00    -0.354 N 
ATOM     52  N   UNL A   1      40.616  32.039  31.746  1.00  0.00    -0.248 NA
ATOM     53  C   UNL A   1      39.145  33.835  32.002  1.00  0.00     0.031 C 
ATOM     54  C   UNL A   1      44.528  31.702  33.834  1.00  0.00     0.029 A 
ATOM     55  C   UNL A   1      43.303  31.825  33.199  1.00  0.00     0.049 A 
ATOM     56  H   UNL A   1      42.340  30.470  31.900  1.00  0.00     0.167 HD
ATOM     57  C   UNL A   1      41.177  32.968  32.617  1.00  0.00     0.074 A 
ATOM     58  C   UNL A   1      40.238  34.066  32.716  1.00  0.00     0.031 C 
ATOM     59  C   UNL A   1      42.363  32.917  33.273  1.00  0.00     0.037 A 
BRANCH  46  60
ATOM     60  C   UNL A   1      45.594  27.729  32.312  1.00  0.00     0.058 A 
ATOM     61  C   UNL A   1      45.643  26.872  33.423  1.00  0.00     0.135 A 
ATOM     62  C   UNL A   1      46.722  27.778  31.476  1.00  0.00     0.135 A 
ATOM     63  F   UNL A   1      44.600  26.797  34.266  1.00  0.00    -0.206 F 
ATOM     64  C   UNL A   1      46.775  26.118  33.713  1.00  0.00     0.059 A 
ATOM     65  C   UNL A   1      47.854  27.008  31.728  1.00  0.00     0.059 A 
ATOM     66  F   UNL A   1      46.732  28.580  30.399  1.00  0.00    -0.206 F 
ATOM     67  C   UNL A   1      47.876  26.191  32.859  1.00  0.00     0.060 A 
BRANCH  67  68
ATOM     68  S   UNL A   1      49.333  25.199  33.246  1.00  0.00     0.124 S 
ATOM     69  O   UNL A   1      48.739  24.078  33.966  1.00  0.00    -0.237 OA
ATOM     70  O   UNL A   1      49.861  24.893  31.920  1.00  0.00    -0.237 OA
ATOM     71  O   UNL A   1      50.153  26.099  34.053  1.00  0.00    -0.744 OA
ENDBRANCH  67  68
ENDBRANCH  46  60
BRANCH  47  72
ATOM     72  C   UNL A   1      37.180  32.704  30.130  1.00  0.00     0.058 A 
ATOM     73  C   UNL A   1      37.117  33.661  29.106  1.00  0.00     0.135 A 
ATOM     74  C   UNL A   1      36.005  32.446  30.855  1.00  0.00     0.135 A 
ATOM     75  F   UNL A   1      38.214  33.947  28.388  1.00  0.00    -0.206 F 
ATOM     76  C   UNL A   1      35.942  34.348  28.820  1.00  0.00     0.059 A 
ATOM     77  C   UNL A   1      34.811  33.100  30.570  1.00  0.00     0.059 A 
ATOM     78  F   UNL A   1      36.006  31.527  31.833  1.00  0.00    -0.206 F 
ATOM     79  C   UNL A   1      34.791  34.057  29.557  1.00  0.00     0.060 A 
BRANCH  79  80
ATOM     80  S   UNL A   1      33.261  34.921  29.144  1.00  0.00     0.124 S 
ATOM     81  O   UNL A   1      33.766  36.201  28.661  1.00  0.00    -0.237 OA
ATOM     82  O   UNL A   1      32.676  34.043  28.137  1.00  0.00    -0.237 OA
ATOM     83  O   UNL A   1      32.546  34.965  30.418  1.00  0.00    -0.744 OA
ENDBRANCH  79  80
ENDBRANCH  47  72
BRANCH  59  84
ATOM     84  C   UNL A   1      42.744  34.098  34.122  1.00  0.00     0.058 A 
ATOM     85  C   UNL A   1      42.550  34.103  35.512  1.00  0.00     0.135 A 
ATOM     86  C   UNL A   1      43.386  35.205  33.544  1.00  0.00     0.135 A 
ATOM     87  F   UNL A   1      41.933  33.074  36.113  1.00  0.00    -0.206 F 
ATOM     88  C   UNL A   1      42.972  35.171  36.298  1.00  0.00     0.059 A 
ATOM     89  C   UNL A   1      43.842  36.270  34.314  1.00  0.00     0.059 A 
ATOM     90  F   UNL A   1      43.603  35.246  32.219  1.00  0.00    -0.206 F 
ATOM     91  C   UNL A   1      43.625  36.246  35.691  1.00  0.00     0.060 A 
BRANCH  91  92
ATOM     92  S   UNL A   1      44.220  37.595  36.732  1.00  0.00     0.124 S 
ATOM     93  O   UNL A   1      44.259  38.703  35.784  1.00  0.00    -0.237 OA
ATOM     94  O   UNL A   1      43.188  37.673  37.760  1.00  0.00    -0.237 OA
ATOM     95  O   UNL A   1      45.521  37.119  37.194  1.00  0.00    -0.744 OA
ENDBRANCH  91  92
ENDBRANCH  59  84
ENDBRANCH  33  34
ENDBRANCH  25  28
ENDBRANCH  23  24
ENDBRANCH   1  23
TORSDOF 18
ENDMDL
MODEL 3
REMARK VINA RESULT:      -9.8      3.355      9.130
REMARK SMILES CCC[N@H+](CC)[C@H]1CC[C@]([NH2+]C)(C(=O)NCCCNC(=O)c2ccc(-c3c4nc(c(-c5c(F)cc(S(=O)(=O)[O-])cc5F)c5ccc([nH]5)c(-c5c(F)cc(S(=O)(=O)[O-])cc5F)c5nc(c(-c6c(F)cc(S(=O)(=O)[O-])cc6F)c6ccc3[nH]6)C=C5)C=C4)cc2)C1
REMARK SMILES IDX 17 1 16 2 15 3 13 4 14 5 10 7 7 8 8 9 88 10 9 11 4 12 3 14
REMARK SMILES IDX 2 15 1 16 5 17 6 18 11 19 12 20 18 23 19 24 20 25 21 27
REMARK SMILES IDX 22 28 23 29 87 30 24 31 86 32 25 33 26 34 27 35 80 36 28 37
REMARK SMILES IDX 85 38 79 39 81 40 29 41 84 42 78 43 77 44 30 46 64 47 43 48
REMARK SMILES IDX 63 49 44 50 47 51 62 52 82 53 45 54 46 55 61 57 83 58 48 59
REMARK SMILES IDX 31 60 32 61 41 62 33 63 34 64 40 65 42 66 35 67 36 68 37 69
REMARK SMILES IDX 38 70 39 71 65 72 66 73 75 74 67 75 68 76 74 77 76 78 69 79
REMARK SMILES IDX 70 80 71 81 72 82 73 83 49 84 50 85 59 86 51 87 52 88 58 89
REMARK SMILES IDX 60 90 53 91 54 92 55 93 56 94 57 95
REMARK H PARENT 15 6 4 13 11 21 11 22 19 26 81 45 47 56
REMARK Flexibility Score: inf
ROOT
ATOM      1  C   UNL A   1      38.170  19.869  25.000  1.00  0.00     0.042 C 
ENDROOT
BRANCH   1   2
ATOM      2  C   UNL A   1      36.977  20.816  25.027  1.00  0.00     0.118 C 
BRANCH   2   3
ATOM      3  N   UNL A   1      35.729  20.087  24.987  1.00  0.00    -0.351 N 
ATOM      4  C   UNL A   1      34.434  20.457  25.177  1.00  0.00     0.281 C 
ATOM      5  O   UNL A   1      33.676  19.493  25.334  1.00  0.00    -0.268 OA
ATOM      6  H   UNL A   1      35.838  19.131  24.780  1.00  0.00     0.163 HD
BRANCH   4   7
ATOM      7  C   UNL A   1      33.948  21.950  25.103  1.00  0.00     0.181 C 
ATOM      8  C   UNL A   1      34.410  24.031  23.804  1.00  0.00     0.191 C 
ATOM      9  C   UNL A   1      35.320  24.000  25.056  1.00  0.00     0.072 C 
ATOM     10  C   UNL A   1      34.126  22.519  23.676  1.00  0.00     0.144 C 
ATOM     11  C   UNL A   1      34.774  22.915  25.982  1.00  0.00     0.085 C 
BRANCH   8  12
ATOM     12  N   UNL A   1      33.212  24.933  23.878  1.00  0.00    -0.333 N 
ATOM     13  H   UNL A   1      32.849  24.902  24.830  1.00  0.00     0.348 HD
BRANCH  12  14
ATOM     14  C   UNL A   1      32.151  24.498  22.916  1.00  0.00     0.262 C 
BRANCH  14  15
ATOM     15  C   UNL A   1      30.704  24.380  23.419  1.00  0.00     0.058 C 
ATOM     16  C   UNL A   1      30.432  25.118  24.718  1.00  0.00     0.010 C 
ENDBRANCH  14  15
ENDBRANCH  12  14
BRANCH  12  17
ATOM     17  C   UNL A   1      33.625  26.315  23.479  1.00  0.00     0.258 C 
ATOM     18  C   UNL A   1      33.359  26.670  22.015  1.00  0.00     0.071 C 
ENDBRANCH  12  17
ENDBRANCH   8  12
BRANCH   7  19
ATOM     19  N   UNL A   1      32.551  22.114  25.603  1.00  0.00    -0.336 N 
ATOM     20  C   UNL A   1      32.387  22.760  26.896  1.00  0.00     0.331 C 
ATOM     21  H   UNL A   1      32.136  21.184  25.669  1.00  0.00     0.346 HD
ATOM     22  H   UNL A   1      32.099  22.737  24.933  1.00  0.00     0.346 HD
ENDBRANCH   7  19
ENDBRANCH   4   7
ENDBRANCH   2   3
ENDBRANCH   1   2
BRANCH   1  23
ATOM     23  C   UNL A   1      39.342  20.363  25.837  1.00  0.00     0.118 C 
BRANCH  23  24
ATOM     24  N   UNL A   1      40.342  19.323  26.042  1.00  0.00    -0.352 N 
ATOM     25  C   UNL A   1      41.706  19.439  26.134  1.00  0.00     0.251 C 
ATOM     26  H   UNL A   1      39.988  18.408  26.126  1.00  0.00     0.163 HD
ATOM     27  O   UNL A   1      42.413  18.442  26.045  1.00  0.00    -0.269 OA
BRANCH  25  28
ATOM     28  C   UNL A   1      42.307  20.774  26.325  1.00  0.00     0.039 A 
ATOM     29  C   UNL A   1      42.665  21.530  25.207  1.00  0.00     0.014 A 
ATOM     30  C   UNL A   1      42.505  21.278  27.613  1.00  0.00     0.014 A 
ATOM     31  C   UNL A   1      43.163  22.821  25.384  1.00  0.00     0.010 A 
ATOM     32  C   UNL A   1      42.911  22.595  27.783  1.00  0.00     0.010 A 
ATOM     33  C   UNL A   1      43.254  23.378  26.670  1.00  0.00    -0.014 A 
BRANCH  33  34
ATOM     34  C   UNL A   1      43.716  24.771  26.886  1.00  0.00     0.031 A 
ATOM     35  C   UNL A   1      45.173  25.108  26.722  1.00  0.00     0.074 A 
ATOM     36  C   UNL A   1      42.841  25.707  27.305  1.00  0.00     0.049 A 
ATOM     37  N   UNL A   1      45.792  26.234  26.963  1.00  0.00    -0.248 NA
ATOM     38  C   UNL A   1      46.057  24.027  26.253  1.00  0.00     0.031 C 
ATOM     39  C   UNL A   1      41.413  25.486  27.541  1.00  0.00     0.029 A 
ATOM     40  N   UNL A   1      43.027  27.029  27.622  1.00  0.00    -0.354 N 
ATOM     41  C   UNL A   1      47.134  25.992  26.694  1.00  0.00     0.074 A 
ATOM     42  C   UNL A   1      47.249  24.599  26.326  1.00  0.00     0.031 C 
ATOM     43  C   UNL A   1      40.850  26.636  27.945  1.00  0.00     0.029 A 
ATOM     44  C   UNL A   1      41.882  27.662  28.043  1.00  0.00     0.049 A 
ATOM     45  H   UNL A   1      43.898  27.482  27.553  1.00  0.00     0.167 HD
ATOM     46  C   UNL A   1      48.172  26.860  26.726  1.00  0.00     0.037 A 
ATOM     47  C   UNL A   1      41.689  28.924  28.476  1.00  0.00     0.037 A 
ATOM     48  C   UNL A   1      48.041  28.251  27.073  1.00  0.00     0.049 A 
ATOM     49  C   UNL A   1      42.861  29.867  28.521  1.00  0.00     0.074 A 
ATOM     50  C   UNL A   1      49.020  29.230  27.083  1.00  0.00     0.029 A 
ATOM     51  N   UNL A   1      46.861  28.861  27.476  1.00  0.00    -0.354 N 
ATOM     52  N   UNL A   1      44.113  29.640  28.199  1.00  0.00    -0.248 NA
ATOM     53  C   UNL A   1      42.598  31.237  28.981  1.00  0.00     0.031 C 
ATOM     54  C   UNL A   1      48.442  30.418  27.542  1.00  0.00     0.029 A 
ATOM     55  C   UNL A   1      47.092  30.196  27.760  1.00  0.00     0.049 A 
ATOM     56  H   UNL A   1      45.989  28.410  27.549  1.00  0.00     0.167 HD
ATOM     57  C   UNL A   1      44.779  30.846  28.389  1.00  0.00     0.074 A 
ATOM     58  C   UNL A   1      43.791  31.801  28.846  1.00  0.00     0.031 C 
ATOM     59  C   UNL A   1      46.090  31.137  28.199  1.00  0.00     0.037 A 
BRANCH  46  60
ATOM     60  C   UNL A   1      49.538  26.333  26.377  1.00  0.00     0.058 A 
ATOM     61  C   UNL A   1      50.006  26.313  25.054  1.00  0.00     0.135 A 
ATOM     62  C   UNL A   1      50.405  25.875  27.383  1.00  0.00     0.135 A 
ATOM     63  F   UNL A   1      49.215  26.723  24.049  1.00  0.00    -0.206 F 
ATOM     64  C   UNL A   1      51.270  25.828  24.736  1.00  0.00     0.059 A 
ATOM     65  C   UNL A   1      51.686  25.415  27.092  1.00  0.00     0.059 A 
ATOM     66  F   UNL A   1      50.010  25.871  28.666  1.00  0.00    -0.206 F 
ATOM     67  C   UNL A   1      52.104  25.383  25.762  1.00  0.00     0.060 A 
BRANCH  67  68
ATOM     68  S   UNL A   1      53.744  24.765  25.330  1.00  0.00     0.124 S 
ATOM     69  O   UNL A   1      54.478  24.998  26.570  1.00  0.00    -0.237 OA
ATOM     70  O   UNL A   1      53.475  23.368  25.007  1.00  0.00    -0.237 OA
ATOM     71  O   UNL A   1      54.138  25.603  24.202  1.00  0.00    -0.744 OA
ENDBRANCH  67  68
ENDBRANCH  46  60
BRANCH  47  72
ATOM     72  C   UNL A   1      40.329  29.370  28.885  1.00  0.00     0.058 A 
ATOM     73  C   UNL A   1      40.002  29.536  30.240  1.00  0.00     0.135 A 
ATOM     74  C   UNL A   1      39.336  29.657  27.935  1.00  0.00     0.135 A 
ATOM     75  F   UNL A   1      40.915  29.270  31.186  1.00  0.00    -0.206 F 
ATOM     76  C   UNL A   1      38.737  29.952  30.639  1.00  0.00     0.059 A 
ATOM     77  C   UNL A   1      38.072  30.101  28.309  1.00  0.00     0.059 A 
ATOM     78  F   UNL A   1      39.603  29.533  26.626  1.00  0.00    -0.206 F 
ATOM     79  C   UNL A   1      37.778  30.236  29.664  1.00  0.00     0.060 A 
BRANCH  79  80
ATOM     80  S   UNL A   1      36.155  30.822  30.194  1.00  0.00     0.124 S 
ATOM     81  O   UNL A   1      35.938  30.036  31.402  1.00  0.00    -0.237 OA
ATOM     82  O   UNL A   1      36.394  32.247  30.393  1.00  0.00    -0.237 OA
ATOM     83  O   UNL A   1      35.293  30.491  29.062  1.00  0.00    -0.744 OA
ENDBRANCH  79  80
ENDBRANCH  47  72
BRANCH  59  84
ATOM     84  C   UNL A   1      46.534  32.554  28.438  1.00  0.00     0.058 A 
ATOM     85  C   UNL A   1      47.057  32.969  29.671  1.00  0.00     0.135 A 
ATOM     86  C   UNL A   1      46.509  33.487  27.387  1.00  0.00     0.135 A 
ATOM     87  F   UNL A   1      47.095  32.119  30.710  1.00  0.00    -0.206 F 
ATOM     88  C   UNL A   1      47.531  34.262  29.860  1.00  0.00     0.059 A 
ATOM     89  C   UNL A   1      47.005  34.777  27.545  1.00  0.00     0.059 A 
ATOM     90  F   UNL A   1      46.026  33.139  26.184  1.00  0.00    -0.206 F 
ATOM     91  C   UNL A   1      47.509  35.158  28.787  1.00  0.00     0.060 A 
BRANCH  91  92
ATOM     92  S   UNL A   1      48.184  36.814  29.030  1.00  0.00     0.124 S 
ATOM     93  O   UNL A   1      47.385  37.295  30.152  1.00  0.00    -0.237 OA
ATOM     94  O   UNL A   1      49.587  36.538  29.321  1.00  0.00    -0.237 OA
ATOM     95  O   UNL A   1      47.933  37.475  27.753  1.00  0.00    -0.744 OA
ENDBRANCH  91  92
ENDBRANCH  59  84
ENDBRANCH  33  34
ENDBRANCH  25  28
ENDBRANCH  23  24
ENDBRANCH   1  23
TORSDOF 18
ENDMDL
