MODEL 1
REMARK VINA RESULT:     -11.7      0.000      0.000
REMARK SMILES CSCc1ccc(C(=O)N2C[C@@H](O)C[C@@H]2C(=O)NCCCNC(=O)c2ccc(-c3c4nc(c(-c5c(F)cc(S(=O)(=O)[O-])cc5F)c5ccc([nH]5)c(-c5c(F)cc(S(=O)(=O)[O-])cc5F)c5nc(c(-c6c(F)cc(S(=O)(=O)[O-])cc6F)c6ccc3[nH]6)C=C5)C=C4)cc2)o1
REMARK SMILES IDX 19 1 18 2 16 3 17 4 15 6 10 7 11 8 12 9 14 10 8 11 9 12 7 13
REMARK SMILES IDX 4 14 5 15 91 16 6 17 3 18 2 19 1 20 13 21 20 23 21 24 22 25
REMARK SMILES IDX 23 26 24 28 25 29 26 30 90 31 27 32 89 33 28 34 29 35 30 36
REMARK SMILES IDX 83 37 31 38 88 39 82 40 84 41 32 42 87 43 81 44 80 45 33 47
REMARK SMILES IDX 67 48 46 49 66 50 47 51 50 52 65 53 85 54 48 55 49 56 64 58
REMARK SMILES IDX 86 59 51 60 34 61 35 62 44 63 36 64 37 65 43 66 45 67 38 68
REMARK SMILES IDX 39 69 40 70 41 71 42 72 68 73 69 74 78 75 70 76 71 77 77 78
REMARK SMILES IDX 79 79 72 80 73 81 74 82 75 83 76 84 52 85 53 86 62 87 54 88
REMARK SMILES IDX 55 89 61 90 63 91 56 92 57 93 58 94 59 95 60 96
REMARK H PARENT 18 5 13 22 22 27 84 46 50 57
REMARK Flexibility Score: inf
ROOT
ATOM      1  C   UNL A   1      37.853  23.752  25.804  1.00  0.00     0.117 C 
ENDROOT
BRANCH   1   2
ATOM      2  N   UNL A   1      37.423  23.368  24.470  1.00  0.00    -0.354 N 
ATOM      3  C   UNL A   1      36.172  23.336  23.927  1.00  0.00     0.242 C 
ATOM      4  O   UNL A   1      36.056  22.979  22.751  1.00  0.00    -0.273 OA
ATOM      5  H   UNL A   1      38.147  23.087  23.864  1.00  0.00     0.163 HD
BRANCH   3   6
ATOM      6  C   UNL A   1      34.945  23.754  24.763  1.00  0.00     0.177 C 
ATOM      7  N   UNL A   1      33.940  22.694  24.686  1.00  0.00    -0.321 N 
ATOM      8  C   UNL A   1      32.696  23.191  24.132  1.00  0.00     0.152 C 
ATOM      9  C   UNL A   1      33.134  24.375  23.281  1.00  0.00     0.136 C 
ATOM     10  C   UNL A   1      34.274  24.973  24.113  1.00  0.00     0.069 C 
BRANCH   7  11
ATOM     11  C   UNL A   1      34.209  21.452  25.224  1.00  0.00     0.290 C 
ATOM     12  O   UNL A   1      35.045  21.366  26.140  1.00  0.00    -0.265 OA
BRANCH  11  13
ATOM     13  C   UNL A   1      33.602  20.286  24.616  1.00  0.00     0.191 A 
ATOM     14  C   UNL A   1      33.614  18.190  23.900  1.00  0.00     0.114 A 
ATOM     15  C   UNL A   1      32.437  18.749  23.450  1.00  0.00     0.047 A 
ATOM     16  O   UNL A   1      34.300  19.106  24.643  1.00  0.00    -0.455 OA
ATOM     17  C   UNL A   1      32.463  20.104  23.848  1.00  0.00     0.056 A 
BRANCH  14  18
ATOM     18  C   UNL A   1      34.244  16.857  23.739  1.00  0.00     0.144 C 
BRANCH  18  19
ATOM     19  S   UNL A   1      34.329  15.915  25.302  1.00  0.00    -0.157 SA
ATOM     20  C   UNL A   1      32.661  15.216  25.355  1.00  0.00     0.085 C 
ENDBRANCH  18  19
ENDBRANCH  14  18
ENDBRANCH  11  13
ENDBRANCH   7  11
BRANCH   9  21
ATOM     21  O   UNL A   1      32.094  25.312  23.055  1.00  0.00    -0.391 OA
ATOM     22  H   UNL A   1      31.484  24.963  22.387  1.00  0.00     0.211 HD
ENDBRANCH   9  21
ENDBRANCH   3   6
ENDBRANCH   1   2
BRANCH   1  23
ATOM     23  C   UNL A   1      38.716  22.697  26.492  1.00  0.00     0.042 C 
BRANCH  23  24
ATOM     24  C   UNL A   1      40.018  23.225  27.092  1.00  0.00     0.118 C 
BRANCH  24  25
ATOM     25  N   UNL A   1      40.851  23.905  26.110  1.00  0.00    -0.352 N 
ATOM     26  C   UNL A   1      41.316  25.197  26.071  1.00  0.00     0.251 C 
ATOM     27  H   UNL A   1      41.126  23.347  25.347  1.00  0.00     0.163 HD
ATOM     28  O   UNL A   1      41.849  25.605  25.042  1.00  0.00    -0.269 OA
BRANCH  26  29
ATOM     29  C   UNL A   1      41.176  26.104  27.234  1.00  0.00     0.039 A 
ATOM     30  C   UNL A   1      42.103  27.140  27.392  1.00  0.00     0.014 A 
ATOM     31  C   UNL A   1      40.182  25.911  28.198  1.00  0.00     0.014 A 
ATOM     32  C   UNL A   1      41.998  28.015  28.477  1.00  0.00     0.010 A 
ATOM     33  C   UNL A   1      40.043  26.820  29.248  1.00  0.00     0.010 A 
ATOM     34  C   UNL A   1      40.948  27.880  29.400  1.00  0.00    -0.014 A 
BRANCH  34  35
ATOM     35  C   UNL A   1      40.781  28.837  30.524  1.00  0.00     0.031 A 
ATOM     36  C   UNL A   1      41.646  28.728  31.750  1.00  0.00     0.074 A 
ATOM     37  C   UNL A   1      39.807  29.768  30.469  1.00  0.00     0.049 A 
ATOM     38  N   UNL A   1      41.590  29.411  32.865  1.00  0.00    -0.248 NA
ATOM     39  C   UNL A   1      42.699  27.703  31.725  1.00  0.00     0.031 C 
ATOM     40  C   UNL A   1      38.880  29.957  29.352  1.00  0.00     0.029 A 
ATOM     41  N   UNL A   1      39.429  30.721  31.381  1.00  0.00    -0.354 N 
ATOM     42  C   UNL A   1      42.582  28.885  33.683  1.00  0.00     0.074 A 
ATOM     43  C   UNL A   1      43.203  27.803  32.946  1.00  0.00     0.031 C 
ATOM     44  C   UNL A   1      38.055  30.978  29.635  1.00  0.00     0.029 A 
ATOM     45  C   UNL A   1      38.369  31.491  30.965  1.00  0.00     0.049 A 
ATOM     46  H   UNL A   1      39.874  30.842  32.250  1.00  0.00     0.167 HD
ATOM     47  C   UNL A   1      42.953  29.274  34.927  1.00  0.00     0.037 A 
ATOM     48  C   UNL A   1      37.719  32.494  31.586  1.00  0.00     0.037 A 
ATOM     49  C   UNL A   1      42.354  30.366  35.648  1.00  0.00     0.049 A 
ATOM     50  C   UNL A   1      38.151  32.914  32.963  1.00  0.00     0.074 A 
ATOM     51  C   UNL A   1      42.690  30.865  36.895  1.00  0.00     0.029 A 
ATOM     52  N   UNL A   1      41.293  31.132  35.185  1.00  0.00    -0.354 N 
ATOM     53  N   UNL A   1      39.113  32.426  33.709  1.00  0.00    -0.248 NA
ATOM     54  C   UNL A   1      37.410  34.021  33.583  1.00  0.00     0.031 C 
ATOM     55  C   UNL A   1      41.819  31.920  37.195  1.00  0.00     0.029 A 
ATOM     56  C   UNL A   1      40.958  32.094  36.123  1.00  0.00     0.049 A 
ATOM     57  H   UNL A   1      40.845  31.009  34.317  1.00  0.00     0.167 HD
ATOM     58  C   UNL A   1      39.105  33.177  34.878  1.00  0.00     0.074 A 
ATOM     59  C   UNL A   1      38.048  34.159  34.737  1.00  0.00     0.031 C 
ATOM     60  C   UNL A   1      39.905  33.066  35.967  1.00  0.00     0.037 A 
BRANCH  47  61
ATOM     61  C   UNL A   1      44.064  28.503  35.581  1.00  0.00     0.058 A 
ATOM     62  C   UNL A   1      45.412  28.828  35.359  1.00  0.00     0.135 A 
ATOM     63  C   UNL A   1      43.782  27.423  36.433  1.00  0.00     0.135 A 
ATOM     64  F   UNL A   1      45.736  29.843  34.542  1.00  0.00    -0.206 F 
ATOM     65  C   UNL A   1      46.442  28.083  35.923  1.00  0.00     0.059 A 
ATOM     66  C   UNL A   1      44.796  26.677  37.026  1.00  0.00     0.059 A 
ATOM     67  F   UNL A   1      42.510  27.072  36.681  1.00  0.00    -0.206 F 
ATOM     68  C   UNL A   1      46.124  27.001  36.747  1.00  0.00     0.060 A 
BRANCH  68  69
ATOM     69  S   UNL A   1      47.466  26.019  37.449  1.00  0.00     0.124 S 
ATOM     70  O   UNL A   1      46.886  25.606  38.724  1.00  0.00    -0.237 OA
ATOM     71  O   UNL A   1      47.637  24.960  36.460  1.00  0.00    -0.237 OA
ATOM     72  O   UNL A   1      48.569  26.971  37.539  1.00  0.00    -0.744 OA
ENDBRANCH  68  69
ENDBRANCH  47  61
BRANCH  48  73
ATOM     73  C   UNL A   1      36.609  33.192  30.891  1.00  0.00     0.058 A 
ATOM     74  C   UNL A   1      35.279  32.979  31.278  1.00  0.00     0.135 A 
ATOM     75  C   UNL A   1      36.855  34.108  29.856  1.00  0.00     0.135 A 
ATOM     76  F   UNL A   1      34.997  32.107  32.257  1.00  0.00    -0.206 F 
ATOM     77  C   UNL A   1      34.226  33.648  30.663  1.00  0.00     0.059 A 
ATOM     78  C   UNL A   1      35.820  34.803  29.238  1.00  0.00     0.059 A 
ATOM     79  F   UNL A   1      38.113  34.354  29.461  1.00  0.00    -0.206 F 
ATOM     80  C   UNL A   1      34.508  34.562  29.645  1.00  0.00     0.060 A 
BRANCH  80  81
ATOM     81  S   UNL A   1      33.142  35.481  28.902  1.00  0.00     0.124 S 
ATOM     82  O   UNL A   1      33.854  36.483  28.118  1.00  0.00    -0.237 OA
ATOM     83  O   UNL A   1      32.451  34.446  28.137  1.00  0.00    -0.237 OA
ATOM     84  O   UNL A   1      32.410  35.985  30.060  1.00  0.00    -0.744 OA
ENDBRANCH  80  81
ENDBRANCH  48  73
BRANCH  60  85
ATOM     85  C   UNL A   1      39.684  34.046  37.082  1.00  0.00     0.058 A 
ATOM     86  C   UNL A   1      38.901  33.721  38.200  1.00  0.00     0.135 A 
ATOM     87  C   UNL A   1      40.296  35.309  37.052  1.00  0.00     0.135 A 
ATOM     88  F   UNL A   1      38.289  32.528  38.272  1.00  0.00    -0.206 F 
ATOM     89  C   UNL A   1      38.719  34.621  39.246  1.00  0.00     0.059 A 
ATOM     90  C   UNL A   1      40.142  36.218  38.094  1.00  0.00     0.059 A 
ATOM     91  F   UNL A   1      41.059  35.665  36.007  1.00  0.00    -0.206 F 
ATOM     92  C   UNL A   1      39.342  35.869  39.182  1.00  0.00     0.060 A 
BRANCH  92  93
ATOM     93  S   UNL A   1      39.131  37.020  40.558  1.00  0.00     0.124 S 
ATOM     94  O   UNL A   1      38.228  38.008  39.977  1.00  0.00    -0.237 OA
ATOM     95  O   UNL A   1      38.558  36.171  41.597  1.00  0.00    -0.237 OA
ATOM     96  O   UNL A   1      40.489  37.486  40.819  1.00  0.00    -0.744 OA
ENDBRANCH  92  93
ENDBRANCH  60  85
ENDBRANCH  34  35
ENDBRANCH  26  29
ENDBRANCH  24  25
ENDBRANCH  23  24
ENDBRANCH   1  23
TORSDOF 18
ENDMDL
MODEL 2
REMARK VINA RESULT:     -11.5      6.742     12.366
REMARK SMILES CSCc1ccc(C(=O)N2C[C@@H](O)C[C@@H]2C(=O)NCCCNC(=O)c2ccc(-c3c4nc(c(-c5c(F)cc(S(=O)(=O)[O-])cc5F)c5ccc([nH]5)c(-c5c(F)cc(S(=O)(=O)[O-])cc5F)c5nc(c(-c6c(F)cc(S(=O)(=O)[O-])cc6F)c6ccc3[nH]6)C=C5)C=C4)cc2)o1
REMARK SMILES IDX 19 1 18 2 16 3 17 4 15 6 10 7 11 8 12 9 14 10 8 11 9 12 7 13
REMARK SMILES IDX 4 14 5 15 91 16 6 17 3 18 2 19 1 20 13 21 20 23 21 24 22 25
REMARK SMILES IDX 23 26 24 28 25 29 26 30 90 31 27 32 89 33 28 34 29 35 30 36
REMARK SMILES IDX 83 37 31 38 88 39 82 40 84 41 32 42 87 43 81 44 80 45 33 47
REMARK SMILES IDX 67 48 46 49 66 50 47 51 50 52 65 53 85 54 48 55 49 56 64 58
REMARK SMILES IDX 86 59 51 60 34 61 35 62 44 63 36 64 37 65 43 66 45 67 38 68
REMARK SMILES IDX 39 69 40 70 41 71 42 72 68 73 69 74 78 75 70 76 71 77 77 78
REMARK SMILES IDX 79 79 72 80 73 81 74 82 75 83 76 84 52 85 53 86 62 87 54 88
REMARK SMILES IDX 55 89 61 90 63 91 56 92 57 93 58 94 59 95 60 96
REMARK H PARENT 18 5 13 22 22 27 84 46 50 57
REMARK Flexibility Score: inf
ROOT
ATOM      1  C   UNL A   1      33.509  27.678  26.402  1.00  0.00     0.117 C 
ENDROOT
BRANCH   1   2
ATOM      2  N   UNL A   1      32.291  26.945  26.704  1.00  0.00    -0.354 N 
ATOM      3  C   UNL A   1      31.997  25.624  26.528  1.00  0.00     0.242 C 
ATOM      4  O   UNL A   1      30.881  25.225  26.877  1.00  0.00    -0.273 OA
ATOM      5  H   UNL A   1      31.566  27.484  27.095  1.00  0.00     0.163 HD
BRANCH   3   6
ATOM      6  C   UNL A   1      33.042  24.662  25.929  1.00  0.00     0.177 C 
ATOM      7  N   UNL A   1      32.610  24.278  24.585  1.00  0.00    -0.321 N 
ATOM      8  C   UNL A   1      32.443  22.841  24.479  1.00  0.00     0.152 C 
ATOM      9  C   UNL A   1      32.148  22.412  25.909  1.00  0.00     0.136 C 
ATOM     10  C   UNL A   1      33.045  23.348  26.726  1.00  0.00     0.069 C 
BRANCH   7  11
ATOM     11  C   UNL A   1      32.535  25.230  23.589  1.00  0.00     0.290 C 
ATOM     12  O   UNL A   1      33.533  25.428  22.876  1.00  0.00    -0.265 OA
BRANCH  11  13
ATOM     13  C   UNL A   1      31.343  26.047  23.499  1.00  0.00     0.191 A 
ATOM     14  C   UNL A   1      30.253  27.975  23.528  1.00  0.00     0.114 A 
ATOM     15  C   UNL A   1      29.293  26.985  23.519  1.00  0.00     0.047 A 
ATOM     16  O   UNL A   1      31.493  27.410  23.471  1.00  0.00    -0.455 OA
ATOM     17  C   UNL A   1      29.989  25.757  23.570  1.00  0.00     0.056 A 
BRANCH  14  18
ATOM     18  C   UNL A   1      30.198  29.456  23.586  1.00  0.00     0.144 C 
BRANCH  18  19
ATOM     19  S   UNL A   1      29.275  30.190  22.191  1.00  0.00    -0.157 SA
ATOM     20  C   UNL A   1      27.611  30.258  22.898  1.00  0.00     0.085 C 
ENDBRANCH  18  19
ENDBRANCH  14  18
ENDBRANCH  11  13
ENDBRANCH   7  11
BRANCH   9  21
ATOM     21  O   UNL A   1      32.445  21.047  26.153  1.00  0.00    -0.391 OA
ATOM     22  H   UNL A   1      31.628  20.572  26.369  1.00  0.00     0.211 HD
ENDBRANCH   9  21
ENDBRANCH   3   6
ENDBRANCH   1   2
BRANCH   1  23
ATOM     23  C   UNL A   1      33.657  28.967  27.207  1.00  0.00     0.042 C 
BRANCH  23  24
ATOM     24  C   UNL A   1      35.094  29.324  27.588  1.00  0.00     0.118 C 
BRANCH  24  25
ATOM     25  N   UNL A   1      35.163  30.197  28.752  1.00  0.00    -0.352 N 
ATOM     26  C   UNL A   1      36.198  30.457  29.616  1.00  0.00     0.251 C 
ATOM     27  H   UNL A   1      34.329  30.681  28.952  1.00  0.00     0.163 HD
ATOM     28  O   UNL A   1      35.967  31.089  30.645  1.00  0.00    -0.269 OA
BRANCH  26  29
ATOM     29  C   UNL A   1      37.573  29.982  29.339  1.00  0.00     0.039 A 
ATOM     30  C   UNL A   1      38.014  29.942  28.011  1.00  0.00     0.014 A 
ATOM     31  C   UNL A   1      38.410  29.523  30.360  1.00  0.00     0.014 A 
ATOM     32  C   UNL A   1      39.308  29.502  27.715  1.00  0.00     0.010 A 
ATOM     33  C   UNL A   1      39.720  29.139  30.070  1.00  0.00     0.010 A 
ATOM     34  C   UNL A   1      40.183  29.124  28.746  1.00  0.00    -0.014 A 
BRANCH  34  35
ATOM     35  C   UNL A   1      41.582  28.713  28.459  1.00  0.00     0.031 A 
ATOM     36  C   UNL A   1      42.691  29.728  28.481  1.00  0.00     0.074 A 
ATOM     37  C   UNL A   1      41.846  27.436  28.118  1.00  0.00     0.049 A 
ATOM     38  N   UNL A   1      43.955  29.580  28.172  1.00  0.00    -0.248 NA
ATOM     39  C   UNL A   1      42.327  31.095  28.884  1.00  0.00     0.031 C 
ATOM     40  C   UNL A   1      40.855  26.362  28.029  1.00  0.00     0.029 A 
ATOM     41  N   UNL A   1      43.027  26.829  27.772  1.00  0.00    -0.354 N 
ATOM     42  C   UNL A   1      44.532  30.835  28.320  1.00  0.00     0.074 A 
ATOM     43  C   UNL A   1      43.472  31.741  28.715  1.00  0.00     0.031 C 
ATOM     44  C   UNL A   1      41.472  25.224  27.674  1.00  0.00     0.029 A 
ATOM     45  C   UNL A   1      42.893  25.493  27.476  1.00  0.00     0.049 A 
ATOM     46  H   UNL A   1      43.888  27.304  27.740  1.00  0.00     0.167 HD
ATOM     47  C   UNL A   1      45.828  31.199  28.157  1.00  0.00     0.037 A 
ATOM     48  C   UNL A   1      43.810  24.588  27.083  1.00  0.00     0.037 A 
ATOM     49  C   UNL A   1      46.885  30.294  27.791  1.00  0.00     0.049 A 
ATOM     50  C   UNL A   1      45.242  25.012  26.915  1.00  0.00     0.074 A 
ATOM     51  C   UNL A   1      48.235  30.559  27.644  1.00  0.00     0.029 A 
ATOM     52  N   UNL A   1      46.711  28.945  27.515  1.00  0.00    -0.354 N 
ATOM     53  N   UNL A   1      45.777  26.197  27.090  1.00  0.00    -0.248 NA
ATOM     54  C   UNL A   1      46.196  23.976  26.495  1.00  0.00     0.031 C 
ATOM     55  C   UNL A   1      48.876  29.374  27.260  1.00  0.00     0.029 A 
ATOM     56  C   UNL A   1      47.927  28.366  27.193  1.00  0.00     0.049 A 
ATOM     57  H   UNL A   1      45.850  28.470  27.544  1.00  0.00     0.167 HD
ATOM     58  C   UNL A   1      47.131  26.046  26.821  1.00  0.00     0.074 A 
ATOM     59  C   UNL A   1      47.337  24.653  26.478  1.00  0.00     0.031 C 
ATOM     60  C   UNL A   1      48.116  26.977  26.858  1.00  0.00     0.037 A 
BRANCH  47  61
ATOM     61  C   UNL A   1      46.162  32.647  28.375  1.00  0.00     0.058 A 
ATOM     62  C   UNL A   1      46.589  33.120  29.627  1.00  0.00     0.135 A 
ATOM     63  C   UNL A   1      46.049  33.575  27.328  1.00  0.00     0.135 A 
ATOM     64  F   UNL A   1      46.701  32.277  30.665  1.00  0.00    -0.206 F 
ATOM     65  C   UNL A   1      46.851  34.469  29.843  1.00  0.00     0.059 A 
ATOM     66  C   UNL A   1      46.327  34.925  27.516  1.00  0.00     0.059 A 
ATOM     67  F   UNL A   1      45.648  33.175  26.110  1.00  0.00    -0.206 F 
ATOM     68  C   UNL A   1      46.706  35.366  28.784  1.00  0.00     0.060 A 
BRANCH  68  69
ATOM     69  S   UNL A   1      47.015  37.120  29.082  1.00  0.00     0.124 S 
ATOM     70  O   UNL A   1      47.437  37.106  30.479  1.00  0.00    -0.237 OA
ATOM     71  O   UNL A   1      48.058  37.429  28.109  1.00  0.00    -0.237 OA
ATOM     72  O   UNL A   1      45.719  37.739  28.822  1.00  0.00    -0.744 OA
ENDBRANCH  68  69
ENDBRANCH  47  61
BRANCH  48  73
ATOM     73  C   UNL A   1      43.401  23.180  26.856  1.00  0.00     0.058 A 
ATOM     74  C   UNL A   1      43.346  22.654  25.558  1.00  0.00     0.135 A 
ATOM     75  C   UNL A   1      43.095  22.325  27.925  1.00  0.00     0.135 A 
ATOM     76  F   UNL A   1      43.624  23.437  24.505  1.00  0.00    -0.206 F 
ATOM     77  C   UNL A   1      42.999  21.328  25.324  1.00  0.00     0.059 A 
ATOM     78  C   UNL A   1      42.763  20.989  27.718  1.00  0.00     0.059 A 
ATOM     79  F   UNL A   1      43.148  22.780  29.187  1.00  0.00    -0.206 F 
ATOM     80  C   UNL A   1      42.712  20.502  26.412  1.00  0.00     0.060 A 
BRANCH  80  81
ATOM     81  S   UNL A   1      42.333  18.762  26.106  1.00  0.00     0.124 S 
ATOM     82  O   UNL A   1      43.270  18.442  25.035  1.00  0.00    -0.237 OA
ATOM     83  O   UNL A   1      42.613  18.150  27.402  1.00  0.00    -0.237 OA
ATOM     84  O   UNL A   1      40.924  18.790  25.728  1.00  0.00    -0.744 OA
ENDBRANCH  80  81
ENDBRANCH  48  73
BRANCH  60  85
ATOM     85  C   UNL A   1      49.509  26.515  26.544  1.00  0.00     0.058 A 
ATOM     86  C   UNL A   1      50.360  26.019  27.543  1.00  0.00     0.135 A 
ATOM     87  C   UNL A   1      49.983  26.528  25.222  1.00  0.00     0.135 A 
ATOM     88  F   UNL A   1      49.956  25.994  28.823  1.00  0.00    -0.206 F 
ATOM     89  C   UNL A   1      51.642  25.566  27.246  1.00  0.00     0.059 A 
ATOM     90  C   UNL A   1      51.254  26.063  24.900  1.00  0.00     0.059 A 
ATOM     91  F   UNL A   1      49.204  26.987  24.230  1.00  0.00    -0.206 F 
ATOM     92  C   UNL A   1      52.080  25.594  25.921  1.00  0.00     0.060 A 
BRANCH  92  93
ATOM     93  S   UNL A   1      53.732  24.972  25.536  1.00  0.00     0.124 S 
ATOM     94  O   UNL A   1      54.444  25.244  26.780  1.00  0.00    -0.237 OA
ATOM     95  O   UNL A   1      53.481  23.565  25.244  1.00  0.00    -0.237 OA
ATOM     96  O   UNL A   1      54.138  25.780  24.390  1.00  0.00    -0.744 OA
ENDBRANCH  92  93
ENDBRANCH  60  85
ENDBRANCH  34  35
ENDBRANCH  26  29
ENDBRANCH  24  25
ENDBRANCH  23  24
ENDBRANCH   1  23
TORSDOF 18
ENDMDL
MODEL 3
REMARK VINA RESULT:     -11.4      6.723     11.977
REMARK SMILES CSCc1ccc(C(=O)N2C[C@@H](O)C[C@@H]2C(=O)NCCCNC(=O)c2ccc(-c3c4nc(c(-c5c(F)cc(S(=O)(=O)[O-])cc5F)c5ccc([nH]5)c(-c5c(F)cc(S(=O)(=O)[O-])cc5F)c5nc(c(-c6c(F)cc(S(=O)(=O)[O-])cc6F)c6ccc3[nH]6)C=C5)C=C4)cc2)o1
REMARK SMILES IDX 19 1 18 2 16 3 17 4 15 6 10 7 11 8 12 9 14 10 8 11 9 12 7 13
REMARK SMILES IDX 4 14 5 15 91 16 6 17 3 18 2 19 1 20 13 21 20 23 21 24 22 25
REMARK SMILES IDX 23 26 24 28 25 29 26 30 90 31 27 32 89 33 28 34 29 35 30 36
REMARK SMILES IDX 83 37 31 38 88 39 82 40 84 41 32 42 87 43 81 44 80 45 33 47
REMARK SMILES IDX 67 48 46 49 66 50 47 51 50 52 65 53 85 54 48 55 49 56 64 58
REMARK SMILES IDX 86 59 51 60 34 61 35 62 44 63 36 64 37 65 43 66 45 67 38 68
REMARK SMILES IDX 39 69 40 70 41 71 42 72 68 73 69 74 78 75 70 76 71 77 77 78
REMARK SMILES IDX 79 79 72 80 73 81 74 82 75 83 76 84 52 85 53 86 62 87 54 88
REMARK SMILES IDX 55 89 61 90 63 91 56 92 57 93 58 94 59 95 60 96
REMARK H PARENT 18 5 13 22 22 27 84 46 50 57
REMARK Flexibility Score: inf
ROOT
ATOM      1  C   UNL A   1      33.641  29.112  25.889  1.00  0.00     0.117 C 
ENDROOT
BRANCH   1   2
ATOM      2  N   UNL A   1      34.042  27.727  25.702  1.00  0.00    -0.354 N 
ATOM      3  C   UNL A   1      33.653  26.822  24.758  1.00  0.00     0.242 C 
ATOM      4  O   UNL A   1      34.149  25.691  24.797  1.00  0.00    -0.273 OA
ATOM      5  H   UNL A   1      34.694  27.390  26.358  1.00  0.00     0.163 HD
BRANCH   3   6
ATOM      6  C   UNL A   1      32.638  27.217  23.667  1.00  0.00     0.177 C 
ATOM      7  N   UNL A   1      31.661  26.138  23.521  1.00  0.00    -0.321 N 
ATOM      8  C   UNL A   1      31.658  25.612  22.170  1.00  0.00     0.152 C 
ATOM      9  C   UNL A   1      33.062  25.919  21.667  1.00  0.00     0.136 C 
ATOM     10  C   UNL A   1      33.350  27.282  22.306  1.00  0.00     0.069 C 
BRANCH   7  11
ATOM     11  C   UNL A   1      30.812  25.835  24.566  1.00  0.00     0.290 C 
ATOM     12  O   UNL A   1      30.032  26.712  24.975  1.00  0.00    -0.265 OA
BRANCH  11  13
ATOM     13  C   UNL A   1      30.953  24.554  25.226  1.00  0.00     0.191 A 
ATOM     14  C   UNL A   1      31.550  22.423  25.314  1.00  0.00     0.114 A 
ATOM     15  C   UNL A   1      30.826  22.672  26.460  1.00  0.00     0.047 A 
ATOM     16  O   UNL A   1      31.665  23.571  24.587  1.00  0.00    -0.455 OA
ATOM     17  C   UNL A   1      30.388  24.012  26.370  1.00  0.00     0.056 A 
BRANCH  14  18
ATOM     18  C   UNL A   1      32.192  21.210  24.748  1.00  0.00     0.144 C 
BRANCH  18  19
ATOM     19  S   UNL A   1      34.008  21.360  24.621  1.00  0.00    -0.157 SA
ATOM     20  C   UNL A   1      34.450  21.506  26.369  1.00  0.00     0.085 C 
ENDBRANCH  18  19
ENDBRANCH  14  18
ENDBRANCH  11  13
ENDBRANCH   7  11
BRANCH   9  21
ATOM     21  O   UNL A   1      33.147  25.969  20.252  1.00  0.00    -0.391 OA
ATOM     22  H   UNL A   1      33.922  25.468  19.957  1.00  0.00     0.211 HD
ENDBRANCH   9  21
ENDBRANCH   3   6
ENDBRANCH   1   2
BRANCH   1  23
ATOM     23  C   UNL A   1      33.759  29.588  27.335  1.00  0.00     0.042 C 
BRANCH  23  24
ATOM     24  C   UNL A   1      35.187  29.865  27.806  1.00  0.00     0.118 C 
BRANCH  24  25
ATOM     25  N   UNL A   1      35.232  30.455  29.137  1.00  0.00    -0.352 N 
ATOM     26  C   UNL A   1      36.257  30.534  30.047  1.00  0.00     0.251 C 
ATOM     27  H   UNL A   1      34.387  30.866  29.433  1.00  0.00     0.163 HD
ATOM     28  O   UNL A   1      36.008  30.913  31.189  1.00  0.00    -0.269 OA
BRANCH  26  29
ATOM     29  C   UNL A   1      37.643  30.160  29.683  1.00  0.00     0.039 A 
ATOM     30  C   UNL A   1      38.525  29.780  30.702  1.00  0.00     0.014 A 
ATOM     31  C   UNL A   1      38.101  30.235  28.364  1.00  0.00     0.014 A 
ATOM     32  C   UNL A   1      39.839  29.418  30.392  1.00  0.00     0.010 A 
ATOM     33  C   UNL A   1      39.395  29.819  28.049  1.00  0.00     0.010 A 
ATOM     34  C   UNL A   1      40.278  29.406  29.058  1.00  0.00    -0.014 A 
BRANCH  34  35
ATOM     35  C   UNL A   1      41.651  28.965  28.701  1.00  0.00     0.031 A 
ATOM     36  C   UNL A   1      42.784  29.954  28.676  1.00  0.00     0.074 A 
ATOM     37  C   UNL A   1      41.868  27.685  28.338  1.00  0.00     0.049 A 
ATOM     38  N   UNL A   1      44.027  29.778  28.304  1.00  0.00    -0.248 NA
ATOM     39  C   UNL A   1      42.473  31.325  29.105  1.00  0.00     0.031 C 
ATOM     40  C   UNL A   1      40.848  26.636  28.291  1.00  0.00     0.029 A 
ATOM     41  N   UNL A   1      43.016  27.053  27.931  1.00  0.00    -0.354 N 
ATOM     42  C   UNL A   1      44.640  31.018  28.432  1.00  0.00     0.074 A 
ATOM     43  C   UNL A   1      43.623  31.946  28.884  1.00  0.00     0.031 C 
ATOM     44  C   UNL A   1      41.420  25.486  27.898  1.00  0.00     0.029 A 
ATOM     45  C   UNL A   1      42.836  25.724  27.632  1.00  0.00     0.049 A 
ATOM     46  H   UNL A   1      43.885  27.509  27.860  1.00  0.00     0.167 HD
ATOM     47  C   UNL A   1      45.935  31.353  28.208  1.00  0.00     0.037 A 
ATOM     48  C   UNL A   1      43.711  24.801  27.188  1.00  0.00     0.037 A 
ATOM     49  C   UNL A   1      46.952  30.427  27.785  1.00  0.00     0.049 A 
ATOM     50  C   UNL A   1      45.143  25.192  26.954  1.00  0.00     0.074 A 
ATOM     51  C   UNL A   1      48.299  30.661  27.574  1.00  0.00     0.029 A 
ATOM     52  N   UNL A   1      46.732  29.085  27.508  1.00  0.00    -0.354 N 
ATOM     53  N   UNL A   1      45.713  26.362  27.110  1.00  0.00    -0.248 NA
ATOM     54  C   UNL A   1      46.050  24.137  26.481  1.00  0.00     0.031 C 
ATOM     55  C   UNL A   1      48.892  29.464  27.151  1.00  0.00     0.029 A 
ATOM     56  C   UNL A   1      47.917  28.480  27.123  1.00  0.00     0.049 A 
ATOM     57  H   UNL A   1      45.862  28.630  27.576  1.00  0.00     0.167 HD
ATOM     58  C   UNL A   1      47.049  26.182  26.774  1.00  0.00     0.074 A 
ATOM     59  C   UNL A   1      47.205  24.787  26.412  1.00  0.00     0.031 C 
ATOM     60  C   UNL A   1      48.056  27.090  26.769  1.00  0.00     0.037 A 
BRANCH  47  61
ATOM     61  C   UNL A   1      46.314  32.791  28.420  1.00  0.00     0.058 A 
ATOM     62  C   UNL A   1      46.218  33.735  27.384  1.00  0.00     0.135 A 
ATOM     63  C   UNL A   1      46.785  33.232  29.667  1.00  0.00     0.135 A 
ATOM     64  F   UNL A   1      45.788  33.363  26.169  1.00  0.00    -0.206 F 
ATOM     65  C   UNL A   1      46.617  35.056  27.566  1.00  0.00     0.059 A 
ATOM     66  C   UNL A   1      47.167  34.553  29.877  1.00  0.00     0.059 A 
ATOM     67  F   UNL A   1      46.892  32.371  30.692  1.00  0.00    -0.206 F 
ATOM     68  C   UNL A   1      47.101  35.453  28.813  1.00  0.00     0.060 A 
BRANCH  68  69
ATOM     69  S   UNL A   1      47.647  37.160  29.030  1.00  0.00     0.124 S 
ATOM     70  O   UNL A   1      46.839  37.852  28.031  1.00  0.00    -0.237 OA
ATOM     71  O   UNL A   1      47.299  37.431  30.421  1.00  0.00    -0.237 OA
ATOM     72  O   UNL A   1      49.077  37.095  28.748  1.00  0.00    -0.744 OA
ENDBRANCH  68  69
ENDBRANCH  47  61
BRANCH  48  73
ATOM     73  C   UNL A   1      43.258  23.404  26.972  1.00  0.00     0.058 A 
ATOM     74  C   UNL A   1      43.085  22.904  25.674  1.00  0.00     0.135 A 
ATOM     75  C   UNL A   1      43.025  22.534  28.048  1.00  0.00     0.135 A 
ATOM     76  F   UNL A   1      43.290  23.701  24.615  1.00  0.00    -0.206 F 
ATOM     77  C   UNL A   1      42.695  21.588  25.447  1.00  0.00     0.059 A 
ATOM     78  C   UNL A   1      42.651  21.209  27.846  1.00  0.00     0.059 A 
ATOM     79  F   UNL A   1      43.191  22.965  29.308  1.00  0.00    -0.206 F 
ATOM     80  C   UNL A   1      42.484  20.747  26.541  1.00  0.00     0.060 A 
BRANCH  80  81
ATOM     81  S   UNL A   1      42.048  19.021  26.237  1.00  0.00     0.124 S 
ATOM     82  O   UNL A   1      42.322  18.415  27.534  1.00  0.00    -0.237 OA
ATOM     83  O   UNL A   1      40.639  19.117  25.863  1.00  0.00    -0.237 OA
ATOM     84  O   UNL A   1      42.948  18.636  25.154  1.00  0.00    -0.744 OA
ENDBRANCH  80  81
ENDBRANCH  48  73
BRANCH  60  85
ATOM     85  C   UNL A   1      49.420  26.597  26.384  1.00  0.00     0.058 A 
ATOM     86  C   UNL A   1      49.909  26.737  25.077  1.00  0.00     0.135 A 
ATOM     87  C   UNL A   1      50.265  26.016  27.344  1.00  0.00     0.135 A 
ATOM     88  F   UNL A   1      49.137  27.279  24.121  1.00  0.00    -0.206 F 
ATOM     89  C   UNL A   1      51.185  26.304  24.728  1.00  0.00     0.059 A 
ATOM     90  C   UNL A   1      51.550  25.592  27.022  1.00  0.00     0.059 A 
ATOM     91  F   UNL A   1      49.845  25.865  28.610  1.00  0.00    -0.206 F 
ATOM     92  C   UNL A   1      51.997  25.729  25.708  1.00  0.00     0.060 A 
BRANCH  92  93
ATOM     93  S   UNL A   1      53.665  25.201  25.258  1.00  0.00     0.124 S 
ATOM     94  O   UNL A   1      54.470  25.883  26.266  1.00  0.00    -0.237 OA
ATOM     95  O   UNL A   1      53.584  23.750  25.388  1.00  0.00    -0.237 OA
ATOM     96  O   UNL A   1      53.817  25.693  23.892  1.00  0.00    -0.744 OA
ENDBRANCH  92  93
ENDBRANCH  60  85
ENDBRANCH  34  35
ENDBRANCH  26  29
ENDBRANCH  24  25
ENDBRANCH  23  24
ENDBRANCH   1  23
TORSDOF 18
ENDMDL
