MODEL 1
REMARK VINA RESULT:     -12.5      0.000      0.000
REMARK SMILES CCc1ccsc1-c1nnnn1C[C@H](CC(C)C)C(=O)NCCCNC(=O)c1ccc(-c2c3nc(c(-c4c(F)cc(S(=O)(=O)[O-])cc4F)c4ccc([nH]4)c(-c4c(F)cc(S(=O)(=O)[O-])cc4F)c4nc(c(-c5c(F)cc(S(=O)(=O)[O-])cc5F)c5ccc2[nH]5)C=C4)C=C3)cc1
REMARK SMILES IDX 22 1 21 2 19 3 20 4 14 6 13 7 12 8 8 9 9 10 10 11 11 12 7 13
REMARK SMILES IDX 3 14 4 15 5 16 6 17 2 18 1 19 15 20 16 21 17 22 18 23 23 24
REMARK SMILES IDX 24 25 25 26 26 27 27 29 28 30 29 31 93 32 30 33 92 34 31 35
REMARK SMILES IDX 32 36 33 37 86 38 34 39 91 40 85 41 87 42 35 43 90 44 84 45
REMARK SMILES IDX 83 46 36 48 70 49 49 50 69 51 50 52 53 53 68 54 88 55 51 56
REMARK SMILES IDX 52 57 67 59 89 60 54 61 37 62 38 63 47 64 39 65 40 66 46 67
REMARK SMILES IDX 48 68 41 69 42 70 43 71 44 72 45 73 71 74 72 75 81 76 73 77
REMARK SMILES IDX 74 78 80 79 82 80 75 81 76 82 77 83 78 84 79 85 55 86 56 87
REMARK SMILES IDX 65 88 57 89 58 90 64 91 66 92 59 93 60 94 61 95 62 96 63 97
REMARK H PARENT 21 5 25 28 87 47 53 58
REMARK Flexibility Score: inf
ROOT
ATOM      1  C   UNL A   1      31.940  29.878  25.624  1.00  0.00     0.117 C 
ENDROOT
BRANCH   1   2
ATOM      2  N   UNL A   1      32.997  29.805  24.645  1.00  0.00    -0.356 N 
ATOM      3  C   UNL A   1      33.205  28.813  23.728  1.00  0.00     0.224 C 
ATOM      4  O   UNL A   1      33.878  29.063  22.727  1.00  0.00    -0.275 OA
ATOM      5  H   UNL A   1      33.637  30.551  24.636  1.00  0.00     0.163 HD
BRANCH   3   6
ATOM      6  C   UNL A   1      32.626  27.414  23.942  1.00  0.00     0.100 C 
BRANCH   6   7
ATOM      7  C   UNL A   1      33.658  26.306  23.590  1.00  0.00     0.162 C 
BRANCH   7   8
ATOM      8  N   UNL A   1      33.447  25.467  22.431  1.00  0.00    -0.224 N 
ATOM      9  C   UNL A   1      33.427  24.093  22.291  1.00  0.00     0.192 A 
ATOM     10  N   UNL A   1      33.321  23.827  21.004  1.00  0.00    -0.108 NA
ATOM     11  N   UNL A   1      33.165  25.032  20.370  1.00  0.00    -0.023 NA
ATOM     12  N   UNL A   1      33.188  26.033  21.236  1.00  0.00    -0.045 NA
BRANCH   9  13
ATOM     13  C   UNL A   1      33.571  23.103  23.320  1.00  0.00     0.077 A 
ATOM     14  C   UNL A   1      34.730  22.496  23.786  1.00  0.00    -0.026 A 
ATOM     15  C   UNL A   1      34.419  21.414  24.680  1.00  0.00     0.016 A 
ATOM     16  C   UNL A   1      33.076  21.334  24.971  1.00  0.00     0.066 A 
ATOM     17  S   UNL A   1      32.203  22.603  24.236  1.00  0.00    -0.140 S 
BRANCH  14  18
ATOM     18  C   UNL A   1      36.135  22.906  23.442  1.00  0.00     0.034 C 
ATOM     19  C   UNL A   1      37.036  22.889  24.672  1.00  0.00     0.009 C 
ENDBRANCH  14  18
ENDBRANCH   9  13
ENDBRANCH   7   8
ENDBRANCH   6   7
BRANCH   6  20
ATOM     20  C   UNL A   1      31.196  27.363  23.364  1.00  0.00     0.018 C 
BRANCH  20  21
ATOM     21  C   UNL A   1      30.100  27.148  24.427  1.00  0.00    -0.017 C 
ATOM     22  C   UNL A   1      28.844  26.506  23.824  1.00  0.00     0.007 C 
ATOM     23  C   UNL A   1      30.641  26.244  25.538  1.00  0.00     0.007 C 
ENDBRANCH  20  21
ENDBRANCH   6  20
ENDBRANCH   3   6
ENDBRANCH   1   2
BRANCH   1  24
ATOM     24  C   UNL A   1      32.313  29.701  27.088  1.00  0.00     0.042 C 
BRANCH  24  25
ATOM     25  C   UNL A   1      33.796  29.906  27.320  1.00  0.00     0.118 C 
BRANCH  25  26
ATOM     26  N   UNL A   1      34.219  31.299  27.117  1.00  0.00    -0.352 N 
ATOM     27  C   UNL A   1      35.287  31.966  27.704  1.00  0.00     0.251 C 
ATOM     28  H   UNL A   1      33.678  31.825  26.485  1.00  0.00     0.163 HD
ATOM     29  O   UNL A   1      35.384  33.171  27.669  1.00  0.00    -0.269 OA
BRANCH  27  30
ATOM     30  C   UNL A   1      36.301  31.132  28.373  1.00  0.00     0.039 A 
ATOM     31  C   UNL A   1      36.436  29.776  28.073  1.00  0.00     0.014 A 
ATOM     32  C   UNL A   1      37.226  31.798  29.167  1.00  0.00     0.014 A 
ATOM     33  C   UNL A   1      37.595  29.121  28.482  1.00  0.00     0.010 A 
ATOM     34  C   UNL A   1      38.440  31.202  29.395  1.00  0.00     0.010 A 
ATOM     35  C   UNL A   1      38.621  29.853  29.102  1.00  0.00    -0.014 A 
BRANCH  35  36
ATOM     36  C   UNL A   1      39.940  29.260  29.332  1.00  0.00     0.031 A 
ATOM     37  C   UNL A   1      40.295  29.048  30.765  1.00  0.00     0.074 A 
ATOM     38  C   UNL A   1      40.685  28.727  28.337  1.00  0.00     0.049 A 
ATOM     39  N   UNL A   1      41.181  29.679  31.463  1.00  0.00    -0.248 NA
ATOM     40  C   UNL A   1      39.470  28.123  31.562  1.00  0.00     0.031 C 
ATOM     41  C   UNL A   1      40.328  28.577  26.919  1.00  0.00     0.029 A 
ATOM     42  N   UNL A   1      41.891  28.097  28.403  1.00  0.00    -0.354 N 
ATOM     43  C   UNL A   1      41.199  29.058  32.713  1.00  0.00     0.074 A 
ATOM     44  C   UNL A   1      39.997  28.272  32.780  1.00  0.00     0.031 C 
ATOM     45  C   UNL A   1      41.163  27.698  26.326  1.00  0.00     0.029 A 
ATOM     46  C   UNL A   1      42.231  27.390  27.255  1.00  0.00     0.049 A 
ATOM     47  H   UNL A   1      42.471  28.137  29.198  1.00  0.00     0.167 HD
ATOM     48  C   UNL A   1      42.333  29.035  33.472  1.00  0.00     0.037 A 
ATOM     49  C   UNL A   1      43.325  26.617  27.061  1.00  0.00     0.037 A 
ATOM     50  C   UNL A   1      43.310  29.959  32.949  1.00  0.00     0.049 A 
ATOM     51  C   UNL A   1      44.333  27.049  28.054  1.00  0.00     0.074 A 
ATOM     52  C   UNL A   1      43.400  31.326  32.797  1.00  0.00     0.029 A 
ATOM     53  N   UNL A   1      44.260  29.407  32.128  1.00  0.00    -0.354 N 
ATOM     54  N   UNL A   1      44.899  28.225  28.047  1.00  0.00    -0.248 NA
ATOM     55  C   UNL A   1      44.449  26.311  29.302  1.00  0.00     0.031 C 
ATOM     56  C   UNL A   1      44.155  31.525  31.603  1.00  0.00     0.029 A 
ATOM     57  C   UNL A   1      44.544  30.278  31.110  1.00  0.00     0.049 A 
ATOM     58  H   UNL A   1      44.674  28.520  32.250  1.00  0.00     0.167 HD
ATOM     59  C   UNL A   1      45.049  28.549  29.384  1.00  0.00     0.074 A 
ATOM     60  C   UNL A   1      44.910  27.283  30.095  1.00  0.00     0.031 C 
ATOM     61  C   UNL A   1      44.978  29.849  29.796  1.00  0.00     0.037 A 
BRANCH  48  62
ATOM     62  C   UNL A   1      42.752  27.903  34.396  1.00  0.00     0.058 A 
ATOM     63  C   UNL A   1      42.864  28.155  35.782  1.00  0.00     0.135 A 
ATOM     64  C   UNL A   1      43.331  26.691  33.958  1.00  0.00     0.135 A 
ATOM     65  F   UNL A   1      42.352  29.274  36.318  1.00  0.00    -0.206 F 
ATOM     66  C   UNL A   1      43.573  27.315  36.646  1.00  0.00     0.059 A 
ATOM     67  C   UNL A   1      43.994  25.814  34.812  1.00  0.00     0.059 A 
ATOM     68  F   UNL A   1      43.373  26.340  32.668  1.00  0.00    -0.206 F 
ATOM     69  C   UNL A   1      44.150  26.154  36.145  1.00  0.00     0.060 A 
BRANCH  69  70
ATOM     70  S   UNL A   1      45.155  25.121  37.225  1.00  0.00     0.124 S 
ATOM     71  O   UNL A   1      46.496  25.615  36.935  1.00  0.00    -0.237 OA
ATOM     72  O   UNL A   1      44.621  25.450  38.542  1.00  0.00    -0.237 OA
ATOM     73  O   UNL A   1      44.866  23.768  36.759  1.00  0.00    -0.744 OA
ENDBRANCH  69  70
ENDBRANCH  48  62
BRANCH  49  74
ATOM     74  C   UNL A   1      43.483  25.391  26.242  1.00  0.00     0.058 A 
ATOM     75  C   UNL A   1      44.540  25.267  25.323  1.00  0.00     0.135 A 
ATOM     76  C   UNL A   1      42.788  24.208  26.562  1.00  0.00     0.135 A 
ATOM     77  F   UNL A   1      45.255  26.345  24.967  1.00  0.00    -0.206 F 
ATOM     78  C   UNL A   1      44.937  24.029  24.811  1.00  0.00     0.059 A 
ATOM     79  C   UNL A   1      43.162  22.963  26.058  1.00  0.00     0.059 A 
ATOM     80  F   UNL A   1      41.787  24.219  27.456  1.00  0.00    -0.206 F 
ATOM     81  C   UNL A   1      44.259  22.877  25.208  1.00  0.00     0.060 A 
BRANCH  81  82
ATOM     82  S   UNL A   1      44.907  21.261  24.717  1.00  0.00     0.124 S 
ATOM     83  O   UNL A   1      46.319  21.383  25.066  1.00  0.00    -0.237 OA
ATOM     84  O   UNL A   1      44.124  20.350  25.544  1.00  0.00    -0.237 OA
ATOM     85  O   UNL A   1      44.621  21.202  23.287  1.00  0.00    -0.744 OA
ENDBRANCH  81  82
ENDBRANCH  49  74
BRANCH  61  86
ATOM     86  C   UNL A   1      45.198  30.919  28.759  1.00  0.00     0.058 A 
ATOM     87  C   UNL A   1      44.185  31.553  28.020  1.00  0.00     0.135 A 
ATOM     88  C   UNL A   1      46.508  31.392  28.588  1.00  0.00     0.135 A 
ATOM     89  F   UNL A   1      42.897  31.228  28.191  1.00  0.00    -0.206 F 
ATOM     90  C   UNL A   1      44.469  32.579  27.115  1.00  0.00     0.059 A 
ATOM     91  C   UNL A   1      46.810  32.434  27.718  1.00  0.00     0.059 A 
ATOM     92  F   UNL A   1      47.513  30.865  29.308  1.00  0.00    -0.206 F 
ATOM     93  C   UNL A   1      45.787  33.012  26.971  1.00  0.00     0.060 A 
BRANCH  93  94
ATOM     94  S   UNL A   1      46.150  34.378  25.846  1.00  0.00     0.124 S 
ATOM     95  O   UNL A   1      45.279  34.084  24.714  1.00  0.00    -0.237 OA
ATOM     96  O   UNL A   1      45.787  35.549  26.639  1.00  0.00    -0.237 OA
ATOM     97  O   UNL A   1      47.581  34.234  25.586  1.00  0.00    -0.744 OA
ENDBRANCH  93  94
ENDBRANCH  61  86
ENDBRANCH  35  36
ENDBRANCH  27  30
ENDBRANCH  25  26
ENDBRANCH  24  25
ENDBRANCH   1  24
TORSDOF 19
ENDMDL
MODEL 2
REMARK VINA RESULT:     -11.9      1.442      2.149
REMARK SMILES CCc1ccsc1-c1nnnn1C[C@H](CC(C)C)C(=O)NCCCNC(=O)c1ccc(-c2c3nc(c(-c4c(F)cc(S(=O)(=O)[O-])cc4F)c4ccc([nH]4)c(-c4c(F)cc(S(=O)(=O)[O-])cc4F)c4nc(c(-c5c(F)cc(S(=O)(=O)[O-])cc5F)c5ccc2[nH]5)C=C4)C=C3)cc1
REMARK SMILES IDX 22 1 21 2 19 3 20 4 14 6 13 7 12 8 8 9 9 10 10 11 11 12 7 13
REMARK SMILES IDX 3 14 4 15 5 16 6 17 2 18 1 19 15 20 16 21 17 22 18 23 23 24
REMARK SMILES IDX 24 25 25 26 26 27 27 29 28 30 29 31 93 32 30 33 92 34 31 35
REMARK SMILES IDX 32 36 33 37 86 38 34 39 91 40 85 41 87 42 35 43 90 44 84 45
REMARK SMILES IDX 83 46 36 48 70 49 49 50 69 51 50 52 53 53 68 54 88 55 51 56
REMARK SMILES IDX 52 57 67 59 89 60 54 61 37 62 38 63 47 64 39 65 40 66 46 67
REMARK SMILES IDX 48 68 41 69 42 70 43 71 44 72 45 73 71 74 72 75 81 76 73 77
REMARK SMILES IDX 74 78 80 79 82 80 75 81 76 82 77 83 78 84 79 85 55 86 56 87
REMARK SMILES IDX 65 88 57 89 58 90 64 91 66 92 59 93 60 94 61 95 62 96 63 97
REMARK H PARENT 21 5 25 28 87 47 53 58
REMARK Flexibility Score: inf
ROOT
ATOM      1  C   UNL A   1      31.943  28.700  26.243  1.00  0.00     0.117 C 
ENDROOT
BRANCH   1   2
ATOM      2  N   UNL A   1      32.520  27.923  25.174  1.00  0.00    -0.356 N 
ATOM      3  C   UNL A   1      31.869  27.388  24.098  1.00  0.00     0.224 C 
ATOM      4  O   UNL A   1      32.520  27.104  23.092  1.00  0.00    -0.275 OA
ATOM      5  H   UNL A   1      33.489  27.761  25.224  1.00  0.00     0.163 HD
BRANCH   3   6
ATOM      6  C   UNL A   1      30.361  27.134  24.141  1.00  0.00     0.100 C 
BRANCH   6   7
ATOM      7  C   UNL A   1      30.038  25.619  24.267  1.00  0.00     0.162 C 
BRANCH   7   8
ATOM      8  N   UNL A   1      30.631  24.841  25.333  1.00  0.00    -0.224 N 
ATOM      9  C   UNL A   1      31.722  23.995  25.346  1.00  0.00     0.192 A 
ATOM     10  N   UNL A   1      31.772  23.432  26.537  1.00  0.00    -0.108 NA
ATOM     11  N   UNL A   1      30.782  24.014  27.285  1.00  0.00    -0.023 NA
ATOM     12  N   UNL A   1      30.116  24.913  26.576  1.00  0.00    -0.045 NA
BRANCH   9  13
ATOM     13  C   UNL A   1      32.614  23.694  24.262  1.00  0.00     0.077 A 
ATOM     14  C   UNL A   1      33.935  24.088  24.089  1.00  0.00    -0.026 A 
ATOM     15  C   UNL A   1      34.403  23.745  22.774  1.00  0.00     0.016 A 
ATOM     16  C   UNL A   1      33.495  22.991  22.065  1.00  0.00     0.066 A 
ATOM     17  S   UNL A   1      32.118  22.630  23.005  1.00  0.00    -0.140 S 
BRANCH  14  18
ATOM     18  C   UNL A   1      34.794  24.759  25.124  1.00  0.00     0.034 C 
ATOM     19  C   UNL A   1      35.638  23.745  25.888  1.00  0.00     0.009 C 
ENDBRANCH  14  18
ENDBRANCH   9  13
ENDBRANCH   7   8
ENDBRANCH   6   7
BRANCH   6  20
ATOM     20  C   UNL A   1      29.671  27.994  23.062  1.00  0.00     0.018 C 
BRANCH  20  21
ATOM     21  C   UNL A   1      28.877  29.189  23.627  1.00  0.00    -0.017 C 
ATOM     22  C   UNL A   1      29.713  30.475  23.628  1.00  0.00     0.007 C 
ATOM     23  C   UNL A   1      27.621  29.409  22.779  1.00  0.00     0.007 C 
ENDBRANCH  20  21
ENDBRANCH   6  20
ENDBRANCH   3   6
ENDBRANCH   1   2
BRANCH   1  24
ATOM     24  C   UNL A   1      32.352  30.161  26.362  1.00  0.00     0.042 C 
BRANCH  24  25
ATOM     25  C   UNL A   1      33.678  30.318  27.076  1.00  0.00     0.118 C 
BRANCH  25  26
ATOM     26  N   UNL A   1      33.630  31.307  28.162  1.00  0.00    -0.352 N 
ATOM     27  C   UNL A   1      34.618  31.615  29.088  1.00  0.00     0.251 C 
ATOM     28  H   UNL A   1      32.790  31.815  28.243  1.00  0.00     0.163 HD
ATOM     29  O   UNL A   1      34.379  32.247  30.091  1.00  0.00    -0.269 OA
BRANCH  27  30
ATOM     30  C   UNL A   1      35.979  31.133  28.788  1.00  0.00     0.039 A 
ATOM     31  C   UNL A   1      37.070  32.003  28.786  1.00  0.00     0.014 A 
ATOM     32  C   UNL A   1      36.143  29.757  28.697  1.00  0.00     0.014 A 
ATOM     33  C   UNL A   1      38.351  31.455  28.820  1.00  0.00     0.010 A 
ATOM     34  C   UNL A   1      37.389  29.232  28.923  1.00  0.00     0.010 A 
ATOM     35  C   UNL A   1      38.505  30.064  28.938  1.00  0.00    -0.014 A 
BRANCH  35  36
ATOM     36  C   UNL A   1      39.815  29.471  29.213  1.00  0.00     0.031 A 
ATOM     37  C   UNL A   1      40.110  29.231  30.656  1.00  0.00     0.074 A 
ATOM     38  C   UNL A   1      40.604  28.960  28.241  1.00  0.00     0.049 A 
ATOM     39  N   UNL A   1      40.962  29.850  31.404  1.00  0.00    -0.248 NA
ATOM     40  C   UNL A   1      39.254  28.288  31.398  1.00  0.00     0.031 C 
ATOM     41  C   UNL A   1      40.309  28.837  26.805  1.00  0.00     0.029 A 
ATOM     42  N   UNL A   1      41.808  28.332  28.346  1.00  0.00    -0.354 N 
ATOM     43  C   UNL A   1      40.929  29.205  32.640  1.00  0.00     0.074 A 
ATOM     44  C   UNL A   1      39.728  28.414  32.640  1.00  0.00     0.031 C 
ATOM     45  C   UNL A   1      41.172  27.972  26.232  1.00  0.00     0.029 A 
ATOM     46  C   UNL A   1      42.201  27.649  27.199  1.00  0.00     0.049 A 
ATOM     47  H   UNL A   1      42.354  28.358  29.165  1.00  0.00     0.167 HD
ATOM     48  C   UNL A   1      42.029  29.169  33.446  1.00  0.00     0.037 A 
ATOM     49  C   UNL A   1      43.305  26.883  27.038  1.00  0.00     0.037 A 
ATOM     50  C   UNL A   1      43.025  30.106  32.985  1.00  0.00     0.049 A 
ATOM     51  C   UNL A   1      44.268  27.298  28.081  1.00  0.00     0.074 A 
ATOM     52  C   UNL A   1      43.115  31.476  32.864  1.00  0.00     0.029 A 
ATOM     53  N   UNL A   1      44.011  29.573  32.194  1.00  0.00    -0.354 N 
ATOM     54  N   UNL A   1      44.829  28.475  28.122  1.00  0.00    -0.248 NA
ATOM     55  C   UNL A   1      44.332  26.535  29.319  1.00  0.00     0.031 C 
ATOM     56  C   UNL A   1      43.921  31.702  31.707  1.00  0.00     0.029 A 
ATOM     57  C   UNL A   1      44.334  30.465  31.207  1.00  0.00     0.049 A 
ATOM     58  H   UNL A   1      44.422  28.686  32.317  1.00  0.00     0.167 HD
ATOM     59  C   UNL A   1      44.920  28.773  29.471  1.00  0.00     0.074 A 
ATOM     60  C   UNL A   1      44.755  27.492  30.150  1.00  0.00     0.031 C 
ATOM     61  C   UNL A   1      44.826  30.064  29.905  1.00  0.00     0.037 A 
BRANCH  48  62
ATOM     62  C   UNL A   1      42.412  28.020  34.365  1.00  0.00     0.058 A 
ATOM     63  C   UNL A   1      42.480  28.249  35.758  1.00  0.00     0.135 A 
ATOM     64  C   UNL A   1      43.000  26.813  33.927  1.00  0.00     0.135 A 
ATOM     65  F   UNL A   1      41.955  29.362  36.296  1.00  0.00    -0.206 F 
ATOM     66  C   UNL A   1      43.155  27.392  36.631  1.00  0.00     0.059 A 
ATOM     67  C   UNL A   1      43.630  25.919  34.787  1.00  0.00     0.059 A 
ATOM     68  F   UNL A   1      43.083  26.483  32.633  1.00  0.00    -0.206 F 
ATOM     69  C   UNL A   1      43.743  26.236  36.130  1.00  0.00     0.060 A 
BRANCH  69  70
ATOM     70  S   UNL A   1      44.708  25.180  37.226  1.00  0.00     0.124 S 
ATOM     71  O   UNL A   1      44.529  23.875  36.603  1.00  0.00    -0.237 OA
ATOM     72  O   UNL A   1      46.039  25.767  37.117  1.00  0.00    -0.237 OA
ATOM     73  O   UNL A   1      44.055  25.358  38.520  1.00  0.00    -0.744 OA
ENDBRANCH  69  70
ENDBRANCH  48  62
BRANCH  49  74
ATOM     74  C   UNL A   1      43.502  25.674  26.202  1.00  0.00     0.058 A 
ATOM     75  C   UNL A   1      44.656  25.521  25.413  1.00  0.00     0.135 A 
ATOM     76  C   UNL A   1      42.716  24.521  26.395  1.00  0.00     0.135 A 
ATOM     77  F   UNL A   1      45.460  26.569  25.184  1.00  0.00    -0.206 F 
ATOM     78  C   UNL A   1      45.052  24.279  24.911  1.00  0.00     0.059 A 
ATOM     79  C   UNL A   1      43.089  23.272  25.897  1.00  0.00     0.059 A 
ATOM     80  F   UNL A   1      41.616  24.558  27.161  1.00  0.00    -0.206 F 
ATOM     81  C   UNL A   1      44.276  23.153  25.183  1.00  0.00     0.060 A 
BRANCH  81  82
ATOM     82  S   UNL A   1      44.901  21.520  24.719  1.00  0.00     0.124 S 
ATOM     83  O   UNL A   1      44.597  21.475  23.292  1.00  0.00    -0.237 OA
ATOM     84  O   UNL A   1      46.314  21.620  25.067  1.00  0.00    -0.237 OA
ATOM     85  O   UNL A   1      44.120  20.610  25.552  1.00  0.00    -0.744 OA
ENDBRANCH  81  82
ENDBRANCH  49  74
BRANCH  61  86
ATOM     86  C   UNL A   1      45.087  31.156  28.900  1.00  0.00     0.058 A 
ATOM     87  C   UNL A   1      46.357  31.576  28.469  1.00  0.00     0.135 A 
ATOM     88  C   UNL A   1      43.974  31.733  28.271  1.00  0.00     0.135 A 
ATOM     89  F   UNL A   1      47.472  31.011  28.951  1.00  0.00    -0.206 F 
ATOM     90  C   UNL A   1      46.511  32.560  27.490  1.00  0.00     0.059 A 
ATOM     91  C   UNL A   1      44.103  32.690  27.270  1.00  0.00     0.059 A 
ATOM     92  F   UNL A   1      42.733  31.333  28.598  1.00  0.00    -0.206 F 
ATOM     93  C   UNL A   1      45.376  33.111  26.895  1.00  0.00     0.060 A 
BRANCH  93  94
ATOM     94  S   UNL A   1      45.572  34.341  25.587  1.00  0.00     0.124 S 
ATOM     95  O   UNL A   1      44.761  33.779  24.513  1.00  0.00    -0.237 OA
ATOM     96  O   UNL A   1      45.049  35.554  26.209  1.00  0.00    -0.237 OA
ATOM     97  O   UNL A   1      47.013  34.350  25.342  1.00  0.00    -0.744 OA
ENDBRANCH  93  94
ENDBRANCH  61  86
ENDBRANCH  35  36
ENDBRANCH  27  30
ENDBRANCH  25  26
ENDBRANCH  24  25
ENDBRANCH   1  24
TORSDOF 19
ENDMDL
MODEL 3
REMARK VINA RESULT:     -11.2      5.017     11.990
REMARK SMILES CCc1ccsc1-c1nnnn1C[C@H](CC(C)C)C(=O)NCCCNC(=O)c1ccc(-c2c3nc(c(-c4c(F)cc(S(=O)(=O)[O-])cc4F)c4ccc([nH]4)c(-c4c(F)cc(S(=O)(=O)[O-])cc4F)c4nc(c(-c5c(F)cc(S(=O)(=O)[O-])cc5F)c5ccc2[nH]5)C=C4)C=C3)cc1
REMARK SMILES IDX 22 1 21 2 19 3 20 4 14 6 13 7 12 8 8 9 9 10 10 11 11 12 7 13
REMARK SMILES IDX 3 14 4 15 5 16 6 17 2 18 1 19 15 20 16 21 17 22 18 23 23 24
REMARK SMILES IDX 24 25 25 26 26 27 27 29 28 30 29 31 93 32 30 33 92 34 31 35
REMARK SMILES IDX 32 36 33 37 86 38 34 39 91 40 85 41 87 42 35 43 90 44 84 45
REMARK SMILES IDX 83 46 36 48 70 49 49 50 69 51 50 52 53 53 68 54 88 55 51 56
REMARK SMILES IDX 52 57 67 59 89 60 54 61 37 62 38 63 47 64 39 65 40 66 46 67
REMARK SMILES IDX 48 68 41 69 42 70 43 71 44 72 45 73 71 74 72 75 81 76 73 77
REMARK SMILES IDX 74 78 80 79 82 80 75 81 76 82 77 83 78 84 79 85 55 86 56 87
REMARK SMILES IDX 65 88 57 89 58 90 64 91 66 92 59 93 60 94 61 95 62 96 63 97
REMARK H PARENT 21 5 25 28 87 47 53 58
REMARK Flexibility Score: inf
ROOT
ATOM      1  C   UNL A   1      45.041  25.388  24.746  1.00  0.00     0.117 C 
ENDROOT
BRANCH   1   2
ATOM      2  N   UNL A   1      45.369  26.786  24.878  1.00  0.00    -0.356 N 
ATOM      3  C   UNL A   1      46.564  27.384  24.593  1.00  0.00     0.224 C 
ATOM      4  O   UNL A   1      46.583  28.596  24.375  1.00  0.00    -0.275 OA
ATOM      5  H   UNL A   1      44.653  27.374  25.210  1.00  0.00     0.163 HD
BRANCH   3   6
ATOM      6  C   UNL A   1      47.858  26.571  24.556  1.00  0.00     0.100 C 
BRANCH   6   7
ATOM      7  C   UNL A   1      48.863  27.041  25.643  1.00  0.00     0.162 C 
BRANCH   7   8
ATOM      8  N   UNL A   1      49.609  26.064  26.406  1.00  0.00    -0.224 N 
ATOM      9  C   UNL A   1      49.270  25.328  27.524  1.00  0.00     0.192 A 
ATOM     10  N   UNL A   1      50.347  24.672  27.908  1.00  0.00    -0.108 NA
ATOM     11  N   UNL A   1      51.310  24.919  26.965  1.00  0.00    -0.023 NA
ATOM     12  N   UNL A   1      50.853  25.723  26.017  1.00  0.00    -0.045 NA
BRANCH   9  13
ATOM     13  C   UNL A   1      48.014  25.313  28.219  1.00  0.00     0.077 A 
ATOM     14  C   UNL A   1      47.651  25.991  29.375  1.00  0.00    -0.026 A 
ATOM     15  C   UNL A   1      46.371  25.544  29.852  1.00  0.00     0.016 A 
ATOM     16  C   UNL A   1      45.755  24.671  28.983  1.00  0.00     0.066 A 
ATOM     17  S   UNL A   1      46.676  24.452  27.564  1.00  0.00    -0.140 S 
BRANCH  14  18
ATOM     18  C   UNL A   1      48.453  27.070  30.048  1.00  0.00     0.034 C 
ATOM     19  C   UNL A   1      48.686  26.755  31.520  1.00  0.00     0.009 C 
ENDBRANCH  14  18
ENDBRANCH   9  13
ENDBRANCH   7   8
ENDBRANCH   6   7
BRANCH   6  20
ATOM     20  C   UNL A   1      48.312  26.407  23.090  1.00  0.00     0.018 C 
BRANCH  20  21
ATOM     21  C   UNL A   1      49.203  27.558  22.579  1.00  0.00    -0.017 C 
ATOM     22  C   UNL A   1      50.673  27.135  22.478  1.00  0.00     0.007 C 
ATOM     23  C   UNL A   1      48.713  28.002  21.198  1.00  0.00     0.007 C 
ENDBRANCH  20  21
ENDBRANCH   6  20
ENDBRANCH   3   6
ENDBRANCH   1   2
BRANCH   1  24
ATOM     24  C   UNL A   1      43.602  24.967  25.005  1.00  0.00     0.042 C 
BRANCH  24  25
ATOM     25  C   UNL A   1      43.524  23.632  25.715  1.00  0.00     0.118 C 
BRANCH  25  26
ATOM     26  N   UNL A   1      42.327  22.860  25.354  1.00  0.00    -0.352 N 
ATOM     27  C   UNL A   1      41.090  22.846  25.986  1.00  0.00     0.251 C 
ATOM     28  H   UNL A   1      42.412  22.279  24.564  1.00  0.00     0.163 HD
ATOM     29  O   UNL A   1      40.270  21.985  25.768  1.00  0.00    -0.269 OA
BRANCH  27  30
ATOM     30  C   UNL A   1      40.824  23.937  26.941  1.00  0.00     0.039 A 
ATOM     31  C   UNL A   1      41.386  23.934  28.218  1.00  0.00     0.014 A 
ATOM     32  C   UNL A   1      40.148  25.045  26.445  1.00  0.00     0.014 A 
ATOM     33  C   UNL A   1      41.369  25.120  28.950  1.00  0.00     0.010 A 
ATOM     34  C   UNL A   1      40.306  26.247  27.085  1.00  0.00     0.010 A 
ATOM     35  C   UNL A   1      40.870  26.291  28.357  1.00  0.00    -0.014 A 
BRANCH  35  36
ATOM     36  C   UNL A   1      41.049  27.597  28.996  1.00  0.00     0.031 A 
ATOM     37  C   UNL A   1      42.150  28.431  28.430  1.00  0.00     0.074 A 
ATOM     38  C   UNL A   1      40.153  28.114  29.866  1.00  0.00     0.049 A 
ATOM     39  N   UNL A   1      43.276  28.736  28.984  1.00  0.00    -0.248 NA
ATOM     40  C   UNL A   1      42.052  28.859  27.024  1.00  0.00     0.031 C 
ATOM     41  C   UNL A   1      38.860  27.546  30.279  1.00  0.00     0.029 A 
ATOM     42  N   UNL A   1      40.153  29.324  30.490  1.00  0.00    -0.354 N 
ATOM     43  C   UNL A   1      43.918  29.602  28.098  1.00  0.00     0.074 A 
ATOM     44  C   UNL A   1      43.228  29.465  26.844  1.00  0.00     0.031 C 
ATOM     45  C   UNL A   1      38.109  28.500  30.869  1.00  0.00     0.029 A 
ATOM     46  C   UNL A   1      38.936  29.672  31.067  1.00  0.00     0.049 A 
ATOM     47  H   UNL A   1      40.948  29.904  30.529  1.00  0.00     0.167 HD
ATOM     48  C   UNL A   1      44.788  30.553  28.547  1.00  0.00     0.037 A 
ATOM     49  C   UNL A   1      38.624  30.834  31.686  1.00  0.00     0.037 A 
ATOM     50  C   UNL A   1      45.139  30.306  29.924  1.00  0.00     0.049 A 
ATOM     51  C   UNL A   1      39.902  31.454  32.099  1.00  0.00     0.074 A 
ATOM     52  C   UNL A   1      45.809  29.319  30.615  1.00  0.00     0.029 A 
ATOM     53  N   UNL A   1      44.420  31.017  30.851  1.00  0.00    -0.354 N 
ATOM     54  N   UNL A   1      40.699  30.942  32.996  1.00  0.00    -0.248 NA
ATOM     55  C   UNL A   1      40.501  32.464  31.240  1.00  0.00     0.031 C 
ATOM     56  C   UNL A   1      45.169  29.246  31.888  1.00  0.00     0.029 A 
ATOM     57  C   UNL A   1      44.177  30.228  31.943  1.00  0.00     0.049 A 
ATOM     58  H   UNL A   1      44.123  31.951  30.746  1.00  0.00     0.167 HD
ATOM     59  C   UNL A   1      41.973  31.230  32.539  1.00  0.00     0.074 A 
ATOM     60  C   UNL A   1      41.787  32.295  31.560  1.00  0.00     0.031 C 
ATOM     61  C   UNL A   1      43.010  30.377  32.787  1.00  0.00     0.037 A 
BRANCH  48  62
ATOM     62  C   UNL A   1      44.986  31.928  27.930  1.00  0.00     0.058 A 
ATOM     63  C   UNL A   1      46.244  32.256  27.376  1.00  0.00     0.135 A 
ATOM     64  C   UNL A   1      44.114  33.021  28.126  1.00  0.00     0.135 A 
ATOM     65  F   UNL A   1      47.159  31.302  27.141  1.00  0.00    -0.206 F 
ATOM     66  C   UNL A   1      46.636  33.574  27.122  1.00  0.00     0.059 A 
ATOM     67  C   UNL A   1      44.464  34.335  27.830  1.00  0.00     0.059 A 
ATOM     68  F   UNL A   1      42.916  32.890  28.707  1.00  0.00    -0.206 F 
ATOM     69  C   UNL A   1      45.741  34.609  27.371  1.00  0.00     0.060 A 
BRANCH  69  70
ATOM     70  S   UNL A   1      46.272  36.316  27.150  1.00  0.00     0.124 S 
ATOM     71  O   UNL A   1      47.028  36.546  28.375  1.00  0.00    -0.237 OA
ATOM     72  O   UNL A   1      47.052  36.234  25.920  1.00  0.00    -0.237 OA
ATOM     73  O   UNL A   1      45.013  37.046  27.039  1.00  0.00    -0.744 OA
ENDBRANCH  69  70
ENDBRANCH  48  62
BRANCH  49  74
ATOM     74  C   UNL A   1      37.329  31.554  31.746  1.00  0.00     0.058 A 
ATOM     75  C   UNL A   1      36.717  31.840  32.980  1.00  0.00     0.135 A 
ATOM     76  C   UNL A   1      36.825  32.240  30.623  1.00  0.00     0.135 A 
ATOM     77  F   UNL A   1      37.139  31.232  34.099  1.00  0.00    -0.206 F 
ATOM     78  C   UNL A   1      35.716  32.806  33.106  1.00  0.00     0.059 A 
ATOM     79  C   UNL A   1      35.823  33.204  30.724  1.00  0.00     0.059 A 
ATOM     80  F   UNL A   1      37.367  32.062  29.409  1.00  0.00    -0.206 F 
ATOM     81  C   UNL A   1      35.296  33.506  31.976  1.00  0.00     0.060 A 
BRANCH  81  82
ATOM     82  S   UNL A   1      34.161  34.901  32.175  1.00  0.00     0.124 S 
ATOM     83  O   UNL A   1      33.927  35.299  30.791  1.00  0.00    -0.237 OA
ATOM     84  O   UNL A   1      33.031  34.284  32.860  1.00  0.00    -0.237 OA
ATOM     85  O   UNL A   1      34.930  35.849  32.975  1.00  0.00    -0.744 OA
ENDBRANCH  81  82
ENDBRANCH  49  74
BRANCH  61  86
ATOM     86  C   UNL A   1      42.848  29.398  33.920  1.00  0.00     0.058 A 
ATOM     87  C   UNL A   1      43.058  29.688  35.279  1.00  0.00     0.135 A 
ATOM     88  C   UNL A   1      42.355  28.123  33.606  1.00  0.00     0.135 A 
ATOM     89  F   UNL A   1      43.440  30.910  35.675  1.00  0.00    -0.206 F 
ATOM     90  C   UNL A   1      42.832  28.736  36.276  1.00  0.00     0.059 A 
ATOM     91  C   UNL A   1      42.091  27.170  34.584  1.00  0.00     0.059 A 
ATOM     92  F   UNL A   1      42.080  27.803  32.330  1.00  0.00    -0.206 F 
ATOM     93  C   UNL A   1      42.348  27.478  35.917  1.00  0.00     0.060 A 
BRANCH  93  94
ATOM     94  S   UNL A   1      41.999  26.265  37.209  1.00  0.00     0.124 S 
ATOM     95  O   UNL A   1      40.654  26.642  37.629  1.00  0.00    -0.237 OA
ATOM     96  O   UNL A   1      42.107  24.997  36.492  1.00  0.00    -0.237 OA
ATOM     97  O   UNL A   1      43.050  26.504  38.194  1.00  0.00    -0.744 OA
ENDBRANCH  93  94
ENDBRANCH  61  86
ENDBRANCH  35  36
ENDBRANCH  27  30
ENDBRANCH  25  26
ENDBRANCH  24  25
ENDBRANCH   1  24
TORSDOF 19
ENDMDL
