MODEL 1
REMARK VINA RESULT:     -11.0      0.000      0.000
REMARK SMILES C[C@@H](C(=O)NCCCNC(=O)c1ccc(-c2c3nc(c(-c4c(F)cc(S(=O)(=O)[O-])cc4F)c4ccc([nH]4)c(-c4c(F)cc(S(=O)(=O)[O-])cc4F)c4nc(c(-c5c(F)cc(S(=O)(=O)[O-])cc5F)c5ccc2[nH]5)C=C4)C=C3)cc1)c1ccc(Cc2ccco2)cc1F
REMARK SMILES IDX 7 1 6 2 5 3 3 4 4 5 2 7 1 8 78 9 79 10 89 11 80 12 88 13
REMARK SMILES IDX 90 14 81 15 82 16 83 17 84 18 87 19 85 20 86 21 8 22 9 23
REMARK SMILES IDX 10 24 11 26 12 27 13 28 77 29 14 30 76 31 15 32 16 33 17 34
REMARK SMILES IDX 70 35 18 36 75 37 69 38 71 39 19 40 74 41 68 42 67 43 20 45
REMARK SMILES IDX 54 46 33 47 53 48 34 49 37 50 52 51 72 52 35 53 36 54 51 56
REMARK SMILES IDX 73 57 38 58 21 59 22 60 31 61 23 62 24 63 30 64 32 65 25 66
REMARK SMILES IDX 26 67 27 68 28 69 29 70 55 71 56 72 65 73 57 74 58 75 64 76
REMARK SMILES IDX 66 77 59 78 60 79 61 80 62 81 63 82 39 83 40 84 49 85 41 86
REMARK SMILES IDX 42 87 48 88 50 89 43 90 44 91 45 92 46 93 47 94
REMARK H PARENT 5 6 9 25 71 44 37 55
REMARK Flexibility Score: inf
ROOT
ATOM      1  C   UNL A   1      33.264  27.674  26.624  1.00  0.00     0.042 C 
ENDROOT
BRANCH   1   2
ATOM      2  C   UNL A   1      31.743  27.694  26.469  1.00  0.00     0.117 C 
BRANCH   2   3
ATOM      3  N   UNL A   1      31.162  26.419  26.841  1.00  0.00    -0.356 N 
ATOM      4  C   UNL A   1      30.868  25.335  26.066  1.00  0.00     0.227 C 
ATOM      5  O   UNL A   1      30.001  24.585  26.519  1.00  0.00    -0.274 OA
ATOM      6  H   UNL A   1      30.948  26.320  27.796  1.00  0.00     0.163 HD
BRANCH   4   7
ATOM      7  C   UNL A   1      31.580  25.127  24.717  1.00  0.00     0.108 C 
ATOM      8  C   UNL A   1      30.572  24.503  23.742  1.00  0.00     0.023 C 
BRANCH   7   9
ATOM      9  C   UNL A   1      32.879  24.309  24.746  1.00  0.00    -0.000 A 
ATOM     10  C   UNL A   1      33.019  23.084  25.408  1.00  0.00     0.008 A 
ATOM     11  C   UNL A   1      34.014  24.786  24.069  1.00  0.00     0.127 A 
ATOM     12  C   UNL A   1      34.198  22.338  25.325  1.00  0.00     0.005 A 
ATOM     13  C   UNL A   1      35.204  24.057  23.995  1.00  0.00     0.043 A 
ATOM     14  F   UNL A   1      33.978  25.983  23.464  1.00  0.00    -0.207 F 
ATOM     15  C   UNL A   1      35.307  22.811  24.619  1.00  0.00    -0.038 A 
BRANCH  15  16
ATOM     16  C   UNL A   1      36.566  21.980  24.516  1.00  0.00     0.111 C 
BRANCH  16  17
ATOM     17  C   UNL A   1      37.681  22.452  25.389  1.00  0.00     0.108 A 
ATOM     18  C   UNL A   1      37.933  23.622  26.078  1.00  0.00     0.046 A 
ATOM     19  O   UNL A   1      38.685  21.556  25.627  1.00  0.00    -0.469 OA
ATOM     20  C   UNL A   1      39.162  23.439  26.753  1.00  0.00     0.042 A 
ATOM     21  C   UNL A   1      39.575  22.165  26.451  1.00  0.00     0.195 A 
ENDBRANCH  16  17
ENDBRANCH  15  16
ENDBRANCH   7   9
ENDBRANCH   4   7
ENDBRANCH   2   3
ENDBRANCH   1   2
BRANCH   1  22
ATOM     22  C   UNL A   1      34.001  28.740  25.818  1.00  0.00     0.118 C 
BRANCH  22  23
ATOM     23  N   UNL A   1      33.727  30.088  26.288  1.00  0.00    -0.352 N 
ATOM     24  C   UNL A   1      34.319  30.800  27.301  1.00  0.00     0.251 C 
ATOM     25  H   UNL A   1      33.009  30.562  25.808  1.00  0.00     0.163 HD
ATOM     26  O   UNL A   1      33.810  31.857  27.673  1.00  0.00    -0.269 OA
BRANCH  24  27
ATOM     27  C   UNL A   1      35.544  30.296  27.959  1.00  0.00     0.039 A 
ATOM     28  C   UNL A   1      36.772  30.456  27.310  1.00  0.00     0.014 A 
ATOM     29  C   UNL A   1      35.489  29.654  29.199  1.00  0.00     0.014 A 
ATOM     30  C   UNL A   1      37.948  30.033  27.935  1.00  0.00     0.010 A 
ATOM     31  C   UNL A   1      36.668  29.302  29.854  1.00  0.00     0.010 A 
ATOM     32  C   UNL A   1      37.911  29.488  29.229  1.00  0.00    -0.014 A 
BRANCH  32  33
ATOM     33  C   UNL A   1      39.160  29.121  29.949  1.00  0.00     0.031 A 
ATOM     34  C   UNL A   1      39.580  29.878  31.180  1.00  0.00     0.074 A 
ATOM     35  C   UNL A   1      39.951  28.146  29.454  1.00  0.00     0.049 A 
ATOM     36  N   UNL A   1      40.668  29.755  31.895  1.00  0.00    -0.248 NA
ATOM     37  C   UNL A   1      38.669  30.932  31.655  1.00  0.00     0.031 C 
ATOM     38  C   UNL A   1      39.676  27.368  28.244  1.00  0.00     0.029 A 
ATOM     39  N   UNL A   1      41.154  27.653  29.896  1.00  0.00    -0.354 N 
ATOM     40  C   UNL A   1      40.581  30.717  32.893  1.00  0.00     0.074 A 
ATOM     41  C   UNL A   1      39.356  31.452  32.662  1.00  0.00     0.031 C 
ATOM     42  C   UNL A   1      40.668  26.484  28.053  1.00  0.00     0.029 A 
ATOM     43  C   UNL A   1      41.673  26.663  29.096  1.00  0.00     0.049 A 
ATOM     44  H   UNL A   1      41.602  27.977  30.710  1.00  0.00     0.167 HD
ATOM     45  C   UNL A   1      41.432  30.955  33.919  1.00  0.00     0.037 A 
ATOM     46  C   UNL A   1      42.834  25.984  29.181  1.00  0.00     0.037 A 
ATOM     47  C   UNL A   1      42.640  30.206  34.154  1.00  0.00     0.049 A 
ATOM     48  C   UNL A   1      43.773  26.278  30.321  1.00  0.00     0.074 A 
ATOM     49  C   UNL A   1      43.537  30.328  35.201  1.00  0.00     0.029 A 
ATOM     50  N   UNL A   1      43.125  29.202  33.328  1.00  0.00    -0.354 N 
ATOM     51  N   UNL A   1      43.638  27.145  31.297  1.00  0.00    -0.248 NA
ATOM     52  C   UNL A   1      45.019  25.501  30.375  1.00  0.00     0.031 C 
ATOM     53  C   UNL A   1      44.593  29.438  34.978  1.00  0.00     0.029 A 
ATOM     54  C   UNL A   1      44.325  28.717  33.826  1.00  0.00     0.049 A 
ATOM     55  H   UNL A   1      42.683  28.881  32.509  1.00  0.00     0.167 HD
ATOM     56  C   UNL A   1      44.767  26.996  32.096  1.00  0.00     0.074 A 
ATOM     57  C   UNL A   1      45.568  25.949  31.496  1.00  0.00     0.031 C 
ATOM     58  C   UNL A   1      45.108  27.667  33.224  1.00  0.00     0.037 A 
BRANCH  45  59
ATOM     59  C   UNL A   1      41.093  32.073  34.870  1.00  0.00     0.058 A 
ATOM     60  C   UNL A   1      40.311  31.859  36.016  1.00  0.00     0.135 A 
ATOM     61  C   UNL A   1      41.598  33.367  34.657  1.00  0.00     0.135 A 
ATOM     62  F   UNL A   1      39.791  30.646  36.264  1.00  0.00    -0.206 F 
ATOM     63  C   UNL A   1      40.016  32.891  36.900  1.00  0.00     0.059 A 
ATOM     64  C   UNL A   1      41.342  34.408  35.546  1.00  0.00     0.059 A 
ATOM     65  F   UNL A   1      42.353  33.630  33.579  1.00  0.00    -0.206 F 
ATOM     66  C   UNL A   1      40.538  34.163  36.657  1.00  0.00     0.060 A 
BRANCH  66  67
ATOM     67  S   UNL A   1      40.154  35.488  37.822  1.00  0.00     0.124 S 
ATOM     68  O   UNL A   1      41.310  35.436  38.712  1.00  0.00    -0.237 OA
ATOM     69  O   UNL A   1      40.077  36.656  36.951  1.00  0.00    -0.237 OA
ATOM     70  O   UNL A   1      38.888  35.065  38.413  1.00  0.00    -0.744 OA
ENDBRANCH  66  67
ENDBRANCH  45  59
BRANCH  46  71
ATOM     71  C   UNL A   1      43.173  24.953  28.161  1.00  0.00     0.058 A 
ATOM     72  C   UNL A   1      42.875  23.599  28.374  1.00  0.00     0.135 A 
ATOM     73  C   UNL A   1      43.794  25.302  26.951  1.00  0.00     0.135 A 
ATOM     74  F   UNL A   1      42.287  23.214  29.518  1.00  0.00    -0.206 F 
ATOM     75  C   UNL A   1      43.199  22.625  27.437  1.00  0.00     0.059 A 
ATOM     76  C   UNL A   1      44.101  24.348  25.985  1.00  0.00     0.059 A 
ATOM     77  F   UNL A   1      44.086  26.585  26.689  1.00  0.00    -0.206 F 
ATOM     78  C   UNL A   1      43.810  23.010  26.242  1.00  0.00     0.060 A 
BRANCH  78  79
ATOM     79  S   UNL A   1      44.187  21.742  25.014  1.00  0.00     0.124 S 
ATOM     80  O   UNL A   1      43.170  20.738  25.306  1.00  0.00    -0.237 OA
ATOM     81  O   UNL A   1      44.024  22.471  23.760  1.00  0.00    -0.237 OA
ATOM     82  O   UNL A   1      45.560  21.361  25.334  1.00  0.00    -0.744 OA
ENDBRANCH  78  79
ENDBRANCH  46  71
BRANCH  58  83
ATOM     83  C   UNL A   1      46.386  27.268  33.913  1.00  0.00     0.058 A 
ATOM     84  C   UNL A   1      46.421  26.246  34.874  1.00  0.00     0.135 A 
ATOM     85  C   UNL A   1      47.601  27.876  33.558  1.00  0.00     0.135 A 
ATOM     86  F   UNL A   1      45.287  25.638  35.256  1.00  0.00    -0.206 F 
ATOM     87  C   UNL A   1      47.614  25.855  35.475  1.00  0.00     0.059 A 
ATOM     88  C   UNL A   1      48.809  27.480  34.122  1.00  0.00     0.059 A 
ATOM     89  F   UNL A   1      47.625  28.853  32.638  1.00  0.00    -0.206 F 
ATOM     90  C   UNL A   1      48.804  26.473  35.087  1.00  0.00     0.060 A 
BRANCH  90  91
ATOM     91  S   UNL A   1      50.349  25.923  35.841  1.00  0.00     0.124 S 
ATOM     92  O   UNL A   1      49.901  24.785  36.636  1.00  0.00    -0.237 OA
ATOM     93  O   UNL A   1      51.166  25.598  34.675  1.00  0.00    -0.237 OA
ATOM     94  O   UNL A   1      50.790  27.086  36.604  1.00  0.00    -0.744 OA
ENDBRANCH  90  91
ENDBRANCH  58  83
ENDBRANCH  32  33
ENDBRANCH  24  27
ENDBRANCH  22  23
ENDBRANCH   1  22
TORSDOF 16
ENDMDL
MODEL 2
REMARK VINA RESULT:     -11.0      4.942      6.265
REMARK SMILES C[C@@H](C(=O)NCCCNC(=O)c1ccc(-c2c3nc(c(-c4c(F)cc(S(=O)(=O)[O-])cc4F)c4ccc([nH]4)c(-c4c(F)cc(S(=O)(=O)[O-])cc4F)c4nc(c(-c5c(F)cc(S(=O)(=O)[O-])cc5F)c5ccc2[nH]5)C=C4)C=C3)cc1)c1ccc(Cc2ccco2)cc1F
REMARK SMILES IDX 7 1 6 2 5 3 3 4 4 5 2 7 1 8 78 9 79 10 89 11 80 12 88 13
REMARK SMILES IDX 90 14 81 15 82 16 83 17 84 18 87 19 85 20 86 21 8 22 9 23
REMARK SMILES IDX 10 24 11 26 12 27 13 28 77 29 14 30 76 31 15 32 16 33 17 34
REMARK SMILES IDX 70 35 18 36 75 37 69 38 71 39 19 40 74 41 68 42 67 43 20 45
REMARK SMILES IDX 54 46 33 47 53 48 34 49 37 50 52 51 72 52 35 53 36 54 51 56
REMARK SMILES IDX 73 57 38 58 21 59 22 60 31 61 23 62 24 63 30 64 32 65 25 66
REMARK SMILES IDX 26 67 27 68 28 69 29 70 55 71 56 72 65 73 57 74 58 75 64 76
REMARK SMILES IDX 66 77 59 78 60 79 61 80 62 81 63 82 39 83 40 84 49 85 41 86
REMARK SMILES IDX 42 87 48 88 50 89 43 90 44 91 45 92 46 93 47 94
REMARK H PARENT 5 6 9 25 71 44 37 55
REMARK Flexibility Score: inf
ROOT
ATOM      1  C   UNL A   1      34.329  30.667  27.279  1.00  0.00     0.042 C 
ENDROOT
BRANCH   1   2
ATOM      2  C   UNL A   1      34.336  29.158  27.028  1.00  0.00     0.117 C 
BRANCH   2   3
ATOM      3  N   UNL A   1      33.221  28.512  27.691  1.00  0.00    -0.356 N 
ATOM      4  C   UNL A   1      32.138  27.876  27.158  1.00  0.00     0.227 C 
ATOM      5  O   UNL A   1      31.149  27.816  27.891  1.00  0.00    -0.274 OA
ATOM      6  H   UNL A   1      33.248  28.537  28.674  1.00  0.00     0.163 HD
BRANCH   4   7
ATOM      7  C   UNL A   1      32.194  27.313  25.725  1.00  0.00     0.108 C 
ATOM      8  C   UNL A   1      30.753  27.076  25.255  1.00  0.00     0.023 C 
BRANCH   7   9
ATOM      9  C   UNL A   1      33.044  26.053  25.516  1.00  0.00    -0.000 A 
ATOM     10  C   UNL A   1      34.081  25.954  24.580  1.00  0.00     0.008 A 
ATOM     11  C   UNL A   1      32.800  24.913  26.300  1.00  0.00     0.127 A 
ATOM     12  C   UNL A   1      34.884  24.812  24.495  1.00  0.00     0.005 A 
ATOM     13  C   UNL A   1      33.584  23.759  26.210  1.00  0.00     0.043 A 
ATOM     14  F   UNL A   1      31.783  24.908  27.175  1.00  0.00    -0.207 F 
ATOM     15  C   UNL A   1      34.648  23.699  25.307  1.00  0.00    -0.038 A 
BRANCH  15  16
ATOM     16  C   UNL A   1      35.542  22.482  25.221  1.00  0.00     0.111 C 
BRANCH  16  17
ATOM     17  C   UNL A   1      36.933  22.712  25.710  1.00  0.00     0.108 A 
ATOM     18  C   UNL A   1      38.108  21.988  25.643  1.00  0.00     0.046 A 
ATOM     19  O   UNL A   1      37.165  23.903  26.339  1.00  0.00    -0.469 OA
ATOM     20  C   UNL A   1      39.102  22.767  26.279  1.00  0.00     0.042 A 
ATOM     21  C   UNL A   1      38.479  23.923  26.680  1.00  0.00     0.195 A 
ENDBRANCH  16  17
ENDBRANCH  15  16
ENDBRANCH   7   9
ENDBRANCH   4   7
ENDBRANCH   2   3
ENDBRANCH   1   2
BRANCH   1  22
ATOM     22  C   UNL A   1      35.530  31.189  28.062  1.00  0.00     0.118 C 
BRANCH  22  23
ATOM     23  N   UNL A   1      35.398  30.983  29.495  1.00  0.00    -0.352 N 
ATOM     24  C   UNL A   1      36.292  30.447  30.388  1.00  0.00     0.251 C 
ATOM     25  H   UNL A   1      34.540  31.270  29.883  1.00  0.00     0.163 HD
ATOM     26  O   UNL A   1      35.916  30.177  31.529  1.00  0.00    -0.269 OA
BRANCH  24  27
ATOM     27  C   UNL A   1      37.689  30.175  29.984  1.00  0.00     0.039 A 
ATOM     28  C   UNL A   1      38.671  30.081  30.975  1.00  0.00     0.014 A 
ATOM     29  C   UNL A   1      38.038  30.026  28.639  1.00  0.00     0.014 A 
ATOM     30  C   UNL A   1      39.988  29.774  30.620  1.00  0.00     0.010 A 
ATOM     31  C   UNL A   1      39.334  29.646  28.295  1.00  0.00     0.010 A 
ATOM     32  C   UNL A   1      40.324  29.515  29.281  1.00  0.00    -0.014 A 
BRANCH  32  33
ATOM     33  C   UNL A   1      41.697  29.093  28.897  1.00  0.00     0.031 A 
ATOM     34  C   UNL A   1      42.816  30.100  28.847  1.00  0.00     0.074 A 
ATOM     35  C   UNL A   1      41.922  27.816  28.528  1.00  0.00     0.049 A 
ATOM     36  N   UNL A   1      44.056  29.937  28.464  1.00  0.00    -0.248 NA
ATOM     37  C   UNL A   1      42.491  31.475  29.257  1.00  0.00     0.031 C 
ATOM     38  C   UNL A   1      40.911  26.756  28.492  1.00  0.00     0.029 A 
ATOM     39  N   UNL A   1      43.068  27.192  28.099  1.00  0.00    -0.354 N 
ATOM     40  C   UNL A   1      44.656  31.186  28.574  1.00  0.00     0.074 A 
ATOM     41  C   UNL A   1      43.630  32.108  29.011  1.00  0.00     0.031 C 
ATOM     42  C   UNL A   1      41.485  25.613  28.085  1.00  0.00     0.029 A 
ATOM     43  C   UNL A   1      42.891  25.865  27.785  1.00  0.00     0.049 A 
ATOM     44  H   UNL A   1      43.935  27.652  28.024  1.00  0.00     0.167 HD
ATOM     45  C   UNL A   1      45.946  31.530  28.350  1.00  0.00     0.037 A 
ATOM     46  C   UNL A   1      43.756  24.956  27.295  1.00  0.00     0.037 A 
ATOM     47  C   UNL A   1      46.966  30.602  27.934  1.00  0.00     0.049 A 
ATOM     48  C   UNL A   1      45.182  25.366  27.037  1.00  0.00     0.074 A 
ATOM     49  C   UNL A   1      48.317  30.838  27.740  1.00  0.00     0.029 A 
ATOM     50  N   UNL A   1      46.750  29.264  27.638  1.00  0.00    -0.354 N 
ATOM     51  N   UNL A   1      45.748  26.536  27.216  1.00  0.00    -0.248 NA
ATOM     52  C   UNL A   1      46.089  24.334  26.516  1.00  0.00     0.031 C 
ATOM     53  C   UNL A   1      48.905  29.659  27.274  1.00  0.00     0.029 A 
ATOM     54  C   UNL A   1      47.936  28.670  27.235  1.00  0.00     0.049 A 
ATOM     55  H   UNL A   1      45.882  28.803  27.704  1.00  0.00     0.167 HD
ATOM     56  C   UNL A   1      47.082  26.373  26.856  1.00  0.00     0.074 A 
ATOM     57  C   UNL A   1      47.241  24.988  26.463  1.00  0.00     0.031 C 
ATOM     58  C   UNL A   1      48.083  27.287  26.854  1.00  0.00     0.037 A 
BRANCH  45  59
ATOM     59  C   UNL A   1      46.335  32.971  28.547  1.00  0.00     0.058 A 
ATOM     60  C   UNL A   1      46.788  33.453  29.786  1.00  0.00     0.135 A 
ATOM     61  C   UNL A   1      46.298  33.874  27.471  1.00  0.00     0.135 A 
ATOM     62  F   UNL A   1      46.833  32.640  30.854  1.00  0.00    -0.206 F 
ATOM     63  C   UNL A   1      47.163  34.782  29.958  1.00  0.00     0.059 A 
ATOM     64  C   UNL A   1      46.699  35.199  27.612  1.00  0.00     0.059 A 
ATOM     65  F   UNL A   1      45.874  33.469  26.263  1.00  0.00    -0.206 F 
ATOM     66  C   UNL A   1      47.117  35.648  28.863  1.00  0.00     0.060 A 
BRANCH  66  67
ATOM     67  S   UNL A   1      47.617  37.366  29.104  1.00  0.00     0.124 S 
ATOM     68  O   UNL A   1      48.071  37.344  30.492  1.00  0.00    -0.237 OA
ATOM     69  O   UNL A   1      48.662  37.529  28.099  1.00  0.00    -0.237 OA
ATOM     70  O   UNL A   1      46.390  38.116  28.857  1.00  0.00    -0.744 OA
ENDBRANCH  66  67
ENDBRANCH  45  59
BRANCH  46  71
ATOM     71  C   UNL A   1      43.303  23.564  27.023  1.00  0.00     0.058 A 
ATOM     72  C   UNL A   1      43.051  23.127  25.715  1.00  0.00     0.135 A 
ATOM     73  C   UNL A   1      43.118  22.642  28.066  1.00  0.00     0.135 A 
ATOM     74  F   UNL A   1      43.207  23.973  24.684  1.00  0.00    -0.206 F 
ATOM     75  C   UNL A   1      42.614  21.834  25.449  1.00  0.00     0.059 A 
ATOM     76  C   UNL A   1      42.710  21.334  27.822  1.00  0.00     0.059 A 
ATOM     77  F   UNL A   1      43.361  23.002  29.335  1.00  0.00    -0.206 F 
ATOM     78  C   UNL A   1      42.448  20.943  26.511  1.00  0.00     0.060 A 
BRANCH  78  79
ATOM     79  S   UNL A   1      41.920  19.255  26.149  1.00  0.00     0.124 S 
ATOM     80  O   UNL A   1      42.694  18.955  24.950  1.00  0.00    -0.237 OA
ATOM     81  O   UNL A   1      42.318  18.544  27.361  1.00  0.00    -0.237 OA
ATOM     82  O   UNL A   1      40.480  19.387  25.955  1.00  0.00    -0.744 OA
ENDBRANCH  78  79
ENDBRANCH  46  71
BRANCH  58  83
ATOM     83  C   UNL A   1      49.455  26.817  26.448  1.00  0.00     0.058 A 
ATOM     84  C   UNL A   1      50.297  26.134  27.339  1.00  0.00     0.135 A 
ATOM     85  C   UNL A   1      49.905  27.000  25.131  1.00  0.00     0.135 A 
ATOM     86  F   UNL A   1      49.919  25.939  28.612  1.00  0.00    -0.206 F 
ATOM     87  C   UNL A   1      51.546  25.666  26.942  1.00  0.00     0.059 A 
ATOM     88  C   UNL A   1      51.136  26.514  24.704  1.00  0.00     0.059 A 
ATOM     89  F   UNL A   1      49.135  27.641  24.236  1.00  0.00    -0.206 F 
ATOM     90  C   UNL A   1      51.954  25.855  25.621  1.00  0.00     0.060 A 
BRANCH  90  91
ATOM     91  S   UNL A   1      53.557  25.201  25.109  1.00  0.00     0.124 S 
ATOM     92  O   UNL A   1      54.465  25.909  26.006  1.00  0.00    -0.237 OA
ATOM     93  O   UNL A   1      53.406  23.771  25.361  1.00  0.00    -0.237 OA
ATOM     94  O   UNL A   1      53.646  25.579  23.702  1.00  0.00    -0.744 OA
ENDBRANCH  90  91
ENDBRANCH  58  83
ENDBRANCH  32  33
ENDBRANCH  24  27
ENDBRANCH  22  23
ENDBRANCH   1  22
TORSDOF 16
ENDMDL
MODEL 3
REMARK VINA RESULT:     -10.9      3.585      6.301
REMARK SMILES C[C@@H](C(=O)NCCCNC(=O)c1ccc(-c2c3nc(c(-c4c(F)cc(S(=O)(=O)[O-])cc4F)c4ccc([nH]4)c(-c4c(F)cc(S(=O)(=O)[O-])cc4F)c4nc(c(-c5c(F)cc(S(=O)(=O)[O-])cc5F)c5ccc2[nH]5)C=C4)C=C3)cc1)c1ccc(Cc2ccco2)cc1F
REMARK SMILES IDX 7 1 6 2 5 3 3 4 4 5 2 7 1 8 78 9 79 10 89 11 80 12 88 13
REMARK SMILES IDX 90 14 81 15 82 16 83 17 84 18 87 19 85 20 86 21 8 22 9 23
REMARK SMILES IDX 10 24 11 26 12 27 13 28 77 29 14 30 76 31 15 32 16 33 17 34
REMARK SMILES IDX 70 35 18 36 75 37 69 38 71 39 19 40 74 41 68 42 67 43 20 45
REMARK SMILES IDX 54 46 33 47 53 48 34 49 37 50 52 51 72 52 35 53 36 54 51 56
REMARK SMILES IDX 73 57 38 58 21 59 22 60 31 61 23 62 24 63 30 64 32 65 25 66
REMARK SMILES IDX 26 67 27 68 28 69 29 70 55 71 56 72 65 73 57 74 58 75 64 76
REMARK SMILES IDX 66 77 59 78 60 79 61 80 62 81 63 82 39 83 40 84 49 85 41 86
REMARK SMILES IDX 42 87 48 88 50 89 43 90 44 91 45 92 46 93 47 94
REMARK H PARENT 5 6 9 25 71 44 37 55
REMARK Flexibility Score: inf
ROOT
ATOM      1  C   UNL A   1      35.247  33.449  29.398  1.00  0.00     0.042 C 
ENDROOT
BRANCH   1   2
ATOM      2  C   UNL A   1      36.730  33.695  29.683  1.00  0.00     0.117 C 
BRANCH   2   3
ATOM      3  N   UNL A   1      36.905  34.533  30.853  1.00  0.00    -0.356 N 
ATOM      4  C   UNL A   1      36.543  34.309  32.150  1.00  0.00     0.227 C 
ATOM      5  O   UNL A   1      36.399  35.321  32.838  1.00  0.00    -0.274 OA
ATOM      6  H   UNL A   1      37.353  35.393  30.688  1.00  0.00     0.163 HD
BRANCH   4   7
ATOM      7  C   UNL A   1      36.319  32.872  32.657  1.00  0.00     0.108 C 
ATOM      8  C   UNL A   1      35.077  32.879  33.559  1.00  0.00     0.023 C 
BRANCH   7   9
ATOM      9  C   UNL A   1      37.501  32.204  33.372  1.00  0.00    -0.000 A 
ATOM     10  C   UNL A   1      38.539  32.908  33.994  1.00  0.00     0.008 A 
ATOM     11  C   UNL A   1      37.573  30.803  33.433  1.00  0.00     0.127 A 
ATOM     12  C   UNL A   1      39.543  32.249  34.710  1.00  0.00     0.005 A 
ATOM     13  C   UNL A   1      38.583  30.133  34.130  1.00  0.00     0.043 A 
ATOM     14  F   UNL A   1      36.650  30.057  32.807  1.00  0.00    -0.207 F 
ATOM     15  C   UNL A   1      39.581  30.855  34.789  1.00  0.00    -0.038 A 
BRANCH  15  16
ATOM     16  C   UNL A   1      40.659  30.159  35.590  1.00  0.00     0.111 C 
BRANCH  16  17
ATOM     17  C   UNL A   1      41.331  29.041  34.865  1.00  0.00     0.108 A 
ATOM     18  C   UNL A   1      42.030  28.948  33.677  1.00  0.00     0.046 A 
ATOM     19  O   UNL A   1      41.317  27.822  35.484  1.00  0.00    -0.469 OA
ATOM     20  C   UNL A   1      42.446  27.602  33.555  1.00  0.00     0.042 A 
ATOM     21  C   UNL A   1      41.993  26.961  34.681  1.00  0.00     0.195 A 
ENDBRANCH  16  17
ENDBRANCH  15  16
ENDBRANCH   7   9
ENDBRANCH   4   7
ENDBRANCH   2   3
ENDBRANCH   1   2
BRANCH   1  22
ATOM     22  C   UNL A   1      34.929  33.087  27.950  1.00  0.00     0.118 C 
BRANCH  22  23
ATOM     23  N   UNL A   1      34.036  31.945  27.840  1.00  0.00    -0.352 N 
ATOM     24  C   UNL A   1      34.325  30.603  27.854  1.00  0.00     0.251 C 
ATOM     25  H   UNL A   1      33.082  32.167  27.742  1.00  0.00     0.163 HD
ATOM     26  O   UNL A   1      33.448  29.794  27.549  1.00  0.00    -0.269 OA
BRANCH  24  27
ATOM     27  C   UNL A   1      35.681  30.128  28.207  1.00  0.00     0.039 A 
ATOM     28  C   UNL A   1      36.675  30.136  27.224  1.00  0.00     0.014 A 
ATOM     29  C   UNL A   1      35.974  29.663  29.492  1.00  0.00     0.014 A 
ATOM     30  C   UNL A   1      37.975  29.740  27.548  1.00  0.00     0.010 A 
ATOM     31  C   UNL A   1      37.286  29.341  29.833  1.00  0.00     0.010 A 
ATOM     32  C   UNL A   1      38.302  29.376  28.865  1.00  0.00    -0.014 A 
BRANCH  32  33
ATOM     33  C   UNL A   1      39.699  29.044  29.251  1.00  0.00     0.031 A 
ATOM     34  C   UNL A   1      40.559  30.064  29.948  1.00  0.00     0.074 A 
ATOM     35  C   UNL A   1      40.216  27.845  28.912  1.00  0.00     0.049 A 
ATOM     36  N   UNL A   1      41.818  29.985  30.294  1.00  0.00    -0.248 NA
ATOM     37  C   UNL A   1      39.927  31.352  30.279  1.00  0.00     0.031 C 
ATOM     38  C   UNL A   1      39.498  26.787  28.196  1.00  0.00     0.029 A 
ATOM     39  N   UNL A   1      41.468  27.316  29.111  1.00  0.00    -0.354 N 
ATOM     40  C   UNL A   1      42.133  31.211  30.868  1.00  0.00     0.074 A 
ATOM     41  C   UNL A   1      40.947  32.035  30.779  1.00  0.00     0.031 C 
ATOM     42  C   UNL A   1      40.313  25.733  28.034  1.00  0.00     0.029 A 
ATOM     43  C   UNL A   1      41.624  26.053  28.590  1.00  0.00     0.049 A 
ATOM     44  H   UNL A   1      42.186  27.797  29.582  1.00  0.00     0.167 HD
ATOM     45  C   UNL A   1      43.298  31.607  31.435  1.00  0.00     0.037 A 
ATOM     46  C   UNL A   1      42.703  25.248  28.548  1.00  0.00     0.037 A 
ATOM     47  C   UNL A   1      44.469  30.775  31.537  1.00  0.00     0.049 A 
ATOM     48  C   UNL A   1      43.992  25.718  29.170  1.00  0.00     0.074 A 
ATOM     49  C   UNL A   1      45.677  31.061  32.149  1.00  0.00     0.029 A 
ATOM     50  N   UNL A   1      44.583  29.497  31.008  1.00  0.00    -0.354 N 
ATOM     51  N   UNL A   1      44.250  26.854  29.773  1.00  0.00    -0.248 NA
ATOM     52  C   UNL A   1      45.135  24.796  29.110  1.00  0.00     0.031 C 
ATOM     53  C   UNL A   1      46.540  29.981  31.941  1.00  0.00     0.029 A 
ATOM     54  C   UNL A   1      45.852  28.994  31.254  1.00  0.00     0.049 A 
ATOM     55  H   UNL A   1      43.869  29.017  30.530  1.00  0.00     0.167 HD
ATOM     56  C   UNL A   1      45.575  26.772  30.189  1.00  0.00     0.074 A 
ATOM     57  C   UNL A   1      46.061  25.470  29.780  1.00  0.00     0.031 C 
ATOM     58  C   UNL A   1      46.320  27.692  30.850  1.00  0.00     0.037 A 
BRANCH  45  59
ATOM     59  C   UNL A   1      43.370  33.006  31.989  1.00  0.00     0.058 A 
ATOM     60  C   UNL A   1      43.139  33.277  33.347  1.00  0.00     0.135 A 
ATOM     61  C   UNL A   1      43.721  34.085  31.159  1.00  0.00     0.135 A 
ATOM     62  F   UNL A   1      42.788  32.288  34.185  1.00  0.00    -0.206 F 
ATOM     63  C   UNL A   1      43.225  34.568  33.858  1.00  0.00     0.059 A 
ATOM     64  C   UNL A   1      43.844  35.379  31.655  1.00  0.00     0.059 A 
ATOM     65  F   UNL A   1      43.954  33.885  29.853  1.00  0.00    -0.206 F 
ATOM     66  C   UNL A   1      43.580  35.614  33.003  1.00  0.00     0.060 A 
BRANCH  66  67
ATOM     67  S   UNL A   1      43.697  37.281  33.686  1.00  0.00     0.124 S 
ATOM     68  O   UNL A   1      44.959  37.207  34.418  1.00  0.00    -0.237 OA
ATOM     69  O   UNL A   1      43.710  38.109  32.485  1.00  0.00    -0.237 OA
ATOM     70  O   UNL A   1      42.499  37.396  34.511  1.00  0.00    -0.744 OA
ENDBRANCH  66  67
ENDBRANCH  45  59
BRANCH  46  71
ATOM     71  C   UNL A   1      42.612  23.909  27.903  1.00  0.00     0.058 A 
ATOM     72  C   UNL A   1      42.708  23.768  26.511  1.00  0.00     0.135 A 
ATOM     73  C   UNL A   1      42.433  22.744  28.666  1.00  0.00     0.135 A 
ATOM     74  F   UNL A   1      42.873  24.853  25.738  1.00  0.00    -0.206 F 
ATOM     75  C   UNL A   1      42.610  22.526  25.895  1.00  0.00     0.059 A 
ATOM     76  C   UNL A   1      42.362  21.486  28.074  1.00  0.00     0.059 A 
ATOM     77  F   UNL A   1      42.352  22.819  30.003  1.00  0.00    -0.206 F 
ATOM     78  C   UNL A   1      42.440  21.389  26.687  1.00  0.00     0.060 A 
BRANCH  78  79
ATOM     79  S   UNL A   1      42.356  19.776  25.879  1.00  0.00     0.124 S 
ATOM     80  O   UNL A   1      40.963  19.734  25.450  1.00  0.00    -0.237 OA
ATOM     81  O   UNL A   1      43.348  19.914  24.816  1.00  0.00    -0.237 OA
ATOM     82  O   UNL A   1      42.717  18.847  26.945  1.00  0.00    -0.744 OA
ENDBRANCH  78  79
ENDBRANCH  46  71
BRANCH  58  83
ATOM     83  C   UNL A   1      47.732  27.316  31.210  1.00  0.00     0.058 A 
ATOM     84  C   UNL A   1      48.025  26.526  32.333  1.00  0.00     0.135 A 
ATOM     85  C   UNL A   1      48.801  27.700  30.384  1.00  0.00     0.135 A 
ATOM     86  F   UNL A   1      47.042  26.137  33.161  1.00  0.00    -0.206 F 
ATOM     87  C   UNL A   1      49.329  26.147  32.634  1.00  0.00     0.059 A 
ATOM     88  C   UNL A   1      50.109  27.308  30.649  1.00  0.00     0.059 A 
ATOM     89  F   UNL A   1      48.576  28.450  29.293  1.00  0.00    -0.206 F 
ATOM     90  C   UNL A   1      50.364  26.538  31.783  1.00  0.00     0.060 A 
BRANCH  90  91
ATOM     91  S   UNL A   1      52.045  26.000  32.161  1.00  0.00     0.124 S 
ATOM     92  O   UNL A   1      52.596  25.791  30.827  1.00  0.00    -0.237 OA
ATOM     93  O   UNL A   1      52.580  27.142  32.896  1.00  0.00    -0.237 OA
ATOM     94  O   UNL A   1      51.846  24.790  32.953  1.00  0.00    -0.744 OA
ENDBRANCH  90  91
ENDBRANCH  58  83
ENDBRANCH  32  33
ENDBRANCH  24  27
ENDBRANCH  22  23
ENDBRANCH   1  22
TORSDOF 16
ENDMDL
