MODEL 1
REMARK VINA RESULT:     -11.5      0.000      0.000
REMARK SMILES CC1(CNS(=O)(=O)Cc2ccc(C(=O)NCCCNC(=O)c3ccc(-c4c5nc(c(-c6c(F)cc(S(=O)(=O)[O-])cc6F)c6ccc([nH]6)c(-c6c(F)cc(S(=O)(=O)[O-])cc6F)c6nc(c(-c7c(F)cc(S(=O)(=O)[O-])cc7F)c7ccc4[nH]7)C=C6)C=C5)cc3)cc2)COC1
REMARK SMILES IDX 16 1 15 2 13 3 14 4 12 6 9 7 10 8 89 9 11 10 88 11 8 12 5 13
REMARK SMILES IDX 6 14 7 15 4 16 3 18 2 19 1 20 90 21 92 22 91 23 17 24 18 25
REMARK SMILES IDX 19 26 20 27 21 29 22 30 23 31 87 32 24 33 86 34 25 35 26 36
REMARK SMILES IDX 27 37 80 38 28 39 85 40 79 41 81 42 29 43 84 44 78 45 77 46
REMARK SMILES IDX 30 48 64 49 43 50 63 51 44 52 47 53 62 54 82 55 45 56 46 57
REMARK SMILES IDX 61 59 83 60 48 61 31 62 32 63 41 64 33 65 34 66 40 67 42 68
REMARK SMILES IDX 35 69 36 70 37 71 38 72 39 73 65 74 66 75 75 76 67 77 68 78
REMARK SMILES IDX 74 79 76 80 69 81 70 82 71 83 72 84 73 85 49 86 50 87 59 88
REMARK SMILES IDX 51 89 52 90 58 91 60 92 53 93 54 94 55 95 56 96 57 97
REMARK H PARENT 15 5 4 17 19 28 81 47 47 58
REMARK Flexibility Score: inf
ROOT
ATOM      1  C   UNL A   1      33.768  30.418  27.002  1.00  0.00     0.118 C 
ENDROOT
BRANCH   1   2
ATOM      2  N   UNL A   1      32.763  29.590  27.644  1.00  0.00    -0.352 N 
ATOM      3  C   UNL A   1      32.152  28.434  27.234  1.00  0.00     0.251 C 
ATOM      4  O   UNL A   1      31.394  27.861  28.016  1.00  0.00    -0.269 OA
ATOM      5  H   UNL A   1      32.470  29.916  28.525  1.00  0.00     0.163 HD
BRANCH   3   6
ATOM      6  C   UNL A   1      32.421  27.820  25.909  1.00  0.00     0.039 A 
ATOM      7  C   UNL A   1      33.055  26.575  23.462  1.00  0.00    -0.032 A 
ATOM      8  C   UNL A   1      33.939  26.504  24.545  1.00  0.00     0.005 A 
ATOM      9  C   UNL A   1      31.852  27.275  23.617  1.00  0.00     0.005 A 
ATOM     10  C   UNL A   1      33.621  27.116  25.760  1.00  0.00     0.014 A 
ATOM     11  C   UNL A   1      31.527  27.866  24.838  1.00  0.00     0.014 A 
BRANCH   7  12
ATOM     12  C   UNL A   1      33.367  25.892  22.159  1.00  0.00     0.189 C 
BRANCH  12  13
ATOM     13  S   UNL A   1      33.301  24.098  22.339  1.00  0.00     0.215 S 
ATOM     14  O   UNL A   1      33.275  23.511  21.013  1.00  0.00    -0.212 OA
ATOM     15  O   UNL A   1      32.307  23.735  23.321  1.00  0.00    -0.212 OA
BRANCH  13  16
ATOM     16  N   UNL A   1      34.794  23.697  23.018  1.00  0.00    -0.214 NA
ATOM     17  H   UNL A   1      35.446  23.537  22.250  1.00  0.00     0.141 HD
BRANCH  16  18
ATOM     18  C   UNL A   1      34.841  22.514  23.892  1.00  0.00     0.110 C 
BRANCH  18  19
ATOM     19  C   UNL A   1      35.462  22.805  25.262  1.00  0.00     0.028 C 
ATOM     20  C   UNL A   1      34.495  23.312  26.326  1.00  0.00     0.018 C 
ATOM     21  C   UNL A   1      36.719  23.689  25.102  1.00  0.00     0.170 C 
ATOM     22  C   UNL A   1      36.487  21.752  25.737  1.00  0.00     0.170 C 
ATOM     23  O   UNL A   1      37.581  22.528  25.182  1.00  0.00    -0.380 OA
ENDBRANCH  18  19
ENDBRANCH  16  18
ENDBRANCH  13  16
ENDBRANCH  12  13
ENDBRANCH   7  12
ENDBRANCH   3   6
ENDBRANCH   1   2
BRANCH   1  24
ATOM     24  C   UNL A   1      34.152  31.605  27.882  1.00  0.00     0.042 C 
BRANCH  24  25
ATOM     25  C   UNL A   1      35.541  31.471  28.500  1.00  0.00     0.118 C 
BRANCH  25  26
ATOM     26  N   UNL A   1      35.472  31.277  29.941  1.00  0.00    -0.352 N 
ATOM     27  C   UNL A   1      36.303  30.581  30.779  1.00  0.00     0.251 C 
ATOM     28  H   UNL A   1      34.709  31.716  30.383  1.00  0.00     0.163 HD
ATOM     29  O   UNL A   1      35.920  30.318  31.917  1.00  0.00    -0.269 OA
BRANCH  27  30
ATOM     30  C   UNL A   1      37.642  30.147  30.328  1.00  0.00     0.039 A 
ATOM     31  C   UNL A   1      37.900  30.085  28.956  1.00  0.00     0.014 A 
ATOM     32  C   UNL A   1      38.625  29.752  31.241  1.00  0.00     0.014 A 
ATOM     33  C   UNL A   1      39.153  29.668  28.504  1.00  0.00     0.010 A 
ATOM     34  C   UNL A   1      39.900  29.417  30.791  1.00  0.00     0.010 A 
ATOM     35  C   UNL A   1      40.173  29.360  29.419  1.00  0.00    -0.014 A 
BRANCH  35  36
ATOM     36  C   UNL A   1      41.532  28.992  28.945  1.00  0.00     0.031 A 
ATOM     37  C   UNL A   1      42.619  30.028  28.850  1.00  0.00     0.074 A 
ATOM     38  C   UNL A   1      41.766  27.726  28.547  1.00  0.00     0.049 A 
ATOM     39  N   UNL A   1      43.855  29.891  28.445  1.00  0.00    -0.248 NA
ATOM     40  C   UNL A   1      42.264  31.403  29.234  1.00  0.00     0.031 C 
ATOM     41  C   UNL A   1      40.770  26.651  28.529  1.00  0.00     0.029 A 
ATOM     42  N   UNL A   1      42.906  27.129  28.075  1.00  0.00    -0.354 N 
ATOM     43  C   UNL A   1      44.420  31.160  28.510  1.00  0.00     0.074 A 
ATOM     44  C   UNL A   1      43.376  32.062  28.944  1.00  0.00     0.031 C 
ATOM     45  C   UNL A   1      41.350  25.523  28.093  1.00  0.00     0.029 A 
ATOM     46  C   UNL A   1      42.744  25.800  27.762  1.00  0.00     0.049 A 
ATOM     47  H   UNL A   1      43.762  27.606  27.969  1.00  0.00     0.167 HD
ATOM     48  C   UNL A   1      45.697  31.532  28.250  1.00  0.00     0.037 A 
ATOM     49  C   UNL A   1      43.615  24.905  27.257  1.00  0.00     0.037 A 
ATOM     50  C   UNL A   1      46.730  30.619  27.834  1.00  0.00     0.049 A 
ATOM     51  C   UNL A   1      45.031  25.335  26.995  1.00  0.00     0.074 A 
ATOM     52  C   UNL A   1      48.074  30.877  27.622  1.00  0.00     0.029 A 
ATOM     53  N   UNL A   1      46.535  29.273  27.550  1.00  0.00    -0.354 N 
ATOM     54  N   UNL A   1      45.574  26.519  27.152  1.00  0.00    -0.248 NA
ATOM     55  C   UNL A   1      45.955  24.309  26.498  1.00  0.00     0.031 C 
ATOM     56  C   UNL A   1      48.676  29.705  27.152  1.00  0.00     0.029 A 
ATOM     57  C   UNL A   1      47.724  28.698  27.132  1.00  0.00     0.049 A 
ATOM     58  H   UNL A   1      45.677  28.798  27.634  1.00  0.00     0.167 HD
ATOM     59  C   UNL A   1      46.908  26.377  26.789  1.00  0.00     0.074 A 
ATOM     60  C   UNL A   1      47.092  24.986  26.426  1.00  0.00     0.031 C 
ATOM     61  C   UNL A   1      47.891  27.313  26.759  1.00  0.00     0.037 A 
BRANCH  48  62
ATOM     62  C   UNL A   1      46.043  32.992  28.393  1.00  0.00     0.058 A 
ATOM     63  C   UNL A   1      46.493  33.534  29.609  1.00  0.00     0.135 A 
ATOM     64  C   UNL A   1      45.945  33.858  27.292  1.00  0.00     0.135 A 
ATOM     65  F   UNL A   1      46.597  32.758  30.699  1.00  0.00    -0.206 F 
ATOM     66  C   UNL A   1      46.795  34.887  29.738  1.00  0.00     0.059 A 
ATOM     67  C   UNL A   1      46.274  35.207  27.389  1.00  0.00     0.059 A 
ATOM     68  F   UNL A   1      45.524  33.396  26.105  1.00  0.00    -0.206 F 
ATOM     69  C   UNL A   1      46.679  35.717  28.621  1.00  0.00     0.060 A 
BRANCH  69  70
ATOM     70  S   UNL A   1      47.063  37.470  28.808  1.00  0.00     0.124 S 
ATOM     71  O   UNL A   1      48.493  37.488  28.514  1.00  0.00    -0.237 OA
ATOM     72  O   UNL A   1      46.202  38.087  27.803  1.00  0.00    -0.237 OA
ATOM     73  O   UNL A   1      46.705  37.752  30.195  1.00  0.00    -0.744 OA
ENDBRANCH  69  70
ENDBRANCH  48  62
BRANCH  49  74
ATOM     74  C   UNL A   1      43.163  23.514  26.990  1.00  0.00     0.058 A 
ATOM     75  C   UNL A   1      42.851  23.087  25.692  1.00  0.00     0.135 A 
ATOM     76  C   UNL A   1      43.083  22.568  28.026  1.00  0.00     0.135 A 
ATOM     77  F   UNL A   1      42.906  23.955  24.669  1.00  0.00    -0.206 F 
ATOM     78  C   UNL A   1      42.473  21.775  25.427  1.00  0.00     0.059 A 
ATOM     79  C   UNL A   1      42.735  21.244  27.782  1.00  0.00     0.059 A 
ATOM     80  F   UNL A   1      43.389  22.921  29.284  1.00  0.00    -0.206 F 
ATOM     81  C   UNL A   1      42.427  20.858  26.478  1.00  0.00     0.060 A 
BRANCH  81  82
ATOM     82  S   UNL A   1      42.013  19.139  26.110  1.00  0.00     0.124 S 
ATOM     83  O   UNL A   1      42.946  18.837  25.030  1.00  0.00    -0.237 OA
ATOM     84  O   UNL A   1      42.277  18.481  27.386  1.00  0.00    -0.237 OA
ATOM     85  O   UNL A   1      40.606  19.206  25.728  1.00  0.00    -0.744 OA
ENDBRANCH  81  82
ENDBRANCH  49  74
BRANCH  61  86
ATOM     86  C   UNL A   1      49.261  26.859  26.333  1.00  0.00     0.058 A 
ATOM     87  C   UNL A   1      50.100  26.132  27.192  1.00  0.00     0.135 A 
ATOM     88  C   UNL A   1      49.727  27.126  25.034  1.00  0.00     0.135 A 
ATOM     89  F   UNL A   1      49.708  25.854  28.445  1.00  0.00    -0.206 F 
ATOM     90  C   UNL A   1      51.365  25.713  26.789  1.00  0.00     0.059 A 
ATOM     91  C   UNL A   1      50.974  26.688  24.601  1.00  0.00     0.059 A 
ATOM     92  F   UNL A   1      48.961  27.807  24.167  1.00  0.00    -0.206 F 
ATOM     93  C   UNL A   1      51.793  25.996  25.492  1.00  0.00     0.060 A 
BRANCH  93  94
ATOM     94  S   UNL A   1      53.428  25.432  24.978  1.00  0.00     0.124 S 
ATOM     95  O   UNL A   1      53.419  24.047  25.438  1.00  0.00    -0.237 OA
ATOM     96  O   UNL A   1      53.385  25.620  23.532  1.00  0.00    -0.237 OA
ATOM     97  O   UNL A   1      54.336  26.324  25.693  1.00  0.00    -0.744 OA
ENDBRANCH  93  94
ENDBRANCH  61  86
ENDBRANCH  35  36
ENDBRANCH  27  30
ENDBRANCH  25  26
ENDBRANCH  24  25
ENDBRANCH   1  24
TORSDOF 18
ENDMDL
MODEL 2
REMARK VINA RESULT:     -11.3      6.465     12.178
REMARK SMILES CC1(CNS(=O)(=O)Cc2ccc(C(=O)NCCCNC(=O)c3ccc(-c4c5nc(c(-c6c(F)cc(S(=O)(=O)[O-])cc6F)c6ccc([nH]6)c(-c6c(F)cc(S(=O)(=O)[O-])cc6F)c6nc(c(-c7c(F)cc(S(=O)(=O)[O-])cc7F)c7ccc4[nH]7)C=C6)C=C5)cc3)cc2)COC1
REMARK SMILES IDX 16 1 15 2 13 3 14 4 12 6 9 7 10 8 89 9 11 10 88 11 8 12 5 13
REMARK SMILES IDX 6 14 7 15 4 16 3 18 2 19 1 20 90 21 92 22 91 23 17 24 18 25
REMARK SMILES IDX 19 26 20 27 21 29 22 30 23 31 87 32 24 33 86 34 25 35 26 36
REMARK SMILES IDX 27 37 80 38 28 39 85 40 79 41 81 42 29 43 84 44 78 45 77 46
REMARK SMILES IDX 30 48 64 49 43 50 63 51 44 52 47 53 62 54 82 55 45 56 46 57
REMARK SMILES IDX 61 59 83 60 48 61 31 62 32 63 41 64 33 65 34 66 40 67 42 68
REMARK SMILES IDX 35 69 36 70 37 71 38 72 39 73 65 74 66 75 75 76 67 77 68 78
REMARK SMILES IDX 74 79 76 80 69 81 70 82 71 83 72 84 73 85 49 86 50 87 59 88
REMARK SMILES IDX 51 89 52 90 58 91 60 92 53 93 54 94 55 95 56 96 57 97
REMARK H PARENT 15 5 4 17 19 28 81 47 47 58
REMARK Flexibility Score: inf
ROOT
ATOM      1  C   UNL A   1      37.793  22.849  25.738  1.00  0.00     0.118 C 
ENDROOT
BRANCH   1   2
ATOM      2  N   UNL A   1      36.738  21.875  25.521  1.00  0.00    -0.352 N 
ATOM      3  C   UNL A   1      35.444  22.028  25.096  1.00  0.00     0.251 C 
ATOM      4  O   UNL A   1      34.769  21.019  24.894  1.00  0.00    -0.269 OA
ATOM      5  H   UNL A   1      36.997  20.945  25.712  1.00  0.00     0.163 HD
BRANCH   3   6
ATOM      6  C   UNL A   1      34.853  23.361  24.814  1.00  0.00     0.039 A 
ATOM      7  C   UNL A   1      33.744  25.923  24.437  1.00  0.00    -0.032 A 
ATOM      8  C   UNL A   1      33.897  25.398  25.726  1.00  0.00     0.005 A 
ATOM      9  C   UNL A   1      34.153  25.154  23.342  1.00  0.00     0.005 A 
ATOM     10  C   UNL A   1      34.453  24.131  25.913  1.00  0.00     0.014 A 
ATOM     11  C   UNL A   1      34.728  23.898  23.532  1.00  0.00     0.014 A 
BRANCH   7  12
ATOM     12  C   UNL A   1      33.179  27.301  24.223  1.00  0.00     0.189 C 
BRANCH  12  13
ATOM     13  S   UNL A   1      31.510  27.216  23.544  1.00  0.00     0.215 S 
ATOM     14  O   UNL A   1      30.707  26.386  24.421  1.00  0.00    -0.212 OA
ATOM     15  O   UNL A   1      31.565  26.946  22.127  1.00  0.00    -0.212 OA
BRANCH  13  16
ATOM     16  N   UNL A   1      30.924  28.792  23.695  1.00  0.00    -0.214 NA
ATOM     17  H   UNL A   1      30.105  28.756  24.303  1.00  0.00     0.141 HD
BRANCH  16  18
ATOM     18  C   UNL A   1      30.527  29.485  22.459  1.00  0.00     0.110 C 
BRANCH  18  19
ATOM     19  C   UNL A   1      29.251  30.318  22.621  1.00  0.00     0.028 C 
ATOM     20  C   UNL A   1      29.185  31.178  23.878  1.00  0.00     0.018 C 
ATOM     21  C   UNL A   1      28.004  29.429  22.418  1.00  0.00     0.170 C 
ATOM     22  C   UNL A   1      28.757  30.991  21.322  1.00  0.00     0.170 C 
ATOM     23  O   UNL A   1      27.878  29.871  21.044  1.00  0.00    -0.380 OA
ENDBRANCH  18  19
ENDBRANCH  16  18
ENDBRANCH  13  16
ENDBRANCH  12  13
ENDBRANCH   7  12
ENDBRANCH   3   6
ENDBRANCH   1   2
BRANCH   1  24
ATOM     24  C   UNL A   1      39.060  22.182  26.267  1.00  0.00     0.042 C 
BRANCH  24  25
ATOM     25  C   UNL A   1      39.978  23.145  27.015  1.00  0.00     0.118 C 
BRANCH  25  26
ATOM     26  N   UNL A   1      40.963  23.749  26.128  1.00  0.00    -0.352 N 
ATOM     27  C   UNL A   1      41.489  25.014  26.124  1.00  0.00     0.251 C 
ATOM     28  H   UNL A   1      41.304  23.154  25.422  1.00  0.00     0.163 HD
ATOM     29  O   UNL A   1      42.101  25.402  25.132  1.00  0.00    -0.269 OA
BRANCH  27  30
ATOM     30  C   UNL A   1      41.325  25.905  27.292  1.00  0.00     0.039 A 
ATOM     31  C   UNL A   1      42.284  26.896  27.518  1.00  0.00     0.014 A 
ATOM     32  C   UNL A   1      40.269  25.738  28.192  1.00  0.00     0.014 A 
ATOM     33  C   UNL A   1      42.158  27.744  28.620  1.00  0.00     0.010 A 
ATOM     34  C   UNL A   1      40.100  26.636  29.243  1.00  0.00     0.010 A 
ATOM     35  C   UNL A   1      41.048  27.640  29.474  1.00  0.00    -0.014 A 
BRANCH  35  36
ATOM     36  C   UNL A   1      40.868  28.589  30.603  1.00  0.00     0.031 A 
ATOM     37  C   UNL A   1      41.693  28.459  31.854  1.00  0.00     0.074 A 
ATOM     38  C   UNL A   1      39.915  29.538  30.516  1.00  0.00     0.049 A 
ATOM     39  N   UNL A   1      41.662  29.185  32.942  1.00  0.00    -0.248 NA
ATOM     40  C   UNL A   1      42.663  27.353  31.901  1.00  0.00     0.031 C 
ATOM     41  C   UNL A   1      39.007  29.717  29.380  1.00  0.00     0.029 A 
ATOM     42  N   UNL A   1      39.544  30.522  31.395  1.00  0.00    -0.354 N 
ATOM     43  C   UNL A   1      42.591  28.616  33.806  1.00  0.00     0.074 A 
ATOM     44  C   UNL A   1      43.132  27.455  33.136  1.00  0.00     0.031 C 
ATOM     45  C   UNL A   1      38.202  30.762  29.622  1.00  0.00     0.029 A 
ATOM     46  C   UNL A   1      38.506  31.303  30.943  1.00  0.00     0.049 A 
ATOM     47  H   UNL A   1      39.979  30.658  32.268  1.00  0.00     0.167 HD
ATOM     48  C   UNL A   1      42.970  29.037  35.037  1.00  0.00     0.037 A 
ATOM     49  C   UNL A   1      37.864  32.332  31.528  1.00  0.00     0.037 A 
ATOM     50  C   UNL A   1      42.433  30.207  35.686  1.00  0.00     0.049 A 
ATOM     51  C   UNL A   1      38.315  32.795  32.885  1.00  0.00     0.074 A 
ATOM     52  C   UNL A   1      42.804  30.767  36.896  1.00  0.00     0.029 A 
ATOM     53  N   UNL A   1      41.399  30.988  35.187  1.00  0.00    -0.354 N 
ATOM     54  N   UNL A   1      39.260  32.304  33.650  1.00  0.00    -0.248 NA
ATOM     55  C   UNL A   1      37.620  33.955  33.455  1.00  0.00     0.031 C 
ATOM     56  C   UNL A   1      41.955  31.847  37.157  1.00  0.00     0.029 A 
ATOM     57  C   UNL A   1      41.096  32.003  36.082  1.00  0.00     0.049 A 
ATOM     58  H   UNL A   1      40.947  30.842  34.325  1.00  0.00     0.167 HD
ATOM     59  C   UNL A   1      39.287  33.105  34.785  1.00  0.00     0.074 A 
ATOM     60  C   UNL A   1      38.276  34.126  34.594  1.00  0.00     0.031 C 
ATOM     61  C   UNL A   1      40.076  33.005  35.885  1.00  0.00     0.037 A 
BRANCH  48  62
ATOM     62  C   UNL A   1      44.004  28.221  35.769  1.00  0.00     0.058 A 
ATOM     63  C   UNL A   1      43.648  27.193  36.659  1.00  0.00     0.135 A 
ATOM     64  C   UNL A   1      45.373  28.454  35.560  1.00  0.00     0.135 A 
ATOM     65  F   UNL A   1      42.355  26.930  36.907  1.00  0.00    -0.206 F 
ATOM     66  C   UNL A   1      44.609  26.455  37.344  1.00  0.00     0.059 A 
ATOM     67  C   UNL A   1      46.352  27.707  36.209  1.00  0.00     0.059 A 
ATOM     68  F   UNL A   1      45.773  29.421  34.720  1.00  0.00    -0.206 F 
ATOM     69  C   UNL A   1      45.960  26.722  37.113  1.00  0.00     0.060 A 
BRANCH  69  70
ATOM     70  S   UNL A   1      47.193  25.764  38.018  1.00  0.00     0.124 S 
ATOM     71  O   UNL A   1      46.998  26.251  39.380  1.00  0.00    -0.237 OA
ATOM     72  O   UNL A   1      46.765  24.391  37.770  1.00  0.00    -0.237 OA
ATOM     73  O   UNL A   1      48.453  26.149  37.389  1.00  0.00    -0.744 OA
ENDBRANCH  69  70
ENDBRANCH  48  62
BRANCH  49  74
ATOM     74  C   UNL A   1      36.743  32.997  30.812  1.00  0.00     0.058 A 
ATOM     75  C   UNL A   1      35.411  32.794  31.201  1.00  0.00     0.135 A 
ATOM     76  C   UNL A   1      36.986  33.890  29.756  1.00  0.00     0.135 A 
ATOM     77  F   UNL A   1      35.126  31.945  32.201  1.00  0.00    -0.206 F 
ATOM     78  C   UNL A   1      34.360  33.449  30.567  1.00  0.00     0.059 A 
ATOM     79  C   UNL A   1      35.956  34.577  29.126  1.00  0.00     0.059 A 
ATOM     80  F   UNL A   1      38.246  34.133  29.358  1.00  0.00    -0.206 F 
ATOM     81  C   UNL A   1      34.643  34.345  29.536  1.00  0.00     0.060 A 
BRANCH  81  82
ATOM     82  S   UNL A   1      33.277  35.250  28.776  1.00  0.00     0.124 S 
ATOM     83  O   UNL A   1      32.647  34.209  27.971  1.00  0.00    -0.237 OA
ATOM     84  O   UNL A   1      32.523  35.701  29.941  1.00  0.00    -0.237 OA
ATOM     85  O   UNL A   1      33.949  36.307  28.026  1.00  0.00    -0.744 OA
ENDBRANCH  81  82
ENDBRANCH  49  74
BRANCH  61  86
ATOM     86  C   UNL A   1      39.888  34.038  36.963  1.00  0.00     0.058 A 
ATOM     87  C   UNL A   1      40.504  35.298  36.897  1.00  0.00     0.135 A 
ATOM     88  C   UNL A   1      39.051  33.777  38.062  1.00  0.00     0.135 A 
ATOM     89  F   UNL A   1      41.319  35.599  35.873  1.00  0.00    -0.206 F 
ATOM     90  C   UNL A   1      40.323  36.250  37.897  1.00  0.00     0.059 A 
ATOM     91  C   UNL A   1      38.831  34.724  39.055  1.00  0.00     0.059 A 
ATOM     92  F   UNL A   1      38.427  32.592  38.170  1.00  0.00    -0.206 F 
ATOM     93  C   UNL A   1      39.484  35.953  38.972  1.00  0.00     0.060 A 
BRANCH  93  94
ATOM     94  S   UNL A   1      39.245  37.202  40.252  1.00  0.00     0.124 S 
ATOM     95  O   UNL A   1      38.493  36.455  41.255  1.00  0.00    -0.237 OA
ATOM     96  O   UNL A   1      40.616  37.546  40.614  1.00  0.00    -0.237 OA
ATOM     97  O   UNL A   1      38.502  38.255  39.566  1.00  0.00    -0.744 OA
ENDBRANCH  93  94
ENDBRANCH  61  86
ENDBRANCH  35  36
ENDBRANCH  27  30
ENDBRANCH  25  26
ENDBRANCH  24  25
ENDBRANCH   1  24
TORSDOF 18
ENDMDL
MODEL 3
REMARK VINA RESULT:     -11.2      3.976     10.604
REMARK SMILES CC1(CNS(=O)(=O)Cc2ccc(C(=O)NCCCNC(=O)c3ccc(-c4c5nc(c(-c6c(F)cc(S(=O)(=O)[O-])cc6F)c6ccc([nH]6)c(-c6c(F)cc(S(=O)(=O)[O-])cc6F)c6nc(c(-c7c(F)cc(S(=O)(=O)[O-])cc7F)c7ccc4[nH]7)C=C6)C=C5)cc3)cc2)COC1
REMARK SMILES IDX 16 1 15 2 13 3 14 4 12 6 9 7 10 8 89 9 11 10 88 11 8 12 5 13
REMARK SMILES IDX 6 14 7 15 4 16 3 18 2 19 1 20 90 21 92 22 91 23 17 24 18 25
REMARK SMILES IDX 19 26 20 27 21 29 22 30 23 31 87 32 24 33 86 34 25 35 26 36
REMARK SMILES IDX 27 37 80 38 28 39 85 40 79 41 81 42 29 43 84 44 78 45 77 46
REMARK SMILES IDX 30 48 64 49 43 50 63 51 44 52 47 53 62 54 82 55 45 56 46 57
REMARK SMILES IDX 61 59 83 60 48 61 31 62 32 63 41 64 33 65 34 66 40 67 42 68
REMARK SMILES IDX 35 69 36 70 37 71 38 72 39 73 65 74 66 75 75 76 67 77 68 78
REMARK SMILES IDX 74 79 76 80 69 81 70 82 71 83 72 84 73 85 49 86 50 87 59 88
REMARK SMILES IDX 51 89 52 90 58 91 60 92 53 93 54 94 55 95 56 96 57 97
REMARK H PARENT 15 5 4 17 19 28 81 47 47 58
REMARK Flexibility Score: inf
ROOT
ATOM      1  C   UNL A   1      35.557  34.075  30.044  1.00  0.00     0.118 C 
ENDROOT
BRANCH   1   2
ATOM      2  N   UNL A   1      35.138  34.791  31.236  1.00  0.00    -0.352 N 
ATOM      3  C   UNL A   1      35.603  34.746  32.524  1.00  0.00     0.251 C 
ATOM      4  O   UNL A   1      35.138  35.536  33.344  1.00  0.00    -0.269 OA
ATOM      5  H   UNL A   1      34.390  35.414  31.094  1.00  0.00     0.163 HD
BRANCH   3   6
ATOM      6  C   UNL A   1      36.688  33.822  32.945  1.00  0.00     0.039 A 
ATOM      7  C   UNL A   1      38.642  31.949  33.723  1.00  0.00    -0.032 A 
ATOM      8  C   UNL A   1      37.300  31.568  33.610  1.00  0.00     0.005 A 
ATOM      9  C   UNL A   1      38.995  33.274  33.443  1.00  0.00     0.005 A 
ATOM     10  C   UNL A   1      36.332  32.496  33.217  1.00  0.00     0.014 A 
ATOM     11  C   UNL A   1      38.031  34.193  33.029  1.00  0.00     0.014 A 
BRANCH   7  12
ATOM     12  C   UNL A   1      39.700  30.952  34.111  1.00  0.00     0.189 C 
BRANCH  12  13
ATOM     13  S   UNL A   1      39.668  30.635  35.887  1.00  0.00     0.215 S 
ATOM     14  O   UNL A   1      38.332  30.196  36.243  1.00  0.00    -0.212 OA
ATOM     15  O   UNL A   1      40.296  31.724  36.596  1.00  0.00    -0.212 OA
BRANCH  13  16
ATOM     16  N   UNL A   1      40.685  29.302  36.085  1.00  0.00    -0.214 NA
ATOM     17  H   UNL A   1      40.707  29.079  37.080  1.00  0.00     0.141 HD
BRANCH  16  18
ATOM     18  C   UNL A   1      42.078  29.444  35.632  1.00  0.00     0.110 C 
BRANCH  18  19
ATOM     19  C   UNL A   1      42.633  28.169  34.989  1.00  0.00     0.028 C 
ATOM     20  C   UNL A   1      43.914  28.346  34.183  1.00  0.00     0.018 C 
ATOM     21  C   UNL A   1      41.517  27.431  34.217  1.00  0.00     0.170 C 
ATOM     22  C   UNL A   1      42.580  26.919  35.896  1.00  0.00     0.170 C 
ATOM     23  O   UNL A   1      41.299  26.533  35.333  1.00  0.00    -0.380 OA
ENDBRANCH  18  19
ENDBRANCH  16  18
ENDBRANCH  13  16
ENDBRANCH  12  13
ENDBRANCH   7  12
ENDBRANCH   3   6
ENDBRANCH   1   2
BRANCH   1  24
ATOM     24  C   UNL A   1      34.678  32.852  29.795  1.00  0.00     0.042 C 
BRANCH  24  25
ATOM     25  C   UNL A   1      34.529  32.510  28.315  1.00  0.00     0.118 C 
BRANCH  25  26
ATOM     26  N   UNL A   1      33.918  31.203  28.123  1.00  0.00    -0.352 N 
ATOM     27  C   UNL A   1      34.499  29.976  27.933  1.00  0.00     0.251 C 
ATOM     28  H   UNL A   1      32.933  31.199  28.133  1.00  0.00     0.163 HD
ATOM     29  O   UNL A   1      33.808  29.046  27.525  1.00  0.00    -0.269 OA
BRANCH  27  30
ATOM     30  C   UNL A   1      35.935  29.768  28.212  1.00  0.00     0.039 A 
ATOM     31  C   UNL A   1      36.320  29.392  29.501  1.00  0.00     0.014 A 
ATOM     32  C   UNL A   1      36.907  29.994  27.232  1.00  0.00     0.014 A 
ATOM     33  C   UNL A   1      37.671  29.199  29.794  1.00  0.00     0.010 A 
ATOM     34  C   UNL A   1      38.245  29.721  27.502  1.00  0.00     0.010 A 
ATOM     35  C   UNL A   1      38.643  29.333  28.788  1.00  0.00    -0.014 A 
BRANCH  35  36
ATOM     36  C   UNL A   1      40.073  29.054  29.073  1.00  0.00     0.031 A 
ATOM     37  C   UNL A   1      40.684  27.727  28.711  1.00  0.00     0.074 A 
ATOM     38  C   UNL A   1      40.808  29.986  29.711  1.00  0.00     0.049 A 
ATOM     39  N   UNL A   1      41.908  27.304  28.897  1.00  0.00    -0.248 NA
ATOM     40  C   UNL A   1      39.798  26.735  28.082  1.00  0.00     0.031 C 
ATOM     41  C   UNL A   1      40.306  31.283  30.173  1.00  0.00     0.029 A 
ATOM     42  N   UNL A   1      42.126  29.986  30.090  1.00  0.00    -0.354 N 
ATOM     43  C   UNL A   1      41.935  25.997  28.425  1.00  0.00     0.074 A 
ATOM     44  C   UNL A   1      40.592  25.679  27.992  1.00  0.00     0.031 C 
ATOM     45  C   UNL A   1      41.309  31.962  30.750  1.00  0.00     0.029 A 
ATOM     46  C   UNL A   1      42.513  31.137  30.737  1.00  0.00     0.049 A 
ATOM     47  H   UNL A   1      42.738  29.235  29.916  1.00  0.00     0.167 HD
ATOM     48  C   UNL A   1      42.988  25.148  28.345  1.00  0.00     0.037 A 
ATOM     49  C   UNL A   1      43.700  31.486  31.269  1.00  0.00     0.037 A 
ATOM     50  C   UNL A   1      44.324  25.484  28.766  1.00  0.00     0.049 A 
ATOM     51  C   UNL A   1      44.859  30.537  31.150  1.00  0.00     0.074 A 
ATOM     52  C   UNL A   1      45.478  24.729  28.654  1.00  0.00     0.029 A 
ATOM     53  N   UNL A   1      44.685  26.669  29.395  1.00  0.00    -0.354 N 
ATOM     54  N   UNL A   1      44.891  29.340  30.615  1.00  0.00    -0.248 NA
ATOM     55  C   UNL A   1      46.144  30.989  31.696  1.00  0.00     0.031 C 
ATOM     56  C   UNL A   1      46.521  25.428  29.270  1.00  0.00     0.029 A 
ATOM     57  C   UNL A   1      46.034  26.649  29.709  1.00  0.00     0.049 A 
ATOM     58  H   UNL A   1      44.071  27.413  29.591  1.00  0.00     0.167 HD
ATOM     59  C   UNL A   1      46.203  28.900  30.744  1.00  0.00     0.074 A 
ATOM     60  C   UNL A   1      46.937  29.971  31.389  1.00  0.00     0.031 C 
ATOM     61  C   UNL A   1      46.750  27.718  30.364  1.00  0.00     0.037 A 
BRANCH  48  62
ATOM     62  C   UNL A   1      42.735  23.768  27.793  1.00  0.00     0.058 A 
ATOM     63  C   UNL A   1      42.535  22.657  28.630  1.00  0.00     0.135 A 
ATOM     64  C   UNL A   1      42.668  23.558  26.406  1.00  0.00     0.135 A 
ATOM     65  F   UNL A   1      42.597  22.794  29.963  1.00  0.00    -0.206 F 
ATOM     66  C   UNL A   1      42.319  21.383  28.112  1.00  0.00     0.059 A 
ATOM     67  C   UNL A   1      42.420  22.299  25.866  1.00  0.00     0.059 A 
ATOM     68  F   UNL A   1      42.849  24.582  25.558  1.00  0.00    -0.206 F 
ATOM     69  C   UNL A   1      42.266  21.214  26.727  1.00  0.00     0.060 A 
BRANCH  69  70
ATOM     70  S   UNL A   1      41.996  19.554  26.072  1.00  0.00     0.124 S 
ATOM     71  O   UNL A   1      42.386  18.726  27.209  1.00  0.00    -0.237 OA
ATOM     72  O   UNL A   1      40.571  19.570  25.759  1.00  0.00    -0.237 OA
ATOM     73  O   UNL A   1      42.889  19.494  24.918  1.00  0.00    -0.744 OA
ENDBRANCH  69  70
ENDBRANCH  48  62
BRANCH  49  74
ATOM     74  C   UNL A   1      43.840  32.805  31.942  1.00  0.00     0.058 A 
ATOM     75  C   UNL A   1      43.690  32.934  33.330  1.00  0.00     0.135 A 
ATOM     76  C   UNL A   1      44.179  33.957  31.212  1.00  0.00     0.135 A 
ATOM     77  F   UNL A   1      43.360  31.863  34.070  1.00  0.00    -0.206 F 
ATOM     78  C   UNL A   1      43.866  34.154  33.972  1.00  0.00     0.059 A 
ATOM     79  C   UNL A   1      44.388  35.183  31.834  1.00  0.00     0.059 A 
ATOM     80  F   UNL A   1      44.353  33.884  29.883  1.00  0.00    -0.206 F 
ATOM     81  C   UNL A   1      44.224  35.272  33.216  1.00  0.00     0.060 A 
BRANCH  81  82
ATOM     82  S   UNL A   1      44.529  36.833  34.071  1.00  0.00     0.124 S 
ATOM     83  O   UNL A   1      43.670  37.748  33.329  1.00  0.00    -0.237 OA
ATOM     84  O   UNL A   1      44.107  36.523  35.434  1.00  0.00    -0.237 OA
ATOM     85  O   UNL A   1      45.965  37.036  33.899  1.00  0.00    -0.744 OA
ENDBRANCH  81  82
ENDBRANCH  49  74
BRANCH  61  86
ATOM     86  C   UNL A   1      48.220  27.525  30.622  1.00  0.00     0.058 A 
ATOM     87  C   UNL A   1      49.192  27.896  29.679  1.00  0.00     0.135 A 
ATOM     88  C   UNL A   1      48.665  26.993  31.845  1.00  0.00     0.135 A 
ATOM     89  F   UNL A   1      48.823  28.403  28.492  1.00  0.00    -0.206 F 
ATOM     90  C   UNL A   1      50.551  27.718  29.926  1.00  0.00     0.059 A 
ATOM     91  C   UNL A   1      50.018  26.836  32.125  1.00  0.00     0.059 A 
ATOM     92  F   UNL A   1      47.780  26.632  32.787  1.00  0.00    -0.206 F 
ATOM     93  C   UNL A   1      50.953  27.187  31.152  1.00  0.00     0.060 A 
BRANCH  93  94
ATOM     94  S   UNL A   1      52.718  26.977  31.465  1.00  0.00     0.124 S 
ATOM     95  O   UNL A   1      52.717  25.884  32.432  1.00  0.00    -0.237 OA
ATOM     96  O   UNL A   1      53.235  26.650  30.140  1.00  0.00    -0.237 OA
ATOM     97  O   UNL A   1      53.128  28.277  31.989  1.00  0.00    -0.744 OA
ENDBRANCH  93  94
ENDBRANCH  61  86
ENDBRANCH  35  36
ENDBRANCH  27  30
ENDBRANCH  25  26
ENDBRANCH  24  25
ENDBRANCH   1  24
TORSDOF 18
ENDMDL
