MODEL 1
REMARK VINA RESULT:     -13.7      0.000      0.000
REMARK SMILES Cn1cc(C(=O)NCCCNC(=O)c2ccc(-c3c4nc(c(-c5c(F)cc(S(=O)(=O)[O-])cc5F)c5ccc([nH]5)c(-c5c(F)cc(S(=O)(=O)[O-])cc5F)c5nc(c(-c6c(F)cc(S(=O)(=O)[O-])cc6F)c6ccc3[nH]6)C=C5)C=C4)cc2)c(C(=O)Nc2ccc(-c3nc4cc(Cl)ccc4o3)cc2)n1
REMARK SMILES IDX 9 1 8 2 7 3 5 4 6 5 4 7 1 8 2 9 3 10 100 11 80 12 81 13
REMARK SMILES IDX 82 14 83 15 84 17 85 18 99 19 86 20 98 21 87 22 88 23 89 24
REMARK SMILES IDX 97 25 90 26 96 27 91 28 95 29 92 30 94 31 93 32 10 33 11 34
REMARK SMILES IDX 12 35 13 37 14 38 15 39 79 40 16 41 78 42 17 43 18 44 19 45
REMARK SMILES IDX 72 46 20 47 77 48 71 49 73 50 21 51 76 52 70 53 69 54 22 56
REMARK SMILES IDX 56 57 35 58 55 59 36 60 39 61 54 62 74 63 37 64 38 65 53 67
REMARK SMILES IDX 75 68 40 69 23 70 24 71 33 72 25 73 26 74 32 75 34 76 27 77
REMARK SMILES IDX 28 78 29 79 30 80 31 81 57 82 58 83 67 84 59 85 60 86 66 87
REMARK SMILES IDX 68 88 61 89 62 90 63 91 64 92 65 93 41 94 42 95 51 96 43 97
REMARK SMILES IDX 44 98 50 99 52 100 45 101 46 102 47 103 48 104 49 105
REMARK H PARENT 7 6 83 16 11 36 73 55 39 66
REMARK Flexibility Score: inf
ROOT
ATOM      1  C   UNL A   1      34.376  28.929  27.208  1.00  0.00     0.042 C 
ENDROOT
BRANCH   1   2
ATOM      2  C   UNL A   1      32.851  28.995  27.133  1.00  0.00     0.118 C 
BRANCH   2   3
ATOM      3  N   UNL A   1      32.138  27.746  27.329  1.00  0.00    -0.352 N 
ATOM      4  C   UNL A   1      31.547  26.863  26.456  1.00  0.00     0.255 C 
ATOM      5  O   UNL A   1      31.327  25.730  26.888  1.00  0.00    -0.269 OA
ATOM      6  H   UNL A   1      32.062  27.479  28.273  1.00  0.00     0.163 HD
BRANCH   4   7
ATOM      7  C   UNL A   1      31.173  27.237  25.101  1.00  0.00     0.090 A 
ATOM      8  C   UNL A   1      29.129  28.579  22.444  1.00  0.00     0.173 C 
ATOM      9  N   UNL A   1      30.114  27.984  23.317  1.00  0.00    -0.274 N 
ATOM     10  C   UNL A   1      29.930  27.591  24.607  1.00  0.00     0.123 A 
ATOM     11  N   UNL A   1      31.373  27.864  22.897  1.00  0.00    -0.167 NA
ATOM     12  C   UNL A   1      32.062  27.438  23.976  1.00  0.00     0.163 A 
BRANCH  12  13
ATOM     13  C   UNL A   1      33.537  27.359  23.890  1.00  0.00     0.276 C 
ATOM     14  O   UNL A   1      34.212  28.346  23.573  1.00  0.00    -0.267 OA
ATOM     15  N   UNL A   1      34.240  26.225  24.232  1.00  0.00    -0.321 N 
ATOM     16  H   UNL A   1      35.207  26.373  24.340  1.00  0.00     0.170 HD
BRANCH  15  17
ATOM     17  C   UNL A   1      33.841  24.905  24.455  1.00  0.00     0.041 A 
ATOM     18  C   UNL A   1      33.195  24.262  23.393  1.00  0.00     0.027 A 
ATOM     19  C   UNL A   1      34.077  24.213  25.641  1.00  0.00     0.027 A 
ATOM     20  C   UNL A   1      32.942  22.893  23.454  1.00  0.00     0.016 A 
ATOM     21  C   UNL A   1      33.769  22.851  25.721  1.00  0.00     0.016 A 
ATOM     22  C   UNL A   1      33.266  22.168  24.604  1.00  0.00     0.037 A 
BRANCH  22  23
ATOM     23  C   UNL A   1      33.198  20.716  24.597  1.00  0.00     0.227 A 
ATOM     24  N   UNL A   1      32.202  19.902  24.890  1.00  0.00    -0.209 NA
ATOM     25  O   UNL A   1      34.410  20.095  24.410  1.00  0.00    -0.436 OA
ATOM     26  C   UNL A   1      32.782  18.655  24.864  1.00  0.00     0.111 A 
ATOM     27  C   UNL A   1      34.139  18.776  24.609  1.00  0.00     0.155 A 
ATOM     28  C   UNL A   1      32.245  17.382  25.087  1.00  0.00     0.053 A 
ATOM     29  C   UNL A   1      35.044  17.725  24.591  1.00  0.00     0.051 A 
ATOM     30  C   UNL A   1      33.131  16.295  25.083  1.00  0.00     0.043 A 
ATOM     31  C   UNL A   1      34.502  16.461  24.849  1.00  0.00     0.024 A 
ATOM     32  Cl  UNL A   1      32.523  14.715  25.393  1.00  0.00    -0.084 Cl
ENDBRANCH  22  23
ENDBRANCH  15  17
ENDBRANCH  12  13
ENDBRANCH   4   7
ENDBRANCH   2   3
ENDBRANCH   1   2
BRANCH   1  33
ATOM     33  C   UNL A   1      35.102  30.240  27.515  1.00  0.00     0.118 C 
BRANCH  33  34
ATOM     34  N   UNL A   1      35.146  30.581  28.926  1.00  0.00    -0.352 N 
ATOM     35  C   UNL A   1      36.147  30.538  29.864  1.00  0.00     0.251 C 
ATOM     36  H   UNL A   1      34.287  30.908  29.281  1.00  0.00     0.163 HD
ATOM     37  O   UNL A   1      35.852  30.838  31.021  1.00  0.00    -0.269 OA
BRANCH  35  38
ATOM     38  C   UNL A   1      37.545  30.145  29.554  1.00  0.00     0.039 A 
ATOM     39  C   UNL A   1      38.422  29.958  30.633  1.00  0.00     0.014 A 
ATOM     40  C   UNL A   1      38.044  30.051  28.253  1.00  0.00     0.014 A 
ATOM     41  C   UNL A   1      39.764  29.630  30.417  1.00  0.00     0.010 A 
ATOM     42  C   UNL A   1      39.383  29.710  28.033  1.00  0.00     0.010 A 
ATOM     43  C   UNL A   1      40.251  29.488  29.111  1.00  0.00    -0.014 A 
BRANCH  43  44
ATOM     44  C   UNL A   1      41.646  29.049  28.856  1.00  0.00     0.031 A 
ATOM     45  C   UNL A   1      42.778  30.033  28.853  1.00  0.00     0.074 A 
ATOM     46  C   UNL A   1      41.878  27.759  28.554  1.00  0.00     0.049 A 
ATOM     47  N   UNL A   1      44.031  29.847  28.522  1.00  0.00    -0.248 NA
ATOM     48  C   UNL A   1      42.461  31.405  29.270  1.00  0.00     0.031 C 
ATOM     49  C   UNL A   1      40.860  26.708  28.514  1.00  0.00     0.029 A 
ATOM     50  N   UNL A   1      43.037  27.119  28.194  1.00  0.00    -0.354 N 
ATOM     51  C   UNL A   1      44.651  31.080  28.674  1.00  0.00     0.074 A 
ATOM     52  C   UNL A   1      43.633  32.010  29.123  1.00  0.00     0.031 C 
ATOM     53  C   UNL A   1      41.434  25.559  28.123  1.00  0.00     0.029 A 
ATOM     54  C   UNL A   1      42.852  25.799  27.864  1.00  0.00     0.049 A 
ATOM     55  H   UNL A   1      43.915  27.563  28.175  1.00  0.00     0.167 HD
ATOM     56  C   UNL A   1      45.948  31.406  28.459  1.00  0.00     0.037 A 
ATOM     57  C   UNL A   1      43.718  24.888  27.379  1.00  0.00     0.037 A 
ATOM     58  C   UNL A   1      46.965  30.483  28.024  1.00  0.00     0.049 A 
ATOM     59  C   UNL A   1      45.149  25.269  27.150  1.00  0.00     0.074 A 
ATOM     60  C   UNL A   1      48.311  30.721  27.806  1.00  0.00     0.029 A 
ATOM     61  N   UNL A   1      46.747  29.144  27.740  1.00  0.00    -0.354 N 
ATOM     62  N   UNL A   1      45.724  26.436  27.314  1.00  0.00    -0.248 NA
ATOM     63  C   UNL A   1      46.052  24.211  26.674  1.00  0.00     0.031 C 
ATOM     64  C   UNL A   1      48.905  29.526  27.377  1.00  0.00     0.029 A 
ATOM     65  C   UNL A   1      47.931  28.543  27.343  1.00  0.00     0.049 A 
ATOM     66  H   UNL A   1      45.878  28.686  27.810  1.00  0.00     0.167 HD
ATOM     67  C   UNL A   1      47.057  26.253  26.971  1.00  0.00     0.074 A 
ATOM     68  C   UNL A   1      47.206  24.862  26.594  1.00  0.00     0.031 C 
ATOM     69  C   UNL A   1      48.066  27.158  26.973  1.00  0.00     0.037 A 
BRANCH  56  70
ATOM     70  C   UNL A   1      46.340  32.836  28.684  1.00  0.00     0.058 A 
ATOM     71  C   UNL A   1      46.781  33.284  29.937  1.00  0.00     0.135 A 
ATOM     72  C   UNL A   1      46.293  33.763  27.630  1.00  0.00     0.135 A 
ATOM     73  F   UNL A   1      46.832  32.437  30.977  1.00  0.00    -0.206 F 
ATOM     74  C   UNL A   1      47.143  34.612  30.147  1.00  0.00     0.059 A 
ATOM     75  C   UNL A   1      46.661  35.091  27.814  1.00  0.00     0.059 A 
ATOM     76  F   UNL A   1      45.876  33.380  26.413  1.00  0.00    -0.206 F 
ATOM     77  C   UNL A   1      47.071  35.510  29.081  1.00  0.00     0.060 A 
BRANCH  77  78
ATOM     78  S   UNL A   1      47.532  37.235  29.351  1.00  0.00     0.124 S 
ATOM     79  O   UNL A   1      48.284  37.527  28.135  1.00  0.00    -0.237 OA
ATOM     80  O   UNL A   1      46.238  37.901  29.470  1.00  0.00    -0.237 OA
ATOM     81  O   UNL A   1      48.318  37.180  30.580  1.00  0.00    -0.744 OA
ENDBRANCH  77  78
ENDBRANCH  56  70
BRANCH  57  82
ATOM     82  C   UNL A   1      43.228  23.525  27.070  1.00  0.00     0.058 A 
ATOM     83  C   UNL A   1      43.010  23.120  25.747  1.00  0.00     0.135 A 
ATOM     84  C   UNL A   1      43.041  22.582  28.092  1.00  0.00     0.135 A 
ATOM     85  F   UNL A   1      43.175  23.993  24.744  1.00  0.00    -0.206 F 
ATOM     86  C   UNL A   1      42.635  21.816  25.443  1.00  0.00     0.059 A 
ATOM     87  C   UNL A   1      42.676  21.270  27.811  1.00  0.00     0.059 A 
ATOM     88  F   UNL A   1      43.253  22.926  29.372  1.00  0.00    -0.206 F 
ATOM     89  C   UNL A   1      42.477  20.897  26.482  1.00  0.00     0.060 A 
BRANCH  89  90
ATOM     90  S   UNL A   1      42.100  19.175  26.084  1.00  0.00     0.124 S 
ATOM     91  O   UNL A   1      42.411  18.509  27.343  1.00  0.00    -0.237 OA
ATOM     92  O   UNL A   1      40.685  19.235  25.726  1.00  0.00    -0.237 OA
ATOM     93  O   UNL A   1      43.004  18.890  24.973  1.00  0.00    -0.744 OA
ENDBRANCH  89  90
ENDBRANCH  57  82
BRANCH  69  94
ATOM     94  C   UNL A   1      49.424  26.666  26.573  1.00  0.00     0.058 A 
ATOM     95  C   UNL A   1      50.273  26.041  27.498  1.00  0.00     0.135 A 
ATOM     96  C   UNL A   1      49.865  26.790  25.248  1.00  0.00     0.135 A 
ATOM     97  F   UNL A   1      49.895  25.907  28.778  1.00  0.00    -0.206 F 
ATOM     98  C   UNL A   1      51.523  25.561  27.123  1.00  0.00     0.059 A 
ATOM     99  C   UNL A   1      51.109  26.311  24.849  1.00  0.00     0.059 A 
ATOM    100  F   UNL A   1      49.086  27.380  24.328  1.00  0.00    -0.206 F 
ATOM    101  C   UNL A   1      51.936  25.705  25.796  1.00  0.00     0.060 A 
BRANCH 101 102
ATOM    102  S   UNL A   1      53.547  25.057  25.299  1.00  0.00     0.124 S 
ATOM    103  O   UNL A   1      53.750  25.729  24.020  1.00  0.00    -0.237 OA
ATOM    104  O   UNL A   1      54.418  25.491  26.388  1.00  0.00    -0.237 OA
ATOM    105  O   UNL A   1      53.319  23.618  25.227  1.00  0.00    -0.744 OA
ENDBRANCH 101 102
ENDBRANCH  69  94
ENDBRANCH  43  44
ENDBRANCH  35  38
ENDBRANCH  33  34
ENDBRANCH   1  33
TORSDOF 16
ENDMDL
MODEL 2
REMARK VINA RESULT:     -13.2      0.605      7.866
REMARK SMILES Cn1cc(C(=O)NCCCNC(=O)c2ccc(-c3c4nc(c(-c5c(F)cc(S(=O)(=O)[O-])cc5F)c5ccc([nH]5)c(-c5c(F)cc(S(=O)(=O)[O-])cc5F)c5nc(c(-c6c(F)cc(S(=O)(=O)[O-])cc6F)c6ccc3[nH]6)C=C5)C=C4)cc2)c(C(=O)Nc2ccc(-c3nc4cc(Cl)ccc4o3)cc2)n1
REMARK SMILES IDX 9 1 8 2 7 3 5 4 6 5 4 7 1 8 2 9 3 10 100 11 80 12 81 13
REMARK SMILES IDX 82 14 83 15 84 17 85 18 99 19 86 20 98 21 87 22 88 23 89 24
REMARK SMILES IDX 97 25 90 26 96 27 91 28 95 29 92 30 94 31 93 32 10 33 11 34
REMARK SMILES IDX 12 35 13 37 14 38 15 39 79 40 16 41 78 42 17 43 18 44 19 45
REMARK SMILES IDX 72 46 20 47 77 48 71 49 73 50 21 51 76 52 70 53 69 54 22 56
REMARK SMILES IDX 56 57 35 58 55 59 36 60 39 61 54 62 74 63 37 64 38 65 53 67
REMARK SMILES IDX 75 68 40 69 23 70 24 71 33 72 25 73 26 74 32 75 34 76 27 77
REMARK SMILES IDX 28 78 29 79 30 80 31 81 57 82 58 83 67 84 59 85 60 86 66 87
REMARK SMILES IDX 68 88 61 89 62 90 63 91 64 92 65 93 41 94 42 95 51 96 43 97
REMARK SMILES IDX 44 98 50 99 52 100 45 101 46 102 47 103 48 104 49 105
REMARK H PARENT 7 6 83 16 11 36 73 55 39 66
REMARK Flexibility Score: inf
ROOT
ATOM      1  C   UNL A   1      34.525  29.152  27.130  1.00  0.00     0.042 C 
ENDROOT
BRANCH   1   2
ATOM      2  C   UNL A   1      33.001  29.256  27.062  1.00  0.00     0.118 C 
BRANCH   2   3
ATOM      3  N   UNL A   1      32.257  28.044  27.355  1.00  0.00    -0.352 N 
ATOM      4  C   UNL A   1      31.627  27.121  26.555  1.00  0.00     0.255 C 
ATOM      5  O   UNL A   1      31.382  26.027  27.067  1.00  0.00    -0.269 OA
ATOM      6  H   UNL A   1      32.189  27.845  28.317  1.00  0.00     0.163 HD
BRANCH   4   7
ATOM      7  C   UNL A   1      31.241  27.411  25.182  1.00  0.00     0.090 A 
ATOM      8  C   UNL A   1      29.186  28.614  22.468  1.00  0.00     0.173 C 
ATOM      9  N   UNL A   1      30.171  28.059  23.366  1.00  0.00    -0.274 N 
ATOM     10  C   UNL A   1      29.999  27.756  24.681  1.00  0.00     0.123 A 
ATOM     11  N   UNL A   1      31.423  27.886  22.939  1.00  0.00    -0.167 NA
ATOM     12  C   UNL A   1      32.118  27.520  24.036  1.00  0.00     0.163 A 
BRANCH  12  13
ATOM     13  C   UNL A   1      33.590  27.407  23.936  1.00  0.00     0.276 C 
ATOM     14  O   UNL A   1      34.288  28.384  23.640  1.00  0.00    -0.267 OA
ATOM     15  N   UNL A   1      34.267  26.246  24.243  1.00  0.00    -0.321 N 
ATOM     16  H   UNL A   1      35.238  26.368  24.347  1.00  0.00     0.170 HD
BRANCH  15  17
ATOM     17  C   UNL A   1      33.836  24.932  24.435  1.00  0.00     0.041 A 
ATOM     18  C   UNL A   1      33.372  24.257  23.300  1.00  0.00     0.027 A 
ATOM     19  C   UNL A   1      33.876  24.273  25.662  1.00  0.00     0.027 A 
ATOM     20  C   UNL A   1      33.112  22.889  23.357  1.00  0.00     0.016 A 
ATOM     21  C   UNL A   1      33.559  22.912  25.729  1.00  0.00     0.016 A 
ATOM     22  C   UNL A   1      33.245  22.197  24.564  1.00  0.00     0.037 A 
BRANCH  22  23
ATOM     23  C   UNL A   1      33.178  20.745  24.587  1.00  0.00     0.227 A 
ATOM     24  N   UNL A   1      32.208  19.936  24.967  1.00  0.00    -0.209 NA
ATOM     25  O   UNL A   1      34.373  20.122  24.319  1.00  0.00    -0.436 OA
ATOM     26  C   UNL A   1      32.787  18.689  24.917  1.00  0.00     0.111 A 
ATOM     27  C   UNL A   1      34.120  18.806  24.559  1.00  0.00     0.155 A 
ATOM     28  C   UNL A   1      32.270  17.419  25.201  1.00  0.00     0.053 A 
ATOM     29  C   UNL A   1      35.023  17.755  24.490  1.00  0.00     0.051 A 
ATOM     30  C   UNL A   1      33.154  16.333  25.148  1.00  0.00     0.043 A 
ATOM     31  C   UNL A   1      34.504  16.495  24.810  1.00  0.00     0.024 A 
ATOM     32  Cl  UNL A   1      32.573  14.758  25.530  1.00  0.00    -0.084 Cl
ENDBRANCH  22  23
ENDBRANCH  15  17
ENDBRANCH  12  13
ENDBRANCH   4   7
ENDBRANCH   2   3
ENDBRANCH   1   2
BRANCH   1  33
ATOM     33  C   UNL A   1      35.257  30.305  27.819  1.00  0.00     0.118 C 
BRANCH  33  34
ATOM     34  N   UNL A   1      35.405  30.144  29.255  1.00  0.00    -0.352 N 
ATOM     35  C   UNL A   1      36.467  29.786  30.047  1.00  0.00     0.251 C 
ATOM     36  H   UNL A   1      34.581  30.328  29.761  1.00  0.00     0.163 HD
ATOM     37  O   UNL A   1      36.260  29.671  31.256  1.00  0.00    -0.269 OA
BRANCH  35  38
ATOM     38  C   UNL A   1      37.832  29.524  29.522  1.00  0.00     0.039 A 
ATOM     39  C   UNL A   1      38.864  29.348  30.455  1.00  0.00     0.014 A 
ATOM     40  C   UNL A   1      38.145  29.546  28.161  1.00  0.00     0.014 A 
ATOM     41  C   UNL A   1      40.182  29.142  30.034  1.00  0.00     0.010 A 
ATOM     42  C   UNL A   1      39.461  29.327  27.736  1.00  0.00     0.010 A 
ATOM     43  C   UNL A   1      40.487  29.114  28.667  1.00  0.00    -0.014 A 
BRANCH  43  44
ATOM     44  C   UNL A   1      41.858  28.804  28.193  1.00  0.00     0.031 A 
ATOM     45  C   UNL A   1      42.249  27.405  27.818  1.00  0.00     0.074 A 
ATOM     46  C   UNL A   1      42.778  29.786  28.169  1.00  0.00     0.049 A 
ATOM     47  N   UNL A   1      43.431  26.934  27.511  1.00  0.00    -0.248 NA
ATOM     48  C   UNL A   1      41.174  26.404  27.792  1.00  0.00     0.031 C 
ATOM     49  C   UNL A   1      42.525  31.184  28.519  1.00  0.00     0.029 A 
ATOM     50  N   UNL A   1      44.115  29.752  27.865  1.00  0.00    -0.354 N 
ATOM     51  C   UNL A   1      43.248  25.579  27.269  1.00  0.00     0.074 A 
ATOM     52  C   UNL A   1      41.840  25.302  27.472  1.00  0.00     0.031 C 
ATOM     53  C   UNL A   1      43.676  31.871  28.438  1.00  0.00     0.029 A 
ATOM     54  C   UNL A   1      44.748  30.957  28.052  1.00  0.00     0.049 A 
ATOM     55  H   UNL A   1      44.575  28.944  27.545  1.00  0.00     0.167 HD
ATOM     56  C   UNL A   1      44.170  24.652  26.912  1.00  0.00     0.037 A 
ATOM     57  C   UNL A   1      46.051  31.285  27.953  1.00  0.00     0.037 A 
ATOM     58  C   UNL A   1      45.568  24.925  26.699  1.00  0.00     0.049 A 
ATOM     59  C   UNL A   1      47.054  30.245  27.555  1.00  0.00     0.074 A 
ATOM     60  C   UNL A   1      46.569  24.051  26.309  1.00  0.00     0.029 A 
ATOM     61  N   UNL A   1      46.164  26.167  26.858  1.00  0.00    -0.354 N 
ATOM     62  N   UNL A   1      46.862  28.971  27.314  1.00  0.00    -0.248 NA
ATOM     63  C   UNL A   1      48.448  30.686  27.411  1.00  0.00     0.031 C 
ATOM     64  C   UNL A   1      47.774  24.763  26.246  1.00  0.00     0.029 A 
ATOM     65  C   UNL A   1      47.519  26.083  26.581  1.00  0.00     0.049 A 
ATOM     66  H   UNL A   1      45.693  26.988  27.128  1.00  0.00     0.167 HD
ATOM     67  C   UNL A   1      48.109  28.457  26.980  1.00  0.00     0.074 A 
ATOM     68  C   UNL A   1      49.048  29.559  27.047  1.00  0.00     0.031 C 
ATOM     69  C   UNL A   1      48.441  27.187  26.647  1.00  0.00     0.037 A 
BRANCH  56  70
ATOM     70  C   UNL A   1      43.690  23.242  26.739  1.00  0.00     0.058 A 
ATOM     71  C   UNL A   1      43.346  22.447  27.843  1.00  0.00     0.135 A 
ATOM     72  C   UNL A   1      43.553  22.686  25.457  1.00  0.00     0.135 A 
ATOM     73  F   UNL A   1      43.471  22.932  29.088  1.00  0.00    -0.206 F 
ATOM     74  C   UNL A   1      42.902  21.138  27.684  1.00  0.00     0.059 A 
ATOM     75  C   UNL A   1      43.100  21.384  25.274  1.00  0.00     0.059 A 
ATOM     76  F   UNL A   1      43.872  23.408  24.371  1.00  0.00    -0.206 F 
ATOM     77  C   UNL A   1      42.791  20.612  26.395  1.00  0.00     0.060 A 
BRANCH  77  78
ATOM     78  S   UNL A   1      42.223  18.911  26.185  1.00  0.00     0.124 S 
ATOM     79  O   UNL A   1      43.133  18.427  25.152  1.00  0.00    -0.237 OA
ATOM     80  O   UNL A   1      42.415  18.340  27.515  1.00  0.00    -0.237 OA
ATOM     81  O   UNL A   1      40.832  19.073  25.774  1.00  0.00    -0.744 OA
ENDBRANCH  77  78
ENDBRANCH  56  70
BRANCH  57  82
ATOM     82  C   UNL A   1      46.465  32.675  28.254  1.00  0.00     0.058 A 
ATOM     83  C   UNL A   1      46.952  33.024  29.521  1.00  0.00     0.135 A 
ATOM     84  C   UNL A   1      46.450  33.660  27.256  1.00  0.00     0.135 A 
ATOM     85  F   UNL A   1      46.979  32.111  30.502  1.00  0.00    -0.206 F 
ATOM     86  C   UNL A   1      47.425  34.304  29.787  1.00  0.00     0.059 A 
ATOM     87  C   UNL A   1      46.928  34.944  27.495  1.00  0.00     0.059 A 
ATOM     88  F   UNL A   1      46.005  33.363  26.025  1.00  0.00    -0.206 F 
ATOM     89  C   UNL A   1      47.415  35.255  28.765  1.00  0.00     0.060 A 
BRANCH  89  90
ATOM     90  S   UNL A   1      48.132  36.885  29.071  1.00  0.00     0.124 S 
ATOM     91  O   UNL A   1      48.075  36.961  30.525  1.00  0.00    -0.237 OA
ATOM     92  O   UNL A   1      49.466  36.759  28.489  1.00  0.00    -0.237 OA
ATOM     93  O   UNL A   1      47.230  37.780  28.351  1.00  0.00    -0.744 OA
ENDBRANCH  89  90
ENDBRANCH  57  82
BRANCH  69  94
ATOM     94  C   UNL A   1      49.878  26.924  26.309  1.00  0.00     0.058 A 
ATOM     95  C   UNL A   1      50.803  26.562  27.298  1.00  0.00     0.135 A 
ATOM     96  C   UNL A   1      50.323  27.002  24.981  1.00  0.00     0.135 A 
ATOM     97  F   UNL A   1      50.423  26.482  28.582  1.00  0.00    -0.206 F 
ATOM     98  C   UNL A   1      52.131  26.292  26.983  1.00  0.00     0.059 A 
ATOM     99  C   UNL A   1      51.645  26.730  24.643  1.00  0.00     0.059 A 
ATOM    100  F   UNL A   1      49.473  27.345  24.001  1.00  0.00    -0.206 F 
ATOM    101  C   UNL A   1      52.545  26.385  25.652  1.00  0.00     0.060 A 
BRANCH 101 102
ATOM    102  S   UNL A   1      54.261  26.008  25.235  1.00  0.00     0.124 S 
ATOM    103  O   UNL A   1      54.257  26.187  23.787  1.00  0.00    -0.237 OA
ATOM    104  O   UNL A   1      55.004  27.009  25.995  1.00  0.00    -0.237 OA
ATOM    105  O   UNL A   1      54.423  24.634  25.701  1.00  0.00    -0.744 OA
ENDBRANCH 101 102
ENDBRANCH  69  94
ENDBRANCH  43  44
ENDBRANCH  35  38
ENDBRANCH  33  34
ENDBRANCH   1  33
TORSDOF 16
ENDMDL
MODEL 3
REMARK VINA RESULT:     -13.2      6.321     11.261
REMARK SMILES Cn1cc(C(=O)NCCCNC(=O)c2ccc(-c3c4nc(c(-c5c(F)cc(S(=O)(=O)[O-])cc5F)c5ccc([nH]5)c(-c5c(F)cc(S(=O)(=O)[O-])cc5F)c5nc(c(-c6c(F)cc(S(=O)(=O)[O-])cc6F)c6ccc3[nH]6)C=C5)C=C4)cc2)c(C(=O)Nc2ccc(-c3nc4cc(Cl)ccc4o3)cc2)n1
REMARK SMILES IDX 9 1 8 2 7 3 5 4 6 5 4 7 1 8 2 9 3 10 100 11 80 12 81 13
REMARK SMILES IDX 82 14 83 15 84 17 85 18 99 19 86 20 98 21 87 22 88 23 89 24
REMARK SMILES IDX 97 25 90 26 96 27 91 28 95 29 92 30 94 31 93 32 10 33 11 34
REMARK SMILES IDX 12 35 13 37 14 38 15 39 79 40 16 41 78 42 17 43 18 44 19 45
REMARK SMILES IDX 72 46 20 47 77 48 71 49 73 50 21 51 76 52 70 53 69 54 22 56
REMARK SMILES IDX 56 57 35 58 55 59 36 60 39 61 54 62 74 63 37 64 38 65 53 67
REMARK SMILES IDX 75 68 40 69 23 70 24 71 33 72 25 73 26 74 32 75 34 76 27 77
REMARK SMILES IDX 28 78 29 79 30 80 31 81 57 82 58 83 67 84 59 85 60 86 66 87
REMARK SMILES IDX 68 88 61 89 62 90 63 91 64 92 65 93 41 94 42 95 51 96 43 97
REMARK SMILES IDX 44 98 50 99 52 100 45 101 46 102 47 103 48 104 49 105
REMARK H PARENT 7 6 83 16 11 36 73 55 39 66
REMARK Flexibility Score: inf
ROOT
ATOM      1  C   UNL A   1      36.851  23.682  25.156  1.00  0.00     0.042 C 
ENDROOT
BRANCH   1   2
ATOM      2  C   UNL A   1      35.359  23.991  25.283  1.00  0.00     0.118 C 
BRANCH   2   3
ATOM      3  N   UNL A   1      34.693  24.471  24.086  1.00  0.00    -0.352 N 
ATOM      4  C   UNL A   1      34.014  25.631  23.798  1.00  0.00     0.255 C 
ATOM      5  O   UNL A   1      33.864  25.897  22.604  1.00  0.00    -0.269 OA
ATOM      6  H   UNL A   1      34.735  23.840  23.331  1.00  0.00     0.163 HD
BRANCH   4   7
ATOM      7  C   UNL A   1      33.475  26.498  24.834  1.00  0.00     0.090 A 
ATOM      8  C   UNL A   1      33.496  28.848  27.575  1.00  0.00     0.173 C 
ATOM      9  N   UNL A   1      33.230  27.913  26.508  1.00  0.00    -0.274 N 
ATOM     10  C   UNL A   1      34.127  27.089  25.902  1.00  0.00     0.123 A 
ATOM     11  N   UNL A   1      32.014  27.872  25.962  1.00  0.00    -0.167 NA
ATOM     12  C   UNL A   1      32.133  27.037  24.908  1.00  0.00     0.163 A 
BRANCH  12  13
ATOM     13  C   UNL A   1      30.988  26.899  23.981  1.00  0.00     0.276 C 
ATOM     14  O   UNL A   1      30.372  27.891  23.574  1.00  0.00    -0.267 OA
ATOM     15  N   UNL A   1      30.599  25.685  23.459  1.00  0.00    -0.321 N 
ATOM     16  H   UNL A   1      29.979  25.759  22.698  1.00  0.00     0.170 HD
BRANCH  15  17
ATOM     17  C   UNL A   1      30.920  24.370  23.803  1.00  0.00     0.041 A 
ATOM     18  C   UNL A   1      31.286  23.523  22.751  1.00  0.00     0.027 A 
ATOM     19  C   UNL A   1      30.921  23.887  25.110  1.00  0.00     0.027 A 
ATOM     20  C   UNL A   1      31.812  22.260  23.019  1.00  0.00     0.016 A 
ATOM     21  C   UNL A   1      31.395  22.598  25.373  1.00  0.00     0.016 A 
ATOM     22  C   UNL A   1      31.909  21.804  24.337  1.00  0.00     0.037 A 
BRANCH  22  23
ATOM     23  C   UNL A   1      32.641  20.584  24.638  1.00  0.00     0.227 A 
ATOM     24  N   UNL A   1      33.853  20.201  24.284  1.00  0.00    -0.209 NA
ATOM     25  O   UNL A   1      31.889  19.613  25.253  1.00  0.00    -0.436 OA
ATOM     26  C   UNL A   1      33.923  18.899  24.723  1.00  0.00     0.111 A 
ATOM     27  C   UNL A   1      32.710  18.528  25.280  1.00  0.00     0.155 A 
ATOM     28  C   UNL A   1      34.954  17.955  24.650  1.00  0.00     0.053 A 
ATOM     29  C   UNL A   1      32.404  17.259  25.750  1.00  0.00     0.051 A 
ATOM     30  C   UNL A   1      34.679  16.660  25.110  1.00  0.00     0.043 A 
ATOM     31  C   UNL A   1      33.430  16.313  25.640  1.00  0.00     0.024 A 
ATOM     32  Cl  UNL A   1      35.903  15.453  25.001  1.00  0.00    -0.084 Cl
ENDBRANCH  22  23
ENDBRANCH  15  17
ENDBRANCH  12  13
ENDBRANCH   4   7
ENDBRANCH   2   3
ENDBRANCH   1   2
BRANCH   1  33
ATOM     33  C   UNL A   1      37.761  24.248  26.248  1.00  0.00     0.118 C 
BRANCH  33  34
ATOM     34  N   UNL A   1      39.154  23.856  26.126  1.00  0.00    -0.352 N 
ATOM     35  C   UNL A   1      40.311  24.344  26.679  1.00  0.00     0.251 C 
ATOM     36  H   UNL A   1      39.297  23.088  25.527  1.00  0.00     0.163 HD
ATOM     37  O   UNL A   1      41.371  23.828  26.324  1.00  0.00    -0.269 OA
BRANCH  35  38
ATOM     38  C   UNL A   1      40.344  25.455  27.665  1.00  0.00     0.039 A 
ATOM     39  C   UNL A   1      39.350  25.476  28.654  1.00  0.00     0.014 A 
ATOM     40  C   UNL A   1      41.248  26.518  27.590  1.00  0.00     0.014 A 
ATOM     41  C   UNL A   1      39.292  26.515  29.589  1.00  0.00     0.010 A 
ATOM     42  C   UNL A   1      41.200  27.552  28.532  1.00  0.00     0.010 A 
ATOM     43  C   UNL A   1      40.229  27.555  29.543  1.00  0.00    -0.014 A 
BRANCH  43  44
ATOM     44  C   UNL A   1      40.248  28.618  30.579  1.00  0.00     0.031 A 
ATOM     45  C   UNL A   1      41.142  28.513  31.779  1.00  0.00     0.074 A 
ATOM     46  C   UNL A   1      39.395  29.652  30.466  1.00  0.00     0.049 A 
ATOM     47  N   UNL A   1      41.192  29.279  32.839  1.00  0.00    -0.248 NA
ATOM     48  C   UNL A   1      42.100  27.400  31.792  1.00  0.00     0.031 C 
ATOM     49  C   UNL A   1      38.469  29.862  29.353  1.00  0.00     0.029 A 
ATOM     50  N   UNL A   1      39.148  30.704  31.312  1.00  0.00    -0.354 N 
ATOM     51  C   UNL A   1      42.174  28.734  33.655  1.00  0.00     0.074 A 
ATOM     52  C   UNL A   1      42.692  27.567  32.968  1.00  0.00     0.031 C 
ATOM     53  C   UNL A   1      37.733  30.959  29.596  1.00  0.00     0.029 A 
ATOM     54  C   UNL A   1      38.122  31.514  30.891  1.00  0.00     0.049 A 
ATOM     55  H   UNL A   1      39.657  30.862  32.139  1.00  0.00     0.167 HD
ATOM     56  C   UNL A   1      42.604  29.167  34.865  1.00  0.00     0.037 A 
ATOM     57  C   UNL A   1      37.537  32.569  31.491  1.00  0.00     0.037 A 
ATOM     58  C   UNL A   1      42.100  30.332  35.546  1.00  0.00     0.049 A 
ATOM     59  C   UNL A   1      38.029  33.033  32.829  1.00  0.00     0.074 A 
ATOM     60  C   UNL A   1      42.496  30.860  36.763  1.00  0.00     0.029 A 
ATOM     61  N   UNL A   1      41.089  31.151  35.067  1.00  0.00    -0.354 N 
ATOM     62  N   UNL A   1      38.970  32.515  33.581  1.00  0.00    -0.248 NA
ATOM     63  C   UNL A   1      37.384  34.223  33.399  1.00  0.00     0.031 C 
ATOM     64  C   UNL A   1      41.713  31.992  37.027  1.00  0.00     0.029 A 
ATOM     65  C   UNL A   1      40.842  32.176  35.967  1.00  0.00     0.049 A 
ATOM     66  H   UNL A   1      40.615  31.023  34.214  1.00  0.00     0.167 HD
ATOM     67  C   UNL A   1      39.039  33.322  34.710  1.00  0.00     0.074 A 
ATOM     68  C   UNL A   1      38.046  34.365  34.541  1.00  0.00     0.031 C 
ATOM     69  C   UNL A   1      39.854  33.208  35.785  1.00  0.00     0.037 A 
BRANCH  56  70
ATOM     70  C   UNL A   1      43.674  28.361  35.539  1.00  0.00     0.058 A 
ATOM     71  C   UNL A   1      45.034  28.595  35.286  1.00  0.00     0.135 A 
ATOM     72  C   UNL A   1      43.337  27.357  36.461  1.00  0.00     0.135 A 
ATOM     73  F   UNL A   1      45.403  29.537  34.403  1.00  0.00    -0.206 F 
ATOM     74  C   UNL A   1      46.027  27.847  35.910  1.00  0.00     0.059 A 
ATOM     75  C   UNL A   1      44.314  26.605  37.105  1.00  0.00     0.059 A 
ATOM     76  F   UNL A   1      42.049  27.096  36.734  1.00  0.00    -0.206 F 
ATOM     77  C   UNL A   1      45.657  26.847  36.811  1.00  0.00     0.060 A 
BRANCH  77  78
ATOM     78  S   UNL A   1      46.943  25.868  37.616  1.00  0.00     0.124 S 
ATOM     79  O   UNL A   1      46.386  24.523  37.520  1.00  0.00    -0.237 OA
ATOM     80  O   UNL A   1      48.115  26.128  36.784  1.00  0.00    -0.237 OA
ATOM     81  O   UNL A   1      46.999  26.433  38.961  1.00  0.00    -0.744 OA
ENDBRANCH  77  78
ENDBRANCH  56  70
BRANCH  57  82
ATOM     82  C   UNL A   1      36.405  33.243  30.814  1.00  0.00     0.058 A 
ATOM     83  C   UNL A   1      35.098  33.122  31.302  1.00  0.00     0.135 A 
ATOM     84  C   UNL A   1      36.626  34.080  29.710  1.00  0.00     0.135 A 
ATOM     85  F   UNL A   1      34.847  32.328  32.353  1.00  0.00    -0.206 F 
ATOM     86  C   UNL A   1      34.043  33.821  30.726  1.00  0.00     0.059 A 
ATOM     87  C   UNL A   1      35.589  34.797  29.124  1.00  0.00     0.059 A 
ATOM     88  F   UNL A   1      37.867  34.235  29.221  1.00  0.00    -0.206 F 
ATOM     89  C   UNL A   1      34.301  34.661  29.641  1.00  0.00     0.060 A 
BRANCH  89  90
ATOM     90  S   UNL A   1      32.956  35.658  28.960  1.00  0.00     0.124 S 
ATOM     91  O   UNL A   1      33.686  36.773  28.372  1.00  0.00    -0.237 OA
ATOM     92  O   UNL A   1      32.327  34.737  28.016  1.00  0.00    -0.237 OA
ATOM     93  O   UNL A   1      32.153  35.972  30.139  1.00  0.00    -0.744 OA
ENDBRANCH  89  90
ENDBRANCH  57  82
BRANCH  69  94
ATOM     94  C   UNL A   1      39.720  34.249  36.856  1.00  0.00     0.058 A 
ATOM     95  C   UNL A   1      38.977  34.003  38.020  1.00  0.00     0.135 A 
ATOM     96  C   UNL A   1      40.367  35.487  36.732  1.00  0.00     0.135 A 
ATOM     97  F   UNL A   1      38.335  32.836  38.178  1.00  0.00    -0.206 F 
ATOM     98  C   UNL A   1      38.873  34.958  39.026  1.00  0.00     0.059 A 
ATOM     99  C   UNL A   1      40.282  36.453  37.729  1.00  0.00     0.059 A 
ATOM    100  F   UNL A   1      41.090  35.765  35.636  1.00  0.00    -0.206 F 
ATOM    101  C   UNL A   1      39.524  36.184  38.869  1.00  0.00     0.060 A 
BRANCH 101 102
ATOM    102  S   UNL A   1      39.414  37.414  40.187  1.00  0.00     0.124 S 
ATOM    103  O   UNL A   1      40.806  37.834  40.312  1.00  0.00    -0.237 OA
ATOM    104  O   UNL A   1      38.502  38.406  39.626  1.00  0.00    -0.237 OA
ATOM    105  O   UNL A   1      38.881  36.651  41.311  1.00  0.00    -0.744 OA
ENDBRANCH 101 102
ENDBRANCH  69  94
ENDBRANCH  43  44
ENDBRANCH  35  38
ENDBRANCH  33  34
ENDBRANCH   1  33
TORSDOF 16
ENDMDL
