MODEL 1
REMARK VINA RESULT:     -12.7      0.000      0.000
REMARK SMILES CCN1C(=O)/C(=C2/SC(=S)N([C@@H](C)C(=O)NCCCNC(=O)c3ccc(-c4c5nc(c(-c6c(F)cc(S(=O)(=O)[O-])cc6F)c6ccc([nH]6)c(-c6c(F)cc(S(=O)(=O)[O-])cc6F)c6nc(c(-c7c(F)cc(S(=O)(=O)[O-])cc7F)c7ccc4[nH]7)C=C6)C=C5)cc3)C2=O)c2cc(Br)ccc21
REMARK SMILES IDX 18 1 17 2 16 3 14 4 15 5 12 7 13 8 11 9 3 10 4 11 97 12 5 13
REMARK SMILES IDX 6 14 91 15 96 16 7 17 92 18 95 19 8 20 89 21 93 22 9 23
REMARK SMILES IDX 90 24 94 25 10 26 2 27 1 28 19 29 20 30 21 31 22 33 23 34
REMARK SMILES IDX 24 35 88 36 25 37 87 38 26 39 27 40 28 41 81 42 29 43 86 44
REMARK SMILES IDX 80 45 82 46 30 47 85 48 79 49 78 50 31 52 65 53 44 54 64 55
REMARK SMILES IDX 45 56 48 57 63 58 83 59 46 60 47 61 62 63 84 64 49 65 32 66
REMARK SMILES IDX 33 67 42 68 34 69 35 70 41 71 43 72 36 73 37 74 38 75 39 76
REMARK SMILES IDX 40 77 66 78 67 79 76 80 68 81 69 82 75 83 77 84 70 85 71 86
REMARK SMILES IDX 72 87 73 88 74 89 50 90 51 91 60 92 52 93 53 94 59 95 61 96
REMARK SMILES IDX 54 97 55 98 56 99 57 100 58 101
REMARK H PARENT 16 6 20 32 82 51 48 62
REMARK Flexibility Score: inf
ROOT
ATOM      1  C   UNL A   1      33.717  29.375  26.827  1.00  0.00     0.042 C 
ENDROOT
BRANCH   1   2
ATOM      2  C   UNL A   1      32.841  28.160  27.120  1.00  0.00     0.117 C 
BRANCH   2   3
ATOM      3  N   UNL A   1      31.878  27.911  26.059  1.00  0.00    -0.354 N 
ATOM      4  C   UNL A   1      31.983  27.521  24.759  1.00  0.00     0.242 C 
ATOM      5  O   UNL A   1      30.904  27.367  24.173  1.00  0.00    -0.273 OA
ATOM      6  H   UNL A   1      30.947  28.056  26.344  1.00  0.00     0.163 HD
BRANCH   4   7
ATOM      7  C   UNL A   1      33.313  27.242  24.006  1.00  0.00     0.178 C 
ATOM      8  C   UNL A   1      33.451  28.079  22.740  1.00  0.00     0.042 C 
BRANCH   7   9
ATOM      9  N   UNL A   1      33.608  25.797  23.923  1.00  0.00    -0.280 N 
ATOM     10  N   UNL A   1      37.305  21.730  25.336  1.00  0.00    -0.308 N 
ATOM     11  C   UNL A   1      36.707  22.997  25.501  1.00  0.00     0.260 C 
ATOM     12  C   UNL A   1      36.338  20.740  25.067  1.00  0.00     0.052 A 
ATOM     13  O   UNL A   1      37.254  24.048  25.738  1.00  0.00    -0.269 OA
ATOM     14  C   UNL A   1      35.245  22.775  25.186  1.00  0.00     0.069 C 
ATOM     15  C   UNL A   1      35.071  21.320  25.036  1.00  0.00     0.014 A 
ATOM     16  C   UNL A   1      36.503  19.377  24.854  1.00  0.00     0.028 A 
ATOM     17  C   UNL A   1      34.363  23.722  24.822  1.00  0.00     0.093 C 
ATOM     18  C   UNL A   1      33.941  20.535  24.890  1.00  0.00     0.026 A 
ATOM     19  C   UNL A   1      35.368  18.600  24.588  1.00  0.00     0.018 A 
ATOM     20  S   UNL A   1      32.964  23.361  23.852  1.00  0.00    -0.053 SA
ATOM     21  C   UNL A   1      34.421  25.220  24.912  1.00  0.00     0.267 C 
ATOM     22  C   UNL A   1      34.100  19.186  24.607  1.00  0.00     0.018 A 
ATOM     23  C   UNL A   1      33.083  24.893  23.037  1.00  0.00     0.149 C 
ATOM     24  O   UNL A   1      35.034  25.830  25.772  1.00  0.00    -0.268 OA
ATOM     25  Br  UNL A   1      32.561  18.207  24.154  1.00  0.00    -0.051 Br
ATOM     26  S   UNL A   1      32.706  25.039  21.423  1.00  0.00    -0.052 S 
BRANCH  10  27
ATOM     27  C   UNL A   1      38.720  21.449  25.505  1.00  0.00     0.122 C 
ATOM     28  C   UNL A   1      39.372  22.230  26.637  1.00  0.00     0.028 C 
ENDBRANCH  10  27
ENDBRANCH   7   9
ENDBRANCH   4   7
ENDBRANCH   2   3
ENDBRANCH   1   2
BRANCH   1  29
ATOM     29  C   UNL A   1      35.100  29.311  27.468  1.00  0.00     0.118 C 
BRANCH  29  30
ATOM     30  N   UNL A   1      35.133  29.902  28.800  1.00  0.00    -0.352 N 
ATOM     31  C   UNL A   1      36.172  30.084  29.686  1.00  0.00     0.251 C 
ATOM     32  H   UNL A   1      34.261  30.226  29.123  1.00  0.00     0.163 HD
ATOM     33  O   UNL A   1      35.911  30.458  30.829  1.00  0.00    -0.269 OA
BRANCH  31  34
ATOM     34  C   UNL A   1      37.584  29.820  29.307  1.00  0.00     0.039 A 
ATOM     35  C   UNL A   1      38.031  29.964  27.995  1.00  0.00     0.014 A 
ATOM     36  C   UNL A   1      38.501  29.464  30.304  1.00  0.00     0.014 A 
ATOM     37  C   UNL A   1      39.329  29.587  27.652  1.00  0.00     0.010 A 
ATOM     38  C   UNL A   1      39.833  29.179  29.973  1.00  0.00     0.010 A 
ATOM     39  C   UNL A   1      40.253  29.193  28.634  1.00  0.00    -0.014 A 
BRANCH  39  40
ATOM     40  C   UNL A   1      41.640  28.817  28.237  1.00  0.00     0.031 A 
ATOM     41  C   UNL A   1      42.773  29.808  28.334  1.00  0.00     0.074 A 
ATOM     42  C   UNL A   1      41.899  27.551  27.846  1.00  0.00     0.049 A 
ATOM     43  N   UNL A   1      44.038  29.647  28.029  1.00  0.00    -0.248 NA
ATOM     44  C   UNL A   1      42.451  31.156  28.833  1.00  0.00     0.031 C 
ATOM     45  C   UNL A   1      40.900  26.488  27.713  1.00  0.00     0.029 A 
ATOM     46  N   UNL A   1      43.081  26.932  27.524  1.00  0.00    -0.354 N 
ATOM     47  C   UNL A   1      44.654  30.868  28.279  1.00  0.00     0.074 A 
ATOM     48  C   UNL A   1      43.622  31.772  28.741  1.00  0.00     0.031 C 
ATOM     49  C   UNL A   1      41.518  25.336  27.415  1.00  0.00     0.029 A 
ATOM     50  C   UNL A   1      42.948  25.587  27.267  1.00  0.00     0.049 A 
ATOM     51  H   UNL A   1      43.944  27.405  27.481  1.00  0.00     0.167 HD
ATOM     52  C   UNL A   1      45.962  31.202  28.157  1.00  0.00     0.037 A 
ATOM     53  C   UNL A   1      43.868  24.656  26.944  1.00  0.00     0.037 A 
ATOM     54  C   UNL A   1      47.004  30.296  27.760  1.00  0.00     0.049 A 
ATOM     55  C   UNL A   1      45.308  25.058  26.805  1.00  0.00     0.074 A 
ATOM     56  C   UNL A   1      48.357  30.552  27.626  1.00  0.00     0.029 A 
ATOM     57  N   UNL A   1      46.815  28.956  27.464  1.00  0.00    -0.354 N 
ATOM     58  N   UNL A   1      45.857  26.230  27.014  1.00  0.00    -0.248 NA
ATOM     59  C   UNL A   1      46.250  24.018  26.371  1.00  0.00     0.031 C 
ATOM     60  C   UNL A   1      48.988  29.367  27.236  1.00  0.00     0.029 A 
ATOM     61  C   UNL A   1      48.028  28.371  27.147  1.00  0.00     0.049 A 
ATOM     62  H   UNL A   1      45.948  28.491  27.479  1.00  0.00     0.167 HD
ATOM     63  C   UNL A   1      47.211  26.066  26.745  1.00  0.00     0.074 A 
ATOM     64  C   UNL A   1      47.401  24.678  26.376  1.00  0.00     0.031 C 
ATOM     65  C   UNL A   1      48.205  26.987  26.791  1.00  0.00     0.037 A 
BRANCH  52  66
ATOM     66  C   UNL A   1      46.354  32.607  28.501  1.00  0.00     0.058 A 
ATOM     67  C   UNL A   1      46.748  32.932  29.804  1.00  0.00     0.135 A 
ATOM     68  C   UNL A   1      46.378  33.624  27.535  1.00  0.00     0.135 A 
ATOM     69  F   UNL A   1      46.799  31.974  30.743  1.00  0.00    -0.206 F 
ATOM     70  C   UNL A   1      47.073  34.236  30.163  1.00  0.00     0.059 A 
ATOM     71  C   UNL A   1      46.731  34.931  27.864  1.00  0.00     0.059 A 
ATOM     72  F   UNL A   1      46.058  33.351  26.261  1.00  0.00    -0.206 F 
ATOM     73  C   UNL A   1      47.042  35.233  29.190  1.00  0.00     0.060 A 
BRANCH  73  74
ATOM     74  S   UNL A   1      47.431  36.930  29.669  1.00  0.00     0.124 S 
ATOM     75  O   UNL A   1      46.515  37.131  30.788  1.00  0.00    -0.237 OA
ATOM     76  O   UNL A   1      48.845  36.852  30.020  1.00  0.00    -0.237 OA
ATOM     77  O   UNL A   1      47.130  37.695  28.463  1.00  0.00    -0.744 OA
ENDBRANCH  73  74
ENDBRANCH  52  66
BRANCH  53  78
ATOM     78  C   UNL A   1      43.446  23.243  26.747  1.00  0.00     0.058 A 
ATOM     79  C   UNL A   1      43.402  22.682  25.464  1.00  0.00     0.135 A 
ATOM     80  C   UNL A   1      43.125  22.418  27.835  1.00  0.00     0.135 A 
ATOM     81  F   UNL A   1      43.691  23.435  24.391  1.00  0.00    -0.206 F 
ATOM     82  C   UNL A   1      43.060  21.349  25.264  1.00  0.00     0.059 A 
ATOM     83  C   UNL A   1      42.803  21.076  27.664  1.00  0.00     0.059 A 
ATOM     84  F   UNL A   1      43.163  22.907  29.085  1.00  0.00    -0.206 F 
ATOM     85  C   UNL A   1      42.771  20.551  26.373  1.00  0.00     0.060 A 
BRANCH  85  86
ATOM     86  S   UNL A   1      42.410  18.801  26.108  1.00  0.00     0.124 S 
ATOM     87  O   UNL A   1      42.680  18.243  27.428  1.00  0.00    -0.237 OA
ATOM     88  O   UNL A   1      41.008  18.836  25.704  1.00  0.00    -0.237 OA
ATOM     89  O   UNL A   1      43.348  18.420  25.057  1.00  0.00    -0.744 OA
ENDBRANCH  85  86
ENDBRANCH  53  78
BRANCH  65  90
ATOM     90  C   UNL A   1      49.592  26.531  26.447  1.00  0.00     0.058 A 
ATOM     91  C   UNL A   1      50.389  25.857  27.385  1.00  0.00     0.135 A 
ATOM     92  C   UNL A   1      50.098  26.696  25.148  1.00  0.00     0.135 A 
ATOM     93  F   UNL A   1      49.949  25.679  28.640  1.00  0.00    -0.206 F 
ATOM     94  C   UNL A   1      51.647  25.370  27.048  1.00  0.00     0.059 A 
ATOM     95  C   UNL A   1      51.345  26.199  24.784  1.00  0.00     0.059 A 
ATOM     96  F   UNL A   1      49.367  27.325  24.213  1.00  0.00    -0.206 F 
ATOM     97  C   UNL A   1      52.115  25.542  25.744  1.00  0.00     0.060 A 
BRANCH  97  98
ATOM     98  S   UNL A   1      53.728  24.859  25.309  1.00  0.00     0.124 S 
ATOM     99  O   UNL A   1      54.077  25.653  24.136  1.00  0.00    -0.237 OA
ATOM    100  O   UNL A   1      54.513  25.123  26.511  1.00  0.00    -0.237 OA
ATOM    101  O   UNL A   1      53.443  23.450  25.052  1.00  0.00    -0.744 OA
ENDBRANCH  97  98
ENDBRANCH  65  90
ENDBRANCH  39  40
ENDBRANCH  31  34
ENDBRANCH  29  30
ENDBRANCH   1  29
TORSDOF 15
ENDMDL
MODEL 2
REMARK VINA RESULT:     -12.1      2.903      3.618
REMARK SMILES CCN1C(=O)/C(=C2/SC(=S)N([C@@H](C)C(=O)NCCCNC(=O)c3ccc(-c4c5nc(c(-c6c(F)cc(S(=O)(=O)[O-])cc6F)c6ccc([nH]6)c(-c6c(F)cc(S(=O)(=O)[O-])cc6F)c6nc(c(-c7c(F)cc(S(=O)(=O)[O-])cc7F)c7ccc4[nH]7)C=C6)C=C5)cc3)C2=O)c2cc(Br)ccc21
REMARK SMILES IDX 18 1 17 2 16 3 14 4 15 5 12 7 13 8 11 9 3 10 4 11 97 12 5 13
REMARK SMILES IDX 6 14 91 15 96 16 7 17 92 18 95 19 8 20 89 21 93 22 9 23
REMARK SMILES IDX 90 24 94 25 10 26 2 27 1 28 19 29 20 30 21 31 22 33 23 34
REMARK SMILES IDX 24 35 88 36 25 37 87 38 26 39 27 40 28 41 81 42 29 43 86 44
REMARK SMILES IDX 80 45 82 46 30 47 85 48 79 49 78 50 31 52 65 53 44 54 64 55
REMARK SMILES IDX 45 56 48 57 63 58 83 59 46 60 47 61 62 63 84 64 49 65 32 66
REMARK SMILES IDX 33 67 42 68 34 69 35 70 41 71 43 72 36 73 37 74 38 75 39 76
REMARK SMILES IDX 40 77 66 78 67 79 76 80 68 81 69 82 75 83 77 84 70 85 71 86
REMARK SMILES IDX 72 87 73 88 74 89 50 90 51 91 60 92 52 93 53 94 59 95 61 96
REMARK SMILES IDX 54 97 55 98 56 99 57 100 58 101
REMARK H PARENT 16 6 20 32 82 51 48 62
REMARK Flexibility Score: inf
ROOT
ATOM      1  C   UNL A   1      31.994  27.674  27.541  1.00  0.00     0.042 C 
ENDROOT
BRANCH   1   2
ATOM      2  C   UNL A   1      31.608  26.682  26.446  1.00  0.00     0.117 C 
BRANCH   2   3
ATOM      3  N   UNL A   1      31.131  27.349  25.246  1.00  0.00    -0.354 N 
ATOM      4  C   UNL A   1      31.700  27.664  24.049  1.00  0.00     0.242 C 
ATOM      5  O   UNL A   1      30.938  28.206  23.237  1.00  0.00    -0.273 OA
ATOM      6  H   UNL A   1      30.192  27.637  25.313  1.00  0.00     0.163 HD
BRANCH   4   7
ATOM      7  C   UNL A   1      33.171  27.374  23.645  1.00  0.00     0.178 C 
ATOM      8  C   UNL A   1      33.631  28.226  22.468  1.00  0.00     0.042 C 
BRANCH   7   9
ATOM      9  N   UNL A   1      33.460  25.926  23.614  1.00  0.00    -0.280 N 
ATOM     10  N   UNL A   1      37.043  21.872  25.327  1.00  0.00    -0.308 N 
ATOM     11  C   UNL A   1      36.446  23.147  25.428  1.00  0.00     0.260 C 
ATOM     12  C   UNL A   1      36.085  20.882  25.029  1.00  0.00     0.052 A 
ATOM     13  O   UNL A   1      36.987  24.200  25.670  1.00  0.00    -0.269 OA
ATOM     14  C   UNL A   1      35.002  22.925  25.038  1.00  0.00     0.069 C 
ATOM     15  C   UNL A   1      34.826  21.469  24.914  1.00  0.00     0.014 A 
ATOM     16  C   UNL A   1      36.251  19.513  24.858  1.00  0.00     0.028 A 
ATOM     17  C   UNL A   1      34.149  23.869  24.603  1.00  0.00     0.093 C 
ATOM     18  C   UNL A   1      33.699  20.687  24.724  1.00  0.00     0.026 A 
ATOM     19  C   UNL A   1      35.127  18.736  24.549  1.00  0.00     0.018 A 
ATOM     20  S   UNL A   1      32.803  23.493  23.566  1.00  0.00    -0.053 SA
ATOM     21  C   UNL A   1      34.213  25.368  24.660  1.00  0.00     0.267 C 
ATOM     22  C   UNL A   1      33.864  19.331  24.483  1.00  0.00     0.018 A 
ATOM     23  C   UNL A   1      32.978  25.004  22.723  1.00  0.00     0.149 C 
ATOM     24  O   UNL A   1      34.782  25.995  25.538  1.00  0.00    -0.268 OA
ATOM     25  Br  UNL A   1      32.345  18.351  23.969  1.00  0.00    -0.051 Br
ATOM     26  S   UNL A   1      32.692  25.112  21.087  1.00  0.00    -0.052 S 
BRANCH  10  27
ATOM     27  C   UNL A   1      38.444  21.587  25.581  1.00  0.00     0.122 C 
ATOM     28  C   UNL A   1      39.083  22.507  26.611  1.00  0.00     0.028 C 
ENDBRANCH  10  27
ENDBRANCH   7   9
ENDBRANCH   4   7
ENDBRANCH   2   3
ENDBRANCH   1   2
BRANCH   1  29
ATOM     29  C   UNL A   1      33.382  28.283  27.364  1.00  0.00     0.118 C 
BRANCH  29  30
ATOM     30  N   UNL A   1      33.379  29.737  27.479  1.00  0.00    -0.352 N 
ATOM     31  C   UNL A   1      34.352  30.615  27.901  1.00  0.00     0.251 C 
ATOM     32  H   UNL A   1      32.534  30.164  27.209  1.00  0.00     0.163 HD
ATOM     33  O   UNL A   1      34.047  31.794  28.069  1.00  0.00    -0.269 OA
BRANCH  31  34
ATOM     34  C   UNL A   1      35.743  30.172  28.178  1.00  0.00     0.039 A 
ATOM     35  C   UNL A   1      36.111  29.632  29.409  1.00  0.00     0.014 A 
ATOM     36  C   UNL A   1      36.699  30.254  27.157  1.00  0.00     0.014 A 
ATOM     37  C   UNL A   1      37.449  29.345  29.677  1.00  0.00     0.010 A 
ATOM     38  C   UNL A   1      38.027  29.873  27.397  1.00  0.00     0.010 A 
ATOM     39  C   UNL A   1      38.428  29.456  28.675  1.00  0.00    -0.014 A 
BRANCH  39  40
ATOM     40  C   UNL A   1      39.847  29.120  28.988  1.00  0.00     0.031 A 
ATOM     41  C   UNL A   1      40.706  30.055  29.803  1.00  0.00     0.074 A 
ATOM     42  C   UNL A   1      40.352  27.933  28.590  1.00  0.00     0.049 A 
ATOM     43  N   UNL A   1      41.958  29.919  30.165  1.00  0.00    -0.248 NA
ATOM     44  C   UNL A   1      40.086  31.306  30.272  1.00  0.00     0.031 C 
ATOM     45  C   UNL A   1      39.632  26.931  27.802  1.00  0.00     0.029 A 
ATOM     46  N   UNL A   1      41.573  27.350  28.824  1.00  0.00    -0.354 N 
ATOM     47  C   UNL A   1      42.280  31.066  30.882  1.00  0.00     0.074 A 
ATOM     48  C   UNL A   1      41.098  31.902  30.888  1.00  0.00     0.031 C 
ATOM     49  C   UNL A   1      40.391  25.832  27.685  1.00  0.00     0.029 A 
ATOM     50  C   UNL A   1      41.679  26.071  28.328  1.00  0.00     0.049 A 
ATOM     51  H   UNL A   1      42.305  27.804  29.303  1.00  0.00     0.167 HD
ATOM     52  C   UNL A   1      43.444  31.385  31.498  1.00  0.00     0.037 A 
ATOM     53  C   UNL A   1      42.695  25.187  28.379  1.00  0.00     0.037 A 
ATOM     54  C   UNL A   1      44.601  30.537  31.552  1.00  0.00     0.049 A 
ATOM     55  C   UNL A   1      43.977  25.575  29.059  1.00  0.00     0.074 A 
ATOM     56  C   UNL A   1      45.815  30.781  32.169  1.00  0.00     0.029 A 
ATOM     57  N   UNL A   1      44.678  29.271  30.996  1.00  0.00    -0.354 N 
ATOM     58  N   UNL A   1      44.265  26.682  29.699  1.00  0.00    -0.248 NA
ATOM     59  C   UNL A   1      45.076  24.602  29.009  1.00  0.00     0.031 C 
ATOM     60  C   UNL A   1      46.635  29.664  31.975  1.00  0.00     0.029 A 
ATOM     61  C   UNL A   1      45.921  28.719  31.255  1.00  0.00     0.049 A 
ATOM     62  H   UNL A   1      43.957  28.829  30.493  1.00  0.00     0.167 HD
ATOM     63  C   UNL A   1      45.577  26.535  30.137  1.00  0.00     0.074 A 
ATOM     64  C   UNL A   1      46.019  25.226  29.704  1.00  0.00     0.031 C 
ATOM     65  C   UNL A   1      46.346  27.412  30.827  1.00  0.00     0.037 A 
BRANCH  52  66
ATOM     66  C   UNL A   1      43.512  32.703  32.210  1.00  0.00     0.058 A 
ATOM     67  C   UNL A   1      43.929  33.853  31.530  1.00  0.00     0.135 A 
ATOM     68  C   UNL A   1      43.128  32.836  33.552  1.00  0.00     0.135 A 
ATOM     69  F   UNL A   1      44.245  33.779  30.228  1.00  0.00    -0.206 F 
ATOM     70  C   UNL A   1      44.045  35.079  32.177  1.00  0.00     0.059 A 
ATOM     71  C   UNL A   1      43.205  34.061  34.212  1.00  0.00     0.059 A 
ATOM     72  F   UNL A   1      42.673  31.773  34.233  1.00  0.00    -0.206 F 
ATOM     73  C   UNL A   1      43.700  35.169  33.523  1.00  0.00     0.060 A 
BRANCH  73  74
ATOM     74  S   UNL A   1      43.885  36.755  34.368  1.00  0.00     0.124 S 
ATOM     75  O   UNL A   1      44.525  36.345  35.614  1.00  0.00    -0.237 OA
ATOM     76  O   UNL A   1      44.728  37.514  33.449  1.00  0.00    -0.237 OA
ATOM     77  O   UNL A   1      42.512  37.231  34.491  1.00  0.00    -0.744 OA
ENDBRANCH  73  74
ENDBRANCH  52  66
BRANCH  53  78
ATOM     78  C   UNL A   1      42.527  23.839  27.776  1.00  0.00     0.058 A 
ATOM     79  C   UNL A   1      42.642  23.654  26.391  1.00  0.00     0.135 A 
ATOM     80  C   UNL A   1      42.294  22.706  28.571  1.00  0.00     0.135 A 
ATOM     81  F   UNL A   1      42.854  24.708  25.589  1.00  0.00    -0.206 F 
ATOM     82  C   UNL A   1      42.539  22.393  25.815  1.00  0.00     0.059 A 
ATOM     83  C   UNL A   1      42.211  21.432  28.021  1.00  0.00     0.059 A 
ATOM     84  F   UNL A   1      42.186  22.831  29.903  1.00  0.00    -0.206 F 
ATOM     85  C   UNL A   1      42.332  21.285  26.639  1.00  0.00     0.060 A 
BRANCH  85  86
ATOM     86  S   UNL A   1      42.284  19.644  25.888  1.00  0.00     0.124 S 
ATOM     87  O   UNL A   1      42.647  18.794  27.017  1.00  0.00    -0.237 OA
ATOM     88  O   UNL A   1      40.898  19.554  25.440  1.00  0.00    -0.237 OA
ATOM     89  O   UNL A   1      43.275  19.735  24.820  1.00  0.00    -0.744 OA
ENDBRANCH  85  86
ENDBRANCH  53  78
BRANCH  65  90
ATOM     90  C   UNL A   1      47.743  26.989  31.172  1.00  0.00     0.058 A 
ATOM     91  C   UNL A   1      48.009  26.227  32.320  1.00  0.00     0.135 A 
ATOM     92  C   UNL A   1      48.812  27.277  30.309  1.00  0.00     0.135 A 
ATOM     93  F   UNL A   1      47.020  25.930  33.177  1.00  0.00    -0.206 F 
ATOM     94  C   UNL A   1      49.292  25.774  32.605  1.00  0.00     0.059 A 
ATOM     95  C   UNL A   1      50.099  26.816  30.564  1.00  0.00     0.059 A 
ATOM     96  F   UNL A   1      48.604  27.994  29.192  1.00  0.00    -0.206 F 
ATOM     97  C   UNL A   1      50.330  26.069  31.719  1.00  0.00     0.060 A 
BRANCH  97  98
ATOM     98  S   UNL A   1      51.978  25.428  32.078  1.00  0.00     0.124 S 
ATOM     99  O   UNL A   1      51.722  23.994  32.169  1.00  0.00    -0.237 OA
ATOM    100  O   UNL A   1      52.743  25.863  30.913  1.00  0.00    -0.237 OA
ATOM    101  O   UNL A   1      52.333  26.083  33.333  1.00  0.00    -0.744 OA
ENDBRANCH  97  98
ENDBRANCH  65  90
ENDBRANCH  39  40
ENDBRANCH  31  34
ENDBRANCH  29  30
ENDBRANCH   1  29
TORSDOF 15
ENDMDL
MODEL 3
REMARK VINA RESULT:     -12.0      0.792      7.994
REMARK SMILES CCN1C(=O)/C(=C2/SC(=S)N([C@@H](C)C(=O)NCCCNC(=O)c3ccc(-c4c5nc(c(-c6c(F)cc(S(=O)(=O)[O-])cc6F)c6ccc([nH]6)c(-c6c(F)cc(S(=O)(=O)[O-])cc6F)c6nc(c(-c7c(F)cc(S(=O)(=O)[O-])cc7F)c7ccc4[nH]7)C=C6)C=C5)cc3)C2=O)c2cc(Br)ccc21
REMARK SMILES IDX 18 1 17 2 16 3 14 4 15 5 12 7 13 8 11 9 3 10 4 11 97 12 5 13
REMARK SMILES IDX 6 14 91 15 96 16 7 17 92 18 95 19 8 20 89 21 93 22 9 23
REMARK SMILES IDX 90 24 94 25 10 26 2 27 1 28 19 29 20 30 21 31 22 33 23 34
REMARK SMILES IDX 24 35 88 36 25 37 87 38 26 39 27 40 28 41 81 42 29 43 86 44
REMARK SMILES IDX 80 45 82 46 30 47 85 48 79 49 78 50 31 52 65 53 44 54 64 55
REMARK SMILES IDX 45 56 48 57 63 58 83 59 46 60 47 61 62 63 84 64 49 65 32 66
REMARK SMILES IDX 33 67 42 68 34 69 35 70 41 71 43 72 36 73 37 74 38 75 39 76
REMARK SMILES IDX 40 77 66 78 67 79 76 80 68 81 69 82 75 83 77 84 70 85 71 86
REMARK SMILES IDX 72 87 73 88 74 89 50 90 51 91 60 92 52 93 53 94 59 95 61 96
REMARK SMILES IDX 54 97 55 98 56 99 57 100 58 101
REMARK H PARENT 16 6 20 32 82 51 48 62
REMARK Flexibility Score: inf
ROOT
ATOM      1  C   UNL A   1      34.126  30.589  27.264  1.00  0.00     0.042 C 
ENDROOT
BRANCH   1   2
ATOM      2  C   UNL A   1      33.872  29.156  26.800  1.00  0.00     0.117 C 
BRANCH   2   3
ATOM      3  N   UNL A   1      34.227  28.963  25.403  1.00  0.00    -0.354 N 
ATOM      4  C   UNL A   1      33.730  28.190  24.399  1.00  0.00     0.242 C 
ATOM      5  O   UNL A   1      34.286  28.340  23.303  1.00  0.00    -0.273 OA
ATOM      6  H   UNL A   1      34.995  29.510  25.123  1.00  0.00     0.163 HD
BRANCH   4   7
ATOM      7  C   UNL A   1      32.542  27.196  24.528  1.00  0.00     0.178 C 
ATOM      8  C   UNL A   1      31.627  27.533  25.699  1.00  0.00     0.042 C 
BRANCH   7   9
ATOM      9  N   UNL A   1      32.976  25.794  24.360  1.00  0.00    -0.280 N 
ATOM     10  N   UNL A   1      37.117  22.060  25.420  1.00  0.00    -0.308 N 
ATOM     11  C   UNL A   1      36.403  23.252  25.672  1.00  0.00     0.260 C 
ATOM     12  C   UNL A   1      36.242  20.992  25.138  1.00  0.00     0.052 A 
ATOM     13  O   UNL A   1      36.852  24.340  25.943  1.00  0.00    -0.269 OA
ATOM     14  C   UNL A   1      34.958  22.897  25.403  1.00  0.00     0.069 C 
ATOM     15  C   UNL A   1      34.923  21.441  25.184  1.00  0.00     0.014 A 
ATOM     16  C   UNL A   1      36.532  19.664  24.848  1.00  0.00     0.028 A 
ATOM     17  C   UNL A   1      33.972  23.767  25.122  1.00  0.00     0.093 C 
ATOM     18  C   UNL A   1      33.871  20.553  25.042  1.00  0.00     0.026 A 
ATOM     19  C   UNL A   1      35.469  18.789  24.587  1.00  0.00     0.018 A 
ATOM     20  S   UNL A   1      32.575  23.312  24.189  1.00  0.00    -0.053 SA
ATOM     21  C   UNL A   1      33.884  25.256  25.286  1.00  0.00     0.267 C 
ATOM     22  C   UNL A   1      34.151  19.243  24.684  1.00  0.00     0.018 A 
ATOM     23  C   UNL A   1      32.506  24.885  23.450  1.00  0.00     0.149 C 
ATOM     24  O   UNL A   1      34.470  25.884  26.153  1.00  0.00    -0.268 OA
ATOM     25  Br  UNL A   1      32.699  18.135  24.240  1.00  0.00    -0.051 Br
ATOM     26  S   UNL A   1      32.047  25.068  21.861  1.00  0.00    -0.052 S 
BRANCH  10  27
ATOM     27  C   UNL A   1      38.558  21.917  25.520  1.00  0.00     0.122 C 
ATOM     28  C   UNL A   1      39.166  22.627  26.722  1.00  0.00     0.028 C 
ENDBRANCH  10  27
ENDBRANCH   7   9
ENDBRANCH   4   7
ENDBRANCH   2   3
ENDBRANCH   1   2
BRANCH   1  29
ATOM     29  C   UNL A   1      35.498  30.800  27.898  1.00  0.00     0.118 C 
BRANCH  29  30
ATOM     30  N   UNL A   1      35.457  30.770  29.355  1.00  0.00    -0.352 N 
ATOM     31  C   UNL A   1      36.362  30.297  30.279  1.00  0.00     0.251 C 
ATOM     32  H   UNL A   1      34.639  31.155  29.746  1.00  0.00     0.163 HD
ATOM     33  O   UNL A   1      36.019  30.231  31.458  1.00  0.00    -0.269 OA
BRANCH  31  34
ATOM     34  C   UNL A   1      37.721  29.845  29.885  1.00  0.00     0.039 A 
ATOM     35  C   UNL A   1      38.629  29.346  30.818  1.00  0.00     0.014 A 
ATOM     36  C   UNL A   1      38.084  29.876  28.532  1.00  0.00     0.014 A 
ATOM     37  C   UNL A   1      39.936  29.049  30.435  1.00  0.00     0.010 A 
ATOM     38  C   UNL A   1      39.370  29.485  28.133  1.00  0.00     0.010 A 
ATOM     39  C   UNL A   1      40.327  29.109  29.087  1.00  0.00    -0.014 A 
BRANCH  39  40
ATOM     40  C   UNL A   1      41.728  28.766  28.707  1.00  0.00     0.031 A 
ATOM     41  C   UNL A   1      42.092  27.372  28.257  1.00  0.00     0.074 A 
ATOM     42  C   UNL A   1      42.672  29.730  28.705  1.00  0.00     0.049 A 
ATOM     43  N   UNL A   1      43.261  26.903  27.892  1.00  0.00    -0.248 NA
ATOM     44  C   UNL A   1      41.011  26.373  28.211  1.00  0.00     0.031 C 
ATOM     45  C   UNL A   1      42.457  31.121  29.110  1.00  0.00     0.029 A 
ATOM     46  N   UNL A   1      43.988  29.702  28.315  1.00  0.00    -0.354 N 
ATOM     47  C   UNL A   1      43.061  25.560  27.594  1.00  0.00     0.074 A 
ATOM     48  C   UNL A   1      41.663  25.278  27.841  1.00  0.00     0.031 C 
ATOM     49  C   UNL A   1      43.573  31.827  28.876  1.00  0.00     0.029 A 
ATOM     50  C   UNL A   1      44.607  30.930  28.368  1.00  0.00     0.049 A 
ATOM     51  H   UNL A   1      44.447  28.881  28.024  1.00  0.00     0.167 HD
ATOM     52  C   UNL A   1      43.954  24.648  27.137  1.00  0.00     0.037 A 
ATOM     53  C   UNL A   1      45.863  31.299  28.050  1.00  0.00     0.037 A 
ATOM     54  C   UNL A   1      45.328  24.931  26.829  1.00  0.00     0.049 A 
ATOM     55  C   UNL A   1      46.833  30.264  27.557  1.00  0.00     0.074 A 
ATOM     56  C   UNL A   1      46.294  24.066  26.347  1.00  0.00     0.029 A 
ATOM     57  N   UNL A   1      45.922  26.178  26.943  1.00  0.00    -0.354 N 
ATOM     58  N   UNL A   1      46.626  28.992  27.317  1.00  0.00    -0.248 NA
ATOM     59  C   UNL A   1      48.210  30.709  27.306  1.00  0.00     0.031 C 
ATOM     60  C   UNL A   1      47.481  24.788  26.181  1.00  0.00     0.029 A 
ATOM     61  C   UNL A   1      47.244  26.105  26.541  1.00  0.00     0.049 A 
ATOM     62  H   UNL A   1      45.471  26.992  27.262  1.00  0.00     0.167 HD
ATOM     63  C   UNL A   1      47.845  28.486  26.879  1.00  0.00     0.074 A 
ATOM     64  C   UNL A   1      48.779  29.592  26.869  1.00  0.00     0.031 C 
ATOM     65  C   UNL A   1      48.161  27.216  26.526  1.00  0.00     0.037 A 
BRANCH  52  66
ATOM     66  C   UNL A   1      43.459  23.254  26.895  1.00  0.00     0.058 A 
ATOM     67  C   UNL A   1      43.188  22.404  27.972  1.00  0.00     0.135 A 
ATOM     68  C   UNL A   1      43.214  22.773  25.600  1.00  0.00     0.135 A 
ATOM     69  F   UNL A   1      43.348  22.848  29.229  1.00  0.00    -0.206 F 
ATOM     70  C   UNL A   1      42.771  21.091  27.777  1.00  0.00     0.059 A 
ATOM     71  C   UNL A   1      42.766  21.472  25.381  1.00  0.00     0.059 A 
ATOM     72  F   UNL A   1      43.411  23.568  24.537  1.00  0.00    -0.206 F 
ATOM     73  C   UNL A   1      42.582  20.628  26.476  1.00  0.00     0.060 A 
BRANCH  73  74
ATOM     74  S   UNL A   1      42.074  18.913  26.226  1.00  0.00     0.124 S 
ATOM     75  O   UNL A   1      43.001  18.487  25.181  1.00  0.00    -0.237 OA
ATOM     76  O   UNL A   1      42.291  18.316  27.540  1.00  0.00    -0.237 OA
ATOM     77  O   UNL A   1      40.678  19.033  25.820  1.00  0.00    -0.744 OA
ENDBRANCH  73  74
ENDBRANCH  52  66
BRANCH  53  78
ATOM     78  C   UNL A   1      46.266  32.724  28.177  1.00  0.00     0.058 A 
ATOM     79  C   UNL A   1      46.110  33.611  27.103  1.00  0.00     0.135 A 
ATOM     80  C   UNL A   1      46.770  33.237  29.382  1.00  0.00     0.135 A 
ATOM     81  F   UNL A   1      45.642  33.165  25.927  1.00  0.00    -0.206 F 
ATOM     82  C   UNL A   1      46.432  34.958  27.219  1.00  0.00     0.059 A 
ATOM     83  C   UNL A   1      47.077  34.585  29.531  1.00  0.00     0.059 A 
ATOM     84  F   UNL A   1      46.928  32.429  30.442  1.00  0.00    -0.206 F 
ATOM     85  C   UNL A   1      46.908  35.438  28.441  1.00  0.00     0.060 A 
BRANCH  85  86
ATOM     86  S   UNL A   1      47.244  37.205  28.605  1.00  0.00     0.124 S 
ATOM     87  O   UNL A   1      48.507  37.331  27.886  1.00  0.00    -0.237 OA
ATOM     88  O   UNL A   1      46.079  37.799  27.959  1.00  0.00    -0.237 OA
ATOM     89  O   UNL A   1      47.318  37.400  30.050  1.00  0.00    -0.744 OA
ENDBRANCH  85  86
ENDBRANCH  53  78
BRANCH  65  90
ATOM     90  C   UNL A   1      49.569  26.947  26.087  1.00  0.00     0.058 A 
ATOM     91  C   UNL A   1      50.546  26.519  26.999  1.00  0.00     0.135 A 
ATOM     92  C   UNL A   1      49.927  27.038  24.733  1.00  0.00     0.135 A 
ATOM     93  F   UNL A   1      50.253  26.421  28.305  1.00  0.00    -0.206 F 
ATOM     94  C   UNL A   1      51.834  26.201  26.584  1.00  0.00     0.059 A 
ATOM     95  C   UNL A   1      51.203  26.705  24.293  1.00  0.00     0.059 A 
ATOM     96  F   UNL A   1      49.023  27.432  23.821  1.00  0.00    -0.206 F 
ATOM     97  C   UNL A   1      52.152  26.292  25.228  1.00  0.00     0.060 A 
BRANCH  97  98
ATOM     98  S   UNL A   1      53.813  25.825  24.699  1.00  0.00     0.124 S 
ATOM     99  O   UNL A   1      54.642  26.571  25.640  1.00  0.00    -0.237 OA
ATOM    100  O   UNL A   1      53.801  24.376  24.875  1.00  0.00    -0.237 OA
ATOM    101  O   UNL A   1      53.871  26.281  23.313  1.00  0.00    -0.744 OA
ENDBRANCH  97  98
ENDBRANCH  65  90
ENDBRANCH  39  40
ENDBRANCH  31  34
ENDBRANCH  29  30
ENDBRANCH   1  29
TORSDOF 15
ENDMDL
