MODEL 1
REMARK VINA RESULT:     -11.5      0.000      0.000
REMARK SMILES CC(C)C[C@@H](C[NH3+])C(=O)N1CCC(CC(=O)NCCCNC(=O)c2ccc(-c3c4nc(c(-c5c(F)cc(S(=O)(=O)[O-])cc5F)c5ccc([nH]5)c(-c5c(F)cc(S(=O)(=O)[O-])cc5F)c5nc(c(-c6c(F)cc(S(=O)(=O)[O-])cc6F)c6ccc3[nH]6)C=C5)C=C4)cc2)CC1
REMARK SMILES IDX 18 1 17 2 15 3 16 4 14 6 13 7 8 8 9 9 10 10 11 11 91 12
REMARK SMILES IDX 12 13 90 14 5 15 4 16 2 17 1 18 3 19 6 20 7 21 19 25 20 26
REMARK SMILES IDX 21 27 22 28 23 30 24 31 25 32 89 33 26 34 88 35 27 36 28 37
REMARK SMILES IDX 29 38 82 39 30 40 87 41 81 42 83 43 31 44 86 45 80 46 79 47
REMARK SMILES IDX 32 49 66 50 45 51 65 52 46 53 49 54 64 55 84 56 47 57 48 58
REMARK SMILES IDX 63 60 85 61 50 62 33 63 34 64 43 65 35 66 36 67 42 68 44 69
REMARK SMILES IDX 37 70 38 71 39 72 40 73 41 74 67 75 68 76 77 77 69 78 70 79
REMARK SMILES IDX 76 80 78 81 71 82 72 83 73 84 74 85 75 86 51 87 52 88 61 89
REMARK SMILES IDX 53 90 54 91 60 92 62 93 55 94 56 95 57 96 58 97 59 98
REMARK H PARENT 17 5 7 22 7 23 7 24 21 29 83 48 49 59
REMARK Flexibility Score: inf
ROOT
ATOM      1  C   UNL A   1      38.326  22.303  25.746  1.00  0.00     0.117 C 
ENDROOT
BRANCH   1   2
ATOM      2  N   UNL A   1      37.664  21.123  25.201  1.00  0.00    -0.356 N 
ATOM      3  C   UNL A   1      36.379  20.681  25.310  1.00  0.00     0.220 C 
ATOM      4  O   UNL A   1      36.064  19.646  24.718  1.00  0.00    -0.275 OA
ATOM      5  H   UNL A   1      38.249  20.545  24.660  1.00  0.00     0.163 HD
BRANCH   3   6
ATOM      6  C   UNL A   1      35.361  21.427  26.151  1.00  0.00     0.103 C 
BRANCH   6   7
ATOM      7  C   UNL A   1      34.329  22.205  25.313  1.00  0.00     0.002 C 
ATOM      8  C   UNL A   1      31.188  24.579  26.314  1.00  0.00     0.231 C 
ATOM      9  O   UNL A   1      30.834  23.969  27.328  1.00  0.00    -0.274 OA
ATOM     10  N   UNL A   1      32.042  24.000  25.396  1.00  0.00    -0.342 N 
ATOM     11  C   UNL A   1      31.824  22.615  25.040  1.00  0.00     0.120 C 
ATOM     12  C   UNL A   1      33.328  24.545  24.997  1.00  0.00     0.120 C 
ATOM     13  C   UNL A   1      32.907  21.741  25.635  1.00  0.00     0.026 C 
ATOM     14  C   UNL A   1      34.478  23.714  25.572  1.00  0.00     0.026 C 
BRANCH   8  15
ATOM     15  C   UNL A   1      30.477  25.881  25.916  1.00  0.00     0.133 C 
BRANCH  15  16
ATOM     16  C   UNL A   1      31.130  27.166  26.438  1.00  0.00     0.022 C 
BRANCH  16  17
ATOM     17  C   UNL A   1      31.978  27.963  25.431  1.00  0.00    -0.016 C 
ATOM     18  C   UNL A   1      31.521  29.413  25.278  1.00  0.00     0.007 C 
ATOM     19  C   UNL A   1      33.442  27.928  25.885  1.00  0.00     0.007 C 
ENDBRANCH  16  17
ENDBRANCH  15  16
BRANCH  15  20
ATOM     20  C   UNL A   1      30.211  25.853  24.396  1.00  0.00     0.272 C 
BRANCH  20  21
ATOM     21  N   UNL A   1      28.817  26.080  24.008  1.00  0.00    -0.357 N 
ATOM     22  H   UNL A   1      28.786  26.703  23.202  1.00  0.00     0.344 HD
ATOM     23  H   UNL A   1      28.311  26.503  24.785  1.00  0.00     0.344 HD
ATOM     24  H   UNL A   1      28.383  25.188  23.765  1.00  0.00     0.344 HD
ENDBRANCH  20  21
ENDBRANCH  15  20
ENDBRANCH   8  15
ENDBRANCH   6   7
ENDBRANCH   3   6
ENDBRANCH   1   2
BRANCH   1  25
ATOM     25  C   UNL A   1      39.594  21.980  26.539  1.00  0.00     0.042 C 
BRANCH  25  26
ATOM     26  C   UNL A   1      40.282  23.186  27.160  1.00  0.00     0.118 C 
BRANCH  26  27
ATOM     27  N   UNL A   1      40.860  24.045  26.146  1.00  0.00    -0.352 N 
ATOM     28  C   UNL A   1      41.054  25.403  26.158  1.00  0.00     0.251 C 
ATOM     29  H   UNL A   1      41.156  23.585  25.327  1.00  0.00     0.163 HD
ATOM     30  O   UNL A   1      41.281  25.972  25.092  1.00  0.00    -0.269 OA
BRANCH  28  31
ATOM     31  C   UNL A   1      41.006  26.193  27.418  1.00  0.00     0.039 A 
ATOM     32  C   UNL A   1      39.921  26.000  28.281  1.00  0.00     0.014 A 
ATOM     33  C   UNL A   1      41.941  27.191  27.712  1.00  0.00     0.014 A 
ATOM     34  C   UNL A   1      39.767  26.808  29.413  1.00  0.00     0.010 A 
ATOM     35  C   UNL A   1      41.834  27.938  28.888  1.00  0.00     0.010 A 
ATOM     36  C   UNL A   1      40.719  27.791  29.725  1.00  0.00    -0.014 A 
BRANCH  36  37
ATOM     37  C   UNL A   1      40.498  28.733  30.856  1.00  0.00     0.031 A 
ATOM     38  C   UNL A   1      41.349  28.630  32.099  1.00  0.00     0.074 A 
ATOM     39  C   UNL A   1      39.541  29.678  30.776  1.00  0.00     0.049 A 
ATOM     40  N   UNL A   1      41.320  29.357  33.187  1.00  0.00    -0.248 NA
ATOM     41  C   UNL A   1      42.348  27.549  32.134  1.00  0.00     0.031 C 
ATOM     42  C   UNL A   1      38.617  29.856  29.655  1.00  0.00     0.029 A 
ATOM     43  N   UNL A   1      39.190  30.672  31.656  1.00  0.00    -0.354 N 
ATOM     44  C   UNL A   1      42.276  28.811  34.037  1.00  0.00     0.074 A 
ATOM     45  C   UNL A   1      42.829  27.658  33.364  1.00  0.00     0.031 C 
ATOM     46  C   UNL A   1      37.827  30.914  29.901  1.00  0.00     0.029 A 
ATOM     47  C   UNL A   1      38.173  31.478  31.202  1.00  0.00     0.049 A 
ATOM     48  H   UNL A   1      39.626  30.796  32.530  1.00  0.00     0.167 HD
ATOM     49  C   UNL A   1      42.683  29.245  35.255  1.00  0.00     0.037 A 
ATOM     50  C   UNL A   1      37.594  32.556  31.766  1.00  0.00     0.037 A 
ATOM     51  C   UNL A   1      42.168  30.420  35.907  1.00  0.00     0.049 A 
ATOM     52  C   UNL A   1      38.096  33.050  33.096  1.00  0.00     0.074 A 
ATOM     53  C   UNL A   1      42.552  30.977  37.114  1.00  0.00     0.029 A 
ATOM     54  N   UNL A   1      41.163  31.229  35.396  1.00  0.00    -0.354 N 
ATOM     55  N   UNL A   1      39.038  32.551  33.860  1.00  0.00    -0.248 NA
ATOM     56  C   UNL A   1      37.466  34.265  33.633  1.00  0.00     0.031 C 
ATOM     57  C   UNL A   1      41.762  32.109  37.346  1.00  0.00     0.029 A 
ATOM     58  C   UNL A   1      40.910  32.276  36.267  1.00  0.00     0.049 A 
ATOM     59  H   UNL A   1      40.698  31.080  34.541  1.00  0.00     0.167 HD
ATOM     60  C   UNL A   1      39.129  33.402  34.956  1.00  0.00     0.074 A 
ATOM     61  C   UNL A   1      38.159  34.457  34.747  1.00  0.00     0.031 C 
ATOM     62  C   UNL A   1      39.941  33.319  36.040  1.00  0.00     0.037 A 
BRANCH  49  63
ATOM     63  C   UNL A   1      43.750  28.446  35.954  1.00  0.00     0.058 A 
ATOM     64  C   UNL A   1      45.116  28.728  35.777  1.00  0.00     0.135 A 
ATOM     65  C   UNL A   1      43.408  27.397  36.822  1.00  0.00     0.135 A 
ATOM     66  F   UNL A   1      45.500  29.710  34.946  1.00  0.00    -0.206 F 
ATOM     67  C   UNL A   1      46.102  27.975  36.403  1.00  0.00     0.059 A 
ATOM     68  C   UNL A   1      44.379  26.647  37.481  1.00  0.00     0.059 A 
ATOM     69  F   UNL A   1      42.119  27.086  37.031  1.00  0.00    -0.206 F 
ATOM     70  C   UNL A   1      45.724  26.932  37.251  1.00  0.00     0.060 A 
BRANCH  70  71
ATOM     71  S   UNL A   1      47.016  25.957  38.051  1.00  0.00     0.124 S 
ATOM     72  O   UNL A   1      46.315  25.459  39.230  1.00  0.00    -0.237 OA
ATOM     73  O   UNL A   1      47.334  24.960  37.035  1.00  0.00    -0.237 OA
ATOM     74  O   UNL A   1      48.067  26.937  38.314  1.00  0.00    -0.744 OA
ENDBRANCH  70  71
ENDBRANCH  49  63
BRANCH  50  75
ATOM     75  C   UNL A   1      36.504  33.272  31.052  1.00  0.00     0.058 A 
ATOM     76  C   UNL A   1      36.773  34.042  29.911  1.00  0.00     0.135 A 
ATOM     77  C   UNL A   1      35.173  33.193  31.489  1.00  0.00     0.135 A 
ATOM     78  F   UNL A   1      38.032  34.154  29.459  1.00  0.00    -0.206 F 
ATOM     79  C   UNL A   1      35.766  34.725  29.237  1.00  0.00     0.059 A 
ATOM     80  C   UNL A   1      34.145  33.848  30.819  1.00  0.00     0.059 A 
ATOM     81  F   UNL A   1      34.862  32.455  32.566  1.00  0.00    -0.206 F 
ATOM     82  C   UNL A   1      34.453  34.621  29.699  1.00  0.00     0.060 A 
BRANCH  82  83
ATOM     83  S   UNL A   1      33.142  35.469  28.791  1.00  0.00     0.124 S 
ATOM     84  O   UNL A   1      33.903  36.439  28.013  1.00  0.00    -0.237 OA
ATOM     85  O   UNL A   1      32.533  34.379  28.035  1.00  0.00    -0.237 OA
ATOM     86  O   UNL A   1      32.307  36.026  29.852  1.00  0.00    -0.744 OA
ENDBRANCH  82  83
ENDBRANCH  50  75
BRANCH  62  87
ATOM     87  C   UNL A   1      39.830  34.413  37.064  1.00  0.00     0.058 A 
ATOM     88  C   UNL A   1      38.983  34.294  38.177  1.00  0.00     0.135 A 
ATOM     89  C   UNL A   1      40.592  35.584  36.939  1.00  0.00     0.135 A 
ATOM     90  F   UNL A   1      38.230  33.194  38.340  1.00  0.00    -0.206 F 
ATOM     91  C   UNL A   1      38.866  35.318  39.112  1.00  0.00     0.059 A 
ATOM     92  C   UNL A   1      40.510  36.611  37.875  1.00  0.00     0.059 A 
ATOM     93  F   UNL A   1      41.428  35.741  35.900  1.00  0.00    -0.206 F 
ATOM     94  C   UNL A   1      39.629  36.476  38.948  1.00  0.00     0.060 A 
BRANCH  94  95
ATOM     95  S   UNL A   1      39.472  37.801  40.165  1.00  0.00     0.124 S 
ATOM     96  O   UNL A   1      40.756  38.479  40.025  1.00  0.00    -0.237 OA
ATOM     97  O   UNL A   1      38.308  38.539  39.680  1.00  0.00    -0.237 OA
ATOM     98  O   UNL A   1      39.271  37.084  41.420  1.00  0.00    -0.744 OA
ENDBRANCH  94  95
ENDBRANCH  62  87
ENDBRANCH  36  37
ENDBRANCH  28  31
ENDBRANCH  26  27
ENDBRANCH  25  26
ENDBRANCH   1  25
TORSDOF 19
ENDMDL
MODEL 2
REMARK VINA RESULT:     -11.5      1.146      1.747
REMARK SMILES CC(C)C[C@@H](C[NH3+])C(=O)N1CCC(CC(=O)NCCCNC(=O)c2ccc(-c3c4nc(c(-c5c(F)cc(S(=O)(=O)[O-])cc5F)c5ccc([nH]5)c(-c5c(F)cc(S(=O)(=O)[O-])cc5F)c5nc(c(-c6c(F)cc(S(=O)(=O)[O-])cc6F)c6ccc3[nH]6)C=C5)C=C4)cc2)CC1
REMARK SMILES IDX 18 1 17 2 15 3 16 4 14 6 13 7 8 8 9 9 10 10 11 11 91 12
REMARK SMILES IDX 12 13 90 14 5 15 4 16 2 17 1 18 3 19 6 20 7 21 19 25 20 26
REMARK SMILES IDX 21 27 22 28 23 30 24 31 25 32 89 33 26 34 88 35 27 36 28 37
REMARK SMILES IDX 29 38 82 39 30 40 87 41 81 42 83 43 31 44 86 45 80 46 79 47
REMARK SMILES IDX 32 49 66 50 45 51 65 52 46 53 49 54 64 55 84 56 47 57 48 58
REMARK SMILES IDX 63 60 85 61 50 62 33 63 34 64 43 65 35 66 36 67 42 68 44 69
REMARK SMILES IDX 37 70 38 71 39 72 40 73 41 74 67 75 68 76 77 77 69 78 70 79
REMARK SMILES IDX 76 80 78 81 71 82 72 83 73 84 74 85 75 86 51 87 52 88 61 89
REMARK SMILES IDX 53 90 54 91 60 92 62 93 55 94 56 95 57 96 58 97 59 98
REMARK H PARENT 17 5 7 22 7 23 7 24 21 29 83 48 49 59
REMARK Flexibility Score: inf
ROOT
ATOM      1  C   UNL A   1      38.376  22.465  25.770  1.00  0.00     0.117 C 
ENDROOT
BRANCH   1   2
ATOM      2  N   UNL A   1      37.503  21.363  25.380  1.00  0.00    -0.356 N 
ATOM      3  C   UNL A   1      36.147  21.231  25.421  1.00  0.00     0.220 C 
ATOM      4  O   UNL A   1      35.648  20.186  24.998  1.00  0.00    -0.275 OA
ATOM      5  H   UNL A   1      37.978  20.576  25.026  1.00  0.00     0.163 HD
BRANCH   3   6
ATOM      6  C   UNL A   1      35.268  22.330  25.986  1.00  0.00     0.103 C 
BRANCH   6   7
ATOM      7  C   UNL A   1      34.200  22.830  24.994  1.00  0.00     0.002 C 
ATOM      8  C   UNL A   1      32.911  26.543  23.968  1.00  0.00     0.231 C 
ATOM      9  O   UNL A   1      33.026  27.072  25.077  1.00  0.00    -0.274 OA
ATOM     10  N   UNL A   1      32.923  25.169  23.829  1.00  0.00    -0.342 N 
ATOM     11  C   UNL A   1      32.182  24.379  24.788  1.00  0.00     0.120 C 
ATOM     12  C   UNL A   1      33.866  24.423  23.013  1.00  0.00     0.120 C 
ATOM     13  C   UNL A   1      33.130  23.651  25.716  1.00  0.00     0.026 C 
ATOM     14  C   UNL A   1      34.868  23.664  23.887  1.00  0.00     0.026 C 
BRANCH   8  15
ATOM     15  C   UNL A   1      32.481  27.385  22.758  1.00  0.00     0.133 C 
BRANCH  15  16
ATOM     16  C   UNL A   1      31.009  27.243  22.354  1.00  0.00     0.022 C 
BRANCH  16  17
ATOM     17  C   UNL A   1      29.967  27.762  23.361  1.00  0.00    -0.016 C 
ATOM     18  C   UNL A   1      29.034  28.817  22.769  1.00  0.00     0.007 C 
ATOM     19  C   UNL A   1      29.144  26.574  23.873  1.00  0.00     0.007 C 
ENDBRANCH  16  17
ENDBRANCH  15  16
BRANCH  15  20
ATOM     20  C   UNL A   1      32.963  28.835  22.970  1.00  0.00     0.272 C 
BRANCH  20  21
ATOM     21  N   UNL A   1      34.393  28.977  23.254  1.00  0.00    -0.357 N 
ATOM     22  H   UNL A   1      34.658  29.959  23.182  1.00  0.00     0.344 HD
ATOM     23  H   UNL A   1      34.930  28.429  22.582  1.00  0.00     0.344 HD
ATOM     24  H   UNL A   1      34.586  28.641  24.199  1.00  0.00     0.344 HD
ENDBRANCH  20  21
ENDBRANCH  15  20
ENDBRANCH   8  15
ENDBRANCH   6   7
ENDBRANCH   3   6
ENDBRANCH   1   2
BRANCH   1  25
ATOM     25  C   UNL A   1      39.631  22.014  26.521  1.00  0.00     0.042 C 
BRANCH  25  26
ATOM     26  C   UNL A   1      40.434  23.139  27.154  1.00  0.00     0.118 C 
BRANCH  26  27
ATOM     27  N   UNL A   1      41.018  24.002  26.147  1.00  0.00    -0.352 N 
ATOM     28  C   UNL A   1      41.209  25.361  26.164  1.00  0.00     0.251 C 
ATOM     29  H   UNL A   1      41.324  23.544  25.330  1.00  0.00     0.163 HD
ATOM     30  O   UNL A   1      41.445  25.932  25.101  1.00  0.00    -0.269 OA
BRANCH  28  31
ATOM     31  C   UNL A   1      41.147  26.148  27.425  1.00  0.00     0.039 A 
ATOM     32  C   UNL A   1      40.042  25.970  28.264  1.00  0.00     0.014 A 
ATOM     33  C   UNL A   1      42.092  27.130  27.741  1.00  0.00     0.014 A 
ATOM     34  C   UNL A   1      39.878  26.777  29.395  1.00  0.00     0.010 A 
ATOM     35  C   UNL A   1      41.973  27.876  28.916  1.00  0.00     0.010 A 
ATOM     36  C   UNL A   1      40.839  27.744  29.730  1.00  0.00    -0.014 A 
BRANCH  36  37
ATOM     37  C   UNL A   1      40.609  28.687  30.859  1.00  0.00     0.031 A 
ATOM     38  C   UNL A   1      41.460  28.594  32.102  1.00  0.00     0.074 A 
ATOM     39  C   UNL A   1      39.644  29.623  30.776  1.00  0.00     0.049 A 
ATOM     40  N   UNL A   1      41.424  29.322  33.189  1.00  0.00    -0.248 NA
ATOM     41  C   UNL A   1      42.469  27.522  32.140  1.00  0.00     0.031 C 
ATOM     42  C   UNL A   1      38.719  29.791  29.654  1.00  0.00     0.029 A 
ATOM     43  N   UNL A   1      39.284  30.616  31.654  1.00  0.00    -0.354 N 
ATOM     44  C   UNL A   1      42.385  28.787  34.040  1.00  0.00     0.074 A 
ATOM     45  C   UNL A   1      42.948  27.637  33.369  1.00  0.00     0.031 C 
ATOM     46  C   UNL A   1      37.919  30.843  29.898  1.00  0.00     0.029 A 
ATOM     47  C   UNL A   1      38.260  31.412  31.198  1.00  0.00     0.049 A 
ATOM     48  H   UNL A   1      39.719  30.745  32.527  1.00  0.00     0.167 HD
ATOM     49  C   UNL A   1      42.788  29.227  35.258  1.00  0.00     0.037 A 
ATOM     50  C   UNL A   1      37.672  32.487  31.759  1.00  0.00     0.037 A 
ATOM     51  C   UNL A   1      42.263  30.399  35.906  1.00  0.00     0.049 A 
ATOM     52  C   UNL A   1      38.169  32.988  33.089  1.00  0.00     0.074 A 
ATOM     53  C   UNL A   1      42.641  30.961  37.112  1.00  0.00     0.029 A 
ATOM     54  N   UNL A   1      41.251  31.197  35.394  1.00  0.00    -0.354 N 
ATOM     55  N   UNL A   1      39.115  32.498  33.854  1.00  0.00    -0.248 NA
ATOM     56  C   UNL A   1      37.528  34.198  33.623  1.00  0.00     0.031 C 
ATOM     57  C   UNL A   1      41.841  32.087  37.342  1.00  0.00     0.029 A 
ATOM     58  C   UNL A   1      40.988  32.244  36.262  1.00  0.00     0.049 A 
ATOM     59  H   UNL A   1      40.787  31.043  34.539  1.00  0.00     0.167 HD
ATOM     60  C   UNL A   1      39.199  33.352  34.949  1.00  0.00     0.074 A 
ATOM     61  C   UNL A   1      38.219  34.398  34.736  1.00  0.00     0.031 C 
ATOM     62  C   UNL A   1      40.011  33.278  36.033  1.00  0.00     0.037 A 
BRANCH  49  63
ATOM     63  C   UNL A   1      43.862  28.439  35.959  1.00  0.00     0.058 A 
ATOM     64  C   UNL A   1      45.225  28.723  35.771  1.00  0.00     0.135 A 
ATOM     65  C   UNL A   1      43.528  27.397  36.838  1.00  0.00     0.135 A 
ATOM     66  F   UNL A   1      45.601  29.699  34.929  1.00  0.00    -0.206 F 
ATOM     67  C   UNL A   1      46.218  27.980  36.399  1.00  0.00     0.059 A 
ATOM     68  C   UNL A   1      44.505  26.656  37.500  1.00  0.00     0.059 A 
ATOM     69  F   UNL A   1      42.241  27.083  37.057  1.00  0.00    -0.206 F 
ATOM     70  C   UNL A   1      45.848  26.944  37.259  1.00  0.00     0.060 A 
BRANCH  70  71
ATOM     71  S   UNL A   1      47.147  25.981  38.062  1.00  0.00     0.124 S 
ATOM     72  O   UNL A   1      46.496  25.600  39.311  1.00  0.00    -0.237 OA
ATOM     73  O   UNL A   1      47.373  24.900  37.109  1.00  0.00    -0.237 OA
ATOM     74  O   UNL A   1      48.245  26.936  38.193  1.00  0.00    -0.744 OA
ENDBRANCH  70  71
ENDBRANCH  49  63
BRANCH  50  75
ATOM     75  C   UNL A   1      36.576  33.192  31.043  1.00  0.00     0.058 A 
ATOM     76  C   UNL A   1      36.849  34.026  29.949  1.00  0.00     0.135 A 
ATOM     77  C   UNL A   1      35.237  33.039  31.432  1.00  0.00     0.135 A 
ATOM     78  F   UNL A   1      38.116  34.209  29.545  1.00  0.00    -0.206 F 
ATOM     79  C   UNL A   1      35.835  34.699  29.274  1.00  0.00     0.059 A 
ATOM     80  C   UNL A   1      34.203  33.683  30.759  1.00  0.00     0.059 A 
ATOM     81  F   UNL A   1      34.922  32.239  32.463  1.00  0.00    -0.206 F 
ATOM     82  C   UNL A   1      34.514  34.521  29.687  1.00  0.00     0.060 A 
BRANCH  82  83
ATOM     83  S   UNL A   1      33.198  35.358  28.776  1.00  0.00     0.124 S 
ATOM     84  O   UNL A   1      32.437  35.971  29.858  1.00  0.00    -0.237 OA
ATOM     85  O   UNL A   1      33.948  36.275  27.923  1.00  0.00    -0.237 OA
ATOM     86  O   UNL A   1      32.532  34.266  28.073  1.00  0.00    -0.744 OA
ENDBRANCH  82  83
ENDBRANCH  50  75
BRANCH  62  87
ATOM     87  C   UNL A   1      39.890  34.373  37.054  1.00  0.00     0.058 A 
ATOM     88  C   UNL A   1      40.579  35.588  36.914  1.00  0.00     0.135 A 
ATOM     89  C   UNL A   1      39.064  34.212  38.177  1.00  0.00     0.135 A 
ATOM     90  F   UNL A   1      41.385  35.791  35.859  1.00  0.00    -0.206 F 
ATOM     91  C   UNL A   1      40.482  36.592  37.873  1.00  0.00     0.059 A 
ATOM     92  C   UNL A   1      38.933  35.212  39.136  1.00  0.00     0.059 A 
ATOM     93  F   UNL A   1      38.374  33.074  38.352  1.00  0.00    -0.206 F 
ATOM     94  C   UNL A   1      39.662  36.391  38.984  1.00  0.00     0.060 A 
BRANCH  94  95
ATOM     95  S   UNL A   1      39.541  37.698  40.224  1.00  0.00     0.124 S 
ATOM     96  O   UNL A   1      40.916  38.185  40.270  1.00  0.00    -0.237 OA
ATOM     97  O   UNL A   1      38.566  38.608  39.631  1.00  0.00    -0.237 OA
ATOM     98  O   UNL A   1      39.083  36.991  41.416  1.00  0.00    -0.744 OA
ENDBRANCH  94  95
ENDBRANCH  62  87
ENDBRANCH  36  37
ENDBRANCH  28  31
ENDBRANCH  26  27
ENDBRANCH  25  26
ENDBRANCH   1  25
TORSDOF 19
ENDMDL
MODEL 3
REMARK VINA RESULT:     -11.2      2.392      9.043
REMARK SMILES CC(C)C[C@@H](C[NH3+])C(=O)N1CCC(CC(=O)NCCCNC(=O)c2ccc(-c3c4nc(c(-c5c(F)cc(S(=O)(=O)[O-])cc5F)c5ccc([nH]5)c(-c5c(F)cc(S(=O)(=O)[O-])cc5F)c5nc(c(-c6c(F)cc(S(=O)(=O)[O-])cc6F)c6ccc3[nH]6)C=C5)C=C4)cc2)CC1
REMARK SMILES IDX 18 1 17 2 15 3 16 4 14 6 13 7 8 8 9 9 10 10 11 11 91 12
REMARK SMILES IDX 12 13 90 14 5 15 4 16 2 17 1 18 3 19 6 20 7 21 19 25 20 26
REMARK SMILES IDX 21 27 22 28 23 30 24 31 25 32 89 33 26 34 88 35 27 36 28 37
REMARK SMILES IDX 29 38 82 39 30 40 87 41 81 42 83 43 31 44 86 45 80 46 79 47
REMARK SMILES IDX 32 49 66 50 45 51 65 52 46 53 49 54 64 55 84 56 47 57 48 58
REMARK SMILES IDX 63 60 85 61 50 62 33 63 34 64 43 65 35 66 36 67 42 68 44 69
REMARK SMILES IDX 37 70 38 71 39 72 40 73 41 74 67 75 68 76 77 77 69 78 70 79
REMARK SMILES IDX 76 80 78 81 71 82 72 83 73 84 74 85 75 86 51 87 52 88 61 89
REMARK SMILES IDX 53 90 54 91 60 92 62 93 55 94 56 95 57 96 58 97 59 98
REMARK H PARENT 17 5 7 22 7 23 7 24 21 29 83 48 49 59
REMARK Flexibility Score: inf
ROOT
ATOM      1  C   UNL A   1      31.926  30.569  26.101  1.00  0.00     0.117 C 
ENDROOT
BRANCH   1   2
ATOM      2  N   UNL A   1      31.306  30.321  24.804  1.00  0.00    -0.356 N 
ATOM      3  C   UNL A   1      30.866  29.169  24.222  1.00  0.00     0.220 C 
ATOM      4  O   UNL A   1      30.346  29.239  23.107  1.00  0.00    -0.275 OA
ATOM      5  H   UNL A   1      31.186  31.127  24.252  1.00  0.00     0.163 HD
BRANCH   3   6
ATOM      6  C   UNL A   1      31.023  27.829  24.916  1.00  0.00     0.103 C 
BRANCH   6   7
ATOM      7  C   UNL A   1      31.929  26.847  24.150  1.00  0.00     0.002 C 
ATOM      8  C   UNL A   1      33.449  23.197  25.083  1.00  0.00     0.231 C 
ATOM      9  O   UNL A   1      33.621  23.391  26.290  1.00  0.00    -0.274 OA
ATOM     10  N   UNL A   1      33.237  24.250  24.215  1.00  0.00    -0.342 N 
ATOM     11  C   UNL A   1      34.046  25.438  24.373  1.00  0.00     0.120 C 
ATOM     12  C   UNL A   1      32.067  24.408  23.369  1.00  0.00     0.120 C 
ATOM     13  C   UNL A   1      33.214  26.572  24.933  1.00  0.00     0.026 C 
ATOM     14  C   UNL A   1      31.168  25.537  23.881  1.00  0.00     0.026 C 
BRANCH   8  15
ATOM     15  C   UNL A   1      33.736  21.814  24.480  1.00  0.00     0.133 C 
BRANCH  15  16
ATOM     16  C   UNL A   1      35.170  21.306  24.668  1.00  0.00     0.022 C 
BRANCH  16  17
ATOM     17  C   UNL A   1      36.286  22.366  24.627  1.00  0.00    -0.016 C 
ATOM     18  C   UNL A   1      37.583  21.898  25.286  1.00  0.00     0.007 C 
ATOM     19  C   UNL A   1      36.554  22.742  23.165  1.00  0.00     0.007 C 
ENDBRANCH  16  17
ENDBRANCH  15  16
BRANCH  15  20
ATOM     20  C   UNL A   1      32.632  20.838  24.937  1.00  0.00     0.272 C 
BRANCH  20  21
ATOM     21  N   UNL A   1      31.584  21.434  25.769  1.00  0.00    -0.357 N 
ATOM     22  H   UNL A   1      30.739  20.866  25.709  1.00  0.00     0.344 HD
ATOM     23  H   UNL A   1      31.384  22.378  25.439  1.00  0.00     0.344 HD
ATOM     24  H   UNL A   1      31.900  21.472  26.738  1.00  0.00     0.344 HD
ENDBRANCH  20  21
ENDBRANCH  15  20
ENDBRANCH   8  15
ENDBRANCH   6   7
ENDBRANCH   3   6
ENDBRANCH   1   2
BRANCH   1  25
ATOM     25  C   UNL A   1      31.651  31.971  26.650  1.00  0.00     0.042 C 
BRANCH  25  26
ATOM     26  C   UNL A   1      32.707  32.498  27.609  1.00  0.00     0.118 C 
BRANCH  26  27
ATOM     27  N   UNL A   1      32.603  33.934  27.772  1.00  0.00    -0.352 N 
ATOM     28  C   UNL A   1      33.187  34.753  28.706  1.00  0.00     0.251 C 
ATOM     29  H   UNL A   1      32.028  34.389  27.115  1.00  0.00     0.163 HD
ATOM     30  O   UNL A   1      32.738  35.888  28.852  1.00  0.00    -0.269 OA
BRANCH  28  31
ATOM     31  C   UNL A   1      34.344  34.307  29.529  1.00  0.00     0.039 A 
ATOM     32  C   UNL A   1      35.633  34.498  29.021  1.00  0.00     0.014 A 
ATOM     33  C   UNL A   1      34.181  33.610  30.731  1.00  0.00     0.014 A 
ATOM     34  C   UNL A   1      36.743  33.984  29.700  1.00  0.00     0.010 A 
ATOM     35  C   UNL A   1      35.295  33.172  31.453  1.00  0.00     0.010 A 
ATOM     36  C   UNL A   1      36.585  33.309  30.921  1.00  0.00    -0.014 A 
BRANCH  36  37
ATOM     37  C   UNL A   1      37.745  32.653  31.584  1.00  0.00     0.031 A 
ATOM     38  C   UNL A   1      38.215  33.140  32.933  1.00  0.00     0.074 A 
ATOM     39  C   UNL A   1      38.379  31.626  30.985  1.00  0.00     0.049 A 
ATOM     40  N   UNL A   1      39.198  32.702  33.678  1.00  0.00    -0.248 NA
ATOM     41  C   UNL A   1      37.501  34.292  33.510  1.00  0.00     0.031 C 
ATOM     42  C   UNL A   1      38.059  31.089  29.661  1.00  0.00     0.029 A 
ATOM     43  N   UNL A   1      39.424  30.846  31.416  1.00  0.00    -0.354 N 
ATOM     44  C   UNL A   1      39.232  33.531  34.794  1.00  0.00     0.074 A 
ATOM     45  C   UNL A   1      38.209  34.535  34.604  1.00  0.00     0.031 C 
ATOM     46  C   UNL A   1      38.869  30.048  29.402  1.00  0.00     0.029 A 
ATOM     47  C   UNL A   1      39.777  29.856  30.530  1.00  0.00     0.049 A 
ATOM     48  H   UNL A   1      39.877  30.983  32.279  1.00  0.00     0.167 HD
ATOM     49  C   UNL A   1      40.019  33.450  35.895  1.00  0.00     0.037 A 
ATOM     50  C   UNL A   1      40.717  28.895  30.621  1.00  0.00     0.037 A 
ATOM     51  C   UNL A   1      41.004  32.424  36.108  1.00  0.00     0.049 A 
ATOM     52  C   UNL A   1      41.546  28.793  31.874  1.00  0.00     0.074 A 
ATOM     53  C   UNL A   1      41.813  32.219  37.211  1.00  0.00     0.029 A 
ATOM     54  N   UNL A   1      41.305  31.418  35.200  1.00  0.00    -0.354 N 
ATOM     55  N   UNL A   1      41.526  29.556  32.941  1.00  0.00    -0.248 NA
ATOM     56  C   UNL A   1      42.513  27.689  31.940  1.00  0.00     0.031 C 
ATOM     57  C   UNL A   1      42.623  31.104  36.961  1.00  0.00     0.029 A 
ATOM     58  C   UNL A   1      42.293  30.595  35.716  1.00  0.00     0.049 A 
ATOM     59  H   UNL A   1      40.881  31.307  34.319  1.00  0.00     0.167 HD
ATOM     60  C   UNL A   1      42.461  29.011  33.814  1.00  0.00     0.074 A 
ATOM     61  C   UNL A   1      43.016  27.845  33.157  1.00  0.00     0.031 C 
ATOM     62  C   UNL A   1      42.831  29.437  35.048  1.00  0.00     0.037 A 
BRANCH  49  63
ATOM     63  C   UNL A   1      39.832  34.498  36.959  1.00  0.00     0.058 A 
ATOM     64  C   UNL A   1      39.045  34.258  38.098  1.00  0.00     0.135 A 
ATOM     65  C   UNL A   1      40.456  35.751  36.849  1.00  0.00     0.135 A 
ATOM     66  F   UNL A   1      38.413  33.082  38.246  1.00  0.00    -0.206 F 
ATOM     67  C   UNL A   1      38.852  35.234  39.069  1.00  0.00     0.059 A 
ATOM     68  C   UNL A   1      40.299  36.734  37.823  1.00  0.00     0.059 A 
ATOM     69  F   UNL A   1      41.222  36.033  35.783  1.00  0.00    -0.206 F 
ATOM     70  C   UNL A   1      39.480  36.471  38.921  1.00  0.00     0.060 A 
BRANCH  70  71
ATOM     71  S   UNL A   1      39.215  37.733  40.185  1.00  0.00     0.124 S 
ATOM     72  O   UNL A   1      40.527  38.368  40.242  1.00  0.00    -0.237 OA
ATOM     73  O   UNL A   1      38.144  38.538  39.608  1.00  0.00    -0.237 OA
ATOM     74  O   UNL A   1      38.842  36.957  41.366  1.00  0.00    -0.744 OA
ENDBRANCH  70  71
ENDBRANCH  49  63
BRANCH  50  75
ATOM     75  C   UNL A   1      40.894  27.921  29.512  1.00  0.00     0.058 A 
ATOM     76  C   UNL A   1      41.933  28.068  28.582  1.00  0.00     0.135 A 
ATOM     77  C   UNL A   1      40.035  26.822  29.365  1.00  0.00     0.135 A 
ATOM     78  F   UNL A   1      42.776  29.109  28.678  1.00  0.00    -0.206 F 
ATOM     79  C   UNL A   1      42.108  27.171  27.534  1.00  0.00     0.059 A 
ATOM     80  C   UNL A   1      40.202  25.897  28.338  1.00  0.00     0.059 A 
ATOM     81  F   UNL A   1      39.034  26.628  30.239  1.00  0.00    -0.206 F 
ATOM     82  C   UNL A   1      41.235  26.087  27.420  1.00  0.00     0.060 A 
BRANCH  82  83
ATOM     83  S   UNL A   1      41.496  24.897  26.086  1.00  0.00     0.124 S 
ATOM     84  O   UNL A   1      40.137  24.431  25.839  1.00  0.00    -0.237 OA
ATOM     85  O   UNL A   1      42.088  25.728  25.042  1.00  0.00    -0.237 OA
ATOM     86  O   UNL A   1      42.401  23.919  26.684  1.00  0.00    -0.744 OA
ENDBRANCH  82  83
ENDBRANCH  50  75
BRANCH  62  87
ATOM     87  C   UNL A   1      43.862  28.620  35.774  1.00  0.00     0.058 A 
ATOM     88  C   UNL A   1      45.234  28.871  35.627  1.00  0.00     0.135 A 
ATOM     89  C   UNL A   1      43.471  27.585  36.638  1.00  0.00     0.135 A 
ATOM     90  F   UNL A   1      45.660  29.848  34.810  1.00  0.00    -0.206 F 
ATOM     91  C   UNL A   1      46.188  28.099  36.284  1.00  0.00     0.059 A 
ATOM     92  C   UNL A   1      44.406  26.816  37.324  1.00  0.00     0.059 A 
ATOM     93  F   UNL A   1      42.170  27.312  36.823  1.00  0.00    -0.206 F 
ATOM     94  C   UNL A   1      45.763  27.068  37.124  1.00  0.00     0.060 A 
BRANCH  94  95
ATOM     95  S   UNL A   1      47.006  26.070  37.973  1.00  0.00     0.124 S 
ATOM     96  O   UNL A   1      46.344  24.771  38.036  1.00  0.00    -0.237 OA
ATOM     97  O   UNL A   1      48.150  26.154  37.070  1.00  0.00    -0.237 OA
ATOM     98  O   UNL A   1      47.174  26.754  39.251  1.00  0.00    -0.744 OA
ENDBRANCH  94  95
ENDBRANCH  62  87
ENDBRANCH  36  37
ENDBRANCH  28  31
ENDBRANCH  26  27
ENDBRANCH  25  26
ENDBRANCH   1  25
TORSDOF 19
ENDMDL
