MODEL 1
REMARK VINA RESULT:     -11.6      0.000      0.000
REMARK SMILES O=C(C[C@H]1C[N@H+](Cc2ccncc2)CCO1)NCCCNC(=O)c1ccc(-c2c3nc(c(-c4c(F)cc(S(=O)(=O)[O-])cc4F)c4ccc([nH]4)c(-c4c(F)cc(S(=O)(=O)[O-])cc4F)c4nc(c(-c5c(F)cc(S(=O)(=O)[O-])cc5F)c5ccc2[nH]5)C=C4)C=C3)cc1
REMARK SMILES IDX 19 1 18 2 17 3 1 4 2 5 3 7 4 8 5 9 16 10 6 11 15 12 14 13
REMARK SMILES IDX 7 15 8 16 9 17 13 18 10 19 12 20 11 21 20 22 21 23 22 24
REMARK SMILES IDX 23 26 24 27 25 28 89 29 26 30 88 31 27 32 28 33 29 34 82 35
REMARK SMILES IDX 30 36 87 37 81 38 83 39 31 40 86 41 80 42 79 43 32 45 66 46
REMARK SMILES IDX 45 47 65 48 46 49 49 50 64 51 84 52 47 53 48 54 63 56 85 57
REMARK SMILES IDX 50 58 33 59 34 60 43 61 35 62 36 63 42 64 44 65 37 66 38 67
REMARK SMILES IDX 39 68 40 69 41 70 67 71 68 72 77 73 69 74 70 75 76 76 78 77
REMARK SMILES IDX 71 78 72 79 73 80 74 81 75 82 51 83 52 84 61 85 53 86 54 87
REMARK SMILES IDX 60 88 62 89 55 90 56 91 57 92 58 93 59 94
REMARK H PARENT 17 6 6 14 21 25 83 44 49 55
REMARK Flexibility Score: inf
ROOT
ATOM      1  C   UNL A   1      40.251  22.105  27.450  1.00  0.00     0.042 C 
ENDROOT
BRANCH   1   2
ATOM      2  C   UNL A   1      39.923  21.817  25.997  1.00  0.00     0.117 C 
BRANCH   2   3
ATOM      3  N   UNL A   1      38.512  21.546  25.792  1.00  0.00    -0.356 N 
ATOM      4  O   UNL A   1      38.928  19.509  24.922  1.00  0.00    -0.275 OA
ATOM      5  C   UNL A   1      38.108  20.350  25.261  1.00  0.00     0.222 C 
ATOM      6  H   UNL A   1      37.844  22.226  26.037  1.00  0.00     0.163 HD
BRANCH   5   7
ATOM      7  C   UNL A   1      36.619  20.189  25.096  1.00  0.00     0.138 C 
BRANCH   7   8
ATOM      8  C   UNL A   1      35.783  21.478  25.047  1.00  0.00     0.182 C 
ATOM      9  C   UNL A   1      34.484  21.375  24.219  1.00  0.00     0.295 C 
ATOM     10  O   UNL A   1      35.588  22.130  26.317  1.00  0.00    -0.366 OA
ATOM     11  N   UNL A   1      33.419  20.803  25.000  1.00  0.00    -0.327 N 
ATOM     12  C   UNL A   1      34.463  21.650  27.074  1.00  0.00     0.222 C 
ATOM     13  C   UNL A   1      33.166  21.471  26.259  1.00  0.00     0.291 C 
ATOM     14  H   UNL A   1      33.800  19.910  25.313  1.00  0.00     0.348 HD
BRANCH  11  15
ATOM     15  C   UNL A   1      32.462  19.901  24.411  1.00  0.00     0.299 C 
BRANCH  15  16
ATOM     16  C   UNL A   1      32.924  18.464  24.533  1.00  0.00     0.009 A 
ATOM     17  C   UNL A   1      33.541  17.821  23.453  1.00  0.00     0.029 A 
ATOM     18  C   UNL A   1      32.612  17.694  25.661  1.00  0.00     0.029 A 
ATOM     19  C   UNL A   1      33.798  16.459  23.539  1.00  0.00     0.111 A 
ATOM     20  C   UNL A   1      32.924  16.340  25.654  1.00  0.00     0.111 A 
ATOM     21  N   UNL A   1      33.526  15.705  24.626  1.00  0.00    -0.265 NA
ENDBRANCH  15  16
ENDBRANCH  11  15
ENDBRANCH   7   8
ENDBRANCH   5   7
ENDBRANCH   2   3
ENDBRANCH   1   2
BRANCH   1  22
ATOM     22  C   UNL A   1      41.108  23.343  27.651  1.00  0.00     0.118 C 
BRANCH  22  23
ATOM     23  N   UNL A   1      41.383  24.060  26.413  1.00  0.00    -0.352 N 
ATOM     24  C   UNL A   1      41.322  25.406  26.165  1.00  0.00     0.251 C 
ATOM     25  H   UNL A   1      41.650  23.499  25.648  1.00  0.00     0.163 HD
ATOM     26  O   UNL A   1      41.454  25.827  25.020  1.00  0.00    -0.269 OA
BRANCH  24  27
ATOM     27  C   UNL A   1      41.076  26.331  27.285  1.00  0.00     0.039 A 
ATOM     28  C   UNL A   1      40.003  26.078  28.139  1.00  0.00     0.014 A 
ATOM     29  C   UNL A   1      41.918  27.426  27.500  1.00  0.00     0.014 A 
ATOM     30  C   UNL A   1      39.798  26.909  29.237  1.00  0.00     0.010 A 
ATOM     31  C   UNL A   1      41.768  28.194  28.645  1.00  0.00     0.010 A 
ATOM     32  C   UNL A   1      40.693  27.958  29.511  1.00  0.00    -0.014 A 
BRANCH  32  33
ATOM     33  C   UNL A   1      40.490  28.831  30.688  1.00  0.00     0.031 A 
ATOM     34  C   UNL A   1      41.356  28.662  31.906  1.00  0.00     0.074 A 
ATOM     35  C   UNL A   1      39.510  29.754  30.659  1.00  0.00     0.049 A 
ATOM     36  N   UNL A   1      41.357  29.350  33.018  1.00  0.00    -0.248 NA
ATOM     37  C   UNL A   1      42.326  27.554  31.889  1.00  0.00     0.031 C 
ATOM     38  C   UNL A   1      38.560  29.945  29.558  1.00  0.00     0.029 A 
ATOM     39  N   UNL A   1      39.154  30.710  31.574  1.00  0.00    -0.354 N 
ATOM     40  C   UNL A   1      42.316  28.755  33.829  1.00  0.00     0.074 A 
ATOM     41  C   UNL A   1      42.826  27.608  33.114  1.00  0.00     0.031 C 
ATOM     42  C   UNL A   1      37.762  30.986  29.843  1.00  0.00     0.029 A 
ATOM     43  C   UNL A   1      38.126  31.519  31.151  1.00  0.00     0.049 A 
ATOM     44  H   UNL A   1      39.593  30.807  32.450  1.00  0.00     0.167 HD
ATOM     45  C   UNL A   1      42.756  29.152  35.046  1.00  0.00     0.037 A 
ATOM     46  C   UNL A   1      37.559  32.583  31.747  1.00  0.00     0.037 A 
ATOM     47  C   UNL A   1      42.259  30.316  35.730  1.00  0.00     0.049 A 
ATOM     48  C   UNL A   1      38.102  33.038  33.075  1.00  0.00     0.074 A 
ATOM     49  C   UNL A   1      42.669  30.848  36.940  1.00  0.00     0.029 A 
ATOM     50  N   UNL A   1      41.243  31.134  35.256  1.00  0.00    -0.354 N 
ATOM     51  N   UNL A   1      39.062  32.510  33.798  1.00  0.00    -0.248 NA
ATOM     52  C   UNL A   1      37.500  34.243  33.657  1.00  0.00     0.031 C 
ATOM     53  C   UNL A   1      41.876  31.969  37.213  1.00  0.00     0.029 A 
ATOM     54  C   UNL A   1      41.004  32.162  36.153  1.00  0.00     0.049 A 
ATOM     55  H   UNL A   1      40.762  31.004  34.407  1.00  0.00     0.167 HD
ATOM     56  C   UNL A   1      39.195  33.331  34.911  1.00  0.00     0.074 A 
ATOM     57  C   UNL A   1      38.231  34.403  34.752  1.00  0.00     0.031 C 
ATOM     58  C   UNL A   1      40.035  33.213  35.970  1.00  0.00     0.037 A 
BRANCH  45  59
ATOM     59  C   UNL A   1      43.831  28.327  35.699  1.00  0.00     0.058 A 
ATOM     60  C   UNL A   1      43.522  27.290  36.595  1.00  0.00     0.135 A 
ATOM     61  C   UNL A   1      45.186  28.563  35.419  1.00  0.00     0.135 A 
ATOM     62  F   UNL A   1      42.245  27.033  36.918  1.00  0.00    -0.206 F 
ATOM     63  C   UNL A   1      44.517  26.538  37.212  1.00  0.00     0.059 A 
ATOM     64  C   UNL A   1      46.197  27.804  36.001  1.00  0.00     0.059 A 
ATOM     65  F   UNL A   1      45.541  29.544  34.574  1.00  0.00    -0.206 F 
ATOM     66  C   UNL A   1      45.853  26.804  36.909  1.00  0.00     0.060 A 
BRANCH  66  67
ATOM     67  S   UNL A   1      47.132  25.816  37.715  1.00  0.00     0.124 S 
ATOM     68  O   UNL A   1      48.342  26.342  37.088  1.00  0.00    -0.237 OA
ATOM     69  O   UNL A   1      46.950  26.156  39.122  1.00  0.00    -0.237 OA
ATOM     70  O   UNL A   1      46.782  24.447  37.352  1.00  0.00    -0.744 OA
ENDBRANCH  66  67
ENDBRANCH  45  59
BRANCH  46  71
ATOM     71  C   UNL A   1      36.461  33.319  31.068  1.00  0.00     0.058 A 
ATOM     72  C   UNL A   1      36.714  34.118  29.943  1.00  0.00     0.135 A 
ATOM     73  C   UNL A   1      35.134  33.221  31.514  1.00  0.00     0.135 A 
ATOM     74  F   UNL A   1      37.967  34.243  29.478  1.00  0.00    -0.206 F 
ATOM     75  C   UNL A   1      35.697  34.812  29.296  1.00  0.00     0.059 A 
ATOM     76  C   UNL A   1      34.095  33.886  30.868  1.00  0.00     0.059 A 
ATOM     77  F   UNL A   1      34.835  32.452  32.571  1.00  0.00    -0.206 F 
ATOM     78  C   UNL A   1      34.389  34.689  29.767  1.00  0.00     0.060 A 
BRANCH  78  79
ATOM     79  S   UNL A   1      33.068  35.558  28.894  1.00  0.00     0.124 S 
ATOM     80  O   UNL A   1      33.823  36.528  28.111  1.00  0.00    -0.237 OA
ATOM     81  O   UNL A   1      32.436  34.479  28.139  1.00  0.00    -0.237 OA
ATOM     82  O   UNL A   1      32.259  36.111  29.977  1.00  0.00    -0.744 OA
ENDBRANCH  78  79
ENDBRANCH  46  71
BRANCH  58  83
ATOM     83  C   UNL A   1      39.958  34.286  37.019  1.00  0.00     0.058 A 
ATOM     84  C   UNL A   1      40.724  35.459  36.929  1.00  0.00     0.135 A 
ATOM     85  C   UNL A   1      39.100  34.142  38.120  1.00  0.00     0.135 A 
ATOM     86  F   UNL A   1      41.561  35.643  35.895  1.00  0.00    -0.206 F 
ATOM     87  C   UNL A   1      40.676  36.432  37.921  1.00  0.00     0.059 A 
ATOM     88  C   UNL A   1      39.015  35.116  39.109  1.00  0.00     0.059 A 
ATOM     89  F   UNL A   1      38.335  33.046  38.244  1.00  0.00    -0.206 F 
ATOM     90  C   UNL A   1      39.823  36.248  39.011  1.00  0.00     0.060 A 
BRANCH  90  91
ATOM     91  S   UNL A   1      39.775  37.513  40.297  1.00  0.00     0.124 S 
ATOM     92  O   UNL A   1      38.383  37.941  40.232  1.00  0.00    -0.237 OA
ATOM     93  O   UNL A   1      40.154  36.762  41.490  1.00  0.00    -0.237 OA
ATOM     94  O   UNL A   1      40.757  38.494  39.843  1.00  0.00    -0.744 OA
ENDBRANCH  90  91
ENDBRANCH  58  83
ENDBRANCH  32  33
ENDBRANCH  24  27
ENDBRANCH  22  23
ENDBRANCH   1  22
TORSDOF 16
ENDMDL
MODEL 2
REMARK VINA RESULT:     -11.6      7.088     14.322
REMARK SMILES O=C(C[C@H]1C[N@H+](Cc2ccncc2)CCO1)NCCCNC(=O)c1ccc(-c2c3nc(c(-c4c(F)cc(S(=O)(=O)[O-])cc4F)c4ccc([nH]4)c(-c4c(F)cc(S(=O)(=O)[O-])cc4F)c4nc(c(-c5c(F)cc(S(=O)(=O)[O-])cc5F)c5ccc2[nH]5)C=C4)C=C3)cc1
REMARK SMILES IDX 19 1 18 2 17 3 1 4 2 5 3 7 4 8 5 9 16 10 6 11 15 12 14 13
REMARK SMILES IDX 7 15 8 16 9 17 13 18 10 19 12 20 11 21 20 22 21 23 22 24
REMARK SMILES IDX 23 26 24 27 25 28 89 29 26 30 88 31 27 32 28 33 29 34 82 35
REMARK SMILES IDX 30 36 87 37 81 38 83 39 31 40 86 41 80 42 79 43 32 45 66 46
REMARK SMILES IDX 45 47 65 48 46 49 49 50 64 51 84 52 47 53 48 54 63 56 85 57
REMARK SMILES IDX 50 58 33 59 34 60 43 61 35 62 36 63 42 64 44 65 37 66 38 67
REMARK SMILES IDX 39 68 40 69 41 70 67 71 68 72 77 73 69 74 70 75 76 76 78 77
REMARK SMILES IDX 71 78 72 79 73 80 74 81 75 82 51 83 52 84 61 85 53 86 54 87
REMARK SMILES IDX 60 88 62 89 55 90 56 91 57 92 58 93 59 94
REMARK H PARENT 17 6 6 14 21 25 83 44 49 55
REMARK Flexibility Score: inf
ROOT
ATOM      1  C   UNL A   1      35.474  32.265  27.978  1.00  0.00     0.042 C 
ENDROOT
BRANCH   1   2
ATOM      2  C   UNL A   1      34.146  32.910  28.329  1.00  0.00     0.117 C 
BRANCH   2   3
ATOM      3  N   UNL A   1      34.311  34.147  29.068  1.00  0.00    -0.356 N 
ATOM      4  O   UNL A   1      32.327  34.949  28.364  1.00  0.00    -0.275 OA
ATOM      5  C   UNL A   1      33.334  35.106  29.037  1.00  0.00     0.222 C 
ATOM      6  H   UNL A   1      35.130  34.297  29.594  1.00  0.00     0.163 HD
BRANCH   5   7
ATOM      7  C   UNL A   1      33.623  36.346  29.842  1.00  0.00     0.138 C 
BRANCH   7   8
ATOM      8  C   UNL A   1      32.730  36.601  31.069  1.00  0.00     0.182 C 
ATOM      9  C   UNL A   1      32.493  35.363  31.962  1.00  0.00     0.295 C 
ATOM     10  O   UNL A   1      33.049  37.784  31.824  1.00  0.00    -0.366 OA
ATOM     11  N   UNL A   1      33.581  35.179  32.886  1.00  0.00    -0.327 N 
ATOM     12  C   UNL A   1      34.061  37.603  32.831  1.00  0.00     0.222 C 
ATOM     13  C   UNL A   1      33.890  36.338  33.696  1.00  0.00     0.291 C 
ATOM     14  H   UNL A   1      34.403  35.122  32.285  1.00  0.00     0.348 HD
BRANCH  11  15
ATOM     15  C   UNL A   1      34.054  33.862  33.231  1.00  0.00     0.299 C 
BRANCH  15  16
ATOM     16  C   UNL A   1      35.553  33.757  33.040  1.00  0.00     0.009 A 
ATOM     17  C   UNL A   1      36.206  34.544  32.083  1.00  0.00     0.029 A 
ATOM     18  C   UNL A   1      36.301  32.770  33.695  1.00  0.00     0.029 A 
ATOM     19  C   UNL A   1      37.547  34.304  31.817  1.00  0.00     0.111 A 
ATOM     20  C   UNL A   1      37.643  32.619  33.366  1.00  0.00     0.111 A 
ATOM     21  N   UNL A   1      38.290  33.374  32.454  1.00  0.00    -0.265 NA
ENDBRANCH  15  16
ENDBRANCH  11  15
ENDBRANCH   7   8
ENDBRANCH   5   7
ENDBRANCH   2   3
ENDBRANCH   1   2
BRANCH   1  22
ATOM     22  C   UNL A   1      36.472  32.256  29.124  1.00  0.00     0.118 C 
BRANCH  22  23
ATOM     23  N   UNL A   1      36.114  31.332  30.192  1.00  0.00    -0.352 N 
ATOM     24  C   UNL A   1      36.784  30.220  30.630  1.00  0.00     0.251 C 
ATOM     25  H   UNL A   1      35.274  31.535  30.665  1.00  0.00     0.163 HD
ATOM     26  O   UNL A   1      36.266  29.475  31.455  1.00  0.00    -0.269 OA
BRANCH  24  27
ATOM     27  C   UNL A   1      38.120  29.925  30.081  1.00  0.00     0.039 A 
ATOM     28  C   UNL A   1      39.200  29.836  30.959  1.00  0.00     0.014 A 
ATOM     29  C   UNL A   1      38.293  29.714  28.710  1.00  0.00     0.014 A 
ATOM     30  C   UNL A   1      40.454  29.497  30.460  1.00  0.00     0.010 A 
ATOM     31  C   UNL A   1      39.522  29.284  28.231  1.00  0.00     0.010 A 
ATOM     32  C   UNL A   1      40.618  29.194  29.097  1.00  0.00    -0.014 A 
BRANCH  32  33
ATOM     33  C   UNL A   1      41.946  28.814  28.566  1.00  0.00     0.031 A 
ATOM     34  C   UNL A   1      43.040  29.842  28.471  1.00  0.00     0.074 A 
ATOM     35  C   UNL A   1      42.148  27.549  28.149  1.00  0.00     0.049 A 
ATOM     36  N   UNL A   1      44.275  29.696  28.070  1.00  0.00    -0.248 NA
ATOM     37  C   UNL A   1      42.692  31.224  28.845  1.00  0.00     0.031 C 
ATOM     38  C   UNL A   1      41.130  26.494  28.121  1.00  0.00     0.029 A 
ATOM     39  N   UNL A   1      43.278  26.933  27.680  1.00  0.00    -0.354 N 
ATOM     40  C   UNL A   1      44.845  30.962  28.135  1.00  0.00     0.074 A 
ATOM     41  C   UNL A   1      43.804  31.877  28.545  1.00  0.00     0.031 C 
ATOM     42  C   UNL A   1      41.695  25.351  27.703  1.00  0.00     0.029 A 
ATOM     43  C   UNL A   1      43.103  25.595  27.413  1.00  0.00     0.049 A 
ATOM     44  H   UNL A   1      44.133  27.402  27.546  1.00  0.00     0.167 HD
ATOM     45  C   UNL A   1      46.130  31.322  27.908  1.00  0.00     0.037 A 
ATOM     46  C   UNL A   1      43.988  24.670  27.000  1.00  0.00     0.037 A 
ATOM     47  C   UNL A   1      47.161  30.392  27.532  1.00  0.00     0.049 A 
ATOM     48  C   UNL A   1      45.423  25.082  26.808  1.00  0.00     0.074 A 
ATOM     49  C   UNL A   1      48.509  30.631  27.332  1.00  0.00     0.029 A 
ATOM     50  N   UNL A   1      46.956  29.038  27.306  1.00  0.00    -0.354 N 
ATOM     51  N   UNL A   1      45.965  26.270  26.946  1.00  0.00    -0.248 NA
ATOM     52  C   UNL A   1      46.368  24.027  26.424  1.00  0.00     0.031 C 
ATOM     53  C   UNL A   1      49.113  29.426  26.951  1.00  0.00     0.029 A 
ATOM     54  C   UNL A   1      48.150  28.429  26.959  1.00  0.00     0.049 A 
ATOM     55  H   UNL A   1      46.090  28.577  27.382  1.00  0.00     0.167 HD
ATOM     56  C   UNL A   1      47.319  26.102  26.688  1.00  0.00     0.074 A 
ATOM     57  C   UNL A   1      47.515  24.692  26.407  1.00  0.00     0.031 C 
ATOM     58  C   UNL A   1      48.314  27.024  26.681  1.00  0.00     0.037 A 
BRANCH  45  59
ATOM     59  C   UNL A   1      46.485  32.774  28.075  1.00  0.00     0.058 A 
ATOM     60  C   UNL A   1      47.054  33.262  29.263  1.00  0.00     0.135 A 
ATOM     61  C   UNL A   1      46.271  33.690  27.032  1.00  0.00     0.135 A 
ATOM     62  F   UNL A   1      47.262  32.437  30.302  1.00  0.00    -0.206 F 
ATOM     63  C   UNL A   1      47.367  34.608  29.424  1.00  0.00     0.059 A 
ATOM     64  C   UNL A   1      46.604  35.035  27.159  1.00  0.00     0.059 A 
ATOM     65  F   UNL A   1      45.726  33.281  25.875  1.00  0.00    -0.206 F 
ATOM     66  C   UNL A   1      47.137  35.488  28.366  1.00  0.00     0.060 A 
BRANCH  66  67
ATOM     67  S   UNL A   1      47.554  37.231  28.588  1.00  0.00     0.124 S 
ATOM     68  O   UNL A   1      48.980  37.231  28.272  1.00  0.00    -0.237 OA
ATOM     69  O   UNL A   1      46.690  37.886  27.611  1.00  0.00    -0.237 OA
ATOM     70  O   UNL A   1      47.220  37.484  29.986  1.00  0.00    -0.744 OA
ENDBRANCH  66  67
ENDBRANCH  45  59
BRANCH  46  71
ATOM     71  C   UNL A   1      43.555  23.262  26.802  1.00  0.00     0.058 A 
ATOM     72  C   UNL A   1      43.447  22.714  25.515  1.00  0.00     0.135 A 
ATOM     73  C   UNL A   1      43.264  22.429  27.893  1.00  0.00     0.135 A 
ATOM     74  F   UNL A   1      43.716  23.470  24.440  1.00  0.00    -0.206 F 
ATOM     75  C   UNL A   1      43.044  21.398  25.314  1.00  0.00     0.059 A 
ATOM     76  C   UNL A   1      42.883  21.102  27.718  1.00  0.00     0.059 A 
ATOM     77  F   UNL A   1      43.375  22.898  29.145  1.00  0.00    -0.206 F 
ATOM     78  C   UNL A   1      42.764  20.599  26.423  1.00  0.00     0.060 A 
BRANCH  78  79
ATOM     79  S   UNL A   1      42.284  18.878  26.154  1.00  0.00     0.124 S 
ATOM     80  O   UNL A   1      43.183  18.488  25.075  1.00  0.00    -0.237 OA
ATOM     81  O   UNL A   1      42.552  18.277  27.458  1.00  0.00    -0.237 OA
ATOM     82  O   UNL A   1      40.872  18.977  25.797  1.00  0.00    -0.744 OA
ENDBRANCH  78  79
ENDBRANCH  46  71
BRANCH  58  83
ATOM     83  C   UNL A   1      49.700  26.525  26.384  1.00  0.00     0.058 A 
ATOM     84  C   UNL A   1      50.233  26.558  25.086  1.00  0.00     0.135 A 
ATOM     85  C   UNL A   1      50.507  26.018  27.415  1.00  0.00     0.135 A 
ATOM     86  F   UNL A   1      49.499  27.032  24.066  1.00  0.00    -0.206 F 
ATOM     87  C   UNL A   1      51.501  26.062  24.811  1.00  0.00     0.059 A 
ATOM     88  C   UNL A   1      51.790  25.544  27.168  1.00  0.00     0.059 A 
ATOM     89  F   UNL A   1      50.050  25.980  28.676  1.00  0.00    -0.206 F 
ATOM     90  C   UNL A   1      52.270  25.550  25.858  1.00  0.00     0.060 A 
BRANCH  90  91
ATOM     91  S   UNL A   1      53.913  24.899  25.490  1.00  0.00     0.124 S 
ATOM     92  O   UNL A   1      54.604  25.121  26.755  1.00  0.00    -0.237 OA
ATOM     93  O   UNL A   1      53.632  23.507  25.154  1.00  0.00    -0.237 OA
ATOM     94  O   UNL A   1      54.362  25.728  24.374  1.00  0.00    -0.744 OA
ENDBRANCH  90  91
ENDBRANCH  58  83
ENDBRANCH  32  33
ENDBRANCH  24  27
ENDBRANCH  22  23
ENDBRANCH   1  22
TORSDOF 16
ENDMDL
MODEL 3
REMARK VINA RESULT:     -11.4      7.516     13.131
REMARK SMILES O=C(C[C@H]1C[N@H+](Cc2ccncc2)CCO1)NCCCNC(=O)c1ccc(-c2c3nc(c(-c4c(F)cc(S(=O)(=O)[O-])cc4F)c4ccc([nH]4)c(-c4c(F)cc(S(=O)(=O)[O-])cc4F)c4nc(c(-c5c(F)cc(S(=O)(=O)[O-])cc5F)c5ccc2[nH]5)C=C4)C=C3)cc1
REMARK SMILES IDX 19 1 18 2 17 3 1 4 2 5 3 7 4 8 5 9 16 10 6 11 15 12 14 13
REMARK SMILES IDX 7 15 8 16 9 17 13 18 10 19 12 20 11 21 20 22 21 23 22 24
REMARK SMILES IDX 23 26 24 27 25 28 89 29 26 30 88 31 27 32 28 33 29 34 82 35
REMARK SMILES IDX 30 36 87 37 81 38 83 39 31 40 86 41 80 42 79 43 32 45 66 46
REMARK SMILES IDX 45 47 65 48 46 49 49 50 64 51 84 52 47 53 48 54 63 56 85 57
REMARK SMILES IDX 50 58 33 59 34 60 43 61 35 62 36 63 42 64 44 65 37 66 38 67
REMARK SMILES IDX 39 68 40 69 41 70 67 71 68 72 77 73 69 74 70 75 76 76 78 77
REMARK SMILES IDX 71 78 72 79 73 80 74 81 75 82 51 83 52 84 61 85 53 86 54 87
REMARK SMILES IDX 60 88 62 89 55 90 56 91 57 92 58 93 59 94
REMARK H PARENT 17 6 6 14 21 25 83 44 49 55
REMARK Flexibility Score: inf
ROOT
ATOM      1  C   UNL A   1      34.843  31.548  27.871  1.00  0.00     0.042 C 
ENDROOT
BRANCH   1   2
ATOM      2  C   UNL A   1      34.788  30.149  27.284  1.00  0.00     0.117 C 
BRANCH   2   3
ATOM      3  N   UNL A   1      33.622  29.948  26.444  1.00  0.00    -0.356 N 
ATOM      4  O   UNL A   1      32.716  28.471  27.885  1.00  0.00    -0.275 OA
ATOM      5  C   UNL A   1      32.624  29.098  26.840  1.00  0.00     0.222 C 
ATOM      6  H   UNL A   1      33.549  30.427  25.588  1.00  0.00     0.163 HD
BRANCH   5   7
ATOM      7  C   UNL A   1      31.468  28.972  25.882  1.00  0.00     0.138 C 
BRANCH   7   8
ATOM      8  C   UNL A   1      31.614  27.940  24.751  1.00  0.00     0.182 C 
ATOM      9  C   UNL A   1      30.285  27.523  24.082  1.00  0.00     0.295 C 
ATOM     10  O   UNL A   1      32.657  28.219  23.798  1.00  0.00    -0.366 OA
ATOM     11  N   UNL A   1      29.900  28.470  23.069  1.00  0.00    -0.327 N 
ATOM     12  C   UNL A   1      32.268  29.079  22.712  1.00  0.00     0.222 C 
ATOM     13  C   UNL A   1      30.912  28.730  22.067  1.00  0.00     0.291 C 
ATOM     14  H   UNL A   1      29.868  29.359  23.566  1.00  0.00     0.348 HD
BRANCH  11  15
ATOM     15  C   UNL A   1      28.517  28.823  22.864  1.00  0.00     0.299 C 
BRANCH  15  16
ATOM     16  C   UNL A   1      28.370  30.309  22.608  1.00  0.00     0.009 A 
ATOM     17  C   UNL A   1      28.032  30.782  21.334  1.00  0.00     0.029 A 
ATOM     18  C   UNL A   1      28.719  31.251  23.584  1.00  0.00     0.029 A 
ATOM     19  C   UNL A   1      28.072  32.148  21.091  1.00  0.00     0.111 A 
ATOM     20  C   UNL A   1      28.714  32.599  23.244  1.00  0.00     0.111 A 
ATOM     21  N   UNL A   1      28.382  33.074  22.025  1.00  0.00    -0.265 NA
ENDBRANCH  15  16
ENDBRANCH  11  15
ENDBRANCH   7   8
ENDBRANCH   5   7
ENDBRANCH   2   3
ENDBRANCH   1   2
BRANCH   1  22
ATOM     22  C   UNL A   1      35.999  31.763  28.834  1.00  0.00     0.118 C 
BRANCH  22  23
ATOM     23  N   UNL A   1      35.807  31.104  30.119  1.00  0.00    -0.352 N 
ATOM     24  C   UNL A   1      36.631  30.220  30.765  1.00  0.00     0.251 C 
ATOM     25  H   UNL A   1      34.971  31.326  30.589  1.00  0.00     0.163 HD
ATOM     26  O   UNL A   1      36.248  29.654  31.784  1.00  0.00    -0.269 OA
BRANCH  24  27
ATOM     27  C   UNL A   1      37.967  29.946  30.207  1.00  0.00     0.039 A 
ATOM     28  C   UNL A   1      39.026  29.719  31.086  1.00  0.00     0.014 A 
ATOM     29  C   UNL A   1      38.162  29.889  28.824  1.00  0.00     0.014 A 
ATOM     30  C   UNL A   1      40.279  29.398  30.572  1.00  0.00     0.010 A 
ATOM     31  C   UNL A   1      39.385  29.476  28.318  1.00  0.00     0.010 A 
ATOM     32  C   UNL A   1      40.461  29.250  29.186  1.00  0.00    -0.014 A 
BRANCH  32  33
ATOM     33  C   UNL A   1      41.786  28.889  28.636  1.00  0.00     0.031 A 
ATOM     34  C   UNL A   1      42.867  29.930  28.537  1.00  0.00     0.074 A 
ATOM     35  C   UNL A   1      41.998  27.630  28.206  1.00  0.00     0.049 A 
ATOM     36  N   UNL A   1      44.100  29.801  28.121  1.00  0.00    -0.248 NA
ATOM     37  C   UNL A   1      42.509  31.305  28.927  1.00  0.00     0.031 C 
ATOM     38  C   UNL A   1      40.991  26.565  28.180  1.00  0.00     0.029 A 
ATOM     39  N   UNL A   1      43.128  27.030  27.717  1.00  0.00    -0.354 N 
ATOM     40  C   UNL A   1      44.656  31.073  28.190  1.00  0.00     0.074 A 
ATOM     41  C   UNL A   1      43.610  31.973  28.620  1.00  0.00     0.031 C 
ATOM     42  C   UNL A   1      41.563  25.431  27.745  1.00  0.00     0.029 A 
ATOM     43  C   UNL A   1      42.964  25.693  27.440  1.00  0.00     0.049 A 
ATOM     44  H   UNL A   1      43.976  27.510  27.577  1.00  0.00     0.167 HD
ATOM     45  C   UNL A   1      45.934  31.449  27.951  1.00  0.00     0.037 A 
ATOM     46  C   UNL A   1      43.855  24.781  27.009  1.00  0.00     0.037 A 
ATOM     47  C   UNL A   1      46.971  30.533  27.554  1.00  0.00     0.049 A 
ATOM     48  C   UNL A   1      45.282  25.212  26.803  1.00  0.00     0.074 A 
ATOM     49  C   UNL A   1      48.314  30.789  27.340  1.00  0.00     0.029 A 
ATOM     50  N   UNL A   1      46.779  29.179  27.319  1.00  0.00    -0.354 N 
ATOM     51  N   UNL A   1      45.813  26.404  26.946  1.00  0.00    -0.248 NA
ATOM     52  C   UNL A   1      46.234  24.170  26.399  1.00  0.00     0.031 C 
ATOM     53  C   UNL A   1      48.926  29.595  26.942  1.00  0.00     0.029 A 
ATOM     54  C   UNL A   1      47.975  28.587  26.952  1.00  0.00     0.049 A 
ATOM     55  H   UNL A   1      45.918  28.709  27.401  1.00  0.00     0.167 HD
ATOM     56  C   UNL A   1      47.166  26.253  26.670  1.00  0.00     0.074 A 
ATOM     57  C   UNL A   1      47.374  24.848  26.374  1.00  0.00     0.031 C 
ATOM     58  C   UNL A   1      48.151  27.186  26.660  1.00  0.00     0.037 A 
BRANCH  45  59
ATOM     59  C   UNL A   1      46.276  32.904  28.126  1.00  0.00     0.058 A 
ATOM     60  C   UNL A   1      46.757  33.405  29.347  1.00  0.00     0.135 A 
ATOM     61  C   UNL A   1      46.136  33.807  27.061  1.00  0.00     0.135 A 
ATOM     62  F   UNL A   1      46.891  32.593  30.407  1.00  0.00    -0.206 F 
ATOM     63  C   UNL A   1      47.057  34.754  29.514  1.00  0.00     0.059 A 
ATOM     64  C   UNL A   1      46.458  35.154  27.196  1.00  0.00     0.059 A 
ATOM     65  F   UNL A   1      45.676  33.385  25.872  1.00  0.00    -0.206 F 
ATOM     66  C   UNL A   1      46.903  35.621  28.432  1.00  0.00     0.060 A 
BRANCH  66  67
ATOM     67  S   UNL A   1      47.301  37.367  28.664  1.00  0.00     0.124 S 
ATOM     68  O   UNL A   1      46.053  38.006  28.256  1.00  0.00    -0.237 OA
ATOM     69  O   UNL A   1      47.608  37.432  30.089  1.00  0.00    -0.237 OA
ATOM     70  O   UNL A   1      48.435  37.578  27.770  1.00  0.00    -0.744 OA
ENDBRANCH  66  67
ENDBRANCH  45  59
BRANCH  46  71
ATOM     71  C   UNL A   1      43.435  23.371  26.804  1.00  0.00     0.058 A 
ATOM     72  C   UNL A   1      43.335  22.828  25.514  1.00  0.00     0.135 A 
ATOM     73  C   UNL A   1      43.148  22.531  27.890  1.00  0.00     0.135 A 
ATOM     74  F   UNL A   1      43.600  23.590  24.443  1.00  0.00    -0.206 F 
ATOM     75  C   UNL A   1      42.944  21.509  25.306  1.00  0.00     0.059 A 
ATOM     76  C   UNL A   1      42.780  21.201  27.709  1.00  0.00     0.059 A 
ATOM     77  F   UNL A   1      43.252  22.995  29.145  1.00  0.00    -0.206 F 
ATOM     78  C   UNL A   1      42.669  20.702  26.411  1.00  0.00     0.060 A 
BRANCH  78  79
ATOM     79  S   UNL A   1      42.205  18.979  26.133  1.00  0.00     0.124 S 
ATOM     80  O   UNL A   1      43.101  18.606  25.045  1.00  0.00    -0.237 OA
ATOM     81  O   UNL A   1      42.489  18.371  27.431  1.00  0.00    -0.237 OA
ATOM     82  O   UNL A   1      40.790  19.065  25.787  1.00  0.00    -0.744 OA
ENDBRANCH  78  79
ENDBRANCH  46  71
BRANCH  58  83
ATOM     83  C   UNL A   1      49.539  26.705  26.342  1.00  0.00     0.058 A 
ATOM     84  C   UNL A   1      50.113  26.898  25.076  1.00  0.00     0.135 A 
ATOM     85  C   UNL A   1      50.304  26.054  27.321  1.00  0.00     0.135 A 
ATOM     86  F   UNL A   1      49.419  27.514  24.105  1.00  0.00    -0.206 F 
ATOM     87  C   UNL A   1      51.383  26.419  24.777  1.00  0.00     0.059 A 
ATOM     88  C   UNL A   1      51.589  25.593  27.053  1.00  0.00     0.059 A 
ATOM     89  F   UNL A   1      49.807  25.860  28.553  1.00  0.00    -0.206 F 
ATOM     90  C   UNL A   1      52.111  25.761  25.771  1.00  0.00     0.060 A 
BRANCH  90  91
ATOM     91  S   UNL A   1      53.755  25.135  25.370  1.00  0.00     0.124 S 
ATOM     92  O   UNL A   1      53.565  23.697  25.528  1.00  0.00    -0.237 OA
ATOM     93  O   UNL A   1      53.946  25.605  24.002  1.00  0.00    -0.237 OA
ATOM     94  O   UNL A   1      54.611  25.769  26.370  1.00  0.00    -0.744 OA
ENDBRANCH  90  91
ENDBRANCH  58  83
ENDBRANCH  32  33
ENDBRANCH  24  27
ENDBRANCH  22  23
ENDBRANCH   1  22
TORSDOF 16
ENDMDL
