MODEL 1
REMARK VINA RESULT:     -12.1      0.000      0.000
REMARK SMILES CCC[NH+]1CCC(NC(=O)NC2(CC(=O)NCCCNC(=O)c3ccc(-c4c5nc(c(-c6c(F)cc(S(=O)(=O)[O-])cc6F)c6ccc([nH]6)c(-c6c(F)cc(S(=O)(=O)[O-])cc6F)c6nc(c(-c7c(F)cc(S(=O)(=O)[O-])cc7F)c7ccc4[nH]7)C=C6)C=C5)cc3)CCC2)CC1
REMARK SMILES IDX 17 1 16 2 14 3 15 4 13 6 12 7 89 8 91 9 90 10 11 11 8 12
REMARK SMILES IDX 9 13 10 15 7 17 4 18 5 19 93 20 6 22 92 23 3 24 2 25 1 26
REMARK SMILES IDX 18 27 19 28 20 29 21 30 22 32 23 33 24 34 88 35 25 36 87 37
REMARK SMILES IDX 26 38 27 39 28 40 81 41 29 42 86 43 80 44 82 45 30 46 85 47
REMARK SMILES IDX 79 48 78 49 31 51 65 52 44 53 64 54 45 55 48 56 63 57 83 58
REMARK SMILES IDX 46 59 47 60 62 62 84 63 49 64 32 65 33 66 42 67 34 68 35 69
REMARK SMILES IDX 41 70 43 71 36 72 37 73 38 74 39 75 40 76 66 77 67 78 76 79
REMARK SMILES IDX 68 80 69 81 75 82 77 83 70 84 71 85 72 86 73 87 74 88 50 89
REMARK SMILES IDX 51 90 60 91 52 92 53 93 59 94 61 95 54 96 55 97 56 98 57 99
REMARK SMILES IDX 58 100
REMARK H PARENT 16 5 8 14 11 16 4 21 20 31 82 50 48 61
REMARK Flexibility Score: inf
ROOT
ATOM      1  C   UNL A   1      36.494  22.345  25.377  1.00  0.00     0.117 C 
ENDROOT
BRANCH   1   2
ATOM      2  N   UNL A   1      35.597  22.262  26.512  1.00  0.00    -0.356 N 
ATOM      3  C   UNL A   1      34.327  22.723  26.659  1.00  0.00     0.222 C 
ATOM      4  O   UNL A   1      33.826  22.696  27.786  1.00  0.00    -0.275 OA
ATOM      5  H   UNL A   1      35.966  21.802  27.301  1.00  0.00     0.163 HD
BRANCH   3   6
ATOM      6  C   UNL A   1      33.527  23.257  25.489  1.00  0.00     0.128 C 
BRANCH   6   7
ATOM      7  C   UNL A   1      32.202  22.523  25.163  1.00  0.00     0.051 C 
ATOM      8  C   UNL A   1      32.476  21.091  24.624  1.00  0.00     0.029 C 
ATOM      9  C   UNL A   1      31.690  22.915  23.761  1.00  0.00     0.029 C 
ATOM     10  C   UNL A   1      32.293  21.620  23.192  1.00  0.00     0.005 C 
BRANCH   7  11
ATOM     11  N   UNL A   1      31.279  22.586  26.329  1.00  0.00    -0.332 N 
ATOM     12  N   UNL A   1      29.892  24.545  26.418  1.00  0.00    -0.335 N 
ATOM     13  C   UNL A   1      30.274  23.330  26.823  1.00  0.00     0.315 C 
ATOM     14  H   UNL A   1      29.018  24.818  26.779  1.00  0.00     0.165 HD
ATOM     15  O   UNL A   1      29.629  22.832  27.752  1.00  0.00    -0.249 OA
ATOM     16  H   UNL A   1      31.466  21.837  26.940  1.00  0.00     0.165 HD
BRANCH  12  17
ATOM     17  C   UNL A   1      30.492  25.539  25.563  1.00  0.00     0.095 C 
ATOM     18  N   UNL A   1      31.276  27.925  24.113  1.00  0.00    -0.335 N 
ATOM     19  C   UNL A   1      30.432  26.878  23.505  1.00  0.00     0.264 C 
ATOM     20  C   UNL A   1      31.916  27.560  25.383  1.00  0.00     0.264 C 
ATOM     21  H   UNL A   1      30.652  28.688  24.373  1.00  0.00     0.348 HD
ATOM     22  C   UNL A   1      29.568  26.086  24.490  1.00  0.00     0.086 C 
ATOM     23  C   UNL A   1      31.061  26.719  26.334  1.00  0.00     0.086 C 
BRANCH  18  24
ATOM     24  C   UNL A   1      32.268  28.377  23.110  1.00  0.00     0.261 C 
BRANCH  24  25
ATOM     25  C   UNL A   1      33.601  27.615  23.041  1.00  0.00     0.058 C 
ATOM     26  C   UNL A   1      33.507  26.174  22.554  1.00  0.00     0.010 C 
ENDBRANCH  24  25
ENDBRANCH  18  24
ENDBRANCH  12  17
ENDBRANCH   7  11
ENDBRANCH   6   7
ENDBRANCH   3   6
ENDBRANCH   1   2
BRANCH   1  27
ATOM     27  C   UNL A   1      37.175  23.714  25.309  1.00  0.00     0.042 C 
BRANCH  27  28
ATOM     28  C   UNL A   1      38.066  24.018  26.506  1.00  0.00     0.118 C 
BRANCH  28  29
ATOM     29  N   UNL A   1      39.474  23.874  26.172  1.00  0.00    -0.352 N 
ATOM     30  C   UNL A   1      40.552  24.652  26.515  1.00  0.00     0.251 C 
ATOM     31  H   UNL A   1      39.689  23.094  25.611  1.00  0.00     0.163 HD
ATOM     32  O   UNL A   1      41.611  24.487  25.915  1.00  0.00    -0.269 OA
BRANCH  30  33
ATOM     33  C   UNL A   1      40.455  25.679  27.580  1.00  0.00     0.039 A 
ATOM     34  C   UNL A   1      41.366  26.742  27.568  1.00  0.00     0.014 A 
ATOM     35  C   UNL A   1      39.533  25.574  28.624  1.00  0.00     0.014 A 
ATOM     36  C   UNL A   1      41.326  27.711  28.576  1.00  0.00     0.010 A 
ATOM     37  C   UNL A   1      39.444  26.580  29.585  1.00  0.00     0.010 A 
ATOM     38  C   UNL A   1      40.350  27.651  29.581  1.00  0.00    -0.014 A 
BRANCH  38  39
ATOM     39  C   UNL A   1      40.276  28.683  30.648  1.00  0.00     0.031 A 
ATOM     40  C   UNL A   1      41.146  28.567  31.873  1.00  0.00     0.074 A 
ATOM     41  C   UNL A   1      39.383  29.688  30.543  1.00  0.00     0.049 A 
ATOM     42  N   UNL A   1      41.164  29.314  32.947  1.00  0.00    -0.248 NA
ATOM     43  C   UNL A   1      42.105  27.450  31.908  1.00  0.00     0.031 C 
ATOM     44  C   UNL A   1      38.452  29.882  29.429  1.00  0.00     0.029 A 
ATOM     45  N   UNL A   1      39.099  30.729  31.394  1.00  0.00    -0.354 N 
ATOM     46  C   UNL A   1      42.111  28.745  33.792  1.00  0.00     0.074 A 
ATOM     47  C   UNL A   1      42.622  27.569  33.123  1.00  0.00     0.031 C 
ATOM     48  C   UNL A   1      37.710  30.977  29.658  1.00  0.00     0.029 A 
ATOM     49  C   UNL A   1      38.082  31.542  30.951  1.00  0.00     0.049 A 
ATOM     50  H   UNL A   1      39.578  30.877  32.240  1.00  0.00     0.167 HD
ATOM     51  C   UNL A   1      42.529  29.176  35.005  1.00  0.00     0.037 A 
ATOM     52  C   UNL A   1      37.504  32.615  31.528  1.00  0.00     0.037 A 
ATOM     53  C   UNL A   1      42.053  30.375  35.643  1.00  0.00     0.049 A 
ATOM     54  C   UNL A   1      38.006  33.083  32.869  1.00  0.00     0.074 A 
ATOM     55  C   UNL A   1      42.474  30.940  36.834  1.00  0.00     0.029 A 
ATOM     56  N   UNL A   1      41.052  31.195  35.143  1.00  0.00    -0.354 N 
ATOM     57  N   UNL A   1      38.955  32.573  33.617  1.00  0.00    -0.248 NA
ATOM     58  C   UNL A   1      37.363  34.274  33.443  1.00  0.00     0.031 C 
ATOM     59  C   UNL A   1      41.701  32.079  37.076  1.00  0.00     0.029 A 
ATOM     60  C   UNL A   1      40.831  32.250  36.012  1.00  0.00     0.049 A 
ATOM     61  H   UNL A   1      40.572  31.049  34.296  1.00  0.00     0.167 HD
ATOM     62  C   UNL A   1      39.044  33.399  34.733  1.00  0.00     0.074 A 
ATOM     63  C   UNL A   1      38.062  34.448  34.555  1.00  0.00     0.031 C 
ATOM     64  C   UNL A   1      39.863  33.299  35.808  1.00  0.00     0.037 A 
BRANCH  51  65
ATOM     65  C   UNL A   1      43.566  28.362  35.731  1.00  0.00     0.058 A 
ATOM     66  C   UNL A   1      43.209  27.326  36.607  1.00  0.00     0.135 A 
ATOM     67  C   UNL A   1      44.933  28.562  35.474  1.00  0.00     0.135 A 
ATOM     68  F   UNL A   1      41.918  27.103  36.901  1.00  0.00    -0.206 F 
ATOM     69  C   UNL A   1      44.171  26.520  37.210  1.00  0.00     0.059 A 
ATOM     70  C   UNL A   1      45.910  27.752  36.046  1.00  0.00     0.059 A 
ATOM     71  F   UNL A   1      45.328  29.541  34.645  1.00  0.00    -0.206 F 
ATOM     72  C   UNL A   1      45.519  26.736  36.916  1.00  0.00     0.060 A 
BRANCH  72  73
ATOM     73  S   UNL A   1      46.747  25.646  37.666  1.00  0.00     0.124 S 
ATOM     74  O   UNL A   1      47.940  26.487  37.636  1.00  0.00    -0.237 OA
ATOM     75  O   UNL A   1      46.180  25.399  38.987  1.00  0.00    -0.237 OA
ATOM     76  O   UNL A   1      46.771  24.493  36.772  1.00  0.00    -0.744 OA
ENDBRANCH  72  73
ENDBRANCH  51  65
BRANCH  52  77
ATOM     77  C   UNL A   1      36.389  33.326  30.849  1.00  0.00     0.058 A 
ATOM     78  C   UNL A   1      36.625  34.151  29.739  1.00  0.00     0.135 A 
ATOM     79  C   UNL A   1      35.068  33.219  31.311  1.00  0.00     0.135 A 
ATOM     80  F   UNL A   1      37.871  34.288  29.260  1.00  0.00    -0.206 F 
ATOM     81  C   UNL A   1      35.602  34.873  29.134  1.00  0.00     0.059 A 
ATOM     82  C   UNL A   1      34.023  33.909  30.706  1.00  0.00     0.059 A 
ATOM     83  F   UNL A   1      34.783  32.427  32.357  1.00  0.00    -0.206 F 
ATOM     84  C   UNL A   1      34.303  34.751  29.630  1.00  0.00     0.060 A 
BRANCH  84  85
ATOM     85  S   UNL A   1      32.979  35.689  28.837  1.00  0.00     0.124 S 
ATOM     86  O   UNL A   1      33.733  36.703  28.111  1.00  0.00    -0.237 OA
ATOM     87  O   UNL A   1      32.327  34.669  28.020  1.00  0.00    -0.237 OA
ATOM     88  O   UNL A   1      32.191  36.173  29.967  1.00  0.00    -0.744 OA
ENDBRANCH  84  85
ENDBRANCH  52  77
BRANCH  64  89
ATOM     89  C   UNL A   1      39.771  34.373  36.855  1.00  0.00     0.058 A 
ATOM     90  C   UNL A   1      38.968  34.222  37.997  1.00  0.00     0.135 A 
ATOM     91  C   UNL A   1      40.539  35.543  36.741  1.00  0.00     0.135 A 
ATOM     92  F   UNL A   1      38.210  33.126  38.151  1.00  0.00    -0.206 F 
ATOM     93  C   UNL A   1      38.915  35.205  38.979  1.00  0.00     0.059 A 
ATOM     94  C   UNL A   1      40.523  36.525  37.724  1.00  0.00     0.059 A 
ATOM     95  F   UNL A   1      41.331  35.730  35.673  1.00  0.00    -0.206 F 
ATOM     96  C   UNL A   1      39.698  36.353  38.835  1.00  0.00     0.060 A 
BRANCH  96  97
ATOM     97  S   UNL A   1      39.649  37.605  40.135  1.00  0.00     0.124 S 
ATOM     98  O   UNL A   1      38.602  38.496  39.645  1.00  0.00    -0.237 OA
ATOM     99  O   UNL A   1      39.308  36.816  41.315  1.00  0.00    -0.237 OA
ATOM    100  O   UNL A   1      41.000  38.156  40.126  1.00  0.00    -0.744 OA
ENDBRANCH  96  97
ENDBRANCH  64  89
ENDBRANCH  38  39
ENDBRANCH  30  33
ENDBRANCH  28  29
ENDBRANCH  27  28
ENDBRANCH   1  27
TORSDOF 18
ENDMDL
MODEL 2
REMARK VINA RESULT:     -11.9      1.512      2.309
REMARK SMILES CCC[NH+]1CCC(NC(=O)NC2(CC(=O)NCCCNC(=O)c3ccc(-c4c5nc(c(-c6c(F)cc(S(=O)(=O)[O-])cc6F)c6ccc([nH]6)c(-c6c(F)cc(S(=O)(=O)[O-])cc6F)c6nc(c(-c7c(F)cc(S(=O)(=O)[O-])cc7F)c7ccc4[nH]7)C=C6)C=C5)cc3)CCC2)CC1
REMARK SMILES IDX 17 1 16 2 14 3 15 4 13 6 12 7 89 8 91 9 90 10 11 11 8 12
REMARK SMILES IDX 9 13 10 15 7 17 4 18 5 19 93 20 6 22 92 23 3 24 2 25 1 26
REMARK SMILES IDX 18 27 19 28 20 29 21 30 22 32 23 33 24 34 88 35 25 36 87 37
REMARK SMILES IDX 26 38 27 39 28 40 81 41 29 42 86 43 80 44 82 45 30 46 85 47
REMARK SMILES IDX 79 48 78 49 31 51 65 52 44 53 64 54 45 55 48 56 63 57 83 58
REMARK SMILES IDX 46 59 47 60 62 62 84 63 49 64 32 65 33 66 42 67 34 68 35 69
REMARK SMILES IDX 41 70 43 71 36 72 37 73 38 74 39 75 40 76 66 77 67 78 76 79
REMARK SMILES IDX 68 80 69 81 75 82 77 83 70 84 71 85 72 86 73 87 74 88 50 89
REMARK SMILES IDX 51 90 60 91 52 92 53 93 59 94 61 95 54 96 55 97 56 98 57 99
REMARK SMILES IDX 58 100
REMARK H PARENT 16 5 8 14 11 16 4 21 20 31 82 50 48 61
REMARK Flexibility Score: inf
ROOT
ATOM      1  C   UNL A   1      36.414  23.777  25.412  1.00  0.00     0.117 C 
ENDROOT
BRANCH   1   2
ATOM      2  N   UNL A   1      36.024  23.465  24.051  1.00  0.00    -0.356 N 
ATOM      3  C   UNL A   1      34.840  23.659  23.415  1.00  0.00     0.222 C 
ATOM      4  O   UNL A   1      34.687  23.144  22.305  1.00  0.00    -0.275 OA
ATOM      5  H   UNL A   1      36.727  23.046  23.504  1.00  0.00     0.163 HD
BRANCH   3   6
ATOM      6  C   UNL A   1      33.726  24.482  24.026  1.00  0.00     0.128 C 
BRANCH   6   7
ATOM      7  C   UNL A   1      32.325  24.342  23.379  1.00  0.00     0.051 C 
ATOM      8  C   UNL A   1      31.253  25.113  24.199  1.00  0.00     0.029 C 
ATOM      9  C   UNL A   1      31.653  23.021  23.811  1.00  0.00     0.029 C 
ATOM     10  C   UNL A   1      30.847  23.791  24.869  1.00  0.00     0.005 C 
BRANCH   7  11
ATOM     11  N   UNL A   1      32.387  24.700  21.936  1.00  0.00    -0.332 N 
ATOM     12  N   UNL A   1      32.963  26.987  21.483  1.00  0.00    -0.335 N 
ATOM     13  C   UNL A   1      32.726  25.720  21.129  1.00  0.00     0.315 C 
ATOM     14  H   UNL A   1      33.387  27.517  20.769  1.00  0.00     0.165 HD
ATOM     15  O   UNL A   1      32.837  25.455  19.927  1.00  0.00    -0.249 OA
ATOM     16  H   UNL A   1      32.077  23.939  21.393  1.00  0.00     0.165 HD
BRANCH  12  17
ATOM     17  C   UNL A   1      32.727  27.740  22.689  1.00  0.00     0.095 C 
ATOM     18  N   UNL A   1      32.189  29.740  24.719  1.00  0.00    -0.335 N 
ATOM     19  C   UNL A   1      33.554  29.255  24.437  1.00  0.00     0.264 C 
ATOM     20  C   UNL A   1      31.104  28.959  24.111  1.00  0.00     0.264 C 
ATOM     21  H   UNL A   1      32.104  30.652  24.268  1.00  0.00     0.348 HD
ATOM     22  C   UNL A   1      33.791  28.777  23.002  1.00  0.00     0.086 C 
ATOM     23  C   UNL A   1      31.377  28.438  22.698  1.00  0.00     0.086 C 
BRANCH  18  24
ATOM     24  C   UNL A   1      32.021  29.863  26.185  1.00  0.00     0.261 C 
BRANCH  24  25
ATOM     25  C   UNL A   1      33.288  29.782  27.051  1.00  0.00     0.058 C 
ATOM     26  C   UNL A   1      33.776  31.106  27.624  1.00  0.00     0.010 C 
ENDBRANCH  24  25
ENDBRANCH  18  24
ENDBRANCH  12  17
ENDBRANCH   7  11
ENDBRANCH   6   7
ENDBRANCH   3   6
ENDBRANCH   1   2
BRANCH   1  27
ATOM     27  C   UNL A   1      37.775  23.166  25.752  1.00  0.00     0.042 C 
BRANCH  27  28
ATOM     28  C   UNL A   1      38.643  24.053  26.635  1.00  0.00     0.118 C 
BRANCH  28  29
ATOM     29  N   UNL A   1      40.035  24.023  26.214  1.00  0.00    -0.352 N 
ATOM     30  C   UNL A   1      41.068  24.881  26.501  1.00  0.00     0.251 C 
ATOM     31  H   UNL A   1      40.274  23.268  25.630  1.00  0.00     0.163 HD
ATOM     32  O   UNL A   1      42.098  24.805  25.836  1.00  0.00    -0.269 OA
BRANCH  30  33
ATOM     33  C   UNL A   1      40.958  25.886  27.585  1.00  0.00     0.039 A 
ATOM     34  C   UNL A   1      39.895  25.779  28.489  1.00  0.00     0.014 A 
ATOM     35  C   UNL A   1      41.839  26.967  27.682  1.00  0.00     0.014 A 
ATOM     36  C   UNL A   1      39.739  26.729  29.504  1.00  0.00     0.010 A 
ATOM     37  C   UNL A   1      41.728  27.869  28.738  1.00  0.00     0.010 A 
ATOM     38  C   UNL A   1      40.669  27.770  29.652  1.00  0.00    -0.014 A 
BRANCH  38  39
ATOM     39  C   UNL A   1      40.535  28.776  30.738  1.00  0.00     0.031 A 
ATOM     40  C   UNL A   1      41.380  28.664  31.980  1.00  0.00     0.074 A 
ATOM     41  C   UNL A   1      39.610  29.752  30.632  1.00  0.00     0.049 A 
ATOM     42  N   UNL A   1      41.348  29.389  33.068  1.00  0.00    -0.248 NA
ATOM     43  C   UNL A   1      42.377  27.581  32.015  1.00  0.00     0.031 C 
ATOM     44  C   UNL A   1      38.698  29.937  29.500  1.00  0.00     0.029 A 
ATOM     45  N   UNL A   1      39.270  30.764  31.496  1.00  0.00    -0.354 N 
ATOM     46  C   UNL A   1      42.295  28.836  33.923  1.00  0.00     0.074 A 
ATOM     47  C   UNL A   1      42.862  27.692  33.244  1.00  0.00     0.031 C 
ATOM     48  C   UNL A   1      37.913  31.001  29.734  1.00  0.00     0.029 A 
ATOM     49  C   UNL A   1      38.237  31.551  31.047  1.00  0.00     0.049 A 
ATOM     50  H   UNL A   1      39.725  30.911  32.357  1.00  0.00     0.167 HD
ATOM     51  C   UNL A   1      42.670  29.255  35.155  1.00  0.00     0.037 A 
ATOM     52  C   UNL A   1      37.608  32.591  31.632  1.00  0.00     0.037 A 
ATOM     53  C   UNL A   1      42.138  30.424  35.805  1.00  0.00     0.049 A 
ATOM     54  C   UNL A   1      38.063  33.048  32.993  1.00  0.00     0.074 A 
ATOM     55  C   UNL A   1      42.513  30.978  37.017  1.00  0.00     0.029 A 
ATOM     56  N   UNL A   1      41.121  31.220  35.299  1.00  0.00    -0.354 N 
ATOM     57  N   UNL A   1      39.013  32.556  33.752  1.00  0.00    -0.248 NA
ATOM     58  C   UNL A   1      37.366  34.204  33.575  1.00  0.00     0.031 C 
ATOM     59  C   UNL A   1      41.695  32.085  37.263  1.00  0.00     0.029 A 
ATOM     60  C   UNL A   1      40.843  32.248  36.183  1.00  0.00     0.049 A 
ATOM     61  H   UNL A   1      40.666  31.075  34.438  1.00  0.00     0.167 HD
ATOM     62  C   UNL A   1      39.047  33.361  34.886  1.00  0.00     0.074 A 
ATOM     63  C   UNL A   1      38.033  34.378  34.707  1.00  0.00     0.031 C 
ATOM     64  C   UNL A   1      39.845  33.267  35.978  1.00  0.00     0.037 A 
BRANCH  51  65
ATOM     65  C   UNL A   1      43.719  28.463  35.888  1.00  0.00     0.058 A 
ATOM     66  C   UNL A   1      43.380  27.386  36.720  1.00  0.00     0.135 A 
ATOM     67  C   UNL A   1      45.083  28.728  35.681  1.00  0.00     0.135 A 
ATOM     68  F   UNL A   1      42.091  27.100  36.966  1.00  0.00    -0.206 F 
ATOM     69  C   UNL A   1      44.356  26.602  37.328  1.00  0.00     0.059 A 
ATOM     70  C   UNL A   1      46.076  27.942  36.259  1.00  0.00     0.059 A 
ATOM     71  F   UNL A   1      45.461  29.749  34.896  1.00  0.00    -0.206 F 
ATOM     72  C   UNL A   1      45.702  26.883  37.085  1.00  0.00     0.060 A 
BRANCH  72  73
ATOM     73  S   UNL A   1      46.952  25.822  37.840  1.00  0.00     0.124 S 
ATOM     74  O   UNL A   1      48.185  26.425  37.342  1.00  0.00    -0.237 OA
ATOM     75  O   UNL A   1      46.691  25.998  39.264  1.00  0.00    -0.237 OA
ATOM     76  O   UNL A   1      46.642  24.498  37.308  1.00  0.00    -0.744 OA
ENDBRANCH  72  73
ENDBRANCH  51  65
BRANCH  52  77
ATOM     77  C   UNL A   1      36.484  33.278  30.941  1.00  0.00     0.058 A 
ATOM     78  C   UNL A   1      36.717  34.138  29.858  1.00  0.00     0.135 A 
ATOM     79  C   UNL A   1      35.157  33.110  31.366  1.00  0.00     0.135 A 
ATOM     80  F   UNL A   1      37.969  34.334  29.415  1.00  0.00    -0.206 F 
ATOM     81  C   UNL A   1      35.683  34.838  29.245  1.00  0.00     0.059 A 
ATOM     82  C   UNL A   1      34.102  33.776  30.751  1.00  0.00     0.059 A 
ATOM     83  F   UNL A   1      34.876  32.281  32.384  1.00  0.00    -0.206 F 
ATOM     84  C   UNL A   1      34.378  34.654  29.703  1.00  0.00     0.060 A 
BRANCH  84  85
ATOM     85  S   UNL A   1      33.040  35.562  28.899  1.00  0.00     0.124 S 
ATOM     86  O   UNL A   1      32.304  36.077  30.048  1.00  0.00    -0.237 OA
ATOM     87  O   UNL A   1      33.769  36.551  28.111  1.00  0.00    -0.237 OA
ATOM     88  O   UNL A   1      32.358  34.532  28.121  1.00  0.00    -0.744 OA
ENDBRANCH  84  85
ENDBRANCH  52  77
BRANCH  64  89
ATOM     89  C   UNL A   1      39.691  34.314  37.044  1.00  0.00     0.058 A 
ATOM     90  C   UNL A   1      38.852  34.121  38.152  1.00  0.00     0.135 A 
ATOM     91  C   UNL A   1      40.437  35.503  36.983  1.00  0.00     0.135 A 
ATOM     92  F   UNL A   1      38.113  33.006  38.255  1.00  0.00    -0.206 F 
ATOM     93  C   UNL A   1      38.742  35.080  39.153  1.00  0.00     0.059 A 
ATOM     94  C   UNL A   1      40.364  36.463  37.986  1.00  0.00     0.059 A 
ATOM     95  F   UNL A   1      41.262  35.730  35.949  1.00  0.00    -0.206 F 
ATOM     96  C   UNL A   1      39.504  36.248  39.062  1.00  0.00     0.060 A 
BRANCH  96  97
ATOM     97  S   UNL A   1      39.381  37.469  40.386  1.00  0.00     0.124 S 
ATOM     98  O   UNL A   1      38.245  38.271  39.941  1.00  0.00    -0.237 OA
ATOM     99  O   UNL A   1      39.145  36.634  41.560  1.00  0.00    -0.237 OA
ATOM    100  O   UNL A   1      40.676  38.139  40.351  1.00  0.00    -0.744 OA
ENDBRANCH  96  97
ENDBRANCH  64  89
ENDBRANCH  38  39
ENDBRANCH  30  33
ENDBRANCH  28  29
ENDBRANCH  27  28
ENDBRANCH   1  27
TORSDOF 18
ENDMDL
MODEL 3
REMARK VINA RESULT:     -11.5      6.817     11.649
REMARK SMILES CCC[NH+]1CCC(NC(=O)NC2(CC(=O)NCCCNC(=O)c3ccc(-c4c5nc(c(-c6c(F)cc(S(=O)(=O)[O-])cc6F)c6ccc([nH]6)c(-c6c(F)cc(S(=O)(=O)[O-])cc6F)c6nc(c(-c7c(F)cc(S(=O)(=O)[O-])cc7F)c7ccc4[nH]7)C=C6)C=C5)cc3)CCC2)CC1
REMARK SMILES IDX 17 1 16 2 14 3 15 4 13 6 12 7 89 8 91 9 90 10 11 11 8 12
REMARK SMILES IDX 9 13 10 15 7 17 4 18 5 19 93 20 6 22 92 23 3 24 2 25 1 26
REMARK SMILES IDX 18 27 19 28 20 29 21 30 22 32 23 33 24 34 88 35 25 36 87 37
REMARK SMILES IDX 26 38 27 39 28 40 81 41 29 42 86 43 80 44 82 45 30 46 85 47
REMARK SMILES IDX 79 48 78 49 31 51 65 52 44 53 64 54 45 55 48 56 63 57 83 58
REMARK SMILES IDX 46 59 47 60 62 62 84 63 49 64 32 65 33 66 42 67 34 68 35 69
REMARK SMILES IDX 41 70 43 71 36 72 37 73 38 74 39 75 40 76 66 77 67 78 76 79
REMARK SMILES IDX 68 80 69 81 75 82 77 83 70 84 71 85 72 86 73 87 74 88 50 89
REMARK SMILES IDX 51 90 60 91 52 92 53 93 59 94 61 95 54 96 55 97 56 98 57 99
REMARK SMILES IDX 58 100
REMARK H PARENT 16 5 8 14 11 16 4 21 20 31 82 50 48 61
REMARK Flexibility Score: inf
ROOT
ATOM      1  C   UNL A   1      33.379  29.364  26.583  1.00  0.00     0.117 C 
ENDROOT
BRANCH   1   2
ATOM      2  N   UNL A   1      33.666  29.631  25.187  1.00  0.00    -0.356 N 
ATOM      3  C   UNL A   1      33.244  28.985  24.070  1.00  0.00     0.222 C 
ATOM      4  O   UNL A   1      33.769  29.283  22.994  1.00  0.00    -0.275 OA
ATOM      5  H   UNL A   1      34.260  30.399  25.025  1.00  0.00     0.163 HD
BRANCH   3   6
ATOM      6  C   UNL A   1      32.161  27.927  24.115  1.00  0.00     0.128 C 
BRANCH   6   7
ATOM      7  C   UNL A   1      32.595  26.476  23.784  1.00  0.00     0.051 C 
ATOM      8  C   UNL A   1      31.570  25.448  24.341  1.00  0.00     0.029 C 
ATOM      9  C   UNL A   1      33.619  25.963  24.820  1.00  0.00     0.029 C 
ATOM     10  C   UNL A   1      32.487  25.225  25.555  1.00  0.00     0.005 C 
BRANCH   7  11
ATOM     11  N   UNL A   1      32.887  26.345  22.331  1.00  0.00    -0.332 N 
ATOM     12  N   UNL A   1      32.915  24.091  21.502  1.00  0.00    -0.335 N 
ATOM     13  C   UNL A   1      32.936  25.420  21.358  1.00  0.00     0.315 C 
ATOM     14  H   UNL A   1      32.759  23.611  20.657  1.00  0.00     0.165 HD
ATOM     15  O   UNL A   1      33.001  25.846  20.199  1.00  0.00    -0.249 OA
ATOM     16  H   UNL A   1      33.123  27.226  21.961  1.00  0.00     0.165 HD
BRANCH  12  17
ATOM     17  C   UNL A   1      33.073  23.215  22.636  1.00  0.00     0.095 C 
ATOM     18  N   UNL A   1      33.678  21.075  24.498  1.00  0.00    -0.335 N 
ATOM     19  C   UNL A   1      32.331  21.258  23.921  1.00  0.00     0.264 C 
ATOM     20  C   UNL A   1      34.609  22.192  24.290  1.00  0.00     0.264 C 
ATOM     21  H   UNL A   1      34.112  20.307  23.986  1.00  0.00     0.348 HD
ATOM     22  C   UNL A   1      32.299  21.913  22.538  1.00  0.00     0.086 C 
ATOM     23  C   UNL A   1      34.526  22.874  22.923  1.00  0.00     0.086 C 
BRANCH  18  24
ATOM     24  C   UNL A   1      33.539  20.737  25.933  1.00  0.00     0.261 C 
BRANCH  24  25
ATOM     25  C   UNL A   1      33.062  21.852  26.878  1.00  0.00     0.058 C 
ATOM     26  C   UNL A   1      34.139  22.466  27.763  1.00  0.00     0.010 C 
ENDBRANCH  24  25
ENDBRANCH  18  24
ENDBRANCH  12  17
ENDBRANCH   7  11
ENDBRANCH   6   7
ENDBRANCH   3   6
ENDBRANCH   1   2
BRANCH   1  27
ATOM     27  C   UNL A   1      34.658  29.042  27.359  1.00  0.00     0.042 C 
BRANCH  27  28
ATOM     28  C   UNL A   1      35.385  30.272  27.885  1.00  0.00     0.118 C 
BRANCH  28  29
ATOM     29  N   UNL A   1      35.402  30.300  29.339  1.00  0.00    -0.352 N 
ATOM     30  C   UNL A   1      36.371  29.897  30.224  1.00  0.00     0.251 C 
ATOM     31  H   UNL A   1      34.588  30.665  29.755  1.00  0.00     0.163 HD
ATOM     32  O   UNL A   1      36.072  29.778  31.409  1.00  0.00    -0.269 OA
BRANCH  30  33
ATOM     33  C   UNL A   1      37.752  29.602  29.774  1.00  0.00     0.039 A 
ATOM     34  C   UNL A   1      38.072  29.799  28.425  1.00  0.00     0.014 A 
ATOM     35  C   UNL A   1      38.713  29.072  30.639  1.00  0.00     0.014 A 
ATOM     36  C   UNL A   1      39.356  29.500  27.958  1.00  0.00     0.010 A 
ATOM     37  C   UNL A   1      40.013  28.846  30.189  1.00  0.00     0.010 A 
ATOM     38  C   UNL A   1      40.345  29.043  28.841  1.00  0.00    -0.014 A 
BRANCH  38  39
ATOM     39  C   UNL A   1      41.722  28.741  28.369  1.00  0.00     0.031 A 
ATOM     40  C   UNL A   1      42.082  27.344  27.932  1.00  0.00     0.074 A 
ATOM     41  C   UNL A   1      42.662  29.707  28.393  1.00  0.00     0.049 A 
ATOM     42  N   UNL A   1      43.245  26.866  27.573  1.00  0.00    -0.248 NA
ATOM     43  C   UNL A   1      40.998  26.348  27.920  1.00  0.00     0.031 C 
ATOM     44  C   UNL A   1      42.449  31.086  28.840  1.00  0.00     0.029 A 
ATOM     45  N   UNL A   1      43.991  29.676  28.049  1.00  0.00    -0.354 N 
ATOM     46  C   UNL A   1      43.040  25.514  27.320  1.00  0.00     0.074 A 
ATOM     47  C   UNL A   1      41.648  25.237  27.600  1.00  0.00     0.031 C 
ATOM     48  C   UNL A   1      43.600  31.769  28.733  1.00  0.00     0.029 A 
ATOM     49  C   UNL A   1      44.643  30.870  28.248  1.00  0.00     0.049 A 
ATOM     50  H   UNL A   1      44.435  28.873  27.694  1.00  0.00     0.167 HD
ATOM     51  C   UNL A   1      43.927  24.592  26.876  1.00  0.00     0.037 A 
ATOM     52  C   UNL A   1      45.938  31.202  28.073  1.00  0.00     0.037 A 
ATOM     53  C   UNL A   1      45.298  24.885  26.550  1.00  0.00     0.049 A 
ATOM     54  C   UNL A   1      46.896  30.161  27.558  1.00  0.00     0.074 A 
ATOM     55  C   UNL A   1      46.253  24.038  26.015  1.00  0.00     0.029 A 
ATOM     56  N   UNL A   1      45.909  26.118  26.725  1.00  0.00    -0.354 N 
ATOM     57  N   UNL A   1      46.663  28.906  27.253  1.00  0.00    -0.248 NA
ATOM     58  C   UNL A   1      48.291  30.579  27.356  1.00  0.00     0.031 C 
ATOM     59  C   UNL A   1      47.454  24.747  25.905  1.00  0.00     0.029 A 
ATOM     60  C   UNL A   1      47.233  26.047  26.327  1.00  0.00     0.049 A 
ATOM     61  H   UNL A   1      45.466  26.923  27.080  1.00  0.00     0.167 HD
ATOM     62  C   UNL A   1      47.874  28.396  26.795  1.00  0.00     0.074 A 
ATOM     63  C   UNL A   1      48.831  29.480  26.850  1.00  0.00     0.031 C 
ATOM     64  C   UNL A   1      48.168  27.144  26.368  1.00  0.00     0.037 A 
BRANCH  51  65
ATOM     65  C   UNL A   1      43.452  23.176  26.695  1.00  0.00     0.058 A 
ATOM     66  C   UNL A   1      43.251  22.623  25.421  1.00  0.00     0.135 A 
ATOM     67  C   UNL A   1      43.285  22.335  27.809  1.00  0.00     0.135 A 
ATOM     68  F   UNL A   1      43.380  23.387  24.324  1.00  0.00    -0.206 F 
ATOM     69  C   UNL A   1      42.895  21.288  25.257  1.00  0.00     0.059 A 
ATOM     70  C   UNL A   1      42.954  20.991  27.666  1.00  0.00     0.059 A 
ATOM     71  F   UNL A   1      43.463  22.815  29.050  1.00  0.00    -0.206 F 
ATOM     72  C   UNL A   1      42.756  20.478  26.386  1.00  0.00     0.060 A 
BRANCH  72  73
ATOM     73  S   UNL A   1      42.346  18.735  26.149  1.00  0.00     0.124 S 
ATOM     74  O   UNL A   1      40.939  18.816  25.772  1.00  0.00    -0.237 OA
ATOM     75  O   UNL A   1      43.265  18.341  25.087  1.00  0.00    -0.237 OA
ATOM     76  O   UNL A   1      42.612  18.142  27.456  1.00  0.00    -0.744 OA
ENDBRANCH  72  73
ENDBRANCH  51  65
BRANCH  52  77
ATOM     77  C   UNL A   1      46.412  32.577  28.384  1.00  0.00     0.058 A 
ATOM     78  C   UNL A   1      46.829  32.924  29.677  1.00  0.00     0.135 A 
ATOM     79  C   UNL A   1      46.431  33.580  27.402  1.00  0.00     0.135 A 
ATOM     80  F   UNL A   1      46.827  32.001  30.651  1.00  0.00    -0.206 F 
ATOM     81  C   UNL A   1      47.212  34.222  29.997  1.00  0.00     0.059 A 
ATOM     82  C   UNL A   1      46.837  34.879  27.690  1.00  0.00     0.059 A 
ATOM     83  F   UNL A   1      46.063  33.296  26.142  1.00  0.00    -0.206 F 
ATOM     84  C   UNL A   1      47.207  35.195  28.997  1.00  0.00     0.060 A 
BRANCH  84  85
ATOM     85  S   UNL A   1      47.710  36.878  29.419  1.00  0.00     0.124 S 
ATOM     86  O   UNL A   1      46.777  37.670  28.627  1.00  0.00    -0.237 OA
ATOM     87  O   UNL A   1      47.505  36.906  30.865  1.00  0.00    -0.237 OA
ATOM     88  O   UNL A   1      49.105  36.926  28.991  1.00  0.00    -0.744 OA
ENDBRANCH  84  85
ENDBRANCH  52  77
BRANCH  64  89
ATOM     89  C   UNL A   1      49.565  26.885  25.881  1.00  0.00     0.058 A 
ATOM     90  C   UNL A   1      50.523  26.254  26.690  1.00  0.00     0.135 A 
ATOM     91  C   UNL A   1      49.933  27.223  24.568  1.00  0.00     0.135 A 
ATOM     92  F   UNL A   1      50.224  25.916  27.954  1.00  0.00    -0.206 F 
ATOM     93  C   UNL A   1      51.804  25.985  26.220  1.00  0.00     0.059 A 
ATOM     94  C   UNL A   1      51.199  26.939  24.069  1.00  0.00     0.059 A 
ATOM     95  F   UNL A   1      49.050  27.819  23.751  1.00  0.00    -0.206 F 
ATOM     96  C   UNL A   1      52.132  26.330  24.907  1.00  0.00     0.060 A 
BRANCH  96  97
ATOM     97  S   UNL A   1      53.787  25.943  24.297  1.00  0.00     0.124 S 
ATOM     98  O   UNL A   1      53.569  25.915  22.854  1.00  0.00    -0.237 OA
ATOM     99  O   UNL A   1      54.575  27.065  24.797  1.00  0.00    -0.237 OA
ATOM    100  O   UNL A   1      54.082  24.653  24.913  1.00  0.00    -0.744 OA
ENDBRANCH  96  97
ENDBRANCH  64  89
ENDBRANCH  38  39
ENDBRANCH  30  33
ENDBRANCH  28  29
ENDBRANCH  27  28
ENDBRANCH   1  27
TORSDOF 18
ENDMDL
