MODEL 1
REMARK VINA RESULT:     -12.5      0.000      0.000
REMARK SMILES CC1(C)S[C@H](c2ccc(-c3cccc([N+](=O)[O-])c3)o2)[NH2+][C@@H]1C(=O)NCCCNC(=O)c1ccc(-c2c3nc(c(-c4c(F)cc(S(=O)(=O)[O-])cc4F)c4ccc([nH]4)c(-c4c(F)cc(S(=O)(=O)[O-])cc4F)c4nc(c(-c5c(F)cc(S(=O)(=O)[O-])cc5F)c5ccc2[nH]5)C=C4)C=C3)cc1
REMARK SMILES IDX 26 1 25 2 24 3 22 4 23 5 21 7 1 8 2 9 3 10 4 11 5 12 20 13
REMARK SMILES IDX 6 16 7 17 19 18 8 19 9 20 10 21 11 22 18 23 12 24 14 25
REMARK SMILES IDX 13 26 15 27 16 28 17 29 27 30 28 31 29 32 30 34 31 35 32 36
REMARK SMILES IDX 96 37 33 38 95 39 34 40 35 41 36 42 89 43 37 44 94 45 88 46
REMARK SMILES IDX 90 47 38 48 93 49 87 50 86 51 39 53 73 54 52 55 72 56 53 57
REMARK SMILES IDX 56 58 71 59 91 60 54 61 55 62 70 64 92 65 57 66 40 67 41 68
REMARK SMILES IDX 50 69 42 70 43 71 49 72 51 73 44 74 45 75 46 76 47 77 48 78
REMARK SMILES IDX 74 79 75 80 84 81 76 82 77 83 83 84 85 85 78 86 79 87 80 88
REMARK SMILES IDX 81 89 82 90 58 91 59 92 68 93 60 94 61 95 67 96 69 97 62 98
REMARK SMILES IDX 63 99 64 100 65 101 66 102
REMARK H PARENT 24 6 20 14 20 15 28 33 90 52 56 63
REMARK Flexibility Score: inf
ROOT
ATOM      1  C   UNL A   1      32.954  28.376  27.628  1.00  0.00     0.042 C 
ENDROOT
BRANCH   1   2
ATOM      2  C   UNL A   1      31.540  28.016  27.213  1.00  0.00     0.118 C 
BRANCH   2   3
ATOM      3  N   UNL A   1      31.321  26.590  27.052  1.00  0.00    -0.351 N 
ATOM      4  C   UNL A   1      31.595  25.839  25.933  1.00  0.00     0.279 C 
ATOM      5  O   UNL A   1      31.512  24.617  26.041  1.00  0.00    -0.268 OA
ATOM      6  H   UNL A   1      30.936  26.112  27.822  1.00  0.00     0.163 HD
BRANCH   4   7
ATOM      7  C   UNL A   1      31.863  26.583  24.598  1.00  0.00     0.289 C 
ATOM      8  C   UNL A   1      31.065  27.213  22.282  1.00  0.00     0.030 C 
ATOM      9  C   UNL A   1      31.191  26.062  23.305  1.00  0.00     0.078 C 
ATOM     10  C   UNL A   1      29.819  25.402  23.448  1.00  0.00     0.030 C 
ATOM     11  S   UNL A   1      32.390  24.853  22.648  1.00  0.00    -0.078 SA
ATOM     12  C   UNL A   1      33.772  25.499  23.614  1.00  0.00     0.311 C 
ATOM     13  N   UNL A   1      33.332  26.696  24.338  1.00  0.00    -0.317 N 
ATOM     14  H   UNL A   1      33.519  27.525  23.775  1.00  0.00     0.348 HD
ATOM     15  H   UNL A   1      33.838  26.774  25.220  1.00  0.00     0.348 HD
BRANCH  12  16
ATOM     16  C   UNL A   1      34.440  24.443  24.442  1.00  0.00     0.172 A 
ATOM     17  C   UNL A   1      35.117  24.536  25.644  1.00  0.00     0.054 A 
ATOM     18  O   UNL A   1      34.397  23.129  24.048  1.00  0.00    -0.454 OA
ATOM     19  C   UNL A   1      35.482  23.224  26.014  1.00  0.00     0.051 A 
ATOM     20  C   UNL A   1      35.022  22.392  25.015  1.00  0.00     0.134 A 
BRANCH  20  21
ATOM     21  C   UNL A   1      35.036  20.944  24.847  1.00  0.00     0.024 A 
ATOM     22  C   UNL A   1      36.223  20.203  24.942  1.00  0.00     0.012 A 
ATOM     23  C   UNL A   1      33.833  20.266  24.600  1.00  0.00     0.097 A 
ATOM     24  C   UNL A   1      36.212  18.810  24.786  1.00  0.00     0.008 A 
ATOM     25  C   UNL A   1      33.829  18.875  24.433  1.00  0.00     0.270 A 
ATOM     26  C   UNL A   1      35.016  18.140  24.527  1.00  0.00     0.085 A 
BRANCH  25  27
ATOM     27  N   UNL A   1      32.566  18.188  24.135  1.00  0.00     0.062 N 
ATOM     28  O   UNL A   1      31.955  17.669  25.081  1.00  0.00    -0.258 OA
ATOM     29  O   UNL A   1      32.156  18.220  22.965  1.00  0.00    -0.258 OA
ENDBRANCH  25  27
ENDBRANCH  20  21
ENDBRANCH  12  16
ENDBRANCH   4   7
ENDBRANCH   2   3
ENDBRANCH   1   2
BRANCH   1  30
ATOM     30  C   UNL A   1      33.539  29.591  26.929  1.00  0.00     0.118 C 
BRANCH  30  31
ATOM     31  N   UNL A   1      33.659  30.770  27.774  1.00  0.00    -0.352 N 
ATOM     32  C   UNL A   1      34.693  31.155  28.599  1.00  0.00     0.251 C 
ATOM     33  H   UNL A   1      32.888  31.381  27.754  1.00  0.00     0.163 HD
ATOM     34  O   UNL A   1      34.571  32.150  29.305  1.00  0.00    -0.269 OA
BRANCH  32  35
ATOM     35  C   UNL A   1      35.928  30.341  28.674  1.00  0.00     0.039 A 
ATOM     36  C   UNL A   1      36.761  30.304  27.552  1.00  0.00     0.014 A 
ATOM     37  C   UNL A   1      36.313  29.697  29.852  1.00  0.00     0.014 A 
ATOM     38  C   UNL A   1      38.040  29.763  27.664  1.00  0.00     0.010 A 
ATOM     39  C   UNL A   1      37.624  29.255  29.993  1.00  0.00     0.010 A 
ATOM     40  C   UNL A   1      38.512  29.320  28.911  1.00  0.00    -0.014 A 
BRANCH  40  41
ATOM     41  C   UNL A   1      39.952  29.021  29.115  1.00  0.00     0.031 A 
ATOM     42  C   UNL A   1      40.882  30.065  29.662  1.00  0.00     0.074 A 
ATOM     43  C   UNL A   1      40.426  27.821  28.720  1.00  0.00     0.049 A 
ATOM     44  N   UNL A   1      42.172  29.990  29.866  1.00  0.00    -0.248 NA
ATOM     45  C   UNL A   1      40.297  31.373  29.993  1.00  0.00     0.031 C 
ATOM     46  C   UNL A   1      39.630  26.760  28.093  1.00  0.00     0.029 A 
ATOM     47  N   UNL A   1      41.688  27.285  28.785  1.00  0.00    -0.354 N 
ATOM     48  C   UNL A   1      42.553  31.239  30.340  1.00  0.00     0.074 A 
ATOM     49  C   UNL A   1      41.369  32.071  30.335  1.00  0.00     0.031 C 
ATOM     50  C   UNL A   1      40.410  25.690  27.875  1.00  0.00     0.029 A 
ATOM     51  C   UNL A   1      41.767  25.997  28.309  1.00  0.00     0.049 A 
ATOM     52  H   UNL A   1      42.463  27.777  29.139  1.00  0.00     0.167 HD
ATOM     53  C   UNL A   1      43.773  31.643  30.768  1.00  0.00     0.037 A 
ATOM     54  C   UNL A   1      42.815  25.154  28.236  1.00  0.00     0.037 A 
ATOM     55  C   UNL A   1      44.936  30.796  30.792  1.00  0.00     0.049 A 
ATOM     56  C   UNL A   1      44.150  25.616  28.747  1.00  0.00     0.074 A 
ATOM     57  C   UNL A   1      46.206  31.089  31.255  1.00  0.00     0.029 A 
ATOM     58  N   UNL A   1      44.970  29.485  30.335  1.00  0.00    -0.354 N 
ATOM     59  N   UNL A   1      44.477  26.780  29.257  1.00  0.00    -0.248 NA
ATOM     60  C   UNL A   1      45.257  24.653  28.681  1.00  0.00     0.031 C 
ATOM     61  C   UNL A   1      47.016  29.967  31.049  1.00  0.00     0.029 A 
ATOM     62  C   UNL A   1      46.241  28.960  30.495  1.00  0.00     0.049 A 
ATOM     63  H   UNL A   1      44.202  29.001  29.953  1.00  0.00     0.167 HD
ATOM     64  C   UNL A   1      45.821  26.683  29.594  1.00  0.00     0.074 A 
ATOM     65  C   UNL A   1      46.243  25.341  29.243  1.00  0.00     0.031 C 
ATOM     66  C   UNL A   1      46.635  27.619  30.142  1.00  0.00     0.037 A 
BRANCH  53  67
ATOM     67  C   UNL A   1      43.899  33.059  31.258  1.00  0.00     0.058 A 
ATOM     68  C   UNL A   1      44.250  34.107  30.391  1.00  0.00     0.135 A 
ATOM     69  C   UNL A   1      43.650  33.380  32.602  1.00  0.00     0.135 A 
ATOM     70  F   UNL A   1      44.515  33.855  29.099  1.00  0.00    -0.206 F 
ATOM     71  C   UNL A   1      44.385  35.415  30.845  1.00  0.00     0.059 A 
ATOM     72  C   UNL A   1      43.752  34.686  33.073  1.00  0.00     0.059 A 
ATOM     73  F   UNL A   1      43.311  32.418  33.475  1.00  0.00    -0.206 F 
ATOM     74  C   UNL A   1      44.137  35.694  32.189  1.00  0.00     0.060 A 
BRANCH  74  75
ATOM     75  S   UNL A   1      44.324  37.395  32.766  1.00  0.00     0.124 S 
ATOM     76  O   UNL A   1      43.448  37.403  33.934  1.00  0.00    -0.237 OA
ATOM     77  O   UNL A   1      45.754  37.475  33.047  1.00  0.00    -0.237 OA
ATOM     78  O   UNL A   1      43.866  38.190  31.633  1.00  0.00    -0.744 OA
ENDBRANCH  74  75
ENDBRANCH  53  67
BRANCH  54  79
ATOM     79  C   UNL A   1      42.631  23.780  27.697  1.00  0.00     0.058 A 
ATOM     80  C   UNL A   1      42.452  22.688  28.559  1.00  0.00     0.135 A 
ATOM     81  C   UNL A   1      42.604  23.533  26.316  1.00  0.00     0.135 A 
ATOM     82  F   UNL A   1      42.472  22.873  29.888  1.00  0.00    -0.206 F 
ATOM     83  C   UNL A   1      42.272  21.397  28.075  1.00  0.00     0.059 A 
ATOM     84  C   UNL A   1      42.402  22.253  25.805  1.00  0.00     0.059 A 
ATOM     85  F   UNL A   1      42.748  24.545  25.448  1.00  0.00    -0.206 F 
ATOM     86  C   UNL A   1      42.247  21.190  26.694  1.00  0.00     0.060 A 
BRANCH  86  87
ATOM     87  S   UNL A   1      41.963  19.516  26.072  1.00  0.00     0.124 S 
ATOM     88  O   UNL A   1      42.788  19.507  24.870  1.00  0.00    -0.237 OA
ATOM     89  O   UNL A   1      42.436  18.692  27.180  1.00  0.00    -0.237 OA
ATOM     90  O   UNL A   1      40.521  19.484  25.851  1.00  0.00    -0.744 OA
ENDBRANCH  86  87
ENDBRANCH  54  79
BRANCH  66  91
ATOM     91  C   UNL A   1      48.054  27.214  30.420  1.00  0.00     0.058 A 
ATOM     92  C   UNL A   1      49.085  27.480  29.505  1.00  0.00     0.135 A 
ATOM     93  C   UNL A   1      48.391  26.595  31.633  1.00  0.00     0.135 A 
ATOM     94  F   UNL A   1      48.810  28.062  28.328  1.00  0.00    -0.206 F 
ATOM     95  C   UNL A   1      50.401  27.125  29.777  1.00  0.00     0.059 A 
ATOM     96  C   UNL A   1      49.705  26.253  31.935  1.00  0.00     0.059 A 
ATOM     97  F   UNL A   1      47.441  26.327  32.543  1.00  0.00    -0.206 F 
ATOM     98  C   UNL A   1      50.702  26.512  30.995  1.00  0.00     0.060 A 
BRANCH  98  99
ATOM     99  S   UNL A   1      52.420  26.088  31.350  1.00  0.00     0.124 S 
ATOM    100  O   UNL A   1      53.007  26.102  30.015  1.00  0.00    -0.237 OA
ATOM    101  O   UNL A   1      52.834  27.170  32.237  1.00  0.00    -0.237 OA
ATOM    102  O   UNL A   1      52.321  24.774  31.979  1.00  0.00    -0.744 OA
ENDBRANCH  98  99
ENDBRANCH  66  91
ENDBRANCH  40  41
ENDBRANCH  32  35
ENDBRANCH  30  31
ENDBRANCH   1  30
TORSDOF 16
ENDMDL
MODEL 2
REMARK VINA RESULT:     -12.2      2.612      3.433
REMARK SMILES CC1(C)S[C@H](c2ccc(-c3cccc([N+](=O)[O-])c3)o2)[NH2+][C@@H]1C(=O)NCCCNC(=O)c1ccc(-c2c3nc(c(-c4c(F)cc(S(=O)(=O)[O-])cc4F)c4ccc([nH]4)c(-c4c(F)cc(S(=O)(=O)[O-])cc4F)c4nc(c(-c5c(F)cc(S(=O)(=O)[O-])cc5F)c5ccc2[nH]5)C=C4)C=C3)cc1
REMARK SMILES IDX 26 1 25 2 24 3 22 4 23 5 21 7 1 8 2 9 3 10 4 11 5 12 20 13
REMARK SMILES IDX 6 16 7 17 19 18 8 19 9 20 10 21 11 22 18 23 12 24 14 25
REMARK SMILES IDX 13 26 15 27 16 28 17 29 27 30 28 31 29 32 30 34 31 35 32 36
REMARK SMILES IDX 96 37 33 38 95 39 34 40 35 41 36 42 89 43 37 44 94 45 88 46
REMARK SMILES IDX 90 47 38 48 93 49 87 50 86 51 39 53 73 54 52 55 72 56 53 57
REMARK SMILES IDX 56 58 71 59 91 60 54 61 55 62 70 64 92 65 57 66 40 67 41 68
REMARK SMILES IDX 50 69 42 70 43 71 49 72 51 73 44 74 45 75 46 76 47 77 48 78
REMARK SMILES IDX 74 79 75 80 84 81 76 82 77 83 83 84 85 85 78 86 79 87 80 88
REMARK SMILES IDX 81 89 82 90 58 91 59 92 68 93 60 94 61 95 67 96 69 97 62 98
REMARK SMILES IDX 63 99 64 100 65 101 66 102
REMARK H PARENT 24 6 20 14 20 15 28 33 90 52 56 63
REMARK Flexibility Score: inf
ROOT
ATOM      1  C   UNL A   1      34.796  28.950  26.925  1.00  0.00     0.042 C 
ENDROOT
BRANCH   1   2
ATOM      2  C   UNL A   1      33.292  29.109  26.807  1.00  0.00     0.118 C 
BRANCH   2   3
ATOM      3  N   UNL A   1      32.549  27.902  27.120  1.00  0.00    -0.351 N 
ATOM      4  C   UNL A   1      32.048  26.991  26.221  1.00  0.00     0.279 C 
ATOM      5  O   UNL A   1      31.602  25.938  26.675  1.00  0.00    -0.268 OA
ATOM      6  H   UNL A   1      32.386  27.718  28.074  1.00  0.00     0.163 HD
BRANCH   4   7
ATOM      7  C   UNL A   1      31.967  27.403  24.727  1.00  0.00     0.289 C 
ATOM      8  C   UNL A   1      30.553  27.741  22.657  1.00  0.00     0.030 C 
ATOM      9  C   UNL A   1      30.846  26.799  23.846  1.00  0.00     0.078 C 
ATOM     10  C   UNL A   1      29.519  26.473  24.531  1.00  0.00     0.030 C 
ATOM     11  S   UNL A   1      31.589  25.270  23.183  1.00  0.00    -0.078 SA
ATOM     12  C   UNL A   1      33.285  25.786  23.528  1.00  0.00     0.311 C 
ATOM     13  N   UNL A   1      33.272  27.162  24.037  1.00  0.00    -0.317 N 
ATOM     14  H   UNL A   1      33.377  27.816  23.262  1.00  0.00     0.348 HD
ATOM     15  H   UNL A   1      34.043  27.297  24.691  1.00  0.00     0.348 HD
BRANCH  12  16
ATOM     16  C   UNL A   1      34.034  24.789  24.358  1.00  0.00     0.172 A 
ATOM     17  C   UNL A   1      34.758  24.952  25.524  1.00  0.00     0.054 A 
ATOM     18  O   UNL A   1      34.034  23.462  24.008  1.00  0.00    -0.454 OA
ATOM     19  C   UNL A   1      35.197  23.670  25.918  1.00  0.00     0.051 A 
ATOM     20  C   UNL A   1      34.733  22.785  24.968  1.00  0.00     0.134 A 
BRANCH  20  21
ATOM     21  C   UNL A   1      34.804  21.335  24.846  1.00  0.00     0.024 A 
ATOM     22  C   UNL A   1      36.016  20.644  24.983  1.00  0.00     0.012 A 
ATOM     23  C   UNL A   1      33.632  20.605  24.599  1.00  0.00     0.097 A 
ATOM     24  C   UNL A   1      36.061  19.247  24.870  1.00  0.00     0.008 A 
ATOM     25  C   UNL A   1      33.684  19.209  24.475  1.00  0.00     0.270 A 
ATOM     26  C   UNL A   1      34.896  18.524  24.612  1.00  0.00     0.085 A 
BRANCH  25  27
ATOM     27  N   UNL A   1      32.453  18.466  24.178  1.00  0.00     0.062 N 
ATOM     28  O   UNL A   1      31.970  18.583  23.041  1.00  0.00    -0.258 OA
ATOM     29  O   UNL A   1      32.002  17.722  25.062  1.00  0.00    -0.258 OA
ENDBRANCH  25  27
ENDBRANCH  20  21
ENDBRANCH  12  16
ENDBRANCH   4   7
ENDBRANCH   2   3
ENDBRANCH   1   2
BRANCH   1  30
ATOM     30  C   UNL A   1      35.491  30.007  27.766  1.00  0.00     0.118 C 
BRANCH  30  31
ATOM     31  N   UNL A   1      35.431  29.768  29.200  1.00  0.00    -0.352 N 
ATOM     32  C   UNL A   1      36.457  29.637  30.110  1.00  0.00     0.251 C 
ATOM     33  H   UNL A   1      34.525  29.686  29.574  1.00  0.00     0.163 HD
ATOM     34  O   UNL A   1      36.205  29.351  31.276  1.00  0.00    -0.269 OA
BRANCH  32  35
ATOM     35  C   UNL A   1      37.864  29.792  29.674  1.00  0.00     0.039 A 
ATOM     36  C   UNL A   1      38.862  29.779  30.652  1.00  0.00     0.014 A 
ATOM     37  C   UNL A   1      38.210  29.859  28.323  1.00  0.00     0.014 A 
ATOM     38  C   UNL A   1      40.197  29.669  30.268  1.00  0.00     0.010 A 
ATOM     39  C   UNL A   1      39.531  29.643  27.942  1.00  0.00     0.010 A 
ATOM     40  C   UNL A   1      40.531  29.507  28.914  1.00  0.00    -0.014 A 
BRANCH  40  41
ATOM     41  C   UNL A   1      41.900  29.096  28.514  1.00  0.00     0.031 A 
ATOM     42  C   UNL A   1      43.014  30.100  28.442  1.00  0.00     0.074 A 
ATOM     43  C   UNL A   1      42.106  27.817  28.134  1.00  0.00     0.049 A 
ATOM     44  N   UNL A   1      44.257  29.923  28.073  1.00  0.00    -0.248 NA
ATOM     45  C   UNL A   1      42.684  31.488  28.797  1.00  0.00     0.031 C 
ATOM     46  C   UNL A   1      41.077  26.773  28.079  1.00  0.00     0.029 A 
ATOM     47  N   UNL A   1      43.246  27.172  27.723  1.00  0.00    -0.354 N 
ATOM     48  C   UNL A   1      44.853  31.176  28.145  1.00  0.00     0.074 A 
ATOM     49  C   UNL A   1      43.822  32.114  28.532  1.00  0.00     0.031 C 
ATOM     50  C   UNL A   1      41.639  25.614  27.704  1.00  0.00     0.029 A 
ATOM     51  C   UNL A   1      43.058  25.835  27.454  1.00  0.00     0.049 A 
ATOM     52  H   UNL A   1      44.115  27.624  27.627  1.00  0.00     0.167 HD
ATOM     53  C   UNL A   1      46.150  31.507  27.935  1.00  0.00     0.037 A 
ATOM     54  C   UNL A   1      43.934  24.892  27.058  1.00  0.00     0.037 A 
ATOM     55  C   UNL A   1      47.171  30.558  27.576  1.00  0.00     0.049 A 
ATOM     56  C   UNL A   1      45.372  25.277  26.864  1.00  0.00     0.074 A 
ATOM     57  C   UNL A   1      48.525  30.777  27.392  1.00  0.00     0.029 A 
ATOM     58  N   UNL A   1      46.951  29.206  27.348  1.00  0.00    -0.354 N 
ATOM     59  N   UNL A   1      45.934  26.455  27.004  1.00  0.00    -0.248 NA
ATOM     60  C   UNL A   1      46.299  24.210  26.467  1.00  0.00     0.031 C 
ATOM     61  C   UNL A   1      49.118  29.566  27.023  1.00  0.00     0.029 A 
ATOM     62  C   UNL A   1      48.141  28.582  27.015  1.00  0.00     0.049 A 
ATOM     63  H   UNL A   1      46.077  28.758  27.414  1.00  0.00     0.167 HD
ATOM     64  C   UNL A   1      47.283  26.267  26.733  1.00  0.00     0.074 A 
ATOM     65  C   UNL A   1      47.456  24.859  26.436  1.00  0.00     0.031 C 
ATOM     66  C   UNL A   1      48.289  27.176  26.728  1.00  0.00     0.037 A 
BRANCH  53  67
ATOM     67  C   UNL A   1      46.532  32.951  28.107  1.00  0.00     0.058 A 
ATOM     68  C   UNL A   1      46.391  33.876  27.060  1.00  0.00     0.135 A 
ATOM     69  C   UNL A   1      47.027  33.423  29.333  1.00  0.00     0.135 A 
ATOM     70  F   UNL A   1      45.937  33.476  25.861  1.00  0.00    -0.206 F 
ATOM     71  C   UNL A   1      46.760  35.209  27.209  1.00  0.00     0.059 A 
ATOM     72  C   UNL A   1      47.377  34.758  29.514  1.00  0.00     0.059 A 
ATOM     73  F   UNL A   1      47.182  32.583  30.368  1.00  0.00    -0.206 F 
ATOM     74  C   UNL A   1      47.256  35.640  28.440  1.00  0.00     0.060 A 
BRANCH  74  75
ATOM     75  S   UNL A   1      47.738  37.371  28.619  1.00  0.00     0.124 S 
ATOM     76  O   UNL A   1      46.437  38.027  28.704  1.00  0.00    -0.237 OA
ATOM     77  O   UNL A   1      48.518  37.352  29.852  1.00  0.00    -0.237 OA
ATOM     78  O   UNL A   1      48.497  37.638  27.403  1.00  0.00    -0.744 OA
ENDBRANCH  74  75
ENDBRANCH  53  67
BRANCH  54  79
ATOM     79  C   UNL A   1      43.479  23.489  26.863  1.00  0.00     0.058 A 
ATOM     80  C   UNL A   1      43.326  22.956  25.574  1.00  0.00     0.135 A 
ATOM     81  C   UNL A   1      43.213  22.647  27.953  1.00  0.00     0.135 A 
ATOM     82  F   UNL A   1      43.567  23.722  24.499  1.00  0.00    -0.206 F 
ATOM     83  C   UNL A   1      42.908  21.645  25.370  1.00  0.00     0.059 A 
ATOM     84  C   UNL A   1      42.815  21.324  27.776  1.00  0.00     0.059 A 
ATOM     85  F   UNL A   1      43.365  23.100  29.207  1.00  0.00    -0.206 F 
ATOM     86  C   UNL A   1      42.656  20.836  26.479  1.00  0.00     0.060 A 
BRANCH  86  87
ATOM     87  S   UNL A   1      42.161  19.119  26.207  1.00  0.00     0.124 S 
ATOM     88  O   UNL A   1      42.412  18.530  27.516  1.00  0.00    -0.237 OA
ATOM     89  O   UNL A   1      40.759  19.260  25.826  1.00  0.00    -0.237 OA
ATOM     90  O   UNL A   1      43.050  18.682  25.135  1.00  0.00    -0.744 OA
ENDBRANCH  86  87
ENDBRANCH  54  79
BRANCH  66  91
ATOM     91  C   UNL A   1      49.668  26.670  26.418  1.00  0.00     0.058 A 
ATOM     92  C   UNL A   1      50.449  26.026  27.391  1.00  0.00     0.135 A 
ATOM     93  C   UNL A   1      50.194  26.790  25.123  1.00  0.00     0.135 A 
ATOM     94  F   UNL A   1      49.992  25.896  28.646  1.00  0.00    -0.206 F 
ATOM     95  C   UNL A   1      51.716  25.538  27.094  1.00  0.00     0.059 A 
ATOM     96  C   UNL A   1      51.450  26.286  24.798  1.00  0.00     0.059 A 
ATOM     97  F   UNL A   1      49.482  27.390  24.156  1.00  0.00    -0.206 F 
ATOM     98  C   UNL A   1      52.208  25.672  25.794  1.00  0.00     0.060 A 
BRANCH  98  99
ATOM     99  S   UNL A   1      53.840  25.002  25.412  1.00  0.00     0.124 S 
ATOM    100  O   UNL A   1      53.578  23.568  25.421  1.00  0.00    -0.237 OA
ATOM    101  O   UNL A   1      54.122  25.587  24.106  1.00  0.00    -0.237 OA
ATOM    102  O   UNL A   1      54.672  25.496  26.506  1.00  0.00    -0.744 OA
ENDBRANCH  98  99
ENDBRANCH  66  91
ENDBRANCH  40  41
ENDBRANCH  32  35
ENDBRANCH  30  31
ENDBRANCH   1  30
TORSDOF 16
ENDMDL
MODEL 3
REMARK VINA RESULT:     -12.1      0.899      8.154
REMARK SMILES CC1(C)S[C@H](c2ccc(-c3cccc([N+](=O)[O-])c3)o2)[NH2+][C@@H]1C(=O)NCCCNC(=O)c1ccc(-c2c3nc(c(-c4c(F)cc(S(=O)(=O)[O-])cc4F)c4ccc([nH]4)c(-c4c(F)cc(S(=O)(=O)[O-])cc4F)c4nc(c(-c5c(F)cc(S(=O)(=O)[O-])cc5F)c5ccc2[nH]5)C=C4)C=C3)cc1
REMARK SMILES IDX 26 1 25 2 24 3 22 4 23 5 21 7 1 8 2 9 3 10 4 11 5 12 20 13
REMARK SMILES IDX 6 16 7 17 19 18 8 19 9 20 10 21 11 22 18 23 12 24 14 25
REMARK SMILES IDX 13 26 15 27 16 28 17 29 27 30 28 31 29 32 30 34 31 35 32 36
REMARK SMILES IDX 96 37 33 38 95 39 34 40 35 41 36 42 89 43 37 44 94 45 88 46
REMARK SMILES IDX 90 47 38 48 93 49 87 50 86 51 39 53 73 54 52 55 72 56 53 57
REMARK SMILES IDX 56 58 71 59 91 60 54 61 55 62 70 64 92 65 57 66 40 67 41 68
REMARK SMILES IDX 50 69 42 70 43 71 49 72 51 73 44 74 45 75 46 76 47 77 48 78
REMARK SMILES IDX 74 79 75 80 84 81 76 82 77 83 83 84 85 85 78 86 79 87 80 88
REMARK SMILES IDX 81 89 82 90 58 91 59 92 68 93 60 94 61 95 67 96 69 97 62 98
REMARK SMILES IDX 63 99 64 100 65 101 66 102
REMARK H PARENT 24 6 20 14 20 15 28 33 90 52 56 63
REMARK Flexibility Score: inf
ROOT
ATOM      1  C   UNL A   1      33.293  28.625  27.546  1.00  0.00     0.042 C 
ENDROOT
BRANCH   1   2
ATOM      2  C   UNL A   1      31.805  28.483  27.288  1.00  0.00     0.118 C 
BRANCH   2   3
ATOM      3  N   UNL A   1      31.344  27.107  27.251  1.00  0.00    -0.351 N 
ATOM      4  C   UNL A   1      31.355  26.267  26.163  1.00  0.00     0.279 C 
ATOM      5  O   UNL A   1      31.094  25.082  26.363  1.00  0.00    -0.268 OA
ATOM      6  H   UNL A   1      30.988  26.737  28.091  1.00  0.00     0.163 HD
BRANCH   4   7
ATOM      7  C   UNL A   1      31.569  26.890  24.758  1.00  0.00     0.289 C 
ATOM      8  C   UNL A   1      30.642  27.398  22.460  1.00  0.00     0.030 C 
ATOM      9  C   UNL A   1      30.772  26.320  23.559  1.00  0.00     0.078 C 
ATOM     10  C   UNL A   1      29.377  25.767  23.848  1.00  0.00     0.030 C 
ATOM     11  S   UNL A   1      31.842  24.988  22.918  1.00  0.00    -0.078 SA
ATOM     12  C   UNL A   1      33.329  25.609  23.733  1.00  0.00     0.311 C 
ATOM     13  N   UNL A   1      33.019  26.884  24.388  1.00  0.00    -0.317 N 
ATOM     14  H   UNL A   1      33.215  27.654  23.750  1.00  0.00     0.348 HD
ATOM     15  H   UNL A   1      33.593  26.993  25.225  1.00  0.00     0.348 HD
BRANCH  12  16
ATOM     16  C   UNL A   1      33.989  24.575  24.594  1.00  0.00     0.172 A 
ATOM     17  C   UNL A   1      34.518  24.669  25.868  1.00  0.00     0.054 A 
ATOM     18  O   UNL A   1      34.105  23.281  24.150  1.00  0.00    -0.454 OA
ATOM     19  C   UNL A   1      34.952  23.376  26.229  1.00  0.00     0.051 A 
ATOM     20  C   UNL A   1      34.681  22.555  25.156  1.00  0.00     0.134 A 
BRANCH  20  21
ATOM     21  C   UNL A   1      34.839  21.123  24.939  1.00  0.00     0.024 A 
ATOM     22  C   UNL A   1      36.097  20.505  24.987  1.00  0.00     0.012 A 
ATOM     23  C   UNL A   1      33.706  20.333  24.689  1.00  0.00     0.097 A 
ATOM     24  C   UNL A   1      36.226  19.124  24.784  1.00  0.00     0.008 A 
ATOM     25  C   UNL A   1      33.842  18.954  24.476  1.00  0.00     0.270 A 
ATOM     26  C   UNL A   1      35.099  18.343  24.524  1.00  0.00     0.085 A 
BRANCH  25  27
ATOM     27  N   UNL A   1      32.649  18.151  24.177  1.00  0.00     0.062 N 
ATOM     28  O   UNL A   1      31.870  17.907  25.111  1.00  0.00    -0.258 OA
ATOM     29  O   UNL A   1      32.462  17.815  22.997  1.00  0.00    -0.258 OA
ENDBRANCH  25  27
ENDBRANCH  20  21
ENDBRANCH  12  16
ENDBRANCH   4   7
ENDBRANCH   2   3
ENDBRANCH   1   2
BRANCH   1  30
ATOM     30  C   UNL A   1      33.894  29.955  27.125  1.00  0.00     0.118 C 
BRANCH  30  31
ATOM     31  N   UNL A   1      33.982  30.939  28.194  1.00  0.00    -0.352 N 
ATOM     32  C   UNL A   1      35.004  31.174  29.087  1.00  0.00     0.251 C 
ATOM     33  H   UNL A   1      33.195  31.521  28.294  1.00  0.00     0.163 HD
ATOM     34  O   UNL A   1      34.856  32.001  29.980  1.00  0.00    -0.269 OA
BRANCH  32  35
ATOM     35  C   UNL A   1      36.261  30.394  29.002  1.00  0.00     0.039 A 
ATOM     36  C   UNL A   1      36.974  30.424  27.801  1.00  0.00     0.014 A 
ATOM     37  C   UNL A   1      36.781  29.717  30.107  1.00  0.00     0.014 A 
ATOM     38  C   UNL A   1      38.271  29.916  27.760  1.00  0.00     0.010 A 
ATOM     39  C   UNL A   1      38.110  29.307  30.096  1.00  0.00     0.010 A 
ATOM     40  C   UNL A   1      38.880  29.440  28.933  1.00  0.00    -0.014 A 
BRANCH  40  41
ATOM     41  C   UNL A   1      40.340  29.175  28.977  1.00  0.00     0.031 A 
ATOM     42  C   UNL A   1      40.888  27.829  28.602  1.00  0.00     0.074 A 
ATOM     43  C   UNL A   1      41.159  30.142  29.442  1.00  0.00     0.049 A 
ATOM     44  N   UNL A   1      42.128  27.412  28.622  1.00  0.00    -0.248 NA
ATOM     45  C   UNL A   1      39.918  26.807  28.182  1.00  0.00     0.031 C 
ATOM     46  C   UNL A   1      40.727  31.461  29.919  1.00  0.00     0.029 A 
ATOM     47  N   UNL A   1      42.522  30.172  29.592  1.00  0.00    -0.354 N 
ATOM     48  C   UNL A   1      42.085  26.082  28.226  1.00  0.00     0.074 A 
ATOM     49  C   UNL A   1      40.692  25.743  28.032  1.00  0.00     0.031 C 
ATOM     50  C   UNL A   1      41.804  32.183  30.263  1.00  0.00     0.029 A 
ATOM     51  C   UNL A   1      43.000  31.372  30.070  1.00  0.00     0.049 A 
ATOM     52  H   UNL A   1      43.104  29.408  29.378  1.00  0.00     0.167 HD
ATOM     53  C   UNL A   1      43.118  25.230  28.015  1.00  0.00     0.037 A 
ATOM     54  C   UNL A   1      44.261  31.774  30.317  1.00  0.00     0.037 A 
ATOM     55  C   UNL A   1      44.501  25.589  28.188  1.00  0.00     0.049 A 
ATOM     56  C   UNL A   1      45.390  30.822  30.045  1.00  0.00     0.074 A 
ATOM     57  C   UNL A   1      45.627  24.820  27.951  1.00  0.00     0.029 A 
ATOM     58  N   UNL A   1      44.948  26.823  28.638  1.00  0.00    -0.354 N 
ATOM     59  N   UNL A   1      45.335  29.587  29.603  1.00  0.00    -0.248 NA
ATOM     60  C   UNL A   1      46.751  31.315  30.295  1.00  0.00     0.031 C 
ATOM     61  C   UNL A   1      46.753  25.578  28.287  1.00  0.00     0.029 A 
ATOM     62  C   UNL A   1      46.332  26.834  28.696  1.00  0.00     0.049 A 
ATOM     63  H   UNL A   1      44.366  27.580  28.880  1.00  0.00     0.167 HD
ATOM     64  C   UNL A   1      46.654  29.163  29.502  1.00  0.00     0.074 A 
ATOM     65  C   UNL A   1      47.484  30.277  29.914  1.00  0.00     0.031 C 
ATOM     66  C   UNL A   1      47.136  27.959  29.106  1.00  0.00     0.037 A 
BRANCH  53  67
ATOM     67  C   UNL A   1      42.783  23.836  27.561  1.00  0.00     0.058 A 
ATOM     68  C   UNL A   1      42.597  22.790  28.478  1.00  0.00     0.135 A 
ATOM     69  C   UNL A   1      42.627  23.543  26.196  1.00  0.00     0.135 A 
ATOM     70  F   UNL A   1      42.750  23.011  29.794  1.00  0.00    -0.206 F 
ATOM     71  C   UNL A   1      42.305  21.496  28.060  1.00  0.00     0.059 A 
ATOM     72  C   UNL A   1      42.308  22.261  25.756  1.00  0.00     0.059 A 
ATOM     73  F   UNL A   1      42.793  24.505  25.274  1.00  0.00    -0.206 F 
ATOM     74  C   UNL A   1      42.166  21.241  26.696  1.00  0.00     0.060 A 
BRANCH  74  75
ATOM     75  S   UNL A   1      41.794  19.555  26.166  1.00  0.00     0.124 S 
ATOM     76  O   UNL A   1      42.645  19.426  24.988  1.00  0.00    -0.237 OA
ATOM     77  O   UNL A   1      42.196  18.767  27.326  1.00  0.00    -0.237 OA
ATOM     78  O   UNL A   1      40.360  19.590  25.903  1.00  0.00    -0.744 OA
ENDBRANCH  74  75
ENDBRANCH  53  67
BRANCH  54  79
ATOM     79  C   UNL A   1      44.519  33.154  30.810  1.00  0.00     0.058 A 
ATOM     80  C   UNL A   1      44.653  34.224  29.914  1.00  0.00     0.135 A 
ATOM     81  C   UNL A   1      44.612  33.436  32.182  1.00  0.00     0.135 A 
ATOM     82  F   UNL A   1      44.574  34.005  28.592  1.00  0.00    -0.206 F 
ATOM     83  C   UNL A   1      44.889  35.522  30.355  1.00  0.00     0.059 A 
ATOM     84  C   UNL A   1      44.824  34.730  32.650  1.00  0.00     0.059 A 
ATOM     85  F   UNL A   1      44.469  32.452  33.083  1.00  0.00    -0.206 F 
ATOM     86  C   UNL A   1      44.972  35.765  31.727  1.00  0.00     0.060 A 
BRANCH  86  87
ATOM     87  S   UNL A   1      45.229  37.462  32.295  1.00  0.00     0.124 S 
ATOM     88  O   UNL A   1      45.992  38.028  31.189  1.00  0.00    -0.237 OA
ATOM     89  O   UNL A   1      43.861  37.947  32.444  1.00  0.00    -0.237 OA
ATOM     90  O   UNL A   1      45.961  37.287  33.546  1.00  0.00    -0.744 OA
ENDBRANCH  86  87
ENDBRANCH  54  79
BRANCH  66  91
ATOM     91  C   UNL A   1      48.628  27.796  29.073  1.00  0.00     0.058 A 
ATOM     92  C   UNL A   1      49.383  28.177  27.953  1.00  0.00     0.135 A 
ATOM     93  C   UNL A   1      49.313  27.296  30.191  1.00  0.00     0.135 A 
ATOM     94  F   UNL A   1      48.773  28.652  26.856  1.00  0.00    -0.206 F 
ATOM     95  C   UNL A   1      50.767  28.046  27.936  1.00  0.00     0.059 A 
ATOM     96  C   UNL A   1      50.699  27.181  30.205  1.00  0.00     0.059 A 
ATOM     97  F   UNL A   1      48.636  26.926  31.290  1.00  0.00    -0.206 F 
ATOM     98  C   UNL A   1      51.417  27.548  29.067  1.00  0.00     0.060 A 
BRANCH  98  99
ATOM     99  S   UNL A   1      53.217  27.416  29.045  1.00  0.00     0.124 S 
ATOM    100  O   UNL A   1      53.404  26.027  28.642  1.00  0.00    -0.237 OA
ATOM    101  O   UNL A   1      53.593  28.420  28.055  1.00  0.00    -0.237 OA
ATOM    102  O   UNL A   1      53.596  27.728  30.420  1.00  0.00    -0.744 OA
ENDBRANCH  98  99
ENDBRANCH  66  91
ENDBRANCH  40  41
ENDBRANCH  32  35
ENDBRANCH  30  31
ENDBRANCH   1  30
TORSDOF 16
ENDMDL
