MODEL 1
REMARK VINA RESULT:     -13.3      0.000      0.000
REMARK SMILES Cc1nc2cc(S(=O)(=O)N3CCC(C(=O)NCCCNC(=O)c4ccc(-c5c6nc(c(-c7c(F)cc(S(=O)(=O)[O-])cc7F)c7ccc([nH]7)c(-c7c(F)cc(S(=O)(=O)[O-])cc7F)c7nc(c(-c8c(F)cc(S(=O)(=O)[O-])cc8F)c8ccc5[nH]8)C=C7)C=C6)cc4)CC3)ccc2n1C1CCCC1
REMARK SMILES IDX 18 1 17 2 16 3 14 4 15 5 13 7 10 8 11 9 90 10 12 11 89 12
REMARK SMILES IDX 7 13 8 14 9 15 6 16 1 17 2 18 3 19 94 20 4 21 93 22 5 23
REMARK SMILES IDX 92 24 91 25 95 26 96 27 99 28 97 29 98 30 19 31 20 32 21 33
REMARK SMILES IDX 22 35 23 36 24 37 88 38 25 39 87 40 26 41 27 42 28 43 81 44
REMARK SMILES IDX 29 45 86 46 80 47 82 48 30 49 85 50 79 51 78 52 31 54 65 55
REMARK SMILES IDX 44 56 64 57 45 58 48 59 63 60 83 61 46 62 47 63 62 65 84 66
REMARK SMILES IDX 49 67 32 68 33 69 42 70 34 71 35 72 41 73 43 74 36 75 37 76
REMARK SMILES IDX 38 77 39 78 40 79 66 80 67 81 76 82 68 83 69 84 75 85 77 86
REMARK SMILES IDX 70 87 71 88 72 89 73 90 74 91 50 92 51 93 60 94 52 95 53 96
REMARK SMILES IDX 59 97 61 98 54 99 55 100 56 101 57 102 58 103
REMARK H PARENT 16 6 20 34 82 53 48 64
REMARK Flexibility Score: inf
ROOT
ATOM      1  C   UNL A   1      34.476  31.353  27.690  1.00  0.00     0.042 C 
ENDROOT
BRANCH   1   2
ATOM      2  C   UNL A   1      33.190  30.943  26.981  1.00  0.00     0.117 C 
BRANCH   2   3
ATOM      3  N   UNL A   1      32.451  29.911  27.700  1.00  0.00    -0.356 N 
ATOM      4  C   UNL A   1      31.978  28.699  27.301  1.00  0.00     0.223 C 
ATOM      5  O   UNL A   1      31.395  28.001  28.134  1.00  0.00    -0.275 OA
ATOM      6  H   UNL A   1      32.262  30.131  28.641  1.00  0.00     0.163 HD
BRANCH   4   7
ATOM      7  C   UNL A   1      32.159  28.203  25.877  1.00  0.00     0.081 C 
ATOM      8  N   UNL A   1      32.575  26.075  23.972  1.00  0.00    -0.198 NA
ATOM      9  C   UNL A   1      33.722  26.931  24.340  1.00  0.00     0.103 C 
ATOM     10  C   UNL A   1      31.199  26.590  24.147  1.00  0.00     0.103 C 
ATOM     11  C   UNL A   1      33.540  27.586  25.689  1.00  0.00     0.030 C 
ATOM     12  C   UNL A   1      30.991  27.313  25.462  1.00  0.00     0.030 C 
BRANCH   8  13
ATOM     13  S   UNL A   1      32.816  25.099  22.574  1.00  0.00     0.243 S 
ATOM     14  O   UNL A   1      33.953  25.634  21.862  1.00  0.00    -0.207 OA
ATOM     15  O   UNL A   1      31.519  24.903  21.963  1.00  0.00    -0.207 OA
BRANCH  13  16
ATOM     16  C   UNL A   1      33.320  23.493  23.173  1.00  0.00     0.085 A 
ATOM     17  C   UNL A   1      37.350  19.567  25.187  1.00  0.00     0.088 C 
ATOM     18  C   UNL A   1      36.214  20.404  24.725  1.00  0.00     0.106 A 
ATOM     19  N   UNL A   1      36.342  21.658  24.341  1.00  0.00    -0.233 NA
ATOM     20  N   UNL A   1      34.901  19.989  24.621  1.00  0.00    -0.325 N 
ATOM     21  C   UNL A   1      35.096  22.076  23.964  1.00  0.00     0.090 A 
ATOM     22  C   UNL A   1      34.175  21.045  24.112  1.00  0.00     0.068 A 
ATOM     23  C   UNL A   1      34.677  23.326  23.485  1.00  0.00     0.052 A 
ATOM     24  C   UNL A   1      32.829  21.194  23.786  1.00  0.00     0.030 A 
ATOM     25  C   UNL A   1      32.421  22.437  23.323  1.00  0.00     0.024 A 
BRANCH  20  26
ATOM     26  C   UNL A   1      34.355  18.704  25.012  1.00  0.00     0.089 C 
ATOM     27  C   UNL A   1      32.870  18.733  25.389  1.00  0.00     0.025 C 
ATOM     28  C   UNL A   1      34.443  17.608  23.945  1.00  0.00     0.025 C 
ATOM     29  C   UNL A   1      32.450  17.272  25.343  1.00  0.00     0.002 C 
ATOM     30  C   UNL A   1      33.371  16.591  24.331  1.00  0.00     0.002 C 
ENDBRANCH  20  26
ENDBRANCH  13  16
ENDBRANCH   8  13
ENDBRANCH   4   7
ENDBRANCH   2   3
ENDBRANCH   1   2
BRANCH   1  31
ATOM     31  C   UNL A   1      34.374  32.668  28.454  1.00  0.00     0.118 C 
BRANCH  31  32
ATOM     32  N   UNL A   1      34.343  32.516  29.893  1.00  0.00    -0.352 N 
ATOM     33  C   UNL A   1      35.204  32.019  30.831  1.00  0.00     0.251 C 
ATOM     34  H   UNL A   1      33.506  32.849  30.291  1.00  0.00     0.163 HD
ATOM     35  O   UNL A   1      34.860  32.185  32.005  1.00  0.00    -0.269 OA
BRANCH  33  36
ATOM     36  C   UNL A   1      36.453  31.260  30.546  1.00  0.00     0.039 A 
ATOM     37  C   UNL A   1      36.582  29.873  30.518  1.00  0.00     0.014 A 
ATOM     38  C   UNL A   1      37.609  32.043  30.360  1.00  0.00     0.014 A 
ATOM     39  C   UNL A   1      37.841  29.283  30.429  1.00  0.00     0.010 A 
ATOM     40  C   UNL A   1      38.866  31.460  30.241  1.00  0.00     0.010 A 
ATOM     41  C   UNL A   1      38.987  30.079  30.332  1.00  0.00    -0.014 A 
BRANCH  41  42
ATOM     42  C   UNL A   1      40.284  29.413  30.224  1.00  0.00     0.031 A 
ATOM     43  C   UNL A   1      40.982  29.192  31.526  1.00  0.00     0.074 A 
ATOM     44  C   UNL A   1      40.783  28.921  29.070  1.00  0.00     0.049 A 
ATOM     45  N   UNL A   1      42.110  29.682  31.929  1.00  0.00    -0.248 NA
ATOM     46  C   UNL A   1      40.266  28.418  32.553  1.00  0.00     0.031 C 
ATOM     47  C   UNL A   1      40.124  28.809  27.766  1.00  0.00     0.029 A 
ATOM     48  N   UNL A   1      41.994  28.335  28.847  1.00  0.00    -0.354 N 
ATOM     49  C   UNL A   1      42.345  29.120  33.183  1.00  0.00     0.074 A 
ATOM     50  C   UNL A   1      41.120  28.472  33.575  1.00  0.00     0.031 C 
ATOM     51  C   UNL A   1      40.857  28.007  26.958  1.00  0.00     0.029 A 
ATOM     52  C   UNL A   1      42.103  27.672  27.627  1.00  0.00     0.049 A 
ATOM     53  H   UNL A   1      42.732  28.376  29.496  1.00  0.00     0.167 HD
ATOM     54  C   UNL A   1      43.591  29.057  33.730  1.00  0.00     0.037 A 
ATOM     55  C   UNL A   1      43.130  26.879  27.224  1.00  0.00     0.037 A 
ATOM     56  C   UNL A   1      44.495  29.987  33.110  1.00  0.00     0.049 A 
ATOM     57  C   UNL A   1      44.305  27.236  28.056  1.00  0.00     0.074 A 
ATOM     58  C   UNL A   1      44.543  31.363  32.992  1.00  0.00     0.029 A 
ATOM     59  N   UNL A   1      45.371  29.507  32.169  1.00  0.00    -0.354 N 
ATOM     60  N   UNL A   1      44.929  28.379  27.989  1.00  0.00    -0.248 NA
ATOM     61  C   UNL A   1      44.540  26.464  29.265  1.00  0.00     0.031 C 
ATOM     62  C   UNL A   1      45.051  31.606  31.682  1.00  0.00     0.029 A 
ATOM     63  C   UNL A   1      45.332  30.369  31.102  1.00  0.00     0.049 A 
ATOM     64  H   UNL A   1      45.924  28.696  32.245  1.00  0.00     0.167 HD
ATOM     65  C   UNL A   1      45.287  28.662  29.298  1.00  0.00     0.074 A 
ATOM     66  C   UNL A   1      45.104  27.408  30.022  1.00  0.00     0.031 C 
ATOM     67  C   UNL A   1      45.442  29.950  29.722  1.00  0.00     0.037 A 
BRANCH  54  68
ATOM     68  C   UNL A   1      44.058  27.926  34.615  1.00  0.00     0.058 A 
ATOM     69  C   UNL A   1      44.611  28.194  35.883  1.00  0.00     0.135 A 
ATOM     70  C   UNL A   1      44.216  26.600  34.150  1.00  0.00     0.135 A 
ATOM     71  F   UNL A   1      44.549  29.428  36.410  1.00  0.00    -0.206 F 
ATOM     72  C   UNL A   1      45.298  27.223  36.619  1.00  0.00     0.059 A 
ATOM     73  C   UNL A   1      44.847  25.606  34.889  1.00  0.00     0.059 A 
ATOM     74  F   UNL A   1      43.846  26.233  32.916  1.00  0.00    -0.206 F 
ATOM     75  C   UNL A   1      45.414  25.933  36.109  1.00  0.00     0.060 A 
BRANCH  75  76
ATOM     76  S   UNL A   1      46.363  24.700  37.018  1.00  0.00     0.124 S 
ATOM     77  O   UNL A   1      46.854  25.481  38.147  1.00  0.00    -0.237 OA
ATOM     78  O   UNL A   1      45.343  23.702  37.326  1.00  0.00    -0.237 OA
ATOM     79  O   UNL A   1      47.374  24.275  36.054  1.00  0.00    -0.744 OA
ENDBRANCH  75  76
ENDBRANCH  54  68
BRANCH  55  80
ATOM     80  C   UNL A   1      43.100  25.615  26.439  1.00  0.00     0.058 A 
ATOM     81  C   UNL A   1      43.956  25.441  25.333  1.00  0.00     0.135 A 
ATOM     82  C   UNL A   1      42.500  24.448  26.949  1.00  0.00     0.135 A 
ATOM     83  F   UNL A   1      44.575  26.497  24.784  1.00  0.00    -0.206 F 
ATOM     84  C   UNL A   1      44.272  24.176  24.824  1.00  0.00     0.059 A 
ATOM     85  C   UNL A   1      42.793  23.178  26.451  1.00  0.00     0.059 A 
ATOM     86  F   UNL A   1      41.691  24.498  28.017  1.00  0.00    -0.206 F 
ATOM     87  C   UNL A   1      43.711  23.046  25.414  1.00  0.00     0.060 A 
BRANCH  87  88
ATOM     88  S   UNL A   1      44.293  21.409  24.912  1.00  0.00     0.124 S 
ATOM     89  O   UNL A   1      43.194  20.550  25.341  1.00  0.00    -0.237 OA
ATOM     90  O   UNL A   1      44.451  21.569  23.470  1.00  0.00    -0.237 OA
ATOM     91  O   UNL A   1      45.538  21.248  25.658  1.00  0.00    -0.744 OA
ENDBRANCH  87  88
ENDBRANCH  55  80
BRANCH  67  92
ATOM     92  C   UNL A   1      45.513  31.033  28.675  1.00  0.00     0.058 A 
ATOM     93  C   UNL A   1      44.393  31.639  28.074  1.00  0.00     0.135 A 
ATOM     94  C   UNL A   1      46.772  31.558  28.352  1.00  0.00     0.135 A 
ATOM     95  F   UNL A   1      43.148  31.267  28.404  1.00  0.00    -0.206 F 
ATOM     96  C   UNL A   1      44.525  32.684  27.157  1.00  0.00     0.059 A 
ATOM     97  C   UNL A   1      46.926  32.620  27.466  1.00  0.00     0.059 A 
ATOM     98  F   UNL A   1      47.876  31.065  28.938  1.00  0.00    -0.206 F 
ATOM     99  C   UNL A   1      45.799  33.168  26.857  1.00  0.00     0.060 A 
BRANCH  99 100
ATOM    100  S   UNL A   1      45.970  34.553  25.712  1.00  0.00     0.124 S 
ATOM    101  O   UNL A   1      47.382  34.480  25.350  1.00  0.00    -0.237 OA
ATOM    102  O   UNL A   1      45.023  34.205  24.658  1.00  0.00    -0.237 OA
ATOM    103  O   UNL A   1      45.593  35.711  26.521  1.00  0.00    -0.744 OA
ENDBRANCH  99 100
ENDBRANCH  67  92
ENDBRANCH  41  42
ENDBRANCH  33  36
ENDBRANCH  31  32
ENDBRANCH   1  31
TORSDOF 16
ENDMDL
MODEL 2
REMARK VINA RESULT:     -13.0      4.618      8.519
REMARK SMILES Cc1nc2cc(S(=O)(=O)N3CCC(C(=O)NCCCNC(=O)c4ccc(-c5c6nc(c(-c7c(F)cc(S(=O)(=O)[O-])cc7F)c7ccc([nH]7)c(-c7c(F)cc(S(=O)(=O)[O-])cc7F)c7nc(c(-c8c(F)cc(S(=O)(=O)[O-])cc8F)c8ccc5[nH]8)C=C7)C=C6)cc4)CC3)ccc2n1C1CCCC1
REMARK SMILES IDX 18 1 17 2 16 3 14 4 15 5 13 7 10 8 11 9 90 10 12 11 89 12
REMARK SMILES IDX 7 13 8 14 9 15 6 16 1 17 2 18 3 19 94 20 4 21 93 22 5 23
REMARK SMILES IDX 92 24 91 25 95 26 96 27 99 28 97 29 98 30 19 31 20 32 21 33
REMARK SMILES IDX 22 35 23 36 24 37 88 38 25 39 87 40 26 41 27 42 28 43 81 44
REMARK SMILES IDX 29 45 86 46 80 47 82 48 30 49 85 50 79 51 78 52 31 54 65 55
REMARK SMILES IDX 44 56 64 57 45 58 48 59 63 60 83 61 46 62 47 63 62 65 84 66
REMARK SMILES IDX 49 67 32 68 33 69 42 70 34 71 35 72 41 73 43 74 36 75 37 76
REMARK SMILES IDX 38 77 39 78 40 79 66 80 67 81 76 82 68 83 69 84 75 85 77 86
REMARK SMILES IDX 70 87 71 88 72 89 73 90 74 91 50 92 51 93 60 94 52 95 53 96
REMARK SMILES IDX 59 97 61 98 54 99 55 100 56 101 57 102 58 103
REMARK H PARENT 16 6 20 34 82 53 48 64
REMARK Flexibility Score: inf
ROOT
ATOM      1  C   UNL A   1      34.370  35.344  28.698  1.00  0.00     0.042 C 
ENDROOT
BRANCH   1   2
ATOM      2  C   UNL A   1      32.961  34.922  29.101  1.00  0.00     0.117 C 
BRANCH   2   3
ATOM      3  N   UNL A   1      32.596  35.375  30.439  1.00  0.00    -0.356 N 
ATOM      4  C   UNL A   1      33.251  35.287  31.628  1.00  0.00     0.223 C 
ATOM      5  O   UNL A   1      32.716  35.783  32.623  1.00  0.00    -0.275 OA
ATOM      6  H   UNL A   1      31.721  35.823  30.489  1.00  0.00     0.163 HD
BRANCH   4   7
ATOM      7  C   UNL A   1      34.605  34.610  31.744  1.00  0.00     0.081 C 
ATOM      8  N   UNL A   1      36.529  33.033  33.207  1.00  0.00    -0.198 NA
ATOM      9  C   UNL A   1      36.722  34.496  33.133  1.00  0.00     0.103 C 
ATOM     10  C   UNL A   1      35.720  32.354  32.171  1.00  0.00     0.103 C 
ATOM     11  C   UNL A   1      35.429  35.232  32.865  1.00  0.00     0.030 C 
ATOM     12  C   UNL A   1      34.445  33.093  31.824  1.00  0.00     0.030 C 
BRANCH   8  13
ATOM     13  S   UNL A   1      37.899  32.147  33.760  1.00  0.00     0.243 S 
ATOM     14  O   UNL A   1      37.983  30.941  32.969  1.00  0.00    -0.207 OA
ATOM     15  O   UNL A   1      37.849  32.145  35.206  1.00  0.00    -0.207 OA
BRANCH  13  16
ATOM     16  C   UNL A   1      39.330  33.124  33.323  1.00  0.00     0.085 A 
ATOM     17  C   UNL A   1      43.653  37.081  34.487  1.00  0.00     0.088 C 
ATOM     18  C   UNL A   1      42.669  36.072  34.025  1.00  0.00     0.106 A 
ATOM     19  N   UNL A   1      41.689  35.611  34.777  1.00  0.00    -0.233 NA
ATOM     20  N   UNL A   1      42.633  35.502  32.767  1.00  0.00    -0.325 N 
ATOM     21  C   UNL A   1      40.986  34.732  34.000  1.00  0.00     0.090 A 
ATOM     22  C   UNL A   1      41.544  34.657  32.729  1.00  0.00     0.068 A 
ATOM     23  C   UNL A   1      39.858  33.961  34.317  1.00  0.00     0.052 A 
ATOM     24  C   UNL A   1      41.016  33.844  31.729  1.00  0.00     0.030 A 
ATOM     25  C   UNL A   1      39.906  33.076  32.054  1.00  0.00     0.024 A 
BRANCH  20  26
ATOM     26  C   UNL A   1      43.579  35.703  31.687  1.00  0.00     0.089 C 
ATOM     27  C   UNL A   1      44.929  35.007  31.887  1.00  0.00     0.025 C 
ATOM     28  C   UNL A   1      43.112  35.213  30.313  1.00  0.00     0.025 C 
ATOM     29  C   UNL A   1      45.554  35.009  30.501  1.00  0.00     0.002 C 
ATOM     30  C   UNL A   1      44.394  35.013  29.506  1.00  0.00     0.002 C 
ENDBRANCH  20  26
ENDBRANCH  13  16
ENDBRANCH   8  13
ENDBRANCH   4   7
ENDBRANCH   2   3
ENDBRANCH   1   2
BRANCH   1  31
ATOM     31  C   UNL A   1      35.260  34.192  28.246  1.00  0.00     0.118 C 
BRANCH  31  32
ATOM     32  N   UNL A   1      34.547  32.959  27.988  1.00  0.00    -0.352 N 
ATOM     33  C   UNL A   1      34.825  31.631  28.150  1.00  0.00     0.251 C 
ATOM     34  H   UNL A   1      33.652  33.113  27.607  1.00  0.00     0.163 HD
ATOM     35  O   UNL A   1      33.884  30.864  27.924  1.00  0.00    -0.269 OA
BRANCH  33  36
ATOM     36  C   UNL A   1      36.153  31.059  28.504  1.00  0.00     0.039 A 
ATOM     37  C   UNL A   1      37.244  31.767  29.005  1.00  0.00     0.014 A 
ATOM     38  C   UNL A   1      36.314  29.686  28.234  1.00  0.00     0.014 A 
ATOM     39  C   UNL A   1      38.490  31.154  29.118  1.00  0.00     0.010 A 
ATOM     40  C   UNL A   1      37.548  29.061  28.372  1.00  0.00     0.010 A 
ATOM     41  C   UNL A   1      38.650  29.811  28.761  1.00  0.00    -0.014 A 
BRANCH  41  42
ATOM     42  C   UNL A   1      39.974  29.209  28.913  1.00  0.00     0.031 A 
ATOM     43  C   UNL A   1      40.415  29.023  30.328  1.00  0.00     0.074 A 
ATOM     44  C   UNL A   1      40.711  28.742  27.884  1.00  0.00     0.049 A 
ATOM     45  N   UNL A   1      41.418  29.568  30.938  1.00  0.00    -0.248 NA
ATOM     46  C   UNL A   1      39.551  28.215  31.204  1.00  0.00     0.031 C 
ATOM     47  C   UNL A   1      40.325  28.597  26.477  1.00  0.00     0.029 A 
ATOM     48  N   UNL A   1      41.969  28.215  27.905  1.00  0.00    -0.354 N 
ATOM     49  C   UNL A   1      41.432  29.019  32.219  1.00  0.00     0.074 A 
ATOM     50  C   UNL A   1      40.186  28.311  32.372  1.00  0.00     0.031 C 
ATOM     51  C   UNL A   1      41.239  27.831  25.835  1.00  0.00     0.029 A 
ATOM     52  C   UNL A   1      42.345  27.558  26.737  1.00  0.00     0.049 A 
ATOM     53  H   UNL A   1      42.564  28.293  28.686  1.00  0.00     0.167 HD
ATOM     54  C   UNL A   1      42.548  29.017  32.999  1.00  0.00     0.037 A 
ATOM     55  C   UNL A   1      43.467  26.816  26.549  1.00  0.00     0.037 A 
ATOM     56  C   UNL A   1      43.511  29.990  32.557  1.00  0.00     0.049 A 
ATOM     57  C   UNL A   1      44.439  27.231  27.590  1.00  0.00     0.074 A 
ATOM     58  C   UNL A   1      43.515  31.366  32.437  1.00  0.00     0.029 A 
ATOM     59  N   UNL A   1      44.575  29.553  31.809  1.00  0.00    -0.354 N 
ATOM     60  N   UNL A   1      45.009  28.402  27.635  1.00  0.00    -0.248 NA
ATOM     61  C   UNL A   1      44.471  26.472  28.830  1.00  0.00     0.031 C 
ATOM     62  C   UNL A   1      44.256  31.633  31.248  1.00  0.00     0.029 A 
ATOM     63  C   UNL A   1      44.703  30.411  30.746  1.00  0.00     0.049 A 
ATOM     64  H   UNL A   1      45.141  28.770  31.999  1.00  0.00     0.167 HD
ATOM     65  C   UNL A   1      45.092  28.703  28.985  1.00  0.00     0.074 A 
ATOM     66  C   UNL A   1      44.832  27.442  29.672  1.00  0.00     0.031 C 
ATOM     67  C   UNL A   1      45.100  29.997  29.418  1.00  0.00     0.037 A 
BRANCH  54  68
ATOM     68  C   UNL A   1      42.889  27.910  33.969  1.00  0.00     0.058 A 
ATOM     69  C   UNL A   1      42.941  28.166  35.354  1.00  0.00     0.135 A 
ATOM     70  C   UNL A   1      43.417  26.664  33.560  1.00  0.00     0.135 A 
ATOM     71  F   UNL A   1      42.497  29.332  35.851  1.00  0.00    -0.206 F 
ATOM     72  C   UNL A   1      43.505  27.263  36.260  1.00  0.00     0.059 A 
ATOM     73  C   UNL A   1      43.932  25.729  34.450  1.00  0.00     0.059 A 
ATOM     74  F   UNL A   1      43.540  26.336  32.268  1.00  0.00    -0.206 F 
ATOM     75  C   UNL A   1      44.003  26.049  35.795  1.00  0.00     0.060 A 
BRANCH  75  76
ATOM     76  S   UNL A   1      44.799  24.915  36.948  1.00  0.00     0.124 S 
ATOM     77  O   UNL A   1      44.485  23.622  36.352  1.00  0.00    -0.237 OA
ATOM     78  O   UNL A   1      46.195  25.335  36.868  1.00  0.00    -0.237 OA
ATOM     79  O   UNL A   1      44.137  25.205  38.216  1.00  0.00    -0.744 OA
ENDBRANCH  75  76
ENDBRANCH  54  68
BRANCH  55  80
ATOM     80  C   UNL A   1      43.652  25.552  25.786  1.00  0.00     0.058 A 
ATOM     81  C   UNL A   1      44.879  25.272  25.152  1.00  0.00     0.135 A 
ATOM     82  C   UNL A   1      42.774  24.463  25.947  1.00  0.00     0.135 A 
ATOM     83  F   UNL A   1      45.778  26.248  24.960  1.00  0.00    -0.206 F 
ATOM     84  C   UNL A   1      45.253  23.974  24.787  1.00  0.00     0.059 A 
ATOM     85  C   UNL A   1      43.122  23.161  25.582  1.00  0.00     0.059 A 
ATOM     86  F   UNL A   1      41.593  24.613  26.563  1.00  0.00    -0.206 F 
ATOM     87  C   UNL A   1      44.380  22.918  25.038  1.00  0.00     0.060 A 
BRANCH  87  88
ATOM     88  S   UNL A   1      44.952  21.222  24.782  1.00  0.00     0.124 S 
ATOM     89  O   UNL A   1      44.690  21.025  23.360  1.00  0.00    -0.237 OA
ATOM     90  O   UNL A   1      46.357  21.311  25.164  1.00  0.00    -0.237 OA
ATOM     91  O   UNL A   1      44.112  20.440  25.685  1.00  0.00    -0.744 OA
ENDBRANCH  87  88
ENDBRANCH  55  80
BRANCH  67  92
ATOM     92  C   UNL A   1      45.321  31.082  28.394  1.00  0.00     0.058 A 
ATOM     93  C   UNL A   1      44.334  31.562  27.511  1.00  0.00     0.135 A 
ATOM     94  C   UNL A   1      46.558  31.742  28.388  1.00  0.00     0.135 A 
ATOM     95  F   UNL A   1      43.093  31.055  27.524  1.00  0.00    -0.206 F 
ATOM     96  C   UNL A   1      44.586  32.616  26.630  1.00  0.00     0.059 A 
ATOM     97  C   UNL A   1      46.820  32.815  27.541  1.00  0.00     0.059 A 
ATOM     98  F   UNL A   1      47.521  31.373  29.249  1.00  0.00    -0.206 F 
ATOM     99  C   UNL A   1      45.835  33.236  26.651  1.00  0.00     0.060 A 
BRANCH  99 100
ATOM    100  S   UNL A   1      46.145  34.632  25.549  1.00  0.00     0.124 S 
ATOM    101  O   UNL A   1      45.287  34.321  24.410  1.00  0.00    -0.237 OA
ATOM    102  O   UNL A   1      45.734  35.770  26.364  1.00  0.00    -0.237 OA
ATOM    103  O   UNL A   1      47.581  34.547  25.288  1.00  0.00    -0.744 OA
ENDBRANCH  99 100
ENDBRANCH  67  92
ENDBRANCH  41  42
ENDBRANCH  33  36
ENDBRANCH  31  32
ENDBRANCH   1  31
TORSDOF 16
ENDMDL
MODEL 3
REMARK VINA RESULT:     -12.9      1.910      3.122
REMARK SMILES Cc1nc2cc(S(=O)(=O)N3CCC(C(=O)NCCCNC(=O)c4ccc(-c5c6nc(c(-c7c(F)cc(S(=O)(=O)[O-])cc7F)c7ccc([nH]7)c(-c7c(F)cc(S(=O)(=O)[O-])cc7F)c7nc(c(-c8c(F)cc(S(=O)(=O)[O-])cc8F)c8ccc5[nH]8)C=C7)C=C6)cc4)CC3)ccc2n1C1CCCC1
REMARK SMILES IDX 18 1 17 2 16 3 14 4 15 5 13 7 10 8 11 9 90 10 12 11 89 12
REMARK SMILES IDX 7 13 8 14 9 15 6 16 1 17 2 18 3 19 94 20 4 21 93 22 5 23
REMARK SMILES IDX 92 24 91 25 95 26 96 27 99 28 97 29 98 30 19 31 20 32 21 33
REMARK SMILES IDX 22 35 23 36 24 37 88 38 25 39 87 40 26 41 27 42 28 43 81 44
REMARK SMILES IDX 29 45 86 46 80 47 82 48 30 49 85 50 79 51 78 52 31 54 65 55
REMARK SMILES IDX 44 56 64 57 45 58 48 59 63 60 83 61 46 62 47 63 62 65 84 66
REMARK SMILES IDX 49 67 32 68 33 69 42 70 34 71 35 72 41 73 43 74 36 75 37 76
REMARK SMILES IDX 38 77 39 78 40 79 66 80 67 81 76 82 68 83 69 84 75 85 77 86
REMARK SMILES IDX 70 87 71 88 72 89 73 90 74 91 50 92 51 93 60 94 52 95 53 96
REMARK SMILES IDX 59 97 61 98 54 99 55 100 56 101 57 102 58 103
REMARK H PARENT 16 6 20 34 82 53 48 64
REMARK Flexibility Score: inf
ROOT
ATOM      1  C   UNL A   1      33.270  29.644  25.404  1.00  0.00     0.042 C 
ENDROOT
BRANCH   1   2
ATOM      2  C   UNL A   1      32.139  28.662  25.118  1.00  0.00     0.117 C 
BRANCH   2   3
ATOM      3  N   UNL A   1      31.342  29.041  23.956  1.00  0.00    -0.356 N 
ATOM      4  C   UNL A   1      30.820  28.298  22.942  1.00  0.00     0.223 C 
ATOM      5  O   UNL A   1      30.154  28.878  22.081  1.00  0.00    -0.275 OA
ATOM      6  H   UNL A   1      31.149  30.004  23.894  1.00  0.00     0.163 HD
BRANCH   4   7
ATOM      7  C   UNL A   1      31.035  26.796  22.862  1.00  0.00     0.081 C 
ATOM      8  N   UNL A   1      32.307  24.370  23.768  1.00  0.00    -0.198 NA
ATOM      9  C   UNL A   1      32.786  24.998  22.520  1.00  0.00     0.103 C 
ATOM     10  C   UNL A   1      30.934  24.652  24.242  1.00  0.00     0.103 C 
ATOM     11  C   UNL A   1      32.469  26.473  22.461  1.00  0.00     0.030 C 
ATOM     12  C   UNL A   1      30.550  26.113  24.139  1.00  0.00     0.030 C 
BRANCH   8  13
ATOM     13  S   UNL A   1      32.850  22.756  24.026  1.00  0.00     0.243 S 
ATOM     14  O   UNL A   1      32.981  22.131  22.730  1.00  0.00    -0.207 OA
ATOM     15  O   UNL A   1      32.048  22.202  25.095  1.00  0.00    -0.207 OA
BRANCH  13  16
ATOM     16  C   UNL A   1      34.508  22.890  24.679  1.00  0.00     0.085 A 
ATOM     17  C   UNL A   1      39.920  20.729  25.998  1.00  0.00     0.088 C 
ATOM     18  C   UNL A   1      38.646  21.440  25.728  1.00  0.00     0.106 A 
ATOM     19  N   UNL A   1      37.593  20.867  25.180  1.00  0.00    -0.233 NA
ATOM     20  N   UNL A   1      38.388  22.765  26.021  1.00  0.00    -0.325 N 
ATOM     21  C   UNL A   1      36.619  21.824  25.122  1.00  0.00     0.090 A 
ATOM     22  C   UNL A   1      37.082  23.019  25.660  1.00  0.00     0.068 A 
ATOM     23  C   UNL A   1      35.310  21.741  24.622  1.00  0.00     0.052 A 
ATOM     24  C   UNL A   1      36.287  24.160  25.739  1.00  0.00     0.030 A 
ATOM     25  C   UNL A   1      34.998  24.073  25.232  1.00  0.00     0.024 A 
BRANCH  20  26
ATOM     26  C   UNL A   1      39.315  23.738  26.566  1.00  0.00     0.089 C 
ATOM     27  C   UNL A   1      38.655  24.866  27.366  1.00  0.00     0.025 C 
ATOM     28  C   UNL A   1      40.365  23.171  27.526  1.00  0.00     0.025 C 
ATOM     29  C   UNL A   1      39.802  25.479  28.153  1.00  0.00     0.002 C 
ATOM     30  C   UNL A   1      40.827  24.364  28.359  1.00  0.00     0.002 C 
ENDBRANCH  20  26
ENDBRANCH  13  16
ENDBRANCH   8  13
ENDBRANCH   4   7
ENDBRANCH   2   3
ENDBRANCH   1   2
BRANCH   1  31
ATOM     31  C   UNL A   1      33.798  29.586  26.834  1.00  0.00     0.118 C 
BRANCH  31  32
ATOM     32  N   UNL A   1      33.904  30.877  27.479  1.00  0.00    -0.352 N 
ATOM     33  C   UNL A   1      34.906  31.566  28.101  1.00  0.00     0.251 C 
ATOM     34  H   UNL A   1      33.054  31.375  27.467  1.00  0.00     0.163 HD
ATOM     35  O   UNL A   1      34.629  32.726  28.420  1.00  0.00    -0.269 OA
BRANCH  33  36
ATOM     36  C   UNL A   1      36.240  31.017  28.466  1.00  0.00     0.039 A 
ATOM     37  C   UNL A   1      37.284  31.725  29.061  1.00  0.00     0.014 A 
ATOM     38  C   UNL A   1      36.464  29.675  28.105  1.00  0.00     0.014 A 
ATOM     39  C   UNL A   1      38.548  31.150  29.179  1.00  0.00     0.010 A 
ATOM     40  C   UNL A   1      37.715  29.085  28.247  1.00  0.00     0.010 A 
ATOM     41  C   UNL A   1      38.773  29.844  28.733  1.00  0.00    -0.014 A 
BRANCH  41  42
ATOM     42  C   UNL A   1      40.112  29.280  28.895  1.00  0.00     0.031 A 
ATOM     43  C   UNL A   1      40.507  29.008  30.309  1.00  0.00     0.074 A 
ATOM     44  C   UNL A   1      40.904  28.915  27.865  1.00  0.00     0.049 A 
ATOM     45  N   UNL A   1      41.465  29.542  30.996  1.00  0.00    -0.248 NA
ATOM     46  C   UNL A   1      39.642  28.108  31.091  1.00  0.00     0.031 C 
ATOM     47  C   UNL A   1      40.576  28.858  26.437  1.00  0.00     0.029 A 
ATOM     48  N   UNL A   1      42.179  28.433  27.899  1.00  0.00    -0.354 N 
ATOM     49  C   UNL A   1      41.452  28.903  32.234  1.00  0.00     0.074 A 
ATOM     50  C   UNL A   1      40.229  28.142  32.287  1.00  0.00     0.031 C 
ATOM     51  C   UNL A   1      41.542  28.174  25.780  1.00  0.00     0.029 A 
ATOM     52  C   UNL A   1      42.623  27.876  26.703  1.00  0.00     0.049 A 
ATOM     53  H   UNL A   1      42.742  28.475  28.706  1.00  0.00     0.167 HD
ATOM     54  C   UNL A   1      42.538  28.884  33.056  1.00  0.00     0.037 A 
ATOM     55  C   UNL A   1      43.780  27.190  26.508  1.00  0.00     0.037 A 
ATOM     56  C   UNL A   1      43.478  29.920  32.723  1.00  0.00     0.049 A 
ATOM     57  C   UNL A   1      44.696  27.563  27.613  1.00  0.00     0.074 A 
ATOM     58  C   UNL A   1      43.434  31.301  32.701  1.00  0.00     0.029 A 
ATOM     59  N   UNL A   1      44.586  29.576  31.989  1.00  0.00    -0.354 N 
ATOM     60  N   UNL A   1      45.218  28.747  27.763  1.00  0.00    -0.248 NA
ATOM     61  C   UNL A   1      44.711  26.717  28.796  1.00  0.00     0.031 C 
ATOM     62  C   UNL A   1      44.208  31.679  31.564  1.00  0.00     0.029 A 
ATOM     63  C   UNL A   1      44.720  30.513  30.995  1.00  0.00     0.049 A 
ATOM     64  H   UNL A   1      45.173  28.802  32.145  1.00  0.00     0.167 HD
ATOM     65  C   UNL A   1      45.239  28.952  29.134  1.00  0.00     0.074 A 
ATOM     66  C   UNL A   1      45.002  27.636  29.719  1.00  0.00     0.031 C 
ATOM     67  C   UNL A   1      45.181  30.211  29.658  1.00  0.00     0.037 A 
BRANCH  54  68
ATOM     68  C   UNL A   1      42.884  27.723  33.957  1.00  0.00     0.058 A 
ATOM     69  C   UNL A   1      42.941  27.897  35.355  1.00  0.00     0.135 A 
ATOM     70  C   UNL A   1      43.413  26.504  33.474  1.00  0.00     0.135 A 
ATOM     71  F   UNL A   1      42.497  29.030  35.921  1.00  0.00    -0.206 F 
ATOM     72  C   UNL A   1      43.510  26.943  36.204  1.00  0.00     0.059 A 
ATOM     73  C   UNL A   1      43.934  25.519  34.305  1.00  0.00     0.059 A 
ATOM     74  F   UNL A   1      43.532  26.253  32.164  1.00  0.00    -0.206 F 
ATOM     75  C   UNL A   1      44.009  25.759  35.667  1.00  0.00     0.060 A 
BRANCH  75  76
ATOM     76  S   UNL A   1      44.812  24.561  36.747  1.00  0.00     0.124 S 
ATOM     77  O   UNL A   1      44.144  24.818  38.018  1.00  0.00    -0.237 OA
ATOM     78  O   UNL A   1      44.484  23.298  36.094  1.00  0.00    -0.237 OA
ATOM     79  O   UNL A   1      46.220  24.943  36.685  1.00  0.00    -0.744 OA
ENDBRANCH  75  76
ENDBRANCH  54  68
BRANCH  55  80
ATOM     80  C   UNL A   1      44.041  25.992  25.664  1.00  0.00     0.058 A 
ATOM     81  C   UNL A   1      45.361  25.562  25.422  1.00  0.00     0.135 A 
ATOM     82  C   UNL A   1      43.023  25.063  25.374  1.00  0.00     0.135 A 
ATOM     83  F   UNL A   1      46.394  26.379  25.674  1.00  0.00    -0.206 F 
ATOM     84  C   UNL A   1      45.659  24.260  25.007  1.00  0.00     0.059 A 
ATOM     85  C   UNL A   1      43.296  23.762  24.949  1.00  0.00     0.059 A 
ATOM     86  F   UNL A   1      41.734  25.360  25.595  1.00  0.00    -0.206 F 
ATOM     87  C   UNL A   1      44.619  23.355  24.806  1.00  0.00     0.060 A 
BRANCH  87  88
ATOM     88  S   UNL A   1      45.011  21.616  24.497  1.00  0.00     0.124 S 
ATOM     89  O   UNL A   1      44.644  21.468  23.092  1.00  0.00    -0.237 OA
ATOM     90  O   UNL A   1      46.440  21.568  24.791  1.00  0.00    -0.237 OA
ATOM     91  O   UNL A   1      44.159  20.902  25.443  1.00  0.00    -0.744 OA
ENDBRANCH  87  88
ENDBRANCH  55  80
BRANCH  67  92
ATOM     92  C   UNL A   1      45.398  31.374  28.723  1.00  0.00     0.058 A 
ATOM     93  C   UNL A   1      44.418  31.902  27.862  1.00  0.00     0.135 A 
ATOM     94  C   UNL A   1      46.623  32.055  28.789  1.00  0.00     0.135 A 
ATOM     95  F   UNL A   1      43.186  31.374  27.814  1.00  0.00    -0.206 F 
ATOM     96  C   UNL A   1      44.664  33.025  27.068  1.00  0.00     0.059 A 
ATOM     97  C   UNL A   1      46.878  33.193  28.031  1.00  0.00     0.059 A 
ATOM     98  F   UNL A   1      47.578  31.638  29.636  1.00  0.00    -0.206 F 
ATOM     99  C   UNL A   1      45.900  33.663  27.158  1.00  0.00     0.060 A 
BRANCH  99 100
ATOM    100  S   UNL A   1      46.202  35.145  26.170  1.00  0.00     0.124 S 
ATOM    101  O   UNL A   1      44.846  35.585  25.856  1.00  0.00    -0.237 OA
ATOM    102  O   UNL A   1      46.948  35.990  27.096  1.00  0.00    -0.237 OA
ATOM    103  O   UNL A   1      46.974  34.644  25.033  1.00  0.00    -0.744 OA
ENDBRANCH  99 100
ENDBRANCH  67  92
ENDBRANCH  41  42
ENDBRANCH  33  36
ENDBRANCH  31  32
ENDBRANCH   1  31
TORSDOF 16
ENDMDL
