MODEL 1
REMARK VINA RESULT:     -11.9      0.000      0.000
REMARK SMILES COc1ccc(CCn2cc(C(=O)NCCCNC(=O)c3ccc(-c4c5nc(c(-c6c(F)cc(S(=O)(=O)[O-])cc6F)c6ccc([nH]6)c(-c6c(F)cc(S(=O)(=O)[O-])cc6F)c6nc(c(-c7c(F)cc(S(=O)(=O)[O-])cc7F)c7ccc4[nH]7)C=C6)C=C5)cc3)ccc2=O)cc1OC
REMARK SMILES IDX 15 1 14 2 12 3 13 4 11 6 9 7 10 8 89 9 88 10 90 11 87 12
REMARK SMILES IDX 8 13 7 14 6 15 3 16 4 17 92 18 5 19 91 20 2 21 1 22 93 23
REMARK SMILES IDX 94 24 16 25 17 26 18 27 19 28 20 30 21 31 22 32 86 33 23 34
REMARK SMILES IDX 85 35 24 36 25 37 26 38 79 39 27 40 84 41 78 42 80 43 28 44
REMARK SMILES IDX 83 45 77 46 76 47 29 49 63 50 42 51 62 52 43 53 46 54 61 55
REMARK SMILES IDX 81 56 44 57 45 58 60 60 82 61 47 62 30 63 31 64 40 65 32 66
REMARK SMILES IDX 33 67 39 68 41 69 34 70 35 71 36 72 37 73 38 74 64 75 65 76
REMARK SMILES IDX 74 77 66 78 67 79 73 80 75 81 68 82 69 83 70 84 71 85 72 86
REMARK SMILES IDX 48 87 49 88 58 89 50 90 51 91 57 92 59 93 52 94 53 95 54 96
REMARK SMILES IDX 55 97 56 98
REMARK H PARENT 14 5 18 29 80 48 46 59
REMARK Flexibility Score: inf
ROOT
ATOM      1  C   UNL A   1      36.811  22.243  25.360  1.00  0.00     0.118 C 
ENDROOT
BRANCH   1   2
ATOM      2  N   UNL A   1      35.990  21.991  26.534  1.00  0.00    -0.352 N 
ATOM      3  C   UNL A   1      34.656  21.769  26.690  1.00  0.00     0.252 C 
ATOM      4  O   UNL A   1      34.230  21.592  27.831  1.00  0.00    -0.269 OA
ATOM      5  H   UNL A   1      36.496  21.979  27.378  1.00  0.00     0.163 HD
BRANCH   3   6
ATOM      6  C   UNL A   1      33.740  21.606  25.516  1.00  0.00     0.056 A 
ATOM      7  N   UNL A   1      32.477  22.429  23.654  1.00  0.00    -0.314 N 
ATOM      8  C   UNL A   1      33.192  22.626  24.836  1.00  0.00     0.103 A 
ATOM      9  C   UNL A   1      32.313  21.150  23.120  1.00  0.00     0.250 A 
ATOM     10  C   UNL A   1      32.693  20.021  24.002  1.00  0.00     0.072 A 
ATOM     11  O   UNL A   1      31.865  20.890  22.000  1.00  0.00    -0.269 OA
ATOM     12  C   UNL A   1      33.380  20.255  25.125  1.00  0.00     0.021 A 
BRANCH   7  13
ATOM     13  C   UNL A   1      32.129  23.613  22.853  1.00  0.00     0.130 C 
BRANCH  13  14
ATOM     14  C   UNL A   1      33.261  24.565  22.430  1.00  0.00     0.057 C 
BRANCH  14  15
ATOM     15  C   UNL A   1      33.336  25.899  23.134  1.00  0.00    -0.042 A 
ATOM     16  C   UNL A   1      33.220  28.377  24.472  1.00  0.00     0.160 A 
ATOM     17  C   UNL A   1      33.797  27.259  25.087  1.00  0.00     0.051 A 
ATOM     18  C   UNL A   1      32.732  28.280  23.165  1.00  0.00     0.160 A 
ATOM     19  C   UNL A   1      33.836  26.028  24.431  1.00  0.00     0.008 A 
ATOM     20  C   UNL A   1      32.796  27.038  22.515  1.00  0.00     0.054 A 
BRANCH  16  21
ATOM     21  O   UNL A   1      33.195  29.561  25.160  1.00  0.00    -0.493 OA
ATOM     22  C   UNL A   1      31.940  29.761  25.809  1.00  0.00     0.278 C 
ENDBRANCH  16  21
BRANCH  18  23
ATOM     23  O   UNL A   1      32.149  29.247  22.393  1.00  0.00    -0.493 OA
ATOM     24  C   UNL A   1      30.733  29.293  22.315  1.00  0.00     0.278 C 
ENDBRANCH  18  23
ENDBRANCH  14  15
ENDBRANCH  13  14
ENDBRANCH   7  13
ENDBRANCH   3   6
ENDBRANCH   1   2
BRANCH   1  25
ATOM     25  C   UNL A   1      37.251  23.707  25.315  1.00  0.00     0.042 C 
BRANCH  25  26
ATOM     26  C   UNL A   1      38.181  24.091  26.467  1.00  0.00     0.118 C 
BRANCH  26  27
ATOM     27  N   UNL A   1      39.570  24.145  26.040  1.00  0.00    -0.352 N 
ATOM     28  C   UNL A   1      40.569  25.011  26.400  1.00  0.00     0.251 C 
ATOM     29  H   UNL A   1      39.833  23.451  25.393  1.00  0.00     0.163 HD
ATOM     30  O   UNL A   1      41.615  25.011  25.744  1.00  0.00    -0.269 OA
BRANCH  28  31
ATOM     31  C   UNL A   1      40.414  25.938  27.542  1.00  0.00     0.039 A 
ATOM     32  C   UNL A   1      41.250  27.057  27.606  1.00  0.00     0.014 A 
ATOM     33  C   UNL A   1      39.513  25.684  28.581  1.00  0.00     0.014 A 
ATOM     34  C   UNL A   1      41.164  27.931  28.691  1.00  0.00     0.010 A 
ATOM     35  C   UNL A   1      39.385  26.591  29.634  1.00  0.00     0.010 A 
ATOM     36  C   UNL A   1      40.219  27.716  29.707  1.00  0.00    -0.014 A 
BRANCH  36  37
ATOM     37  C   UNL A   1      40.110  28.666  30.843  1.00  0.00     0.031 A 
ATOM     38  C   UNL A   1      40.993  28.519  32.054  1.00  0.00     0.074 A 
ATOM     39  C   UNL A   1      39.195  29.653  30.790  1.00  0.00     0.049 A 
ATOM     40  N   UNL A   1      41.055  29.269  33.125  1.00  0.00    -0.248 NA
ATOM     41  C   UNL A   1      41.909  27.368  32.076  1.00  0.00     0.031 C 
ATOM     42  C   UNL A   1      38.242  29.862  29.697  1.00  0.00     0.029 A 
ATOM     43  N   UNL A   1      38.919  30.669  31.669  1.00  0.00    -0.354 N 
ATOM     44  C   UNL A   1      42.008  28.680  33.949  1.00  0.00     0.074 A 
ATOM     45  C   UNL A   1      42.460  27.481  33.276  1.00  0.00     0.031 C 
ATOM     46  C   UNL A   1      37.508  30.955  29.956  1.00  0.00     0.029 A 
ATOM     47  C   UNL A   1      37.921  31.513  31.240  1.00  0.00     0.049 A 
ATOM     48  H   UNL A   1      39.390  30.783  32.526  1.00  0.00     0.167 HD
ATOM     49  C   UNL A   1      42.479  29.110  35.144  1.00  0.00     0.037 A 
ATOM     50  C   UNL A   1      37.406  32.617  31.812  1.00  0.00     0.037 A 
ATOM     51  C   UNL A   1      42.042  30.317  35.797  1.00  0.00     0.049 A 
ATOM     52  C   UNL A   1      37.972  33.096  33.119  1.00  0.00     0.074 A 
ATOM     53  C   UNL A   1      42.494  30.870  36.983  1.00  0.00     0.029 A 
ATOM     54  N   UNL A   1      41.048  31.160  35.320  1.00  0.00    -0.354 N 
ATOM     55  N   UNL A   1      38.921  32.562  33.853  1.00  0.00    -0.248 NA
ATOM     56  C   UNL A   1      37.411  34.336  33.670  1.00  0.00     0.031 C 
ATOM     57  C   UNL A   1      41.753  32.030  37.238  1.00  0.00     0.029 A 
ATOM     58  C   UNL A   1      40.866  32.222  36.192  1.00  0.00     0.049 A 
ATOM     59  H   UNL A   1      40.546  31.024  34.485  1.00  0.00     0.167 HD
ATOM     60  C   UNL A   1      39.082  33.411  34.941  1.00  0.00     0.074 A 
ATOM     61  C   UNL A   1      38.149  34.504  34.758  1.00  0.00     0.031 C 
ATOM     62  C   UNL A   1      39.926  33.297  35.997  1.00  0.00     0.037 A 
BRANCH  49  63
ATOM     63  C   UNL A   1      43.532  28.272  35.819  1.00  0.00     0.058 A 
ATOM     64  C   UNL A   1      43.189  27.214  36.678  1.00  0.00     0.135 A 
ATOM     65  C   UNL A   1      44.896  28.508  35.586  1.00  0.00     0.135 A 
ATOM     66  F   UNL A   1      41.901  26.952  36.949  1.00  0.00    -0.206 F 
ATOM     67  C   UNL A   1      44.162  26.441  37.305  1.00  0.00     0.059 A 
ATOM     68  C   UNL A   1      45.885  27.731  36.182  1.00  0.00     0.059 A 
ATOM     69  F   UNL A   1      45.280  29.505  34.774  1.00  0.00    -0.206 F 
ATOM     70  C   UNL A   1      45.508  26.709  37.054  1.00  0.00     0.060 A 
BRANCH  70  71
ATOM     71  S   UNL A   1      46.758  25.699  37.875  1.00  0.00     0.124 S 
ATOM     72  O   UNL A   1      47.799  26.687  38.142  1.00  0.00    -0.237 OA
ATOM     73  O   UNL A   1      46.042  25.203  39.047  1.00  0.00    -0.237 OA
ATOM     74  O   UNL A   1      47.092  24.690  36.875  1.00  0.00    -0.744 OA
ENDBRANCH  70  71
ENDBRANCH  49  63
BRANCH  50  75
ATOM     75  C   UNL A   1      36.323  33.369  31.126  1.00  0.00     0.058 A 
ATOM     76  C   UNL A   1      35.022  33.400  31.650  1.00  0.00     0.135 A 
ATOM     77  C   UNL A   1      36.571  34.087  29.945  1.00  0.00     0.135 A 
ATOM     78  F   UNL A   1      34.737  32.727  32.775  1.00  0.00    -0.206 F 
ATOM     79  C   UNL A   1      34.000  34.103  31.022  1.00  0.00     0.059 A 
ATOM     80  C   UNL A   1      35.570  34.816  29.311  1.00  0.00     0.059 A 
ATOM     81  F   UNL A   1      37.803  34.103  29.415  1.00  0.00    -0.206 F 
ATOM     82  C   UNL A   1      34.285  34.810  29.853  1.00  0.00     0.060 A 
BRANCH  82  83
ATOM     83  S   UNL A   1      32.965  35.765  29.074  1.00  0.00     0.124 S 
ATOM     84  O   UNL A   1      32.391  34.783  28.161  1.00  0.00    -0.237 OA
ATOM     85  O   UNL A   1      32.136  36.136  30.217  1.00  0.00    -0.237 OA
ATOM     86  O   UNL A   1      33.680  36.871  28.444  1.00  0.00    -0.744 OA
ENDBRANCH  82  83
ENDBRANCH  50  75
BRANCH  62  87
ATOM     87  C   UNL A   1      39.885  34.397  37.022  1.00  0.00     0.058 A 
ATOM     88  C   UNL A   1      39.099  34.295  38.180  1.00  0.00     0.135 A 
ATOM     89  C   UNL A   1      40.642  35.566  36.843  1.00  0.00     0.135 A 
ATOM     90  F   UNL A   1      38.353  33.199  38.396  1.00  0.00    -0.206 F 
ATOM     91  C   UNL A   1      39.032  35.330  39.106  1.00  0.00     0.059 A 
ATOM     92  C   UNL A   1      40.611  36.603  37.768  1.00  0.00     0.059 A 
ATOM     93  F   UNL A   1      41.420  35.708  35.758  1.00  0.00    -0.206 F 
ATOM     94  C   UNL A   1      39.786  36.486  38.887  1.00  0.00     0.060 A 
BRANCH  94  95
ATOM     95  S   UNL A   1      39.686  37.830  40.087  1.00  0.00     0.124 S 
ATOM     96  O   UNL A   1      41.002  38.444  39.948  1.00  0.00    -0.237 OA
ATOM     97  O   UNL A   1      38.563  38.618  39.586  1.00  0.00    -0.237 OA
ATOM     98  O   UNL A   1      39.444  37.139  41.350  1.00  0.00    -0.744 OA
ENDBRANCH  94  95
ENDBRANCH  62  87
ENDBRANCH  36  37
ENDBRANCH  28  31
ENDBRANCH  26  27
ENDBRANCH  25  26
ENDBRANCH   1  25
TORSDOF 18
ENDMDL
MODEL 2
REMARK VINA RESULT:     -11.9      1.175      2.084
REMARK SMILES COc1ccc(CCn2cc(C(=O)NCCCNC(=O)c3ccc(-c4c5nc(c(-c6c(F)cc(S(=O)(=O)[O-])cc6F)c6ccc([nH]6)c(-c6c(F)cc(S(=O)(=O)[O-])cc6F)c6nc(c(-c7c(F)cc(S(=O)(=O)[O-])cc7F)c7ccc4[nH]7)C=C6)C=C5)cc3)ccc2=O)cc1OC
REMARK SMILES IDX 15 1 14 2 12 3 13 4 11 6 9 7 10 8 89 9 88 10 90 11 87 12
REMARK SMILES IDX 8 13 7 14 6 15 3 16 4 17 92 18 5 19 91 20 2 21 1 22 93 23
REMARK SMILES IDX 94 24 16 25 17 26 18 27 19 28 20 30 21 31 22 32 86 33 23 34
REMARK SMILES IDX 85 35 24 36 25 37 26 38 79 39 27 40 84 41 78 42 80 43 28 44
REMARK SMILES IDX 83 45 77 46 76 47 29 49 63 50 42 51 62 52 43 53 46 54 61 55
REMARK SMILES IDX 81 56 44 57 45 58 60 60 82 61 47 62 30 63 31 64 40 65 32 66
REMARK SMILES IDX 33 67 39 68 41 69 34 70 35 71 36 72 37 73 38 74 64 75 65 76
REMARK SMILES IDX 74 77 66 78 67 79 73 80 75 81 68 82 69 83 70 84 71 85 72 86
REMARK SMILES IDX 48 87 49 88 58 89 50 90 51 91 57 92 59 93 52 94 53 95 54 96
REMARK SMILES IDX 55 97 56 98
REMARK H PARENT 14 5 18 29 80 48 46 59
REMARK Flexibility Score: inf
ROOT
ATOM      1  C   UNL A   1      38.020  22.412  25.948  1.00  0.00     0.118 C 
ENDROOT
BRANCH   1   2
ATOM      2  N   UNL A   1      37.716  22.733  24.562  1.00  0.00    -0.352 N 
ATOM      3  C   UNL A   1      36.578  22.627  23.823  1.00  0.00     0.252 C 
ATOM      4  O   UNL A   1      36.621  22.976  22.644  1.00  0.00    -0.269 OA
ATOM      5  H   UNL A   1      38.481  23.098  24.062  1.00  0.00     0.163 HD
BRANCH   3   6
ATOM      6  C   UNL A   1      35.271  22.231  24.439  1.00  0.00     0.056 A 
ATOM      7  N   UNL A   1      33.059  22.678  25.243  1.00  0.00    -0.314 N 
ATOM      8  C   UNL A   1      34.322  23.099  24.824  1.00  0.00     0.103 A 
ATOM      9  C   UNL A   1      32.726  21.323  25.266  1.00  0.00     0.250 A 
ATOM     10  C   UNL A   1      33.849  20.372  25.090  1.00  0.00     0.072 A 
ATOM     11  O   UNL A   1      31.594  20.863  25.439  1.00  0.00    -0.269 OA
ATOM     12  C   UNL A   1      35.043  20.819  24.686  1.00  0.00     0.021 A 
BRANCH   7  13
ATOM     13  C   UNL A   1      32.012  23.699  25.406  1.00  0.00     0.130 C 
BRANCH  13  14
ATOM     14  C   UNL A   1      32.440  25.171  25.526  1.00  0.00     0.057 C 
BRANCH  14  15
ATOM     15  C   UNL A   1      31.719  26.170  24.653  1.00  0.00    -0.042 A 
ATOM     16  C   UNL A   1      30.491  27.927  22.823  1.00  0.00     0.160 A 
ATOM     17  C   UNL A   1      29.739  26.954  23.495  1.00  0.00     0.051 A 
ATOM     18  C   UNL A   1      31.856  28.059  23.090  1.00  0.00     0.160 A 
ATOM     19  C   UNL A   1      30.351  26.071  24.386  1.00  0.00     0.008 A 
ATOM     20  C   UNL A   1      32.452  27.175  24.003  1.00  0.00     0.054 A 
BRANCH  16  21
ATOM     21  O   UNL A   1      29.846  28.762  21.950  1.00  0.00    -0.493 OA
ATOM     22  C   UNL A   1      29.323  29.911  22.617  1.00  0.00     0.278 C 
ENDBRANCH  16  21
BRANCH  18  23
ATOM     23  O   UNL A   1      32.753  28.944  22.555  1.00  0.00    -0.493 OA
ATOM     24  C   UNL A   1      34.136  28.634  22.624  1.00  0.00     0.278 C 
ENDBRANCH  18  23
ENDBRANCH  14  15
ENDBRANCH  13  14
ENDBRANCH   7  13
ENDBRANCH   3   6
ENDBRANCH   1   2
BRANCH   1  25
ATOM     25  C   UNL A   1      38.651  23.613  26.652  1.00  0.00     0.042 C 
BRANCH  25  26
ATOM     26  C   UNL A   1      40.133  23.412  26.974  1.00  0.00     0.118 C 
BRANCH  26  27
ATOM     27  N   UNL A   1      40.986  24.144  26.052  1.00  0.00    -0.352 N 
ATOM     28  C   UNL A   1      41.364  25.461  26.058  1.00  0.00     0.251 C 
ATOM     29  H   UNL A   1      41.349  23.610  25.309  1.00  0.00     0.163 HD
ATOM     30  O   UNL A   1      41.912  25.923  25.053  1.00  0.00    -0.269 OA
BRANCH  28  31
ATOM     31  C   UNL A   1      41.121  26.329  27.231  1.00  0.00     0.039 A 
ATOM     32  C   UNL A   1      41.921  27.464  27.392  1.00  0.00     0.014 A 
ATOM     33  C   UNL A   1      40.173  26.004  28.205  1.00  0.00     0.014 A 
ATOM     34  C   UNL A   1      41.753  28.284  28.510  1.00  0.00     0.010 A 
ATOM     35  C   UNL A   1      39.962  26.857  29.291  1.00  0.00     0.010 A 
ATOM     36  C   UNL A   1      40.759  27.997  29.461  1.00  0.00    -0.014 A 
BRANCH  36  37
ATOM     37  C   UNL A   1      40.562  28.889  30.632  1.00  0.00     0.031 A 
ATOM     38  C   UNL A   1      41.426  28.749  31.858  1.00  0.00     0.074 A 
ATOM     39  C   UNL A   1      39.586  29.817  30.595  1.00  0.00     0.049 A 
ATOM     40  N   UNL A   1      41.415  29.456  32.960  1.00  0.00    -0.248 NA
ATOM     41  C   UNL A   1      42.415  27.660  31.856  1.00  0.00     0.031 C 
ATOM     42  C   UNL A   1      38.647  30.010  29.488  1.00  0.00     0.029 A 
ATOM     43  N   UNL A   1      39.225  30.775  31.507  1.00  0.00    -0.354 N 
ATOM     44  C   UNL A   1      42.385  28.896  33.782  1.00  0.00     0.074 A 
ATOM     45  C   UNL A   1      42.929  27.757  33.074  1.00  0.00     0.031 C 
ATOM     46  C   UNL A   1      37.837  31.041  29.773  1.00  0.00     0.029 A 
ATOM     47  C   UNL A   1      38.184  31.570  31.088  1.00  0.00     0.049 A 
ATOM     48  H   UNL A   1      39.667  30.883  32.380  1.00  0.00     0.167 HD
ATOM     49  C   UNL A   1      42.800  29.304  35.006  1.00  0.00     0.037 A 
ATOM     50  C   UNL A   1      37.584  32.613  31.692  1.00  0.00     0.037 A 
ATOM     51  C   UNL A   1      42.269  30.452  35.696  1.00  0.00     0.049 A 
ATOM     52  C   UNL A   1      38.088  33.072  33.031  1.00  0.00     0.074 A 
ATOM     53  C   UNL A   1      42.658  30.982  36.914  1.00  0.00     0.029 A 
ATOM     54  N   UNL A   1      41.233  31.248  35.229  1.00  0.00    -0.354 N 
ATOM     55  N   UNL A   1      39.052  32.570  33.766  1.00  0.00    -0.248 NA
ATOM     56  C   UNL A   1      37.434  34.250  33.617  1.00  0.00     0.031 C 
ATOM     57  C   UNL A   1      41.836  32.081  37.198  1.00  0.00     0.029 A 
ATOM     58  C   UNL A   1      40.962  32.258  36.138  1.00  0.00     0.049 A 
ATOM     59  H   UNL A   1      40.761  31.115  34.376  1.00  0.00     0.167 HD
ATOM     60  C   UNL A   1      39.133  33.381  34.891  1.00  0.00     0.074 A 
ATOM     61  C   UNL A   1      38.134  34.419  34.729  1.00  0.00     0.031 C 
ATOM     62  C   UNL A   1      39.958  33.278  35.963  1.00  0.00     0.037 A 
BRANCH  49  63
ATOM     63  C   UNL A   1      43.889  28.508  35.673  1.00  0.00     0.058 A 
ATOM     64  C   UNL A   1      45.247  28.784  35.443  1.00  0.00     0.135 A 
ATOM     65  C   UNL A   1      43.576  27.477  36.574  1.00  0.00     0.135 A 
ATOM     66  F   UNL A   1      45.605  29.749  34.581  1.00  0.00    -0.206 F 
ATOM     67  C   UNL A   1      46.254  28.045  36.056  1.00  0.00     0.059 A 
ATOM     68  C   UNL A   1      44.567  26.743  37.218  1.00  0.00     0.059 A 
ATOM     69  F   UNL A   1      42.294  27.172  36.831  1.00  0.00    -0.206 F 
ATOM     70  C   UNL A   1      45.905  27.024  36.941  1.00  0.00     0.060 A 
BRANCH  70  71
ATOM     71  S   UNL A   1      47.222  26.074  37.728  1.00  0.00     0.124 S 
ATOM     72  O   UNL A   1      47.300  24.907  36.855  1.00  0.00    -0.237 OA
ATOM     73  O   UNL A   1      48.356  26.992  37.660  1.00  0.00    -0.237 OA
ATOM     74  O   UNL A   1      46.705  25.821  39.069  1.00  0.00    -0.744 OA
ENDBRANCH  70  71
ENDBRANCH  49  63
BRANCH  50  75
ATOM     75  C   UNL A   1      36.470  33.322  31.009  1.00  0.00     0.058 A 
ATOM     76  C   UNL A   1      35.158  33.244  31.499  1.00  0.00     0.135 A 
ATOM     77  C   UNL A   1      36.697  34.106  29.867  1.00  0.00     0.135 A 
ATOM     78  F   UNL A   1      34.891  32.504  32.586  1.00  0.00    -0.206 F 
ATOM     79  C   UNL A   1      34.107  33.905  30.874  1.00  0.00     0.059 A 
ATOM     80  C   UNL A   1      35.665  34.796  29.238  1.00  0.00     0.059 A 
ATOM     81  F   UNL A   1      37.938  34.227  29.371  1.00  0.00    -0.206 F 
ATOM     82  C   UNL A   1      34.371  34.680  29.744  1.00  0.00     0.060 A 
BRANCH  82  83
ATOM     83  S   UNL A   1      33.009  35.580  28.971  1.00  0.00     0.124 S 
ATOM     84  O   UNL A   1      32.250  36.020  30.136  1.00  0.00    -0.237 OA
ATOM     85  O   UNL A   1      33.710  36.625  28.232  1.00  0.00    -0.237 OA
ATOM     86  O   UNL A   1      32.364  34.563  28.144  1.00  0.00    -0.744 OA
ENDBRANCH  82  83
ENDBRANCH  50  75
BRANCH  62  87
ATOM     87  C   UNL A   1      39.822  34.329  37.030  1.00  0.00     0.058 A 
ATOM     88  C   UNL A   1      40.449  35.579  36.917  1.00  0.00     0.135 A 
ATOM     89  C   UNL A   1      39.052  34.082  38.178  1.00  0.00     0.135 A 
ATOM     90  F   UNL A   1      41.200  35.863  35.840  1.00  0.00    -0.206 F 
ATOM     91  C   UNL A   1      40.353  36.533  37.924  1.00  0.00     0.059 A 
ATOM     92  C   UNL A   1      38.921  35.031  39.186  1.00  0.00     0.059 A 
ATOM     93  F   UNL A   1      38.421  32.906  38.330  1.00  0.00    -0.206 F 
ATOM     94  C   UNL A   1      39.593  36.247  39.060  1.00  0.00     0.060 A 
BRANCH  94  95
ATOM     95  S   UNL A   1      39.482  37.486  40.367  1.00  0.00     0.124 S 
ATOM     96  O   UNL A   1      40.890  37.774  40.617  1.00  0.00    -0.237 OA
ATOM     97  O   UNL A   1      38.721  38.555  39.726  1.00  0.00    -0.237 OA
ATOM     98  O   UNL A   1      38.783  36.785  41.439  1.00  0.00    -0.744 OA
ENDBRANCH  94  95
ENDBRANCH  62  87
ENDBRANCH  36  37
ENDBRANCH  28  31
ENDBRANCH  26  27
ENDBRANCH  25  26
ENDBRANCH   1  25
TORSDOF 18
ENDMDL
MODEL 3
REMARK VINA RESULT:     -11.5      6.728     12.174
REMARK SMILES COc1ccc(CCn2cc(C(=O)NCCCNC(=O)c3ccc(-c4c5nc(c(-c6c(F)cc(S(=O)(=O)[O-])cc6F)c6ccc([nH]6)c(-c6c(F)cc(S(=O)(=O)[O-])cc6F)c6nc(c(-c7c(F)cc(S(=O)(=O)[O-])cc7F)c7ccc4[nH]7)C=C6)C=C5)cc3)ccc2=O)cc1OC
REMARK SMILES IDX 15 1 14 2 12 3 13 4 11 6 9 7 10 8 89 9 88 10 90 11 87 12
REMARK SMILES IDX 8 13 7 14 6 15 3 16 4 17 92 18 5 19 91 20 2 21 1 22 93 23
REMARK SMILES IDX 94 24 16 25 17 26 18 27 19 28 20 30 21 31 22 32 86 33 23 34
REMARK SMILES IDX 85 35 24 36 25 37 26 38 79 39 27 40 84 41 78 42 80 43 28 44
REMARK SMILES IDX 83 45 77 46 76 47 29 49 63 50 42 51 62 52 43 53 46 54 61 55
REMARK SMILES IDX 81 56 44 57 45 58 60 60 82 61 47 62 30 63 31 64 40 65 32 66
REMARK SMILES IDX 33 67 39 68 41 69 34 70 35 71 36 72 37 73 38 74 64 75 65 76
REMARK SMILES IDX 74 77 66 78 67 79 73 80 75 81 68 82 69 83 70 84 71 85 72 86
REMARK SMILES IDX 48 87 49 88 58 89 50 90 51 91 57 92 59 93 52 94 53 95 54 96
REMARK SMILES IDX 55 97 56 98
REMARK H PARENT 14 5 18 29 80 48 46 59
REMARK Flexibility Score: inf
ROOT
ATOM      1  C   UNL A   1      34.715  29.640  27.277  1.00  0.00     0.118 C 
ENDROOT
BRANCH   1   2
ATOM      2  N   UNL A   1      33.578  28.866  27.749  1.00  0.00    -0.352 N 
ATOM      3  C   UNL A   1      32.429  28.459  27.142  1.00  0.00     0.252 C 
ATOM      4  O   UNL A   1      31.624  27.808  27.807  1.00  0.00    -0.269 OA
ATOM      5  H   UNL A   1      33.652  28.583  28.688  1.00  0.00     0.163 HD
BRANCH   3   6
ATOM      6  C   UNL A   1      32.195  28.665  25.677  1.00  0.00     0.056 A 
ATOM      7  N   UNL A   1      32.683  28.305  23.358  1.00  0.00    -0.314 N 
ATOM      8  C   UNL A   1      33.022  28.232  24.710  1.00  0.00     0.103 A 
ATOM      9  C   UNL A   1      31.452  28.826  22.954  1.00  0.00     0.250 A 
ATOM     10  C   UNL A   1      30.668  29.529  23.997  1.00  0.00     0.072 A 
ATOM     11  O   UNL A   1      30.985  28.766  21.815  1.00  0.00    -0.269 OA
ATOM     12  C   UNL A   1      31.028  29.431  25.282  1.00  0.00     0.021 A 
BRANCH   7  13
ATOM     13  C   UNL A   1      33.532  27.587  22.395  1.00  0.00     0.130 C 
BRANCH  13  14
ATOM     14  C   UNL A   1      32.991  26.289  21.771  1.00  0.00     0.057 C 
BRANCH  14  15
ATOM     15  C   UNL A   1      32.556  25.200  22.722  1.00  0.00    -0.042 A 
ATOM     16  C   UNL A   1      31.764  23.339  24.685  1.00  0.00     0.160 A 
ATOM     17  C   UNL A   1      30.850  23.805  23.732  1.00  0.00     0.051 A 
ATOM     18  C   UNL A   1      33.095  23.767  24.642  1.00  0.00     0.160 A 
ATOM     19  C   UNL A   1      31.237  24.741  22.772  1.00  0.00     0.008 A 
ATOM     20  C   UNL A   1      33.471  24.694  23.659  1.00  0.00     0.054 A 
BRANCH  16  21
ATOM     21  O   UNL A   1      31.333  22.429  25.613  1.00  0.00    -0.493 OA
ATOM     22  C   UNL A   1      30.762  23.075  26.751  1.00  0.00     0.278 C 
ENDBRANCH  16  21
BRANCH  18  23
ATOM     23  O   UNL A   1      34.132  23.424  25.465  1.00  0.00    -0.493 OA
ATOM     24  C   UNL A   1      35.425  23.932  25.175  1.00  0.00     0.278 C 
ENDBRANCH  18  23
ENDBRANCH  14  15
ENDBRANCH  13  14
ENDBRANCH   7  13
ENDBRANCH   3   6
ENDBRANCH   1   2
BRANCH   1  25
ATOM     25  C   UNL A   1      34.583  31.104  27.700  1.00  0.00     0.042 C 
BRANCH  25  26
ATOM     26  C   UNL A   1      35.765  31.598  28.535  1.00  0.00     0.118 C 
BRANCH  26  27
ATOM     27  N   UNL A   1      35.653  31.182  29.924  1.00  0.00    -0.352 N 
ATOM     28  C   UNL A   1      36.490  30.405  30.680  1.00  0.00     0.251 C 
ATOM     29  H   UNL A   1      34.851  31.509  30.393  1.00  0.00     0.163 HD
ATOM     30  O   UNL A   1      36.087  29.992  31.772  1.00  0.00    -0.269 OA
BRANCH  28  31
ATOM     31  C   UNL A   1      37.848  30.051  30.214  1.00  0.00     0.039 A 
ATOM     32  C   UNL A   1      38.068  29.936  28.838  1.00  0.00     0.014 A 
ATOM     33  C   UNL A   1      38.883  29.762  31.109  1.00  0.00     0.014 A 
ATOM     34  C   UNL A   1      39.325  29.560  28.361  1.00  0.00     0.010 A 
ATOM     35  C   UNL A   1      40.156  29.447  30.631  1.00  0.00     0.010 A 
ATOM     36  C   UNL A   1      40.386  29.329  29.253  1.00  0.00    -0.014 A 
BRANCH  36  37
ATOM     37  C   UNL A   1      41.730  28.960  28.739  1.00  0.00     0.031 A 
ATOM     38  C   UNL A   1      42.828  29.987  28.654  1.00  0.00     0.074 A 
ATOM     39  C   UNL A   1      41.953  27.696  28.330  1.00  0.00     0.049 A 
ATOM     40  N   UNL A   1      44.067  29.838  28.260  1.00  0.00    -0.248 NA
ATOM     41  C   UNL A   1      42.485  31.364  29.042  1.00  0.00     0.031 C 
ATOM     42  C   UNL A   1      40.952  26.627  28.307  1.00  0.00     0.029 A 
ATOM     43  N   UNL A   1      43.092  27.093  27.860  1.00  0.00    -0.354 N 
ATOM     44  C   UNL A   1      44.648  31.099  28.344  1.00  0.00     0.074 A 
ATOM     45  C   UNL A   1      43.611  32.011  28.777  1.00  0.00     0.031 C 
ATOM     46  C   UNL A   1      41.528  25.494  27.877  1.00  0.00     0.029 A 
ATOM     47  C   UNL A   1      42.931  25.758  27.573  1.00  0.00     0.049 A 
ATOM     48  H   UNL A   1      43.945  27.572  27.739  1.00  0.00     0.167 HD
ATOM     49  C   UNL A   1      45.932  31.460  28.103  1.00  0.00     0.037 A 
ATOM     50  C   UNL A   1      43.816  24.849  27.126  1.00  0.00     0.037 A 
ATOM     51  C   UNL A   1      46.965  30.543  27.693  1.00  0.00     0.049 A 
ATOM     52  C   UNL A   1      45.243  25.264  26.904  1.00  0.00     0.074 A 
ATOM     53  C   UNL A   1      48.308  30.797  27.477  1.00  0.00     0.029 A 
ATOM     54  N   UNL A   1      46.769  29.193  27.438  1.00  0.00    -0.354 N 
ATOM     55  N   UNL A   1      45.791  26.448  27.053  1.00  0.00    -0.248 NA
ATOM     56  C   UNL A   1      46.178  24.217  26.470  1.00  0.00     0.031 C 
ATOM     57  C   UNL A   1      48.918  29.607  27.060  1.00  0.00     0.029 A 
ATOM     58  C   UNL A   1      47.964  28.604  27.056  1.00  0.00     0.049 A 
ATOM     59  H   UNL A   1      45.908  28.723  27.517  1.00  0.00     0.167 HD
ATOM     60  C   UNL A   1      47.137  26.283  26.748  1.00  0.00     0.074 A 
ATOM     61  C   UNL A   1      47.324  24.882  26.429  1.00  0.00     0.031 C 
ATOM     62  C   UNL A   1      48.130  27.208  26.734  1.00  0.00     0.037 A 
BRANCH  49  63
ATOM     63  C   UNL A   1      46.293  32.909  28.287  1.00  0.00     0.058 A 
ATOM     64  C   UNL A   1      46.166  33.836  27.239  1.00  0.00     0.135 A 
ATOM     65  C   UNL A   1      46.744  33.385  29.528  1.00  0.00     0.135 A 
ATOM     66  F   UNL A   1      45.754  33.435  26.027  1.00  0.00    -0.206 F 
ATOM     67  C   UNL A   1      46.504  35.176  27.407  1.00  0.00     0.059 A 
ATOM     68  C   UNL A   1      47.062  34.726  29.726  1.00  0.00     0.059 A 
ATOM     69  F   UNL A   1      46.883  32.543  30.564  1.00  0.00    -0.206 F 
ATOM     70  C   UNL A   1      46.954  35.612  28.654  1.00  0.00     0.060 A 
BRANCH  70  71
ATOM     71  S   UNL A   1      47.389  37.351  28.857  1.00  0.00     0.124 S 
ATOM     72  O   UNL A   1      48.191  37.591  27.661  1.00  0.00    -0.237 OA
ATOM     73  O   UNL A   1      46.081  38.001  28.883  1.00  0.00    -0.237 OA
ATOM     74  O   UNL A   1      48.121  37.374  30.119  1.00  0.00    -0.744 OA
ENDBRANCH  70  71
ENDBRANCH  49  63
BRANCH  50  75
ATOM     75  C   UNL A   1      43.384  23.444  26.903  1.00  0.00     0.058 A 
ATOM     76  C   UNL A   1      43.203  22.942  25.606  1.00  0.00     0.135 A 
ATOM     77  C   UNL A   1      43.164  22.571  27.980  1.00  0.00     0.135 A 
ATOM     78  F   UNL A   1      43.399  23.740  24.545  1.00  0.00    -0.206 F 
ATOM     79  C   UNL A   1      42.804  21.629  25.382  1.00  0.00     0.059 A 
ATOM     80  C   UNL A   1      42.788  21.246  27.780  1.00  0.00     0.059 A 
ATOM     81  F   UNL A   1      43.344  22.998  29.239  1.00  0.00    -0.206 F 
ATOM     82  C   UNL A   1      42.600  20.788  26.477  1.00  0.00     0.060 A 
BRANCH  82  83
ATOM     83  S   UNL A   1      42.136  19.069  26.175  1.00  0.00     0.124 S 
ATOM     84  O   UNL A   1      43.031  18.710  25.082  1.00  0.00    -0.237 OA
ATOM     85  O   UNL A   1      42.416  18.443  27.464  1.00  0.00    -0.237 OA
ATOM     86  O   UNL A   1      40.720  19.162  25.828  1.00  0.00    -0.744 OA
ENDBRANCH  82  83
ENDBRANCH  50  75
BRANCH  62  87
ATOM     87  C   UNL A   1      49.507  26.721  26.378  1.00  0.00     0.058 A 
ATOM     88  C   UNL A   1      50.003  26.809  25.068  1.00  0.00     0.135 A 
ATOM     89  C   UNL A   1      50.341  26.163  27.360  1.00  0.00     0.135 A 
ATOM     90  F   UNL A   1      49.243  27.331  24.091  1.00  0.00    -0.206 F 
ATOM     91  C   UNL A   1      51.261  26.321  24.734  1.00  0.00     0.059 A 
ATOM     92  C   UNL A   1      51.613  25.692  27.054  1.00  0.00     0.059 A 
ATOM     93  F   UNL A   1      49.919  26.067  28.630  1.00  0.00    -0.206 F 
ATOM     94  C   UNL A   1      52.057  25.757  25.733  1.00  0.00     0.060 A 
BRANCH  94  95
ATOM     95  S   UNL A   1      53.685  25.116  25.290  1.00  0.00     0.124 S 
ATOM     96  O   UNL A   1      53.854  25.653  23.944  1.00  0.00    -0.237 OA
ATOM     97  O   UNL A   1      54.544  25.699  26.317  1.00  0.00    -0.237 OA
ATOM     98  O   UNL A   1      53.514  23.669  25.373  1.00  0.00    -0.744 OA
ENDBRANCH  94  95
ENDBRANCH  62  87
ENDBRANCH  36  37
ENDBRANCH  28  31
ENDBRANCH  26  27
ENDBRANCH  25  26
ENDBRANCH   1  25
TORSDOF 18
ENDMDL
