MODEL 1
REMARK VINA RESULT:     -12.4      0.000      0.000
REMARK SMILES O=C(Nc1cccc(C(=O)NCCCNC(=O)c2ccc(-c3c4nc(c(-c5c(F)cc(S(=O)(=O)[O-])cc5F)c5ccc([nH]5)c(-c5c(F)cc(S(=O)(=O)[O-])cc5F)c5nc(c(-c6c(F)cc(S(=O)(=O)[O-])cc6F)c6ccc3[nH]6)C=C5)C=C4)cc2)c1)Nc1cc(Cl)c(Cl)cc1Cl
REMARK SMILES IDX 13 1 12 2 11 3 9 4 10 5 8 7 4 8 5 9 84 10 6 11 7 12 3 13
REMARK SMILES IDX 1 14 2 15 85 16 86 19 87 20 93 21 88 22 92 23 94 24 89 25
REMARK SMILES IDX 90 26 91 27 14 28 15 29 16 30 17 32 18 33 19 34 83 35 20 36
REMARK SMILES IDX 82 37 21 38 22 39 23 40 76 41 24 42 81 43 75 44 77 45 25 46
REMARK SMILES IDX 80 47 74 48 73 49 26 51 60 52 39 53 59 54 40 55 43 56 58 57
REMARK SMILES IDX 78 58 41 59 42 60 57 62 79 63 44 64 27 65 28 66 37 67 29 68
REMARK SMILES IDX 30 69 36 70 38 71 31 72 32 73 33 74 34 75 35 76 61 77 62 78
REMARK SMILES IDX 71 79 63 80 64 81 70 82 72 83 65 84 66 85 67 86 68 87 69 88
REMARK SMILES IDX 45 89 46 90 55 91 47 92 48 93 54 94 56 95 49 96 50 97 51 98
REMARK SMILES IDX 52 99 53 100
REMARK H PARENT 11 6 3 17 85 18 15 31 77 50 43 61
REMARK Flexibility Score: inf
ROOT
ATOM      1  C   UNL A   1      40.532  21.551  26.757  1.00  0.00     0.042 C 
ENDROOT
BRANCH   1   2
ATOM      2  C   UNL A   1      41.437  20.601  27.542  1.00  0.00     0.118 C 
BRANCH   2   3
ATOM      3  N   UNL A   1      41.589  19.322  26.873  1.00  0.00    -0.352 N 
ATOM      4  C   UNL A   1      42.559  18.790  26.064  1.00  0.00     0.251 C 
ATOM      5  O   UNL A   1      42.407  17.617  25.716  1.00  0.00    -0.269 OA
ATOM      6  H   UNL A   1      40.838  18.708  27.034  1.00  0.00     0.163 HD
BRANCH   4   7
ATOM      7  C   UNL A   1      43.788  19.513  25.618  1.00  0.00     0.041 A 
ATOM      8  C   UNL A   1      45.073  21.481  24.969  1.00  0.00     0.043 A 
ATOM      9  C   UNL A   1      46.192  20.686  24.724  1.00  0.00     0.026 A 
ATOM     10  C   UNL A   1      43.865  20.881  25.350  1.00  0.00     0.040 A 
ATOM     11  C   UNL A   1      46.131  19.315  24.959  1.00  0.00     0.003 A 
ATOM     12  C   UNL A   1      44.943  18.738  25.418  1.00  0.00     0.014 A 
BRANCH   8  13
ATOM     13  N   UNL A   1      45.198  22.870  24.807  1.00  0.00    -0.308 N 
ATOM     14  O   UNL A   1      45.231  25.033  25.416  1.00  0.00    -0.248 OA
ATOM     15  C   UNL A   1      45.311  23.858  25.758  1.00  0.00     0.323 C 
ATOM     16  N   UNL A   1      45.708  23.429  27.003  1.00  0.00    -0.306 N 
ATOM     17  H   UNL A   1      45.204  23.184  23.874  1.00  0.00     0.171 HD
ATOM     18  H   UNL A   1      45.927  22.474  27.097  1.00  0.00     0.171 HD
BRANCH  16  19
ATOM     19  C   UNL A   1      45.833  24.231  28.159  1.00  0.00     0.063 A 
ATOM     20  C   UNL A   1      47.061  24.891  28.311  1.00  0.00     0.049 A 
ATOM     21  C   UNL A   1      44.853  24.385  29.156  1.00  0.00     0.066 A 
ATOM     22  C   UNL A   1      47.283  25.757  29.386  1.00  0.00     0.061 A 
ATOM     23  C   UNL A   1      45.080  25.249  30.235  1.00  0.00     0.044 A 
ATOM     24  Cl  UNL A   1      43.428  23.411  29.237  1.00  0.00    -0.082 Cl
ATOM     25  Cl  UNL A   1      48.810  26.565  29.459  1.00  0.00    -0.083 Cl
ATOM     26  C   UNL A   1      46.284  25.949  30.343  1.00  0.00     0.061 A 
ATOM     27  Cl  UNL A   1      46.488  27.012  31.688  1.00  0.00    -0.083 Cl
ENDBRANCH  16  19
ENDBRANCH   8  13
ENDBRANCH   4   7
ENDBRANCH   2   3
ENDBRANCH   1   2
BRANCH   1  28
ATOM     28  C   UNL A   1      40.672  23.015  27.175  1.00  0.00     0.118 C 
BRANCH  28  29
ATOM     29  N   UNL A   1      41.396  23.789  26.179  1.00  0.00    -0.352 N 
ATOM     30  C   UNL A   1      41.690  25.126  26.119  1.00  0.00     0.251 C 
ATOM     31  H   UNL A   1      41.732  23.263  25.417  1.00  0.00     0.163 HD
ATOM     32  O   UNL A   1      42.094  25.583  25.051  1.00  0.00    -0.269 OA
BRANCH  30  33
ATOM     33  C   UNL A   1      41.540  26.018  27.294  1.00  0.00     0.039 A 
ATOM     34  C   UNL A   1      40.416  25.847  28.108  1.00  0.00     0.014 A 
ATOM     35  C   UNL A   1      42.423  27.072  27.549  1.00  0.00     0.014 A 
ATOM     36  C   UNL A   1      40.191  26.710  29.183  1.00  0.00     0.010 A 
ATOM     37  C   UNL A   1      42.231  27.896  28.662  1.00  0.00     0.010 A 
ATOM     38  C   UNL A   1      41.105  27.734  29.480  1.00  0.00    -0.014 A 
BRANCH  38  39
ATOM     39  C   UNL A   1      40.874  28.626  30.646  1.00  0.00     0.031 A 
ATOM     40  C   UNL A   1      41.720  28.509  31.886  1.00  0.00     0.074 A 
ATOM     41  C   UNL A   1      39.884  29.537  30.588  1.00  0.00     0.049 A 
ATOM     42  N   UNL A   1      41.686  29.231  32.978  1.00  0.00    -0.248 NA
ATOM     43  C   UNL A   1      42.717  27.428  31.915  1.00  0.00     0.031 C 
ATOM     44  C   UNL A   1      38.953  29.702  29.469  1.00  0.00     0.029 A 
ATOM     45  N   UNL A   1      39.497  30.499  31.486  1.00  0.00    -0.354 N 
ATOM     46  C   UNL A   1      42.646  28.688  33.826  1.00  0.00     0.074 A 
ATOM     47  C   UNL A   1      43.213  27.546  33.139  1.00  0.00     0.031 C 
ATOM     48  C   UNL A   1      38.126  30.726  29.732  1.00  0.00     0.029 A 
ATOM     49  C   UNL A   1      38.453  31.277  31.043  1.00  0.00     0.049 A 
ATOM     50  H   UNL A   1      39.927  30.622  32.364  1.00  0.00     0.167 HD
ATOM     51  C   UNL A   1      43.034  29.113  35.052  1.00  0.00     0.037 A 
ATOM     52  C   UNL A   1      37.838  32.325  31.623  1.00  0.00     0.037 A 
ATOM     53  C   UNL A   1      42.487  30.268  35.718  1.00  0.00     0.049 A 
ATOM     54  C   UNL A   1      38.322  32.813  32.959  1.00  0.00     0.074 A 
ATOM     55  C   UNL A   1      42.858  30.822  36.931  1.00  0.00     0.029 A 
ATOM     56  N   UNL A   1      41.451  31.049  35.226  1.00  0.00    -0.354 N 
ATOM     57  N   UNL A   1      39.282  32.331  33.713  1.00  0.00    -0.248 NA
ATOM     58  C   UNL A   1      37.652  33.995  33.516  1.00  0.00     0.031 C 
ATOM     59  C   UNL A   1      42.025  31.919  37.186  1.00  0.00     0.029 A 
ATOM     60  C   UNL A   1      41.160  32.070  36.115  1.00  0.00     0.049 A 
ATOM     61  H   UNL A   1      40.989  30.898  34.369  1.00  0.00     0.167 HD
ATOM     62  C   UNL A   1      39.339  33.159  34.828  1.00  0.00     0.074 A 
ATOM     63  C   UNL A   1      38.334  34.186  34.637  1.00  0.00     0.031 C 
ATOM     64  C   UNL A   1      40.148  33.075  35.914  1.00  0.00     0.037 A 
BRANCH  51  65
ATOM     65  C   UNL A   1      44.112  28.330  35.752  1.00  0.00     0.058 A 
ATOM     66  C   UNL A   1      45.473  28.587  35.523  1.00  0.00     0.135 A 
ATOM     67  C   UNL A   1      43.783  27.335  36.686  1.00  0.00     0.135 A 
ATOM     68  F   UNL A   1      45.845  29.518  34.631  1.00  0.00    -0.206 F 
ATOM     69  C   UNL A   1      46.470  27.863  36.171  1.00  0.00     0.059 A 
ATOM     70  C   UNL A   1      44.764  26.615  37.364  1.00  0.00     0.059 A 
ATOM     71  F   UNL A   1      42.497  27.050  36.946  1.00  0.00    -0.206 F 
ATOM     72  C   UNL A   1      46.105  26.876  37.088  1.00  0.00     0.060 A 
BRANCH  72  73
ATOM     73  S   UNL A   1      47.409  25.945  37.920  1.00  0.00     0.124 S 
ATOM     74  O   UNL A   1      46.788  24.630  38.053  1.00  0.00    -0.237 OA
ATOM     75  O   UNL A   1      48.513  26.031  36.970  1.00  0.00    -0.237 OA
ATOM     76  O   UNL A   1      47.603  26.675  39.168  1.00  0.00    -0.744 OA
ENDBRANCH  72  73
ENDBRANCH  51  65
BRANCH  52  77
ATOM     77  C   UNL A   1      36.724  33.009  30.916  1.00  0.00     0.058 A 
ATOM     78  C   UNL A   1      35.394  32.823  31.320  1.00  0.00     0.135 A 
ATOM     79  C   UNL A   1      36.967  33.878  29.843  1.00  0.00     0.135 A 
ATOM     80  F   UNL A   1      35.112  31.999  32.341  1.00  0.00    -0.206 F 
ATOM     81  C   UNL A   1      34.341  33.464  30.676  1.00  0.00     0.059 A 
ATOM     82  C   UNL A   1      35.933  34.547  29.196  1.00  0.00     0.059 A 
ATOM     83  F   UNL A   1      38.226  34.102  29.432  1.00  0.00    -0.206 F 
ATOM     84  C   UNL A   1      34.621  34.326  29.614  1.00  0.00     0.060 A 
BRANCH  84  85
ATOM     85  S   UNL A   1      33.254  35.198  28.819  1.00  0.00     0.124 S 
ATOM     86  O   UNL A   1      32.477  35.636  29.971  1.00  0.00    -0.237 OA
ATOM     87  O   UNL A   1      33.945  36.248  28.078  1.00  0.00    -0.237 OA
ATOM     88  O   UNL A   1      32.635  34.164  27.994  1.00  0.00    -0.744 OA
ENDBRANCH  84  85
ENDBRANCH  52  77
BRANCH  64  89
ATOM     89  C   UNL A   1      39.974  34.131  36.970  1.00  0.00     0.058 A 
ATOM     90  C   UNL A   1      39.110  33.939  38.061  1.00  0.00     0.135 A 
ATOM     91  C   UNL A   1      40.677  35.343  36.892  1.00  0.00     0.135 A 
ATOM     92  F   UNL A   1      38.412  32.800  38.178  1.00  0.00    -0.206 F 
ATOM     93  C   UNL A   1      38.920  34.931  39.016  1.00  0.00     0.059 A 
ATOM     94  C   UNL A   1      40.519  36.338  37.850  1.00  0.00     0.059 A 
ATOM     95  F   UNL A   1      41.524  35.569  35.875  1.00  0.00    -0.206 F 
ATOM     96  C   UNL A   1      39.622  36.131  38.898  1.00  0.00     0.060 A 
BRANCH  96  97
ATOM     97  S   UNL A   1      39.364  37.417  40.138  1.00  0.00     0.124 S 
ATOM     98  O   UNL A   1      40.717  37.939  40.304  1.00  0.00    -0.237 OA
ATOM     99  O   UNL A   1      38.416  38.309  39.478  1.00  0.00    -0.237 OA
ATOM    100  O   UNL A   1      38.830  36.682  41.281  1.00  0.00    -0.744 OA
ENDBRANCH  96  97
ENDBRANCH  64  89
ENDBRANCH  38  39
ENDBRANCH  30  33
ENDBRANCH  28  29
ENDBRANCH   1  28
TORSDOF 15
ENDMDL
MODEL 2
REMARK VINA RESULT:     -12.3      6.842     13.466
REMARK SMILES O=C(Nc1cccc(C(=O)NCCCNC(=O)c2ccc(-c3c4nc(c(-c5c(F)cc(S(=O)(=O)[O-])cc5F)c5ccc([nH]5)c(-c5c(F)cc(S(=O)(=O)[O-])cc5F)c5nc(c(-c6c(F)cc(S(=O)(=O)[O-])cc6F)c6ccc3[nH]6)C=C5)C=C4)cc2)c1)Nc1cc(Cl)c(Cl)cc1Cl
REMARK SMILES IDX 13 1 12 2 11 3 9 4 10 5 8 7 4 8 5 9 84 10 6 11 7 12 3 13
REMARK SMILES IDX 1 14 2 15 85 16 86 19 87 20 93 21 88 22 92 23 94 24 89 25
REMARK SMILES IDX 90 26 91 27 14 28 15 29 16 30 17 32 18 33 19 34 83 35 20 36
REMARK SMILES IDX 82 37 21 38 22 39 23 40 76 41 24 42 81 43 75 44 77 45 25 46
REMARK SMILES IDX 80 47 74 48 73 49 26 51 60 52 39 53 59 54 40 55 43 56 58 57
REMARK SMILES IDX 78 58 41 59 42 60 57 62 79 63 44 64 27 65 28 66 37 67 29 68
REMARK SMILES IDX 30 69 36 70 38 71 31 72 32 73 33 74 34 75 35 76 61 77 62 78
REMARK SMILES IDX 71 79 63 80 64 81 70 82 72 83 65 84 66 85 67 86 68 87 69 88
REMARK SMILES IDX 45 89 46 90 55 91 47 92 48 93 54 94 56 95 49 96 50 97 51 98
REMARK SMILES IDX 52 99 53 100
REMARK H PARENT 11 6 3 17 85 18 15 31 77 50 43 61
REMARK Flexibility Score: inf
ROOT
ATOM      1  C   UNL A   1      33.890  31.271  27.621  1.00  0.00     0.042 C 
ENDROOT
BRANCH   1   2
ATOM      2  C   UNL A   1      32.989  30.215  26.979  1.00  0.00     0.118 C 
BRANCH   2   3
ATOM      3  N   UNL A   1      33.322  29.996  25.583  1.00  0.00    -0.352 N 
ATOM      4  C   UNL A   1      32.918  29.079  24.649  1.00  0.00     0.251 C 
ATOM      5  O   UNL A   1      33.354  29.224  23.506  1.00  0.00    -0.269 OA
ATOM      6  H   UNL A   1      33.977  30.643  25.235  1.00  0.00     0.163 HD
BRANCH   4   7
ATOM      7  C   UNL A   1      31.968  27.956  24.913  1.00  0.00     0.041 A 
ATOM      8  C   UNL A   1      31.240  25.891  25.987  1.00  0.00     0.043 A 
ATOM      9  C   UNL A   1      30.067  25.897  25.233  1.00  0.00     0.026 A 
ATOM     10  C   UNL A   1      32.208  26.882  25.773  1.00  0.00     0.040 A 
ATOM     11  C   UNL A   1      29.819  26.943  24.349  1.00  0.00     0.003 A 
ATOM     12  C   UNL A   1      30.754  27.972  24.205  1.00  0.00     0.014 A 
BRANCH   8  13
ATOM     13  N   UNL A   1      31.416  24.868  26.932  1.00  0.00    -0.308 N 
ATOM     14  O   UNL A   1      32.093  22.881  27.733  1.00  0.00    -0.248 OA
ATOM     15  C   UNL A   1      32.215  23.750  26.877  1.00  0.00     0.323 C 
ATOM     16  N   UNL A   1      33.234  23.804  25.954  1.00  0.00    -0.306 N 
ATOM     17  H   UNL A   1      30.888  24.965  27.757  1.00  0.00     0.171 HD
ATOM     18  H   UNL A   1      33.340  24.646  25.455  1.00  0.00     0.171 HD
BRANCH  16  19
ATOM     19  C   UNL A   1      34.144  22.765  25.657  1.00  0.00     0.063 A 
ATOM     20  C   UNL A   1      35.501  23.079  25.828  1.00  0.00     0.049 A 
ATOM     21  C   UNL A   1      33.799  21.487  25.185  1.00  0.00     0.066 A 
ATOM     22  C   UNL A   1      36.493  22.115  25.619  1.00  0.00     0.061 A 
ATOM     23  C   UNL A   1      34.795  20.525  24.970  1.00  0.00     0.044 A 
ATOM     24  Cl  UNL A   1      32.205  21.073  24.659  1.00  0.00    -0.082 Cl
ATOM     25  Cl  UNL A   1      38.132  22.582  25.906  1.00  0.00    -0.083 Cl
ATOM     26  C   UNL A   1      36.138  20.830  25.204  1.00  0.00     0.061 A 
ATOM     27  Cl  UNL A   1      37.310  19.591  24.938  1.00  0.00    -0.083 Cl
ENDBRANCH  16  19
ENDBRANCH   8  13
ENDBRANCH   4   7
ENDBRANCH   2   3
ENDBRANCH   1   2
BRANCH   1  28
ATOM     28  C   UNL A   1      35.246  30.726  28.070  1.00  0.00     0.118 C 
BRANCH  28  29
ATOM     29  N   UNL A   1      35.369  30.726  29.520  1.00  0.00    -0.352 N 
ATOM     30  C   UNL A   1      36.353  30.237  30.338  1.00  0.00     0.251 C 
ATOM     31  H   UNL A   1      34.617  31.148  29.994  1.00  0.00     0.163 HD
ATOM     32  O   UNL A   1      36.109  30.131  31.539  1.00  0.00    -0.269 OA
BRANCH  30  33
ATOM     33  C   UNL A   1      37.686  29.845  29.819  1.00  0.00     0.039 A 
ATOM     34  C   UNL A   1      38.657  29.444  30.742  1.00  0.00     0.014 A 
ATOM     35  C   UNL A   1      38.023  29.956  28.466  1.00  0.00     0.014 A 
ATOM     36  C   UNL A   1      39.949  29.136  30.311  1.00  0.00     0.010 A 
ATOM     37  C   UNL A   1      39.298  29.587  28.027  1.00  0.00     0.010 A 
ATOM     38  C   UNL A   1      40.278  29.189  28.946  1.00  0.00    -0.014 A 
BRANCH  38  39
ATOM     39  C   UNL A   1      41.646  28.827  28.493  1.00  0.00     0.031 A 
ATOM     40  C   UNL A   1      42.739  29.861  28.436  1.00  0.00     0.074 A 
ATOM     41  C   UNL A   1      41.898  27.559  28.118  1.00  0.00     0.049 A 
ATOM     42  N   UNL A   1      43.998  29.713  28.106  1.00  0.00    -0.248 NA
ATOM     43  C   UNL A   1      42.367  31.245  28.767  1.00  0.00     0.031 C 
ATOM     44  C   UNL A   1      40.906  26.482  28.065  1.00  0.00     0.029 A 
ATOM     45  N   UNL A   1      43.062  26.956  27.714  1.00  0.00    -0.354 N 
ATOM     46  C   UNL A   1      44.565  30.981  28.181  1.00  0.00     0.074 A 
ATOM     47  C   UNL A   1      43.501  31.894  28.541  1.00  0.00     0.031 C 
ATOM     48  C   UNL A   1      41.511  25.344  27.686  1.00  0.00     0.029 A 
ATOM     49  C   UNL A   1      42.925  25.614  27.451  1.00  0.00     0.049 A 
ATOM     50  H   UNL A   1      43.916  27.440  27.622  1.00  0.00     0.167 HD
ATOM     51  C   UNL A   1      45.855  31.346  27.988  1.00  0.00     0.037 A 
ATOM     52  C   UNL A   1      43.840  24.700  27.074  1.00  0.00     0.037 A 
ATOM     53  C   UNL A   1      46.916  30.428  27.659  1.00  0.00     0.049 A 
ATOM     54  C   UNL A   1      45.274  25.118  26.921  1.00  0.00     0.074 A 
ATOM     55  C   UNL A   1      48.267  30.687  27.509  1.00  0.00     0.029 A 
ATOM     56  N   UNL A   1      46.744  29.071  27.428  1.00  0.00    -0.354 N 
ATOM     57  N   UNL A   1      45.805  26.308  27.068  1.00  0.00    -0.248 NA
ATOM     58  C   UNL A   1      46.237  24.067  26.565  1.00  0.00     0.031 C 
ATOM     59  C   UNL A   1      48.908  29.492  27.158  1.00  0.00     0.029 A 
ATOM     60  C   UNL A   1      47.960  28.481  27.124  1.00  0.00     0.049 A 
ATOM     61  H   UNL A   1      45.883  28.595  27.474  1.00  0.00     0.167 HD
ATOM     62  C   UNL A   1      47.166  26.148  26.836  1.00  0.00     0.074 A 
ATOM     63  C   UNL A   1      47.379  24.741  26.563  1.00  0.00     0.031 C 
ATOM     64  C   UNL A   1      48.151  27.082  26.843  1.00  0.00     0.037 A 
BRANCH  51  65
ATOM     65  C   UNL A   1      46.196  32.805  28.140  1.00  0.00     0.058 A 
ATOM     66  C   UNL A   1      46.643  33.332  29.362  1.00  0.00     0.135 A 
ATOM     67  C   UNL A   1      46.105  33.679  27.045  1.00  0.00     0.135 A 
ATOM     68  F   UNL A   1      46.735  32.545  30.444  1.00  0.00    -0.206 F 
ATOM     69  C   UNL A   1      46.959  34.680  29.501  1.00  0.00     0.059 A 
ATOM     70  C   UNL A   1      46.439  35.027  27.155  1.00  0.00     0.059 A 
ATOM     71  F   UNL A   1      45.686  33.228  25.852  1.00  0.00    -0.206 F 
ATOM     72  C   UNL A   1      46.850  35.521  28.393  1.00  0.00     0.060 A 
BRANCH  72  73
ATOM     73  S   UNL A   1      47.262  37.268  28.589  1.00  0.00     0.124 S 
ATOM     74  O   UNL A   1      46.098  37.761  29.318  1.00  0.00    -0.237 OA
ATOM     75  O   UNL A   1      48.508  37.214  29.347  1.00  0.00    -0.237 OA
ATOM     76  O   UNL A   1      47.390  37.743  27.215  1.00  0.00    -0.744 OA
ENDBRANCH  72  73
ENDBRANCH  51  65
BRANCH  52  77
ATOM     77  C   UNL A   1      43.427  23.288  26.861  1.00  0.00     0.058 A 
ATOM     78  C   UNL A   1      43.352  22.747  25.570  1.00  0.00     0.135 A 
ATOM     79  C   UNL A   1      43.124  22.448  27.942  1.00  0.00     0.135 A 
ATOM     80  F   UNL A   1      43.629  23.515  24.504  1.00  0.00    -0.206 F 
ATOM     81  C   UNL A   1      42.976  21.426  25.354  1.00  0.00     0.059 A 
ATOM     82  C   UNL A   1      42.768  21.116  27.754  1.00  0.00     0.059 A 
ATOM     83  F   UNL A   1      43.201  22.914  29.199  1.00  0.00    -0.206 F 
ATOM     84  C   UNL A   1      42.688  20.616  26.455  1.00  0.00     0.060 A 
BRANCH  84  85
ATOM     85  S   UNL A   1      42.256  18.886  26.171  1.00  0.00     0.124 S 
ATOM     86  O   UNL A   1      42.523  18.300  27.479  1.00  0.00    -0.237 OA
ATOM     87  O   UNL A   1      40.852  18.976  25.785  1.00  0.00    -0.237 OA
ATOM     88  O   UNL A   1      43.167  18.487  25.101  1.00  0.00    -0.744 OA
ENDBRANCH  84  85
ENDBRANCH  52  77
BRANCH  64  89
ATOM     89  C   UNL A   1      49.544  26.597  26.553  1.00  0.00     0.058 A 
ATOM     90  C   UNL A   1      50.036  26.526  25.240  1.00  0.00     0.135 A 
ATOM     91  C   UNL A   1      50.396  26.204  27.596  1.00  0.00     0.135 A 
ATOM     92  F   UNL A   1      49.258  26.886  24.207  1.00  0.00    -0.206 F 
ATOM     93  C   UNL A   1      51.310  26.041  24.968  1.00  0.00     0.059 A 
ATOM     94  C   UNL A   1      51.683  25.740  27.349  1.00  0.00     0.059 A 
ATOM     95  F   UNL A   1      49.978  26.266  28.871  1.00  0.00    -0.206 F 
ATOM     96  C   UNL A   1      52.124  25.642  26.029  1.00  0.00     0.060 A 
BRANCH  96  97
ATOM     97  S   UNL A   1      53.775  25.007  25.669  1.00  0.00     0.124 S 
ATOM     98  O   UNL A   1      53.489  23.609  25.360  1.00  0.00    -0.237 OA
ATOM     99  O   UNL A   1      54.194  25.833  24.541  1.00  0.00    -0.237 OA
ATOM    100  O   UNL A   1      54.504  25.239  26.912  1.00  0.00    -0.744 OA
ENDBRANCH  96  97
ENDBRANCH  64  89
ENDBRANCH  38  39
ENDBRANCH  30  33
ENDBRANCH  28  29
ENDBRANCH   1  28
TORSDOF 15
ENDMDL
MODEL 3
REMARK VINA RESULT:     -12.3      5.910     14.107
REMARK SMILES O=C(Nc1cccc(C(=O)NCCCNC(=O)c2ccc(-c3c4nc(c(-c5c(F)cc(S(=O)(=O)[O-])cc5F)c5ccc([nH]5)c(-c5c(F)cc(S(=O)(=O)[O-])cc5F)c5nc(c(-c6c(F)cc(S(=O)(=O)[O-])cc6F)c6ccc3[nH]6)C=C5)C=C4)cc2)c1)Nc1cc(Cl)c(Cl)cc1Cl
REMARK SMILES IDX 13 1 12 2 11 3 9 4 10 5 8 7 4 8 5 9 84 10 6 11 7 12 3 13
REMARK SMILES IDX 1 14 2 15 85 16 86 19 87 20 93 21 88 22 92 23 94 24 89 25
REMARK SMILES IDX 90 26 91 27 14 28 15 29 16 30 17 32 18 33 19 34 83 35 20 36
REMARK SMILES IDX 82 37 21 38 22 39 23 40 76 41 24 42 81 43 75 44 77 45 25 46
REMARK SMILES IDX 80 47 74 48 73 49 26 51 60 52 39 53 59 54 40 55 43 56 58 57
REMARK SMILES IDX 78 58 41 59 42 60 57 62 79 63 44 64 27 65 28 66 37 67 29 68
REMARK SMILES IDX 30 69 36 70 38 71 31 72 32 73 33 74 34 75 35 76 61 77 62 78
REMARK SMILES IDX 71 79 63 80 64 81 70 82 72 83 65 84 66 85 67 86 68 87 69 88
REMARK SMILES IDX 45 89 46 90 55 91 47 92 48 93 54 94 56 95 49 96 50 97 51 98
REMARK SMILES IDX 52 99 53 100
REMARK H PARENT 11 6 3 17 85 18 15 31 77 50 43 61
REMARK Flexibility Score: inf
ROOT
ATOM      1  C   UNL A   1      34.355  32.524  28.394  1.00  0.00     0.042 C 
ENDROOT
BRANCH   1   2
ATOM      2  C   UNL A   1      34.782  33.992  28.381  1.00  0.00     0.118 C 
BRANCH   2   3
ATOM      3  N   UNL A   1      33.641  34.887  28.305  1.00  0.00    -0.352 N 
ATOM      4  C   UNL A   1      33.043  35.732  29.202  1.00  0.00     0.251 C 
ATOM      5  O   UNL A   1      32.112  36.420  28.779  1.00  0.00    -0.269 OA
ATOM      6  H   UNL A   1      33.207  34.886  27.422  1.00  0.00     0.163 HD
BRANCH   4   7
ATOM      7  C   UNL A   1      33.464  35.900  30.626  1.00  0.00     0.041 A 
ATOM      8  C   UNL A   1      34.409  35.154  32.747  1.00  0.00     0.043 A 
ATOM      9  C   UNL A   1      34.144  36.399  33.317  1.00  0.00     0.026 A 
ATOM     10  C   UNL A   1      34.008  34.895  31.429  1.00  0.00     0.040 A 
ATOM     11  C   UNL A   1      33.578  37.408  32.543  1.00  0.00     0.003 A 
ATOM     12  C   UNL A   1      33.258  37.163  31.205  1.00  0.00     0.014 A 
BRANCH   8  13
ATOM     13  N   UNL A   1      35.062  34.190  33.532  1.00  0.00    -0.308 N 
ATOM     14  O   UNL A   1      36.692  32.765  34.134  1.00  0.00    -0.248 OA
ATOM     15  C   UNL A   1      36.362  33.746  33.475  1.00  0.00     0.323 C 
ATOM     16  N   UNL A   1      37.237  34.580  32.819  1.00  0.00    -0.306 N 
ATOM     17  H   UNL A   1      34.505  33.768  34.226  1.00  0.00     0.171 HD
ATOM     18  H   UNL A   1      36.878  35.438  32.496  1.00  0.00     0.171 HD
BRANCH  16  19
ATOM     19  C   UNL A   1      38.603  34.322  32.566  1.00  0.00     0.063 A 
ATOM     20  C   UNL A   1      39.481  34.619  33.619  1.00  0.00     0.049 A 
ATOM     21  C   UNL A   1      39.132  33.833  31.359  1.00  0.00     0.066 A 
ATOM     22  C   UNL A   1      40.850  34.353  33.508  1.00  0.00     0.061 A 
ATOM     23  C   UNL A   1      40.505  33.573  31.248  1.00  0.00     0.044 A 
ATOM     24  Cl  UNL A   1      38.206  33.705  29.905  1.00  0.00    -0.082 Cl
ATOM     25  Cl  UNL A   1      41.845  34.705  34.877  1.00  0.00    -0.083 Cl
ATOM     26  C   UNL A   1      41.361  33.815  32.325  1.00  0.00     0.061 A 
ATOM     27  Cl  UNL A   1      43.037  33.453  32.125  1.00  0.00    -0.083 Cl
ENDBRANCH  16  19
ENDBRANCH   8  13
ENDBRANCH   4   7
ENDBRANCH   2   3
ENDBRANCH   1   2
BRANCH   1  28
ATOM     28  C   UNL A   1      35.498  31.557  28.707  1.00  0.00     0.118 C 
BRANCH  28  29
ATOM     29  N   UNL A   1      35.593  31.285  30.133  1.00  0.00    -0.352 N 
ATOM     30  C   UNL A   1      36.514  30.570  30.852  1.00  0.00     0.251 C 
ATOM     31  H   UNL A   1      34.872  31.683  30.674  1.00  0.00     0.163 HD
ATOM     32  O   UNL A   1      36.238  30.272  32.013  1.00  0.00    -0.269 OA
BRANCH  30  33
ATOM     33  C   UNL A   1      37.815  30.156  30.274  1.00  0.00     0.039 A 
ATOM     34  C   UNL A   1      38.875  29.909  31.152  1.00  0.00     0.014 A 
ATOM     35  C   UNL A   1      38.036  30.104  28.894  1.00  0.00     0.014 A 
ATOM     36  C   UNL A   1      40.139  29.589  30.653  1.00  0.00     0.010 A 
ATOM     37  C   UNL A   1      39.286  29.722  28.396  1.00  0.00     0.010 A 
ATOM     38  C   UNL A   1      40.354  29.478  29.270  1.00  0.00    -0.014 A 
BRANCH  38  39
ATOM     39  C   UNL A   1      41.694  29.104  28.750  1.00  0.00     0.031 A 
ATOM     40  C   UNL A   1      42.802  30.121  28.672  1.00  0.00     0.074 A 
ATOM     41  C   UNL A   1      41.907  27.842  28.332  1.00  0.00     0.049 A 
ATOM     42  N   UNL A   1      44.043  29.960  28.285  1.00  0.00    -0.248 NA
ATOM     43  C   UNL A   1      42.470  31.502  29.053  1.00  0.00     0.031 C 
ATOM     44  C   UNL A   1      40.895  26.783  28.295  1.00  0.00     0.029 A 
ATOM     45  N   UNL A   1      43.042  27.230  27.864  1.00  0.00    -0.354 N 
ATOM     46  C   UNL A   1      44.636  31.215  28.367  1.00  0.00     0.074 A 
ATOM     47  C   UNL A   1      43.605  32.137  28.796  1.00  0.00     0.031 C 
ATOM     48  C   UNL A   1      41.462  25.646  27.862  1.00  0.00     0.029 A 
ATOM     49  C   UNL A   1      42.870  25.897  27.573  1.00  0.00     0.049 A 
ATOM     50  H   UNL A   1      43.900  27.701  27.748  1.00  0.00     0.167 HD
ATOM     51  C   UNL A   1      45.923  31.564  28.129  1.00  0.00     0.037 A 
ATOM     52  C   UNL A   1      43.751  24.978  27.135  1.00  0.00     0.037 A 
ATOM     53  C   UNL A   1      46.952  30.636  27.731  1.00  0.00     0.049 A 
ATOM     54  C   UNL A   1      45.185  25.376  26.931  1.00  0.00     0.074 A 
ATOM     55  C   UNL A   1      48.300  30.876  27.530  1.00  0.00     0.029 A 
ATOM     56  N   UNL A   1      46.746  29.288  27.474  1.00  0.00    -0.354 N 
ATOM     57  N   UNL A   1      45.743  26.553  27.085  1.00  0.00    -0.248 NA
ATOM     58  C   UNL A   1      46.112  24.319  26.509  1.00  0.00     0.031 C 
ATOM     59  C   UNL A   1      48.904  29.679  27.123  1.00  0.00     0.029 A 
ATOM     60  C   UNL A   1      47.937  28.687  27.104  1.00  0.00     0.049 A 
ATOM     61  H   UNL A   1      45.879  28.827  27.545  1.00  0.00     0.167 HD
ATOM     62  C   UNL A   1      47.090  26.376  26.791  1.00  0.00     0.074 A 
ATOM     63  C   UNL A   1      47.266  24.972  26.474  1.00  0.00     0.031 C 
ATOM     64  C   UNL A   1      48.091  27.292  26.780  1.00  0.00     0.037 A 
BRANCH  51  65
ATOM     65  C   UNL A   1      46.297  33.012  28.302  1.00  0.00     0.058 A 
ATOM     66  C   UNL A   1      46.728  33.517  29.539  1.00  0.00     0.135 A 
ATOM     67  C   UNL A   1      46.253  33.898  27.214  1.00  0.00     0.135 A 
ATOM     68  F   UNL A   1      46.776  32.717  30.616  1.00  0.00    -0.206 F 
ATOM     69  C   UNL A   1      47.073  34.855  29.699  1.00  0.00     0.059 A 
ATOM     70  C   UNL A   1      46.617  35.236  27.345  1.00  0.00     0.059 A 
ATOM     71  F   UNL A   1      45.850  33.469  26.008  1.00  0.00    -0.206 F 
ATOM     72  C   UNL A   1      47.012  35.709  28.596  1.00  0.00     0.060 A 
BRANCH  72  73
ATOM     73  S   UNL A   1      47.462  37.442  28.819  1.00  0.00     0.124 S 
ATOM     74  O   UNL A   1      46.423  37.898  29.737  1.00  0.00    -0.237 OA
ATOM     75  O   UNL A   1      48.806  37.349  29.380  1.00  0.00    -0.237 OA
ATOM     76  O   UNL A   1      47.388  37.988  27.467  1.00  0.00    -0.744 OA
ENDBRANCH  72  73
ENDBRANCH  51  65
BRANCH  52  77
ATOM     77  C   UNL A   1      43.304  23.580  26.905  1.00  0.00     0.058 A 
ATOM     78  C   UNL A   1      43.105  23.093  25.605  1.00  0.00     0.135 A 
ATOM     79  C   UNL A   1      43.092  22.698  27.974  1.00  0.00     0.135 A 
ATOM     80  F   UNL A   1      43.292  23.902  24.550  1.00  0.00    -0.206 F 
ATOM     81  C   UNL A   1      42.696  21.784  25.372  1.00  0.00     0.059 A 
ATOM     82  C   UNL A   1      42.705  21.378  27.767  1.00  0.00     0.059 A 
ATOM     83  F   UNL A   1      43.288  23.112  29.236  1.00  0.00    -0.206 F 
ATOM     84  C   UNL A   1      42.500  20.933  26.461  1.00  0.00     0.060 A 
BRANCH  84  85
ATOM     85  S   UNL A   1      42.024  19.219  26.149  1.00  0.00     0.124 S 
ATOM     86  O   UNL A   1      42.841  18.896  24.985  1.00  0.00    -0.237 OA
ATOM     87  O   UNL A   1      42.401  18.561  27.395  1.00  0.00    -0.237 OA
ATOM     88  O   UNL A   1      40.587  19.311  25.908  1.00  0.00    -0.744 OA
ENDBRANCH  84  85
ENDBRANCH  52  77
BRANCH  64  89
ATOM     89  C   UNL A   1      49.461  26.792  26.419  1.00  0.00     0.058 A 
ATOM     90  C   UNL A   1      49.978  26.945  25.122  1.00  0.00     0.135 A 
ATOM     91  C   UNL A   1      50.267  26.156  27.376  1.00  0.00     0.135 A 
ATOM     92  F   UNL A   1      49.245  27.542  24.169  1.00  0.00    -0.206 F 
ATOM     93  C   UNL A   1      51.230  26.448  24.777  1.00  0.00     0.059 A 
ATOM     94  C   UNL A   1      51.531  25.673  27.059  1.00  0.00     0.059 A 
ATOM     95  F   UNL A   1      49.823  25.996  28.634  1.00  0.00    -0.206 F 
ATOM     96  C   UNL A   1      51.996  25.806  25.751  1.00  0.00     0.060 A 
BRANCH  96  97
ATOM     97  S   UNL A   1      53.617  25.156  25.294  1.00  0.00     0.124 S 
ATOM     98  O   UNL A   1      54.473  25.766  26.307  1.00  0.00    -0.237 OA
ATOM     99  O   UNL A   1      53.426  23.714  25.411  1.00  0.00    -0.237 OA
ATOM    100  O   UNL A   1      53.807  25.648  23.933  1.00  0.00    -0.744 OA
ENDBRANCH  96  97
ENDBRANCH  64  89
ENDBRANCH  38  39
ENDBRANCH  30  33
ENDBRANCH  28  29
ENDBRANCH   1  28
TORSDOF 15
ENDMDL
