MODEL 1
REMARK VINA RESULT:     -11.3      0.000      0.000
REMARK SMILES [NH3+]CC[C@@H](C(=O)NCCCNC(=O)c1ccc(-c2c3nc(c(-c4c(F)cc(S(=O)(=O)[O-])cc4F)c4ccc([nH]4)c(-c4c(F)cc(S(=O)(=O)[O-])cc4F)c4nc(c(-c5c(F)cc(S(=O)(=O)[O-])cc5F)c5ccc2[nH]5)C=C4)C=C3)cc1)c1ccc(F)cc1
REMARK SMILES IDX 9 1 8 2 7 3 5 4 6 5 4 7 3 8 2 9 1 10 80 14 81 15 86 16 82 17
REMARK SMILES IDX 85 18 83 19 84 20 10 21 11 22 12 23 13 25 14 26 15 27 79 28
REMARK SMILES IDX 16 29 78 30 17 31 18 32 19 33 72 34 20 35 77 36 71 37 73 38
REMARK SMILES IDX 21 39 76 40 70 41 69 42 22 44 56 45 35 46 55 47 36 48 39 49
REMARK SMILES IDX 54 50 74 51 37 52 38 53 53 55 75 56 40 57 23 58 24 59 33 60
REMARK SMILES IDX 25 61 26 62 32 63 34 64 27 65 28 66 29 67 30 68 31 69 57 70
REMARK SMILES IDX 58 71 67 72 59 73 60 74 66 75 68 76 61 77 62 78 63 79 64 80
REMARK SMILES IDX 65 81 41 82 42 83 51 84 43 85 44 86 50 87 52 88 45 89 46 90
REMARK SMILES IDX 47 91 48 92 49 93
REMARK H PARENT 7 6 1 11 1 12 1 13 11 24 73 43 39 54
REMARK Flexibility Score: inf
ROOT
ATOM      1  C   UNL A   1      33.689  28.621  27.266  1.00  0.00     0.042 C 
ENDROOT
BRANCH   1   2
ATOM      2  C   UNL A   1      32.684  29.492  26.515  1.00  0.00     0.117 C 
BRANCH   2   3
ATOM      3  N   UNL A   1      32.995  29.506  25.100  1.00  0.00    -0.356 N 
ATOM      4  C   UNL A   1      32.324  29.004  24.028  1.00  0.00     0.227 C 
ATOM      5  O   UNL A   1      32.986  28.919  22.988  1.00  0.00    -0.274 OA
ATOM      6  H   UNL A   1      33.840  29.957  24.874  1.00  0.00     0.163 HD
BRANCH   4   7
ATOM      7  C   UNL A   1      30.819  28.646  24.089  1.00  0.00     0.114 C 
BRANCH   7   8
ATOM      8  C   UNL A   1      30.439  27.290  23.441  1.00  0.00     0.079 C 
BRANCH   8   9
ATOM      9  C   UNL A   1      29.527  26.331  24.201  1.00  0.00     0.259 C 
BRANCH   9  10
ATOM     10  N   UNL A   1      28.100  26.487  23.959  1.00  0.00    -0.358 N 
ATOM     11  H   UNL A   1      27.957  27.053  23.123  1.00  0.00     0.344 HD
ATOM     12  H   UNL A   1      27.667  26.948  24.759  1.00  0.00     0.344 HD
ATOM     13  H   UNL A   1      27.677  25.569  23.826  1.00  0.00     0.344 HD
ENDBRANCH   9  10
ENDBRANCH   8   9
ENDBRANCH   7   8
BRANCH   7  14
ATOM     14  C   UNL A   1      30.021  29.755  23.365  1.00  0.00    -0.035 A 
ATOM     15  C   UNL A   1      29.634  30.924  24.058  1.00  0.00     0.007 A 
ATOM     16  C   UNL A   1      29.620  29.604  22.030  1.00  0.00     0.007 A 
ATOM     17  C   UNL A   1      28.877  31.914  23.434  1.00  0.00     0.039 A 
ATOM     18  C   UNL A   1      28.858  30.599  21.407  1.00  0.00     0.039 A 
ATOM     19  C   UNL A   1      28.495  31.741  22.114  1.00  0.00     0.123 A 
ATOM     20  F   UNL A   1      27.755  32.684  21.514  1.00  0.00    -0.207 F 
ENDBRANCH   7  14
ENDBRANCH   4   7
ENDBRANCH   2   3
ENDBRANCH   1   2
BRANCH   1  21
ATOM     21  C   UNL A   1      35.044  29.277  27.473  1.00  0.00     0.118 C 
BRANCH  21  22
ATOM     22  N   UNL A   1      35.084  30.110  28.664  1.00  0.00    -0.352 N 
ATOM     23  C   UNL A   1      36.118  30.314  29.551  1.00  0.00     0.251 C 
ATOM     24  H   UNL A   1      34.254  30.600  28.864  1.00  0.00     0.163 HD
ATOM     25  O   UNL A   1      35.905  30.901  30.605  1.00  0.00    -0.269 OA
BRANCH  23  26
ATOM     26  C   UNL A   1      37.473  29.798  29.243  1.00  0.00     0.039 A 
ATOM     27  C   UNL A   1      37.935  29.841  27.925  1.00  0.00     0.014 A 
ATOM     28  C   UNL A   1      38.288  29.278  30.251  1.00  0.00     0.014 A 
ATOM     29  C   UNL A   1      39.241  29.434  27.633  1.00  0.00     0.010 A 
ATOM     30  C   UNL A   1      39.616  28.967  29.977  1.00  0.00     0.010 A 
ATOM     31  C   UNL A   1      40.106  29.032  28.664  1.00  0.00    -0.014 A 
BRANCH  31  32
ATOM     32  C   UNL A   1      41.520  28.649  28.406  1.00  0.00     0.031 A 
ATOM     33  C   UNL A   1      42.585  29.715  28.378  1.00  0.00     0.074 A 
ATOM     34  C   UNL A   1      41.833  27.373  28.106  1.00  0.00     0.049 A 
ATOM     35  N   UNL A   1      43.839  29.623  28.020  1.00  0.00    -0.248 NA
ATOM     36  C   UNL A   1      42.172  31.073  28.772  1.00  0.00     0.031 C 
ATOM     37  C   UNL A   1      40.888  26.254  28.067  1.00  0.00     0.029 A 
ATOM     38  N   UNL A   1      43.032  26.802  27.753  1.00  0.00    -0.354 N 
ATOM     39  C   UNL A   1      44.356  30.910  28.120  1.00  0.00     0.074 A 
ATOM     40  C   UNL A   1      43.267  31.774  28.518  1.00  0.00     0.031 C 
ATOM     41  C   UNL A   1      41.544  25.133  27.726  1.00  0.00     0.029 A 
ATOM     42  C   UNL A   1      42.944  25.458  27.470  1.00  0.00     0.049 A 
ATOM     43  H   UNL A   1      43.876  27.307  27.709  1.00  0.00     0.167 HD
ATOM     44  C   UNL A   1      45.628  31.331  27.918  1.00  0.00     0.037 A 
ATOM     45  C   UNL A   1      43.879  24.591  27.034  1.00  0.00     0.037 A 
ATOM     46  C   UNL A   1      46.711  30.457  27.552  1.00  0.00     0.049 A 
ATOM     47  C   UNL A   1      45.284  25.082  26.804  1.00  0.00     0.074 A 
ATOM     48  C   UNL A   1      48.047  30.774  27.375  1.00  0.00     0.029 A 
ATOM     49  N   UNL A   1      46.585  29.098  27.308  1.00  0.00    -0.354 N 
ATOM     50  N   UNL A   1      45.766  26.294  26.947  1.00  0.00    -0.248 NA
ATOM     51  C   UNL A   1      46.275  24.091  26.358  1.00  0.00     0.031 C 
ATOM     52  C   UNL A   1      48.719  29.616  26.975  1.00  0.00     0.029 A 
ATOM     53  C   UNL A   1      47.816  28.564  26.965  1.00  0.00     0.049 A 
ATOM     54  H   UNL A   1      45.745  28.588  27.369  1.00  0.00     0.167 HD
ATOM     55  C   UNL A   1      47.122  26.202  26.651  1.00  0.00     0.074 A 
ATOM     56  C   UNL A   1      47.384  24.818  26.317  1.00  0.00     0.031 C 
ATOM     57  C   UNL A   1      48.065  27.176  26.663  1.00  0.00     0.037 A 
BRANCH  44  58
ATOM     58  C   UNL A   1      45.917  32.799  28.089  1.00  0.00     0.058 A 
ATOM     59  C   UNL A   1      46.314  33.336  29.325  1.00  0.00     0.135 A 
ATOM     60  C   UNL A   1      45.833  33.674  26.994  1.00  0.00     0.135 A 
ATOM     61  F   UNL A   1      46.396  32.549  30.410  1.00  0.00    -0.206 F 
ATOM     62  C   UNL A   1      46.584  34.692  29.476  1.00  0.00     0.059 A 
ATOM     63  C   UNL A   1      46.132  35.028  27.115  1.00  0.00     0.059 A 
ATOM     64  F   UNL A   1      45.460  33.216  25.788  1.00  0.00    -0.206 F 
ATOM     65  C   UNL A   1      46.491  35.530  28.365  1.00  0.00     0.060 A 
BRANCH  65  66
ATOM     66  S   UNL A   1      46.852  37.285  28.579  1.00  0.00     0.124 S 
ATOM     67  O   UNL A   1      45.686  37.900  27.953  1.00  0.00    -0.237 OA
ATOM     68  O   UNL A   1      46.933  37.412  30.031  1.00  0.00    -0.237 OA
ATOM     69  O   UNL A   1      48.113  37.463  27.866  1.00  0.00    -0.744 OA
ENDBRANCH  65  66
ENDBRANCH  44  58
BRANCH  45  70
ATOM     70  C   UNL A   1      43.521  23.164  26.798  1.00  0.00     0.058 A 
ATOM     71  C   UNL A   1      43.230  22.307  27.870  1.00  0.00     0.135 A 
ATOM     72  C   UNL A   1      43.449  22.633  25.501  1.00  0.00     0.135 A 
ATOM     73  F   UNL A   1      43.292  22.766  29.131  1.00  0.00    -0.206 F 
ATOM     74  C   UNL A   1      42.898  20.971  27.668  1.00  0.00     0.059 A 
ATOM     75  C   UNL A   1      43.091  21.307  25.272  1.00  0.00     0.059 A 
ATOM     76  F   UNL A   1      43.700  23.413  24.439  1.00  0.00    -0.206 F 
ATOM     77  C   UNL A   1      42.828  20.481  26.364  1.00  0.00     0.060 A 
BRANCH  77  78
ATOM     78  S   UNL A   1      42.352  18.757  26.112  1.00  0.00     0.124 S 
ATOM     79  O   UNL A   1      42.516  18.208  27.453  1.00  0.00    -0.237 OA
ATOM     80  O   UNL A   1      40.978  18.886  25.637  1.00  0.00    -0.237 OA
ATOM     81  O   UNL A   1      43.311  18.286  25.116  1.00  0.00    -0.744 OA
ENDBRANCH  77  78
ENDBRANCH  45  70
BRANCH  57  82
ATOM     82  C   UNL A   1      49.488  26.783  26.373  1.00  0.00     0.058 A 
ATOM     83  C   UNL A   1      50.298  26.158  27.333  1.00  0.00     0.135 A 
ATOM     84  C   UNL A   1      50.009  26.949  25.079  1.00  0.00     0.135 A 
ATOM     85  F   UNL A   1      49.851  25.983  28.586  1.00  0.00    -0.206 F 
ATOM     86  C   UNL A   1      51.580  25.715  27.021  1.00  0.00     0.059 A 
ATOM     87  C   UNL A   1      51.276  26.488  24.738  1.00  0.00     0.059 A 
ATOM     88  F   UNL A   1      49.271  27.533  24.122  1.00  0.00    -0.206 F 
ATOM     89  C   UNL A   1      52.056  25.875  25.718  1.00  0.00     0.060 A 
BRANCH  89  90
ATOM     90  S   UNL A   1      53.692  25.232  25.309  1.00  0.00     0.124 S 
ATOM     91  O   UNL A   1      53.504  23.798  25.508  1.00  0.00    -0.237 OA
ATOM     92  O   UNL A   1      53.860  25.663  23.925  1.00  0.00    -0.237 OA
ATOM     93  O   UNL A   1      54.569  25.890  26.274  1.00  0.00    -0.744 OA
ENDBRANCH  89  90
ENDBRANCH  57  82
ENDBRANCH  31  32
ENDBRANCH  23  26
ENDBRANCH  21  22
ENDBRANCH   1  21
TORSDOF 17
ENDMDL
MODEL 2
REMARK VINA RESULT:     -11.2      7.616     13.029
REMARK SMILES [NH3+]CC[C@@H](C(=O)NCCCNC(=O)c1ccc(-c2c3nc(c(-c4c(F)cc(S(=O)(=O)[O-])cc4F)c4ccc([nH]4)c(-c4c(F)cc(S(=O)(=O)[O-])cc4F)c4nc(c(-c5c(F)cc(S(=O)(=O)[O-])cc5F)c5ccc2[nH]5)C=C4)C=C3)cc1)c1ccc(F)cc1
REMARK SMILES IDX 9 1 8 2 7 3 5 4 6 5 4 7 3 8 2 9 1 10 80 14 81 15 86 16 82 17
REMARK SMILES IDX 85 18 83 19 84 20 10 21 11 22 12 23 13 25 14 26 15 27 79 28
REMARK SMILES IDX 16 29 78 30 17 31 18 32 19 33 72 34 20 35 77 36 71 37 73 38
REMARK SMILES IDX 21 39 76 40 70 41 69 42 22 44 56 45 35 46 55 47 36 48 39 49
REMARK SMILES IDX 54 50 74 51 37 52 38 53 53 55 75 56 40 57 23 58 24 59 33 60
REMARK SMILES IDX 25 61 26 62 32 63 34 64 27 65 28 66 29 67 30 68 31 69 57 70
REMARK SMILES IDX 58 71 67 72 59 73 60 74 66 75 68 76 61 77 62 78 63 79 64 80
REMARK SMILES IDX 65 81 41 82 42 83 51 84 43 85 44 86 50 87 52 88 45 89 46 90
REMARK SMILES IDX 47 91 48 92 49 93
REMARK H PARENT 7 6 1 11 1 12 1 13 11 24 73 43 39 54
REMARK Flexibility Score: inf
ROOT
ATOM      1  C   UNL A   1      37.551  23.180  25.704  1.00  0.00     0.042 C 
ENDROOT
BRANCH   1   2
ATOM      2  C   UNL A   1      36.065  23.520  25.789  1.00  0.00     0.117 C 
BRANCH   2   3
ATOM      3  N   UNL A   1      35.378  22.553  26.620  1.00  0.00    -0.356 N 
ATOM      4  C   UNL A   1      34.296  21.766  26.376  1.00  0.00     0.227 C 
ATOM      5  O   UNL A   1      33.775  21.264  27.377  1.00  0.00    -0.274 OA
ATOM      6  H   UNL A   1      35.761  22.448  27.521  1.00  0.00     0.163 HD
BRANCH   4   7
ATOM      7  C   UNL A   1      33.809  21.454  24.938  1.00  0.00     0.114 C 
BRANCH   7   8
ATOM      8  C   UNL A   1      32.420  22.037  24.575  1.00  0.00     0.079 C 
BRANCH   8   9
ATOM      9  C   UNL A   1      32.219  22.684  23.206  1.00  0.00     0.259 C 
BRANCH   9  10
ATOM     10  N   UNL A   1      32.122  21.767  22.080  1.00  0.00    -0.358 N 
ATOM     11  H   UNL A   1      32.728  22.089  21.326  1.00  0.00     0.344 HD
ATOM     12  H   UNL A   1      31.157  21.735  21.750  1.00  0.00     0.344 HD
ATOM     13  H   UNL A   1      32.411  20.835  22.376  1.00  0.00     0.344 HD
ENDBRANCH   9  10
ENDBRANCH   8   9
ENDBRANCH   7   8
BRANCH   7  14
ATOM     14  C   UNL A   1      33.736  19.919  24.767  1.00  0.00    -0.035 A 
ATOM     15  C   UNL A   1      34.918  19.162  24.606  1.00  0.00     0.007 A 
ATOM     16  C   UNL A   1      32.502  19.255  24.714  1.00  0.00     0.007 A 
ATOM     17  C   UNL A   1      34.869  17.784  24.406  1.00  0.00     0.039 A 
ATOM     18  C   UNL A   1      32.457  17.871  24.512  1.00  0.00     0.039 A 
ATOM     19  C   UNL A   1      33.637  17.151  24.359  1.00  0.00     0.123 A 
ATOM     20  F   UNL A   1      33.584  15.828  24.153  1.00  0.00    -0.207 F 
ENDBRANCH   7  14
ENDBRANCH   4   7
ENDBRANCH   2   3
ENDBRANCH   1   2
BRANCH   1  21
ATOM     21  C   UNL A   1      38.446  24.113  26.502  1.00  0.00     0.118 C 
BRANCH  21  22
ATOM     22  N   UNL A   1      39.859  23.890  26.242  1.00  0.00    -0.352 N 
ATOM     23  C   UNL A   1      40.947  24.637  26.636  1.00  0.00     0.251 C 
ATOM     24  H   UNL A   1      40.068  23.090  25.708  1.00  0.00     0.163 HD
ATOM     25  O   UNL A   1      42.050  24.400  26.159  1.00  0.00    -0.269 OA
BRANCH  23  26
ATOM     26  C   UNL A   1      40.776  25.741  27.611  1.00  0.00     0.039 A 
ATOM     27  C   UNL A   1      39.780  25.641  28.585  1.00  0.00     0.014 A 
ATOM     28  C   UNL A   1      41.599  26.868  27.569  1.00  0.00     0.014 A 
ATOM     29  C   UNL A   1      39.659  26.637  29.561  1.00  0.00     0.010 A 
ATOM     30  C   UNL A   1      41.544  27.805  28.595  1.00  0.00     0.010 A 
ATOM     31  C   UNL A   1      40.568  27.706  29.599  1.00  0.00    -0.014 A 
BRANCH  31  32
ATOM     32  C   UNL A   1      40.515  28.753  30.654  1.00  0.00     0.031 A 
ATOM     33  C   UNL A   1      41.411  28.638  31.860  1.00  0.00     0.074 A 
ATOM     34  C   UNL A   1      39.606  29.746  30.579  1.00  0.00     0.049 A 
ATOM     35  N   UNL A   1      41.415  29.345  32.960  1.00  0.00    -0.248 NA
ATOM     36  C   UNL A   1      42.414  27.559  31.839  1.00  0.00     0.031 C 
ATOM     37  C   UNL A   1      38.659  29.948  29.480  1.00  0.00     0.029 A 
ATOM     38  N   UNL A   1      39.312  30.761  31.457  1.00  0.00    -0.354 N 
ATOM     39  C   UNL A   1      42.396  28.782  33.768  1.00  0.00     0.074 A 
ATOM     40  C   UNL A   1      42.929  27.642  33.056  1.00  0.00     0.031 C 
ATOM     41  C   UNL A   1      37.902  31.025  29.742  1.00  0.00     0.029 A 
ATOM     42  C   UNL A   1      38.270  31.562  31.049  1.00  0.00     0.049 A 
ATOM     43  H   UNL A   1      39.802  30.903  32.300  1.00  0.00     0.167 HD
ATOM     44  C   UNL A   1      42.829  29.191  34.985  1.00  0.00     0.037 A 
ATOM     45  C   UNL A   1      37.666  32.597  31.666  1.00  0.00     0.037 A 
ATOM     46  C   UNL A   1      42.313  30.346  35.671  1.00  0.00     0.049 A 
ATOM     47  C   UNL A   1      38.155  33.027  33.025  1.00  0.00     0.074 A 
ATOM     48  C   UNL A   1      42.719  30.877  36.884  1.00  0.00     0.029 A 
ATOM     49  N   UNL A   1      41.282  31.149  35.208  1.00  0.00    -0.354 N 
ATOM     50  N   UNL A   1      39.115  32.511  33.755  1.00  0.00    -0.248 NA
ATOM     51  C   UNL A   1      37.484  34.181  33.642  1.00  0.00     0.031 C 
ATOM     52  C   UNL A   1      41.900  31.970  37.176  1.00  0.00     0.029 A 
ATOM     53  C   UNL A   1      41.026  32.160  36.117  1.00  0.00     0.049 A 
ATOM     54  H   UNL A   1      40.802  31.019  34.358  1.00  0.00     0.167 HD
ATOM     55  C   UNL A   1      39.192  33.303  34.896  1.00  0.00     0.074 A 
ATOM     56  C   UNL A   1      38.179  34.329  34.762  1.00  0.00     0.031 C 
ATOM     57  C   UNL A   1      40.032  33.193  35.955  1.00  0.00     0.037 A 
BRANCH  44  58
ATOM     58  C   UNL A   1      43.913  28.386  35.651  1.00  0.00     0.058 A 
ATOM     59  C   UNL A   1      43.617  27.340  36.540  1.00  0.00     0.135 A 
ATOM     60  C   UNL A   1      45.265  28.638  35.367  1.00  0.00     0.135 A 
ATOM     61  F   UNL A   1      42.343  27.063  36.861  1.00  0.00    -0.206 F 
ATOM     62  C   UNL A   1      44.623  26.596  37.150  1.00  0.00     0.059 A 
ATOM     63  C   UNL A   1      46.286  27.884  35.938  1.00  0.00     0.059 A 
ATOM     64  F   UNL A   1      45.607  29.625  34.523  1.00  0.00    -0.206 F 
ATOM     65  C   UNL A   1      45.955  26.876  36.842  1.00  0.00     0.060 A 
BRANCH  65  66
ATOM     66  S   UNL A   1      47.245  25.896  37.637  1.00  0.00     0.124 S 
ATOM     67  O   UNL A   1      47.080  26.279  39.035  1.00  0.00    -0.237 OA
ATOM     68  O   UNL A   1      46.850  24.531  37.302  1.00  0.00    -0.237 OA
ATOM     69  O   UNL A   1      48.470  26.365  36.999  1.00  0.00    -0.744 OA
ENDBRANCH  65  66
ENDBRANCH  44  58
BRANCH  45  70
ATOM     70  C   UNL A   1      36.540  33.308  30.999  1.00  0.00     0.058 A 
ATOM     71  C   UNL A   1      36.765  34.134  29.888  1.00  0.00     0.135 A 
ATOM     72  C   UNL A   1      35.218  33.167  31.448  1.00  0.00     0.135 A 
ATOM     73  F   UNL A   1      38.013  34.308  29.424  1.00  0.00    -0.206 F 
ATOM     74  C   UNL A   1      35.726  34.810  29.257  1.00  0.00     0.059 A 
ATOM     75  C   UNL A   1      34.156  33.810  30.815  1.00  0.00     0.059 A 
ATOM     76  F   UNL A   1      34.943  32.376  32.497  1.00  0.00    -0.206 F 
ATOM     77  C   UNL A   1      34.423  34.638  29.726  1.00  0.00     0.060 A 
BRANCH  77  78
ATOM     78  S   UNL A   1      33.077  35.484  28.870  1.00  0.00     0.124 S 
ATOM     79  O   UNL A   1      32.286  35.984  29.988  1.00  0.00    -0.237 OA
ATOM     80  O   UNL A   1      33.793  36.490  28.092  1.00  0.00    -0.237 OA
ATOM     81  O   UNL A   1      32.456  34.419  28.086  1.00  0.00    -0.744 OA
ENDBRANCH  77  78
ENDBRANCH  45  70
BRANCH  57  82
ATOM     82  C   UNL A   1      39.950  34.241  37.031  1.00  0.00     0.058 A 
ATOM     83  C   UNL A   1      40.652  35.452  36.945  1.00  0.00     0.135 A 
ATOM     84  C   UNL A   1      39.075  34.063  38.115  1.00  0.00     0.135 A 
ATOM     85  F   UNL A   1      41.508  35.669  35.934  1.00  0.00    -0.206 F 
ATOM     86  C   UNL A   1      40.494  36.451  37.902  1.00  0.00     0.059 A 
ATOM     87  C   UNL A   1      38.879  35.059  39.066  1.00  0.00     0.059 A 
ATOM     88  F   UNL A   1      38.373  32.926  38.238  1.00  0.00    -0.206 F 
ATOM     89  C   UNL A   1      39.597  36.248  38.953  1.00  0.00     0.060 A 
BRANCH  89  90
ATOM     90  S   UNL A   1      39.347  37.580  40.146  1.00  0.00     0.124 S 
ATOM     91  O   UNL A   1      40.652  38.234  40.136  1.00  0.00    -0.237 OA
ATOM     92  O   UNL A   1      38.254  38.337  39.543  1.00  0.00    -0.237 OA
ATOM     93  O   UNL A   1      39.008  36.875  41.379  1.00  0.00    -0.744 OA
ENDBRANCH  89  90
ENDBRANCH  57  82
ENDBRANCH  31  32
ENDBRANCH  23  26
ENDBRANCH  21  22
ENDBRANCH   1  21
TORSDOF 17
ENDMDL
MODEL 3
REMARK VINA RESULT:     -11.2      3.629      4.855
REMARK SMILES [NH3+]CC[C@@H](C(=O)NCCCNC(=O)c1ccc(-c2c3nc(c(-c4c(F)cc(S(=O)(=O)[O-])cc4F)c4ccc([nH]4)c(-c4c(F)cc(S(=O)(=O)[O-])cc4F)c4nc(c(-c5c(F)cc(S(=O)(=O)[O-])cc5F)c5ccc2[nH]5)C=C4)C=C3)cc1)c1ccc(F)cc1
REMARK SMILES IDX 9 1 8 2 7 3 5 4 6 5 4 7 3 8 2 9 1 10 80 14 81 15 86 16 82 17
REMARK SMILES IDX 85 18 83 19 84 20 10 21 11 22 12 23 13 25 14 26 15 27 79 28
REMARK SMILES IDX 16 29 78 30 17 31 18 32 19 33 72 34 20 35 77 36 71 37 73 38
REMARK SMILES IDX 21 39 76 40 70 41 69 42 22 44 56 45 35 46 55 47 36 48 39 49
REMARK SMILES IDX 54 50 74 51 37 52 38 53 53 55 75 56 40 57 23 58 24 59 33 60
REMARK SMILES IDX 25 61 26 62 32 63 34 64 27 65 28 66 29 67 30 68 31 69 57 70
REMARK SMILES IDX 58 71 67 72 59 73 60 74 66 75 68 76 61 77 62 78 63 79 64 80
REMARK SMILES IDX 65 81 41 82 42 83 51 84 43 85 44 86 50 87 52 88 45 89 46 90
REMARK SMILES IDX 47 91 48 92 49 93
REMARK H PARENT 7 6 1 11 1 12 1 13 11 24 73 43 39 54
REMARK Flexibility Score: inf
ROOT
ATOM      1  C   UNL A   1      32.156  27.645  27.181  1.00  0.00     0.042 C 
ENDROOT
BRANCH   1   2
ATOM      2  C   UNL A   1      31.816  26.912  25.885  1.00  0.00     0.117 C 
BRANCH   2   3
ATOM      3  N   UNL A   1      32.057  25.492  26.037  1.00  0.00    -0.356 N 
ATOM      4  C   UNL A   1      32.850  24.636  25.338  1.00  0.00     0.227 C 
ATOM      5  O   UNL A   1      32.619  23.436  25.523  1.00  0.00    -0.274 OA
ATOM      6  H   UNL A   1      31.558  25.071  26.774  1.00  0.00     0.163 HD
BRANCH   4   7
ATOM      7  C   UNL A   1      34.014  25.131  24.443  1.00  0.00     0.114 C 
BRANCH   7   8
ATOM      8  C   UNL A   1      33.679  25.248  22.934  1.00  0.00     0.079 C 
BRANCH   8   9
ATOM      9  C   UNL A   1      32.316  24.775  22.436  1.00  0.00     0.259 C 
BRANCH   9  10
ATOM     10  N   UNL A   1      32.133  23.333  22.365  1.00  0.00    -0.358 N 
ATOM     11  H   UNL A   1      31.229  23.084  22.767  1.00  0.00     0.344 HD
ATOM     12  H   UNL A   1      32.876  22.869  22.888  1.00  0.00     0.344 HD
ATOM     13  H   UNL A   1      32.166  23.033  21.391  1.00  0.00     0.344 HD
ENDBRANCH   9  10
ENDBRANCH   8   9
ENDBRANCH   7   8
BRANCH   7  14
ATOM     14  C   UNL A   1      35.198  24.148  24.589  1.00  0.00    -0.035 A 
ATOM     15  C   UNL A   1      35.974  24.136  25.770  1.00  0.00     0.007 A 
ATOM     16  C   UNL A   1      35.560  23.290  23.541  1.00  0.00     0.007 A 
ATOM     17  C   UNL A   1      37.072  23.288  25.901  1.00  0.00     0.039 A 
ATOM     18  C   UNL A   1      36.664  22.441  23.676  1.00  0.00     0.039 A 
ATOM     19  C   UNL A   1      37.408  22.449  24.851  1.00  0.00     0.123 A 
ATOM     20  F   UNL A   1      38.471  21.641  24.968  1.00  0.00    -0.207 F 
ENDBRANCH   7  14
ENDBRANCH   4   7
ENDBRANCH   2   3
ENDBRANCH   1   2
BRANCH   1  21
ATOM     21  C   UNL A   1      33.504  28.348  27.158  1.00  0.00     0.118 C 
BRANCH  21  22
ATOM     22  N   UNL A   1      33.405  29.756  27.505  1.00  0.00    -0.352 N 
ATOM     23  C   UNL A   1      34.327  30.569  28.127  1.00  0.00     0.251 C 
ATOM     24  H   UNL A   1      32.557  30.192  27.260  1.00  0.00     0.163 HD
ATOM     25  O   UNL A   1      33.993  31.683  28.510  1.00  0.00    -0.269 OA
BRANCH  23  26
ATOM     26  C   UNL A   1      35.709  30.083  28.354  1.00  0.00     0.039 A 
ATOM     27  C   UNL A   1      36.614  30.079  27.289  1.00  0.00     0.014 A 
ATOM     28  C   UNL A   1      36.115  29.638  29.614  1.00  0.00     0.014 A 
ATOM     29  C   UNL A   1      37.943  29.700  27.508  1.00  0.00     0.010 A 
ATOM     30  C   UNL A   1      37.456  29.358  29.852  1.00  0.00     0.010 A 
ATOM     31  C   UNL A   1      38.385  29.376  28.800  1.00  0.00    -0.014 A 
BRANCH  31  32
ATOM     32  C   UNL A   1      39.802  29.028  29.089  1.00  0.00     0.031 A 
ATOM     33  C   UNL A   1      40.730  30.082  29.636  1.00  0.00     0.074 A 
ATOM     34  C   UNL A   1      40.277  27.806  28.774  1.00  0.00     0.049 A 
ATOM     35  N   UNL A   1      42.025  30.036  29.808  1.00  0.00    -0.248 NA
ATOM     36  C   UNL A   1      40.121  31.371  30.007  1.00  0.00     0.031 C 
ATOM     37  C   UNL A   1      39.489  26.709  28.206  1.00  0.00     0.029 A 
ATOM     38  N   UNL A   1      41.546  27.286  28.863  1.00  0.00    -0.354 N 
ATOM     39  C   UNL A   1      42.388  31.293  30.279  1.00  0.00     0.074 A 
ATOM     40  C   UNL A   1      41.185  32.096  30.314  1.00  0.00     0.031 C 
ATOM     41  C   UNL A   1      40.286  25.647  28.013  1.00  0.00     0.029 A 
ATOM     42  C   UNL A   1      41.651  25.998  28.392  1.00  0.00     0.049 A 
ATOM     43  H   UNL A   1      42.309  27.789  29.232  1.00  0.00     0.167 HD
ATOM     44  C   UNL A   1      43.609  31.733  30.667  1.00  0.00     0.037 A 
ATOM     45  C   UNL A   1      42.728  25.198  28.260  1.00  0.00     0.037 A 
ATOM     46  C   UNL A   1      44.794  30.916  30.658  1.00  0.00     0.049 A 
ATOM     47  C   UNL A   1      44.079  25.711  28.686  1.00  0.00     0.074 A 
ATOM     48  C   UNL A   1      46.069  31.248  31.080  1.00  0.00     0.029 A 
ATOM     49  N   UNL A   1      44.850  29.606  30.204  1.00  0.00    -0.354 N 
ATOM     50  N   UNL A   1      44.396  26.888  29.172  1.00  0.00    -0.248 NA
ATOM     51  C   UNL A   1      45.217  24.790  28.551  1.00  0.00     0.031 C 
ATOM     52  C   UNL A   1      46.907  30.157  30.836  1.00  0.00     0.029 A 
ATOM     53  C   UNL A   1      46.141  29.122  30.321  1.00  0.00     0.049 A 
ATOM     54  H   UNL A   1      44.085  29.097  29.852  1.00  0.00     0.167 HD
ATOM     55  C   UNL A   1      45.760  26.833  29.441  1.00  0.00     0.074 A 
ATOM     56  C   UNL A   1      46.208  25.510  29.060  1.00  0.00     0.031 C 
ATOM     57  C   UNL A   1      46.565  27.790  29.963  1.00  0.00     0.037 A 
BRANCH  44  58
ATOM     58  C   UNL A   1      43.725  33.159  31.135  1.00  0.00     0.058 A 
ATOM     59  C   UNL A   1      43.692  33.496  32.498  1.00  0.00     0.135 A 
ATOM     60  C   UNL A   1      43.911  34.199  30.210  1.00  0.00     0.135 A 
ATOM     61  F   UNL A   1      43.501  32.545  33.427  1.00  0.00    -0.206 F 
ATOM     62  C   UNL A   1      43.805  34.815  32.925  1.00  0.00     0.059 A 
ATOM     63  C   UNL A   1      44.061  35.523  30.616  1.00  0.00     0.059 A 
ATOM     64  F   UNL A   1      43.953  33.936  28.894  1.00  0.00    -0.206 F 
ATOM     65  C   UNL A   1      43.989  35.822  31.976  1.00  0.00     0.060 A 
BRANCH  65  66
ATOM     66  S   UNL A   1      44.140  37.526  32.549  1.00  0.00     0.124 S 
ATOM     67  O   UNL A   1      45.494  37.530  33.095  1.00  0.00    -0.237 OA
ATOM     68  O   UNL A   1      43.951  38.287  31.318  1.00  0.00    -0.237 OA
ATOM     69  O   UNL A   1      43.068  37.651  33.531  1.00  0.00    -0.744 OA
ENDBRANCH  65  66
ENDBRANCH  44  58
BRANCH  45  70
ATOM     70  C   UNL A   1      42.572  23.822  27.711  1.00  0.00     0.058 A 
ATOM     71  C   UNL A   1      42.456  22.715  28.564  1.00  0.00     0.135 A 
ATOM     72  C   UNL A   1      42.522  23.587  26.328  1.00  0.00     0.135 A 
ATOM     73  F   UNL A   1      42.504  22.885  29.895  1.00  0.00    -0.206 F 
ATOM     74  C   UNL A   1      42.314  21.422  28.069  1.00  0.00     0.059 A 
ATOM     75  C   UNL A   1      42.352  22.307  25.808  1.00  0.00     0.059 A 
ATOM     76  F   UNL A   1      42.612  24.613  25.468  1.00  0.00    -0.206 F 
ATOM     77  C   UNL A   1      42.260  21.229  26.688  1.00  0.00     0.060 A 
BRANCH  77  78
ATOM     78  S   UNL A   1      42.030  19.552  26.057  1.00  0.00     0.124 S 
ATOM     79  O   UNL A   1      42.957  19.532  24.932  1.00  0.00    -0.237 OA
ATOM     80  O   UNL A   1      42.405  18.739  27.210  1.00  0.00    -0.237 OA
ATOM     81  O   UNL A   1      40.613  19.516  25.708  1.00  0.00    -0.744 OA
ENDBRANCH  77  78
ENDBRANCH  45  70
BRANCH  57  82
ATOM     82  C   UNL A   1      48.004  27.436  30.224  1.00  0.00     0.058 A 
ATOM     83  C   UNL A   1      49.033  27.809  29.348  1.00  0.00     0.135 A 
ATOM     84  C   UNL A   1      48.360  26.798  31.424  1.00  0.00     0.135 A 
ATOM     85  F   UNL A   1      48.746  28.413  28.184  1.00  0.00    -0.206 F 
ATOM     86  C   UNL A   1      50.368  27.556  29.649  1.00  0.00     0.059 A 
ATOM     87  C   UNL A   1      49.689  26.562  31.759  1.00  0.00     0.059 A 
ATOM     88  F   UNL A   1      47.413  26.429  32.301  1.00  0.00    -0.206 F 
ATOM     89  C   UNL A   1      50.687  26.942  30.862  1.00  0.00     0.060 A 
BRANCH  89  90
ATOM     90  S   UNL A   1      52.426  26.686  31.272  1.00  0.00     0.124 S 
ATOM     91  O   UNL A   1      52.328  25.955  32.532  1.00  0.00    -0.237 OA
ATOM     92  O   UNL A   1      52.906  25.917  30.128  1.00  0.00    -0.237 OA
ATOM     93  O   UNL A   1      52.956  28.043  31.374  1.00  0.00    -0.744 OA
ENDBRANCH  89  90
ENDBRANCH  57  82
ENDBRANCH  31  32
ENDBRANCH  23  26
ENDBRANCH  21  22
ENDBRANCH   1  21
TORSDOF 17
ENDMDL
