MODEL 1
REMARK VINA RESULT:     -12.3      0.000      0.000
REMARK SMILES Cc1ccc(Cl)c(Nc2ccccc2C(=O)N[C@@H](C)C(=O)NCCCNC(=O)c2ccc(-c3c4nc(c(-c5c(F)cc(S(=O)(=O)[O-])cc5F)c5ccc([nH]5)c(-c5c(F)cc(S(=O)(=O)[O-])cc5F)c5nc(c(-c6c(F)cc(S(=O)(=O)[O-])cc6F)c6ccc3[nH]6)C=C5)C=C4)cc2)c1Cl
REMARK SMILES IDX 23 1 22 2 20 3 21 4 18 6 19 7 17 8 15 9 16 10 14 12 9 13
REMARK SMILES IDX 10 14 11 15 13 16 12 17 8 18 7 20 1 21 2 22 3 23 95 24 4 25
REMARK SMILES IDX 96 26 5 27 6 28 24 29 25 30 26 31 27 32 28 34 29 35 30 36
REMARK SMILES IDX 94 37 31 38 93 39 32 40 33 41 34 42 87 43 35 44 92 45 86 46
REMARK SMILES IDX 88 47 36 48 91 49 85 50 84 51 37 53 71 54 50 55 70 56 51 57
REMARK SMILES IDX 54 58 69 59 89 60 52 61 53 62 68 64 90 65 55 66 38 67 39 68
REMARK SMILES IDX 48 69 40 70 41 71 47 72 49 73 42 74 43 75 44 76 45 77 46 78
REMARK SMILES IDX 72 79 73 80 82 81 74 82 75 83 81 84 83 85 76 86 77 87 78 88
REMARK SMILES IDX 79 89 80 90 56 91 57 92 66 93 58 94 59 95 65 96 67 97 60 98
REMARK SMILES IDX 61 99 62 100 63 101 64 102
REMARK H PARENT 22 5 17 11 8 19 26 33 88 52 54 63
REMARK Flexibility Score: inf
ROOT
ATOM      1  C   UNL A   1      34.203  32.025  27.955  1.00  0.00     0.117 C 
ENDROOT
BRANCH   1   2
ATOM      2  N   UNL A   1      34.429  31.000  26.945  1.00  0.00    -0.354 N 
ATOM      3  C   UNL A   1      33.987  29.730  27.205  1.00  0.00     0.242 C 
ATOM      4  O   UNL A   1      34.688  29.015  27.920  1.00  0.00    -0.273 OA
ATOM      5  H   UNL A   1      34.887  31.214  26.100  1.00  0.00     0.163 HD
BRANCH   3   6
ATOM      6  C   UNL A   1      32.670  29.244  26.552  1.00  0.00     0.168 C 
ATOM      7  C   UNL A   1      31.883  28.236  27.373  1.00  0.00     0.041 C 
BRANCH   6   8
ATOM      8  N   UNL A   1      33.078  28.699  25.265  1.00  0.00    -0.340 N 
ATOM      9  C   UNL A   1      32.531  28.948  24.027  1.00  0.00     0.254 C 
ATOM     10  O   UNL A   1      33.329  29.080  23.094  1.00  0.00    -0.269 OA
ATOM     11  H   UNL A   1      33.839  28.075  25.283  1.00  0.00     0.164 HD
BRANCH   9  12
ATOM     12  C   UNL A   1      31.087  28.742  23.699  1.00  0.00     0.063 A 
ATOM     13  C   UNL A   1      30.377  27.564  23.391  1.00  0.00     0.051 A 
ATOM     14  C   UNL A   1      29.006  27.687  23.046  1.00  0.00     0.027 A 
ATOM     15  C   UNL A   1      28.333  28.908  23.071  1.00  0.00     0.002 A 
ATOM     16  C   UNL A   1      30.375  29.968  23.732  1.00  0.00     0.016 A 
ATOM     17  C   UNL A   1      29.016  30.053  23.436  1.00  0.00     0.001 A 
BRANCH  13  18
ATOM     18  N   UNL A   1      30.823  26.234  23.490  1.00  0.00    -0.352 N 
ATOM     19  H   UNL A   1      30.370  25.631  22.858  1.00  0.00     0.167 HD
BRANCH  18  20
ATOM     20  C   UNL A   1      31.783  25.566  24.295  1.00  0.00     0.077 A 
ATOM     21  C   UNL A   1      35.200  23.812  24.209  1.00  0.00     0.046 C 
ATOM     22  C   UNL A   1      33.884  24.357  24.701  1.00  0.00    -0.030 A 
ATOM     23  C   UNL A   1      33.417  23.950  25.961  1.00  0.00     0.006 A 
ATOM     24  C   UNL A   1      33.086  25.205  23.894  1.00  0.00     0.069 A 
ATOM     25  C   UNL A   1      32.171  24.362  26.413  1.00  0.00     0.023 A 
ATOM     26  Cl  UNL A   1      33.810  25.878  22.464  1.00  0.00    -0.082 Cl
ATOM     27  C   UNL A   1      31.365  25.143  25.584  1.00  0.00     0.066 A 
ATOM     28  Cl  UNL A   1      29.785  25.558  26.182  1.00  0.00    -0.082 Cl
ENDBRANCH  18  20
ENDBRANCH  13  18
ENDBRANCH   9  12
ENDBRANCH   6   8
ENDBRANCH   3   6
ENDBRANCH   1   2
BRANCH   1  29
ATOM     29  C   UNL A   1      35.315  33.078  28.045  1.00  0.00     0.042 C 
BRANCH  29  30
ATOM     30  C   UNL A   1      36.464  32.704  28.979  1.00  0.00     0.118 C 
BRANCH  30  31
ATOM     31  N   UNL A   1      36.026  31.810  30.043  1.00  0.00    -0.352 N 
ATOM     32  C   UNL A   1      36.554  30.610  30.443  1.00  0.00     0.251 C 
ATOM     33  H   UNL A   1      35.237  32.113  30.549  1.00  0.00     0.163 HD
ATOM     34  O   UNL A   1      35.876  29.858  31.147  1.00  0.00    -0.269 OA
BRANCH  32  35
ATOM     35  C   UNL A   1      37.916  30.215  30.033  1.00  0.00     0.039 A 
ATOM     36  C   UNL A   1      38.909  30.071  31.006  1.00  0.00     0.014 A 
ATOM     37  C   UNL A   1      38.227  30.035  28.682  1.00  0.00     0.014 A 
ATOM     38  C   UNL A   1      40.201  29.695  30.626  1.00  0.00     0.010 A 
ATOM     39  C   UNL A   1      39.493  29.589  28.315  1.00  0.00     0.010 A 
ATOM     40  C   UNL A   1      40.498  29.428  29.280  1.00  0.00    -0.014 A 
BRANCH  40  41
ATOM     41  C   UNL A   1      41.856  28.999  28.857  1.00  0.00     0.031 A 
ATOM     42  C   UNL A   1      42.981  30.001  28.808  1.00  0.00     0.074 A 
ATOM     43  C   UNL A   1      42.063  27.729  28.457  1.00  0.00     0.049 A 
ATOM     44  N   UNL A   1      44.213  29.841  28.399  1.00  0.00    -0.248 NA
ATOM     45  C   UNL A   1      42.670  31.371  29.250  1.00  0.00     0.031 C 
ATOM     46  C   UNL A   1      41.043  26.680  28.413  1.00  0.00     0.029 A 
ATOM     47  N   UNL A   1      43.197  27.106  28.001  1.00  0.00    -0.354 N 
ATOM     48  C   UNL A   1      44.816  31.089  28.513  1.00  0.00     0.074 A 
ATOM     49  C   UNL A   1      43.802  32.006  28.983  1.00  0.00     0.031 C 
ATOM     50  C   UNL A   1      41.603  25.539  27.978  1.00  0.00     0.029 A 
ATOM     51  C   UNL A   1      43.010  25.783  27.677  1.00  0.00     0.049 A 
ATOM     52  H   UNL A   1      44.065  27.565  27.914  1.00  0.00     0.167 HD
ATOM     53  C   UNL A   1      46.104  31.433  28.270  1.00  0.00     0.037 A 
ATOM     54  C   UNL A   1      43.874  24.872  27.190  1.00  0.00     0.037 A 
ATOM     55  C   UNL A   1      47.116  30.507  27.836  1.00  0.00     0.049 A 
ATOM     56  C   UNL A   1      45.303  25.275  26.943  1.00  0.00     0.074 A 
ATOM     57  C   UNL A   1      48.464  30.741  27.622  1.00  0.00     0.029 A 
ATOM     58  N   UNL A   1      46.894  29.168  27.550  1.00  0.00    -0.354 N 
ATOM     59  N   UNL A   1      45.872  26.445  27.117  1.00  0.00    -0.248 NA
ATOM     60  C   UNL A   1      46.211  24.234  26.443  1.00  0.00     0.031 C 
ATOM     61  C   UNL A   1      49.048  29.554  27.172  1.00  0.00     0.029 A 
ATOM     62  C   UNL A   1      48.075  28.566  27.150  1.00  0.00     0.049 A 
ATOM     63  H   UNL A   1      46.024  28.711  27.622  1.00  0.00     0.167 HD
ATOM     64  C   UNL A   1      47.209  26.270  26.781  1.00  0.00     0.074 A 
ATOM     65  C   UNL A   1      47.366  24.882  26.400  1.00  0.00     0.031 C 
ATOM     66  C   UNL A   1      48.218  27.178  26.789  1.00  0.00     0.037 A 
BRANCH  53  67
ATOM     67  C   UNL A   1      46.492  32.873  28.474  1.00  0.00     0.058 A 
ATOM     68  C   UNL A   1      46.436  33.807  27.427  1.00  0.00     0.135 A 
ATOM     69  C   UNL A   1      46.892  33.334  29.739  1.00  0.00     0.135 A 
ATOM     70  F   UNL A   1      46.075  33.420  26.193  1.00  0.00    -0.206 F 
ATOM     71  C   UNL A   1      46.793  35.138  27.618  1.00  0.00     0.059 A 
ATOM     72  C   UNL A   1      47.226  34.667  29.961  1.00  0.00     0.059 A 
ATOM     73  F   UNL A   1      46.963  32.485  30.776  1.00  0.00    -0.206 F 
ATOM     74  C   UNL A   1      47.189  35.558  28.888  1.00  0.00     0.060 A 
BRANCH  74  75
ATOM     75  S   UNL A   1      47.646  37.289  29.121  1.00  0.00     0.124 S 
ATOM     76  O   UNL A   1      48.466  37.213  30.327  1.00  0.00    -0.237 OA
ATOM     77  O   UNL A   1      48.362  37.593  27.886  1.00  0.00    -0.237 OA
ATOM     78  O   UNL A   1      46.361  37.963  29.279  1.00  0.00    -0.744 OA
ENDBRANCH  74  75
ENDBRANCH  53  67
BRANCH  54  79
ATOM     79  C   UNL A   1      43.422  23.477  26.937  1.00  0.00     0.058 A 
ATOM     80  C   UNL A   1      43.222  23.013  25.629  1.00  0.00     0.135 A 
ATOM     81  C   UNL A   1      43.186  22.581  27.991  1.00  0.00     0.135 A 
ATOM     82  F   UNL A   1      43.429  23.834  24.588  1.00  0.00    -0.206 F 
ATOM     83  C   UNL A   1      42.786  21.717  25.373  1.00  0.00     0.059 A 
ATOM     84  C   UNL A   1      42.774  21.271  27.760  1.00  0.00     0.059 A 
ATOM     85  F   UNL A   1      43.379  22.970  29.261  1.00  0.00    -0.206 F 
ATOM     86  C   UNL A   1      42.566  20.853  26.446  1.00  0.00     0.060 A 
BRANCH  86  87
ATOM     87  S   UNL A   1      42.041  19.160  26.099  1.00  0.00     0.124 S 
ATOM     88  O   UNL A   1      42.869  18.827  24.945  1.00  0.00    -0.237 OA
ATOM     89  O   UNL A   1      42.374  18.474  27.343  1.00  0.00    -0.237 OA
ATOM     90  O   UNL A   1      40.612  19.299  25.833  1.00  0.00    -0.744 OA
ENDBRANCH  86  87
ENDBRANCH  54  79
BRANCH  66  91
ATOM     91  C   UNL A   1      49.592  26.689  26.425  1.00  0.00     0.058 A 
ATOM     92  C   UNL A   1      50.419  26.042  27.356  1.00  0.00     0.135 A 
ATOM     93  C   UNL A   1      50.068  26.830  25.110  1.00  0.00     0.135 A 
ATOM     94  F   UNL A   1      50.014  25.887  28.627  1.00  0.00    -0.206 F 
ATOM     95  C   UNL A   1      51.680  25.572  27.002  1.00  0.00     0.059 A 
ATOM     96  C   UNL A   1      51.313  26.343  24.729  1.00  0.00     0.059 A 
ATOM     97  F   UNL A   1      49.311  27.432  24.179  1.00  0.00    -0.206 F 
ATOM     98  C   UNL A   1      52.117  25.726  25.686  1.00  0.00     0.060 A 
BRANCH  98  99
ATOM     99  S   UNL A   1      53.743  25.085  25.232  1.00  0.00     0.124 S 
ATOM    100  O   UNL A   1      54.545  25.469  26.389  1.00  0.00    -0.237 OA
ATOM    101  O   UNL A   1      53.486  23.656  25.084  1.00  0.00    -0.237 OA
ATOM    102  O   UNL A   1      54.052  25.791  23.991  1.00  0.00    -0.744 OA
ENDBRANCH  98  99
ENDBRANCH  66  91
ENDBRANCH  40  41
ENDBRANCH  32  35
ENDBRANCH  30  31
ENDBRANCH  29  30
ENDBRANCH   1  29
TORSDOF 17
ENDMDL
MODEL 2
REMARK VINA RESULT:     -12.2      1.285      2.585
REMARK SMILES Cc1ccc(Cl)c(Nc2ccccc2C(=O)N[C@@H](C)C(=O)NCCCNC(=O)c2ccc(-c3c4nc(c(-c5c(F)cc(S(=O)(=O)[O-])cc5F)c5ccc([nH]5)c(-c5c(F)cc(S(=O)(=O)[O-])cc5F)c5nc(c(-c6c(F)cc(S(=O)(=O)[O-])cc6F)c6ccc3[nH]6)C=C5)C=C4)cc2)c1Cl
REMARK SMILES IDX 23 1 22 2 20 3 21 4 18 6 19 7 17 8 15 9 16 10 14 12 9 13
REMARK SMILES IDX 10 14 11 15 13 16 12 17 8 18 7 20 1 21 2 22 3 23 95 24 4 25
REMARK SMILES IDX 96 26 5 27 6 28 24 29 25 30 26 31 27 32 28 34 29 35 30 36
REMARK SMILES IDX 94 37 31 38 93 39 32 40 33 41 34 42 87 43 35 44 92 45 86 46
REMARK SMILES IDX 88 47 36 48 91 49 85 50 84 51 37 53 71 54 50 55 70 56 51 57
REMARK SMILES IDX 54 58 69 59 89 60 52 61 53 62 68 64 90 65 55 66 38 67 39 68
REMARK SMILES IDX 48 69 40 70 41 71 47 72 49 73 42 74 43 75 44 76 45 77 46 78
REMARK SMILES IDX 72 79 73 80 82 81 74 82 75 83 81 84 83 85 76 86 77 87 78 88
REMARK SMILES IDX 79 89 80 90 56 91 57 92 66 93 58 94 59 95 65 96 67 97 60 98
REMARK SMILES IDX 61 99 62 100 63 101 64 102
REMARK H PARENT 22 5 17 11 8 19 26 33 88 52 54 63
REMARK Flexibility Score: inf
ROOT
ATOM      1  C   UNL A   1      33.293  29.783  26.809  1.00  0.00     0.117 C 
ENDROOT
BRANCH   1   2
ATOM      2  N   UNL A   1      33.154  28.662  27.729  1.00  0.00    -0.354 N 
ATOM      3  C   UNL A   1      32.092  27.814  27.555  1.00  0.00     0.242 C 
ATOM      4  O   UNL A   1      31.001  28.165  28.002  1.00  0.00    -0.273 OA
ATOM      5  H   UNL A   1      33.804  28.518  28.454  1.00  0.00     0.163 HD
BRANCH   3   6
ATOM      6  C   UNL A   1      32.327  26.449  26.862  1.00  0.00     0.168 C 
ATOM      7  C   UNL A   1      33.216  26.503  25.630  1.00  0.00     0.041 C 
BRANCH   6   8
ATOM      8  N   UNL A   1      30.990  25.963  26.549  1.00  0.00    -0.340 N 
ATOM      9  C   UNL A   1      30.589  24.663  26.339  1.00  0.00     0.254 C 
ATOM     10  O   UNL A   1      29.503  24.341  26.830  1.00  0.00    -0.269 OA
ATOM     11  H   UNL A   1      30.287  26.648  26.478  1.00  0.00     0.164 HD
BRANCH   9  12
ATOM     12  C   UNL A   1      31.200  23.759  25.317  1.00  0.00     0.063 A 
ATOM     13  C   UNL A   1      31.147  23.799  23.909  1.00  0.00     0.051 A 
ATOM     14  C   UNL A   1      31.773  22.748  23.192  1.00  0.00     0.027 A 
ATOM     15  C   UNL A   1      32.489  21.731  23.822  1.00  0.00     0.002 A 
ATOM     16  C   UNL A   1      31.947  22.721  25.933  1.00  0.00     0.016 A 
ATOM     17  C   UNL A   1      32.593  21.728  25.200  1.00  0.00     0.001 A 
BRANCH  13  18
ATOM     18  N   UNL A   1      30.641  24.827  23.093  1.00  0.00    -0.352 N 
ATOM     19  H   UNL A   1      29.967  24.507  22.451  1.00  0.00     0.167 HD
BRANCH  18  20
ATOM     20  C   UNL A   1      30.883  26.222  22.987  1.00  0.00     0.077 A 
ATOM     21  C   UNL A   1      33.635  28.843  22.425  1.00  0.00     0.046 C 
ATOM     22  C   UNL A   1      32.292  28.214  22.698  1.00  0.00    -0.030 A 
ATOM     23  C   UNL A   1      31.250  29.031  23.162  1.00  0.00     0.006 A 
ATOM     24  C   UNL A   1      32.089  26.819  22.564  1.00  0.00     0.069 A 
ATOM     25  C   UNL A   1      30.025  28.475  23.506  1.00  0.00     0.023 A 
ATOM     26  Cl  UNL A   1      33.318  25.894  21.754  1.00  0.00    -0.082 Cl
ATOM     27  C   UNL A   1      29.854  27.093  23.433  1.00  0.00     0.066 A 
ATOM     28  Cl  UNL A   1      28.321  26.457  23.953  1.00  0.00    -0.082 Cl
ENDBRANCH  18  20
ENDBRANCH  13  18
ENDBRANCH   9  12
ENDBRANCH   6   8
ENDBRANCH   3   6
ENDBRANCH   1   2
BRANCH   1  29
ATOM     29  C   UNL A   1      34.165  30.929  27.340  1.00  0.00     0.042 C 
BRANCH  29  30
ATOM     30  C   UNL A   1      35.457  30.478  28.016  1.00  0.00     0.118 C 
BRANCH  30  31
ATOM     31  N   UNL A   1      35.464  30.799  29.437  1.00  0.00    -0.352 N 
ATOM     32  C   UNL A   1      36.414  30.526  30.387  1.00  0.00     0.251 C 
ATOM     33  H   UNL A   1      34.671  31.284  29.763  1.00  0.00     0.163 HD
ATOM     34  O   UNL A   1      36.113  30.600  31.581  1.00  0.00    -0.269 OA
BRANCH  32  35
ATOM     35  C   UNL A   1      37.783  30.140  29.990  1.00  0.00     0.039 A 
ATOM     36  C   UNL A   1      38.662  29.646  30.956  1.00  0.00     0.014 A 
ATOM     37  C   UNL A   1      38.215  30.313  28.672  1.00  0.00     0.014 A 
ATOM     38  C   UNL A   1      39.959  29.276  30.589  1.00  0.00     0.010 A 
ATOM     39  C   UNL A   1      39.481  29.876  28.294  1.00  0.00     0.010 A 
ATOM     40  C   UNL A   1      40.372  29.366  29.249  1.00  0.00    -0.014 A 
BRANCH  40  41
ATOM     41  C   UNL A   1      41.736  28.952  28.830  1.00  0.00     0.031 A 
ATOM     42  C   UNL A   1      42.846  29.969  28.765  1.00  0.00     0.074 A 
ATOM     43  C   UNL A   1      41.961  27.679  28.448  1.00  0.00     0.049 A 
ATOM     44  N   UNL A   1      44.079  29.823  28.356  1.00  0.00    -0.248 NA
ATOM     45  C   UNL A   1      42.515  31.341  29.188  1.00  0.00     0.031 C 
ATOM     46  C   UNL A   1      40.957  26.614  28.420  1.00  0.00     0.029 A 
ATOM     47  N   UNL A   1      43.105  27.067  27.998  1.00  0.00    -0.354 N 
ATOM     48  C   UNL A   1      44.664  31.081  28.452  1.00  0.00     0.074 A 
ATOM     49  C   UNL A   1      43.637  31.989  28.910  1.00  0.00     0.031 C 
ATOM     50  C   UNL A   1      41.534  25.477  27.999  1.00  0.00     0.029 A 
ATOM     51  C   UNL A   1      42.937  25.738  27.693  1.00  0.00     0.049 A 
ATOM     52  H   UNL A   1      43.965  27.538  27.903  1.00  0.00     0.167 HD
ATOM     53  C   UNL A   1      45.946  31.441  28.202  1.00  0.00     0.037 A 
ATOM     54  C   UNL A   1      43.814  24.832  27.217  1.00  0.00     0.037 A 
ATOM     55  C   UNL A   1      46.971  30.524  27.779  1.00  0.00     0.049 A 
ATOM     56  C   UNL A   1      45.236  25.254  26.962  1.00  0.00     0.074 A 
ATOM     57  C   UNL A   1      48.315  30.776  27.560  1.00  0.00     0.029 A 
ATOM     58  N   UNL A   1      46.769  29.178  27.512  1.00  0.00    -0.354 N 
ATOM     59  N   UNL A   1      45.787  26.434  27.119  1.00  0.00    -0.248 NA
ATOM     60  C   UNL A   1      46.159  24.220  26.475  1.00  0.00     0.031 C 
ATOM     61  C   UNL A   1      48.916  29.591  27.124  1.00  0.00     0.029 A 
ATOM     62  C   UNL A   1      47.959  28.589  27.118  1.00  0.00     0.049 A 
ATOM     63  H   UNL A   1      45.906  28.709  27.592  1.00  0.00     0.167 HD
ATOM     64  C   UNL A   1      47.127  26.275  26.783  1.00  0.00     0.074 A 
ATOM     65  C   UNL A   1      47.304  24.884  26.421  1.00  0.00     0.031 C 
ATOM     66  C   UNL A   1      48.121  27.198  26.777  1.00  0.00     0.037 A 
BRANCH  53  67
ATOM     67  C   UNL A   1      46.312  32.889  28.385  1.00  0.00     0.058 A 
ATOM     68  C   UNL A   1      46.214  33.814  27.332  1.00  0.00     0.135 A 
ATOM     69  C   UNL A   1      46.735  33.368  29.636  1.00  0.00     0.135 A 
ATOM     70  F   UNL A   1      45.831  33.410  26.111  1.00  0.00    -0.206 F 
ATOM     71  C   UNL A   1      46.551  35.152  27.504  1.00  0.00     0.059 A 
ATOM     72  C   UNL A   1      47.050  34.709  29.839  1.00  0.00     0.059 A 
ATOM     73  F   UNL A   1      46.845  32.529  30.677  1.00  0.00    -0.206 F 
ATOM     74  C   UNL A   1      46.970  35.590  28.761  1.00  0.00     0.060 A 
BRANCH  74  75
ATOM     75  S   UNL A   1      47.400  37.331  28.969  1.00  0.00     0.124 S 
ATOM     76  O   UNL A   1      48.396  37.258  30.035  1.00  0.00    -0.237 OA
ATOM     77  O   UNL A   1      47.911  37.687  27.649  1.00  0.00    -0.237 OA
ATOM     78  O   UNL A   1      46.133  37.955  29.336  1.00  0.00    -0.744 OA
ENDBRANCH  74  75
ENDBRANCH  53  67
BRANCH  54  79
ATOM     79  C   UNL A   1      43.382  23.428  26.985  1.00  0.00     0.058 A 
ATOM     80  C   UNL A   1      43.189  22.942  25.684  1.00  0.00     0.135 A 
ATOM     81  C   UNL A   1      43.160  22.543  28.052  1.00  0.00     0.135 A 
ATOM     82  F   UNL A   1      43.384  23.751  24.631  1.00  0.00    -0.206 F 
ATOM     83  C   UNL A   1      42.773  21.636  25.447  1.00  0.00     0.059 A 
ATOM     84  C   UNL A   1      42.768  21.225  27.840  1.00  0.00     0.059 A 
ATOM     85  F   UNL A   1      43.348  22.953  29.316  1.00  0.00    -0.206 F 
ATOM     86  C   UNL A   1      42.566  20.784  26.532  1.00  0.00     0.060 A 
BRANCH  86  87
ATOM     87  S   UNL A   1      42.066  19.079  26.210  1.00  0.00     0.124 S 
ATOM     88  O   UNL A   1      42.315  18.451  27.503  1.00  0.00    -0.237 OA
ATOM     89  O   UNL A   1      40.664  19.235  25.835  1.00  0.00    -0.237 OA
ATOM     90  O   UNL A   1      42.954  18.667  25.126  1.00  0.00    -0.744 OA
ENDBRANCH  86  87
ENDBRANCH  54  79
BRANCH  66  91
ATOM     91  C   UNL A   1      49.502  26.725  26.417  1.00  0.00     0.058 A 
ATOM     92  C   UNL A   1      50.358  26.147  27.367  1.00  0.00     0.135 A 
ATOM     93  C   UNL A   1      49.956  26.810  25.090  1.00  0.00     0.135 A 
ATOM     94  F   UNL A   1      49.975  26.047  28.650  1.00  0.00    -0.206 F 
ATOM     95  C   UNL A   1      51.625  25.690  27.019  1.00  0.00     0.059 A 
ATOM     96  C   UNL A   1      51.207  26.335  24.715  1.00  0.00     0.059 A 
ATOM     97  F   UNL A   1      49.171  27.345  24.141  1.00  0.00    -0.206 F 
ATOM     98  C   UNL A   1      52.041  25.787  25.690  1.00  0.00     0.060 A 
BRANCH  98  99
ATOM     99  S   UNL A   1      53.675  25.164  25.244  1.00  0.00     0.124 S 
ATOM    100  O   UNL A   1      53.817  25.660  23.879  1.00  0.00    -0.237 OA
ATOM    101  O   UNL A   1      54.534  25.797  26.241  1.00  0.00    -0.237 OA
ATOM    102  O   UNL A   1      53.535  23.716  25.376  1.00  0.00    -0.744 OA
ENDBRANCH  98  99
ENDBRANCH  66  91
ENDBRANCH  40  41
ENDBRANCH  32  35
ENDBRANCH  30  31
ENDBRANCH  29  30
ENDBRANCH   1  29
TORSDOF 17
ENDMDL
MODEL 3
REMARK VINA RESULT:     -12.1      1.241      3.070
REMARK SMILES Cc1ccc(Cl)c(Nc2ccccc2C(=O)N[C@@H](C)C(=O)NCCCNC(=O)c2ccc(-c3c4nc(c(-c5c(F)cc(S(=O)(=O)[O-])cc5F)c5ccc([nH]5)c(-c5c(F)cc(S(=O)(=O)[O-])cc5F)c5nc(c(-c6c(F)cc(S(=O)(=O)[O-])cc6F)c6ccc3[nH]6)C=C5)C=C4)cc2)c1Cl
REMARK SMILES IDX 23 1 22 2 20 3 21 4 18 6 19 7 17 8 15 9 16 10 14 12 9 13
REMARK SMILES IDX 10 14 11 15 13 16 12 17 8 18 7 20 1 21 2 22 3 23 95 24 4 25
REMARK SMILES IDX 96 26 5 27 6 28 24 29 25 30 26 31 27 32 28 34 29 35 30 36
REMARK SMILES IDX 94 37 31 38 93 39 32 40 33 41 34 42 87 43 35 44 92 45 86 46
REMARK SMILES IDX 88 47 36 48 91 49 85 50 84 51 37 53 71 54 50 55 70 56 51 57
REMARK SMILES IDX 54 58 69 59 89 60 52 61 53 62 68 64 90 65 55 66 38 67 39 68
REMARK SMILES IDX 48 69 40 70 41 71 47 72 49 73 42 74 43 75 44 76 45 77 46 78
REMARK SMILES IDX 72 79 73 80 82 81 74 82 75 83 81 84 83 85 76 86 77 87 78 88
REMARK SMILES IDX 79 89 80 90 56 91 57 92 66 93 58 94 59 95 65 96 67 97 60 98
REMARK SMILES IDX 61 99 62 100 63 101 64 102
REMARK H PARENT 22 5 17 11 8 19 26 33 88 52 54 63
REMARK Flexibility Score: inf
ROOT
ATOM      1  C   UNL A   1      33.255  29.998  26.935  1.00  0.00     0.117 C 
ENDROOT
BRANCH   1   2
ATOM      2  N   UNL A   1      33.194  28.812  27.779  1.00  0.00    -0.354 N 
ATOM      3  C   UNL A   1      32.186  27.912  27.554  1.00  0.00     0.242 C 
ATOM      4  O   UNL A   1      31.079  28.163  28.030  1.00  0.00    -0.273 OA
ATOM      5  H   UNL A   1      33.859  28.662  28.489  1.00  0.00     0.163 HD
BRANCH   3   6
ATOM      6  C   UNL A   1      32.498  26.614  26.770  1.00  0.00     0.168 C 
ATOM      7  C   UNL A   1      33.399  26.800  25.560  1.00  0.00     0.041 C 
BRANCH   6   8
ATOM      8  N   UNL A   1      31.192  26.085  26.402  1.00  0.00    -0.340 N 
ATOM      9  C   UNL A   1      30.839  24.772  26.190  1.00  0.00     0.254 C 
ATOM     10  O   UNL A   1      29.741  24.424  26.634  1.00  0.00    -0.269 OA
ATOM     11  H   UNL A   1      30.474  26.748  26.291  1.00  0.00     0.164 HD
BRANCH   9  12
ATOM     12  C   UNL A   1      31.522  23.876  25.207  1.00  0.00     0.063 A 
ATOM     13  C   UNL A   1      31.481  23.860  23.799  1.00  0.00     0.051 A 
ATOM     14  C   UNL A   1      32.187  22.830  23.126  1.00  0.00     0.027 A 
ATOM     15  C   UNL A   1      32.966  21.890  23.799  1.00  0.00     0.002 A 
ATOM     16  C   UNL A   1      32.335  22.918  25.867  1.00  0.00     0.016 A 
ATOM     17  C   UNL A   1      33.057  21.947  25.178  1.00  0.00     0.001 A 
BRANCH  13  18
ATOM     18  N   UNL A   1      30.911  24.817  22.939  1.00  0.00    -0.352 N 
ATOM     19  H   UNL A   1      30.418  24.412  22.189  1.00  0.00     0.167 HD
BRANCH  18  20
ATOM     20  C   UNL A   1      30.885  26.236  22.912  1.00  0.00     0.077 A 
ATOM     21  C   UNL A   1      28.552  29.284  23.054  1.00  0.00     0.046 C 
ATOM     22  C   UNL A   1      29.792  28.438  22.933  1.00  0.00    -0.030 A 
ATOM     23  C   UNL A   1      30.976  29.040  22.480  1.00  0.00     0.006 A 
ATOM     24  C   UNL A   1      29.766  27.046  23.195  1.00  0.00     0.069 A 
ATOM     25  C   UNL A   1      32.117  28.276  22.273  1.00  0.00     0.023 A 
ATOM     26  Cl  UNL A   1      28.361  26.397  23.987  1.00  0.00    -0.082 Cl
ATOM     27  C   UNL A   1      32.063  26.897  22.472  1.00  0.00     0.066 A 
ATOM     28  Cl  UNL A   1      33.506  25.991  22.119  1.00  0.00    -0.082 Cl
ENDBRANCH  18  20
ENDBRANCH  13  18
ENDBRANCH   9  12
ENDBRANCH   6   8
ENDBRANCH   3   6
ENDBRANCH   1   2
BRANCH   1  29
ATOM     29  C   UNL A   1      34.073  31.152  27.529  1.00  0.00     0.042 C 
BRANCH  29  30
ATOM     30  C   UNL A   1      35.405  30.731  28.144  1.00  0.00     0.118 C 
BRANCH  30  31
ATOM     31  N   UNL A   1      35.452  31.008  29.574  1.00  0.00    -0.352 N 
ATOM     32  C   UNL A   1      36.404  30.661  30.497  1.00  0.00     0.251 C 
ATOM     33  H   UNL A   1      34.689  31.521  29.928  1.00  0.00     0.163 HD
ATOM     34  O   UNL A   1      36.127  30.713  31.698  1.00  0.00    -0.269 OA
BRANCH  32  35
ATOM     35  C   UNL A   1      37.745  30.221  30.063  1.00  0.00     0.039 A 
ATOM     36  C   UNL A   1      38.054  30.211  28.700  1.00  0.00     0.014 A 
ATOM     37  C   UNL A   1      38.682  29.771  30.997  1.00  0.00     0.014 A 
ATOM     38  C   UNL A   1      39.322  29.798  28.280  1.00  0.00     0.010 A 
ATOM     39  C   UNL A   1      39.967  29.431  30.584  1.00  0.00     0.010 A 
ATOM     40  C   UNL A   1      40.297  29.427  29.221  1.00  0.00    -0.014 A 
BRANCH  40  41
ATOM     41  C   UNL A   1      41.661  29.012  28.800  1.00  0.00     0.031 A 
ATOM     42  C   UNL A   1      42.771  30.028  28.734  1.00  0.00     0.074 A 
ATOM     43  C   UNL A   1      41.884  27.740  28.416  1.00  0.00     0.049 A 
ATOM     44  N   UNL A   1      44.004  29.881  28.324  1.00  0.00    -0.248 NA
ATOM     45  C   UNL A   1      42.442  31.400  29.158  1.00  0.00     0.031 C 
ATOM     46  C   UNL A   1      40.879  26.675  28.389  1.00  0.00     0.029 A 
ATOM     47  N   UNL A   1      43.026  27.127  27.965  1.00  0.00    -0.354 N 
ATOM     48  C   UNL A   1      44.590  31.139  28.420  1.00  0.00     0.074 A 
ATOM     49  C   UNL A   1      43.564  32.048  28.880  1.00  0.00     0.031 C 
ATOM     50  C   UNL A   1      41.454  25.538  27.967  1.00  0.00     0.029 A 
ATOM     51  C   UNL A   1      42.857  25.797  27.660  1.00  0.00     0.049 A 
ATOM     52  H   UNL A   1      43.887  27.596  27.870  1.00  0.00     0.167 HD
ATOM     53  C   UNL A   1      45.872  31.498  28.168  1.00  0.00     0.037 A 
ATOM     54  C   UNL A   1      43.733  24.892  27.182  1.00  0.00     0.037 A 
ATOM     55  C   UNL A   1      46.895  30.580  27.744  1.00  0.00     0.049 A 
ATOM     56  C   UNL A   1      45.155  25.312  26.926  1.00  0.00     0.074 A 
ATOM     57  C   UNL A   1      48.239  30.831  27.524  1.00  0.00     0.029 A 
ATOM     58  N   UNL A   1      46.692  29.235  27.477  1.00  0.00    -0.354 N 
ATOM     59  N   UNL A   1      45.707  26.492  27.083  1.00  0.00    -0.248 NA
ATOM     60  C   UNL A   1      46.076  24.277  26.437  1.00  0.00     0.031 C 
ATOM     61  C   UNL A   1      48.839  29.646  27.087  1.00  0.00     0.029 A 
ATOM     62  C   UNL A   1      47.881  28.644  27.081  1.00  0.00     0.049 A 
ATOM     63  H   UNL A   1      45.829  28.766  27.557  1.00  0.00     0.167 HD
ATOM     64  C   UNL A   1      47.046  26.332  26.745  1.00  0.00     0.074 A 
ATOM     65  C   UNL A   1      47.222  24.941  26.383  1.00  0.00     0.031 C 
ATOM     66  C   UNL A   1      48.042  27.253  26.739  1.00  0.00     0.037 A 
BRANCH  53  67
ATOM     67  C   UNL A   1      46.240  32.945  28.352  1.00  0.00     0.058 A 
ATOM     68  C   UNL A   1      46.701  33.439  29.584  1.00  0.00     0.135 A 
ATOM     69  C   UNL A   1      46.163  33.845  27.277  1.00  0.00     0.135 A 
ATOM     70  F   UNL A   1      46.780  32.628  30.650  1.00  0.00    -0.206 F 
ATOM     71  C   UNL A   1      47.042  34.777  29.751  1.00  0.00     0.059 A 
ATOM     72  C   UNL A   1      46.527  35.183  27.413  1.00  0.00     0.059 A 
ATOM     73  F   UNL A   1      45.731  33.429  26.077  1.00  0.00    -0.206 F 
ATOM     74  C   UNL A   1      46.950  35.642  28.660  1.00  0.00     0.060 A 
BRANCH  74  75
ATOM     75  S   UNL A   1      47.401  37.375  28.892  1.00  0.00     0.124 S 
ATOM     76  O   UNL A   1      47.834  37.377  30.286  1.00  0.00    -0.237 OA
ATOM     77  O   UNL A   1      48.457  37.559  27.901  1.00  0.00    -0.237 OA
ATOM     78  O   UNL A   1      46.158  38.090  28.620  1.00  0.00    -0.744 OA
ENDBRANCH  74  75
ENDBRANCH  53  67
BRANCH  54  79
ATOM     79  C   UNL A   1      43.299  23.488  26.950  1.00  0.00     0.058 A 
ATOM     80  C   UNL A   1      43.139  22.598  28.022  1.00  0.00     0.135 A 
ATOM     81  C   UNL A   1      43.033  23.007  25.658  1.00  0.00     0.135 A 
ATOM     82  F   UNL A   1      43.387  23.009  29.276  1.00  0.00    -0.206 F 
ATOM     83  C   UNL A   1      42.748  21.278  27.824  1.00  0.00     0.059 A 
ATOM     84  C   UNL A   1      42.615  21.698  25.436  1.00  0.00     0.059 A 
ATOM     85  F   UNL A   1      43.154  23.822  24.599  1.00  0.00    -0.206 F 
ATOM     86  C   UNL A   1      42.487  20.838  26.526  1.00  0.00     0.060 A 
BRANCH  86  87
ATOM     87  S   UNL A   1      41.939  19.134  26.285  1.00  0.00     0.124 S 
ATOM     88  O   UNL A   1      42.858  18.674  25.250  1.00  0.00    -0.237 OA
ATOM     89  O   UNL A   1      42.132  18.558  27.612  1.00  0.00    -0.237 OA
ATOM     90  O   UNL A   1      40.547  19.284  25.873  1.00  0.00    -0.744 OA
ENDBRANCH  86  87
ENDBRANCH  54  79
BRANCH  66  91
ATOM     91  C   UNL A   1      49.422  26.779  26.377  1.00  0.00     0.058 A 
ATOM     92  C   UNL A   1      50.243  26.116  27.302  1.00  0.00     0.135 A 
ATOM     93  C   UNL A   1      49.910  26.951  25.071  1.00  0.00     0.135 A 
ATOM     94  F   UNL A   1      49.827  25.932  28.565  1.00  0.00    -0.206 F 
ATOM     95  C   UNL A   1      51.510  25.660  26.951  1.00  0.00     0.059 A 
ATOM     96  C   UNL A   1      51.160  26.479  24.691  1.00  0.00     0.059 A 
ATOM     97  F   UNL A   1      49.159  27.570  24.146  1.00  0.00    -0.206 F 
ATOM     98  C   UNL A   1      51.959  25.845  25.642  1.00  0.00     0.060 A 
BRANCH  98  99
ATOM     99  S   UNL A   1      53.592  25.222  25.190  1.00  0.00     0.124 S 
ATOM    100  O   UNL A   1      53.694  25.647  23.797  1.00  0.00    -0.237 OA
ATOM    101  O   UNL A   1      54.464  25.919  26.130  1.00  0.00    -0.237 OA
ATOM    102  O   UNL A   1      53.477  23.782  25.401  1.00  0.00    -0.744 OA
ENDBRANCH  98  99
ENDBRANCH  66  91
ENDBRANCH  40  41
ENDBRANCH  32  35
ENDBRANCH  30  31
ENDBRANCH  29  30
ENDBRANCH   1  29
TORSDOF 17
ENDMDL
