MODEL 1
REMARK VINA RESULT:     -11.9      0.000      0.000
REMARK SMILES COc1ccc(F)c(NC(=O)N2CCCC[C@@H]2C(=O)NCCCNC(=O)c2ccc(-c3c4nc(c(-c5c(F)cc(S(=O)(=O)[O-])cc5F)c5ccc([nH]5)c(-c5c(F)cc(S(=O)(=O)[O-])cc5F)c5nc(c(-c6c(F)cc(S(=O)(=O)[O-])cc6F)c6ccc3[nH]6)C=C5)C=C4)cc2)c1
REMARK SMILES IDX 22 1 21 2 20 3 18 4 19 5 17 7 12 8 13 9 14 10 16 11 15 12
REMARK SMILES IDX 10 13 9 14 11 16 8 17 3 18 4 19 93 20 5 21 6 22 7 23 2 24
REMARK SMILES IDX 1 25 23 26 24 27 25 28 26 30 27 31 28 32 92 33 29 34 91 35
REMARK SMILES IDX 30 36 31 37 32 38 85 39 33 40 90 41 84 42 86 43 34 44 89 45
REMARK SMILES IDX 83 46 82 47 35 49 69 50 48 51 68 52 49 53 52 54 67 55 87 56
REMARK SMILES IDX 50 57 51 58 66 60 88 61 53 62 36 63 37 64 46 65 38 66 39 67
REMARK SMILES IDX 45 68 47 69 40 70 41 71 42 72 43 73 44 74 70 75 71 76 80 77
REMARK SMILES IDX 72 78 73 79 79 80 81 81 74 82 75 83 76 84 77 85 78 86 54 87
REMARK SMILES IDX 55 88 64 89 56 90 57 91 63 92 65 93 58 94 59 95 60 96 61 97
REMARK SMILES IDX 62 98
REMARK H PARENT 20 6 9 15 24 29 86 48 52 59
REMARK Flexibility Score: inf
ROOT
ATOM      1  C   UNL A   1      32.219  28.051  27.615  1.00  0.00     0.042 C 
ENDROOT
BRANCH   1   2
ATOM      2  C   UNL A   1      31.656  27.166  26.508  1.00  0.00     0.117 C 
BRANCH   2   3
ATOM      3  N   UNL A   1      31.610  25.786  26.953  1.00  0.00    -0.354 N 
ATOM      4  C   UNL A   1      32.079  24.670  26.334  1.00  0.00     0.242 C 
ATOM      5  O   UNL A   1      31.546  23.597  26.632  1.00  0.00    -0.273 OA
ATOM      6  H   UNL A   1      31.178  25.637  27.825  1.00  0.00     0.163 HD
BRANCH   4   7
ATOM      7  C   UNL A   1      33.142  24.747  25.217  1.00  0.00     0.176 C 
ATOM      8  N   UNL A   1      32.783  24.100  23.921  1.00  0.00    -0.313 N 
ATOM      9  C   UNL A   1      33.878  23.877  22.979  1.00  0.00     0.122 C 
ATOM     10  C   UNL A   1      35.111  23.260  23.613  1.00  0.00     0.022 C 
ATOM     11  C   UNL A   1      34.461  24.206  25.815  1.00  0.00     0.035 C 
ATOM     12  C   UNL A   1      35.577  24.104  24.787  1.00  0.00     0.004 C 
BRANCH   8  13
ATOM     13  C   UNL A   1      31.523  23.894  23.402  1.00  0.00     0.322 C 
ATOM     14  N   UNL A   1      30.595  24.875  23.309  1.00  0.00    -0.305 N 
ATOM     15  H   UNL A   1      29.672  24.546  23.389  1.00  0.00     0.171 HD
ATOM     16  O   UNL A   1      31.158  22.762  23.065  1.00  0.00    -0.248 OA
BRANCH  14  17
ATOM     17  C   UNL A   1      30.675  26.264  23.120  1.00  0.00     0.082 A 
ATOM     18  C   UNL A   1      31.899  28.297  22.745  1.00  0.00     0.121 A 
ATOM     19  C   UNL A   1      30.791  29.063  23.109  1.00  0.00     0.049 A 
ATOM     20  C   UNL A   1      31.811  26.910  22.648  1.00  0.00     0.075 A 
ATOM     21  C   UNL A   1      29.594  28.423  23.426  1.00  0.00     0.045 A 
ATOM     22  C   UNL A   1      29.550  27.032  23.442  1.00  0.00     0.147 A 
ATOM     23  F   UNL A   1      28.413  26.424  23.816  1.00  0.00    -0.205 F 
BRANCH  18  24
ATOM     24  O   UNL A   1      33.119  28.868  22.506  1.00  0.00    -0.497 OA
ATOM     25  C   UNL A   1      34.077  28.408  23.469  1.00  0.00     0.278 C 
ENDBRANCH  18  24
ENDBRANCH  14  17
ENDBRANCH   8  13
ENDBRANCH   4   7
ENDBRANCH   2   3
ENDBRANCH   1   2
BRANCH   1  26
ATOM     26  C   UNL A   1      33.521  28.744  27.229  1.00  0.00     0.118 C 
BRANCH  26  27
ATOM     27  N   UNL A   1      33.550  30.138  27.649  1.00  0.00    -0.352 N 
ATOM     28  C   UNL A   1      34.534  30.822  28.320  1.00  0.00     0.251 C 
ATOM     29  H   UNL A   1      32.750  30.665  27.419  1.00  0.00     0.163 HD
ATOM     30  O   UNL A   1      34.303  31.925  28.794  1.00  0.00    -0.269 OA
BRANCH  28  31
ATOM     31  C   UNL A   1      35.863  30.197  28.481  1.00  0.00     0.039 A 
ATOM     32  C   UNL A   1      36.734  30.170  27.391  1.00  0.00     0.014 A 
ATOM     33  C   UNL A   1      36.254  29.677  29.717  1.00  0.00     0.014 A 
ATOM     34  C   UNL A   1      38.035  29.699  27.569  1.00  0.00     0.010 A 
ATOM     35  C   UNL A   1      37.574  29.285  29.912  1.00  0.00     0.010 A 
ATOM     36  C   UNL A   1      38.480  29.304  28.842  1.00  0.00    -0.014 A 
BRANCH  36  37
ATOM     37  C   UNL A   1      39.904  28.964  29.086  1.00  0.00     0.031 A 
ATOM     38  C   UNL A   1      40.846  29.990  29.647  1.00  0.00     0.074 A 
ATOM     39  C   UNL A   1      40.357  27.744  28.732  1.00  0.00     0.049 A 
ATOM     40  N   UNL A   1      42.133  29.894  29.861  1.00  0.00    -0.248 NA
ATOM     41  C   UNL A   1      40.277  31.303  29.994  1.00  0.00     0.031 C 
ATOM     42  C   UNL A   1      39.542  26.681  28.137  1.00  0.00     0.029 A 
ATOM     43  N   UNL A   1      41.610  27.191  28.812  1.00  0.00    -0.354 N 
ATOM     44  C   UNL A   1      42.526  31.127  30.367  1.00  0.00     0.074 A 
ATOM     45  C   UNL A   1      41.354  31.975  30.374  1.00  0.00     0.031 C 
ATOM     46  C   UNL A   1      40.306  25.597  27.939  1.00  0.00     0.029 A 
ATOM     47  C   UNL A   1      41.676  25.899  28.342  1.00  0.00     0.049 A 
ATOM     48  H   UNL A   1      42.389  27.673  29.174  1.00  0.00     0.167 HD
ATOM     49  C   UNL A   1      43.749  31.506  30.807  1.00  0.00     0.037 A 
ATOM     50  C   UNL A   1      42.722  25.057  28.234  1.00  0.00     0.037 A 
ATOM     51  C   UNL A   1      44.904  30.647  30.807  1.00  0.00     0.049 A 
ATOM     52  C   UNL A   1      44.079  25.517  28.690  1.00  0.00     0.074 A 
ATOM     53  C   UNL A   1      46.175  30.921  31.283  1.00  0.00     0.029 A 
ATOM     54  N   UNL A   1      44.935  29.354  30.305  1.00  0.00    -0.354 N 
ATOM     55  N   UNL A   1      44.419  26.666  29.224  1.00  0.00    -0.248 NA
ATOM     56  C   UNL A   1      45.194  24.575  28.525  1.00  0.00     0.031 C 
ATOM     57  C   UNL A   1      46.988  29.816  31.016  1.00  0.00     0.029 A 
ATOM     58  C   UNL A   1      46.212  28.831  30.425  1.00  0.00     0.049 A 
ATOM     59  H   UNL A   1      44.165  28.879  29.919  1.00  0.00     0.167 HD
ATOM     60  C   UNL A   1      45.785  26.581  29.469  1.00  0.00     0.074 A 
ATOM     61  C   UNL A   1      46.204  25.260  29.046  1.00  0.00     0.031 C 
ATOM     62  C   UNL A   1      46.617  27.515  29.992  1.00  0.00     0.037 A 
BRANCH  49  63
ATOM     63  C   UNL A   1      43.906  32.903  31.342  1.00  0.00     0.058 A 
ATOM     64  C   UNL A   1      43.735  33.170  32.710  1.00  0.00     0.135 A 
ATOM     65  C   UNL A   1      44.150  33.992  30.489  1.00  0.00     0.135 A 
ATOM     66  F   UNL A   1      43.506  32.166  33.571  1.00  0.00    -0.206 F 
ATOM     67  C   UNL A   1      43.778  34.467  33.210  1.00  0.00     0.059 A 
ATOM     68  C   UNL A   1      44.227  35.296  30.971  1.00  0.00     0.059 A 
ATOM     69  F   UNL A   1      44.343  33.792  29.176  1.00  0.00    -0.206 F 
ATOM     70  C   UNL A   1      44.022  35.524  32.331  1.00  0.00     0.060 A 
BRANCH  70  71
ATOM     71  S   UNL A   1      44.092  37.200  32.999  1.00  0.00     0.124 S 
ATOM     72  O   UNL A   1      45.401  37.213  33.643  1.00  0.00    -0.237 OA
ATOM     73  O   UNL A   1      43.966  38.014  31.794  1.00  0.00    -0.237 OA
ATOM     74  O   UNL A   1      42.947  37.251  33.904  1.00  0.00    -0.744 OA
ENDBRANCH  70  71
ENDBRANCH  49  63
BRANCH  50  75
ATOM     75  C   UNL A   1      42.513  23.690  27.683  1.00  0.00     0.058 A 
ATOM     76  C   UNL A   1      42.341  22.581  28.526  1.00  0.00     0.135 A 
ATOM     77  C   UNL A   1      42.529  23.462  26.299  1.00  0.00     0.135 A 
ATOM     78  F   UNL A   1      42.327  22.742  29.858  1.00  0.00    -0.206 F 
ATOM     79  C   UNL A   1      42.225  21.292  28.019  1.00  0.00     0.059 A 
ATOM     80  C   UNL A   1      42.388  22.184  25.766  1.00  0.00     0.059 A 
ATOM     81  F   UNL A   1      42.679  24.493  25.453  1.00  0.00    -0.206 F 
ATOM     82  C   UNL A   1      42.255  21.103  26.637  1.00  0.00     0.060 A 
BRANCH  82  83
ATOM     83  S   UNL A   1      42.127  19.417  26.002  1.00  0.00     0.124 S 
ATOM     84  O   UNL A   1      43.017  19.473  24.847  1.00  0.00    -0.237 OA
ATOM     85  O   UNL A   1      42.603  18.629  27.134  1.00  0.00    -0.237 OA
ATOM     86  O   UNL A   1      40.707  19.279  25.694  1.00  0.00    -0.744 OA
ENDBRANCH  82  83
ENDBRANCH  50  75
BRANCH  62  87
ATOM     87  C   UNL A   1      48.070  27.158  30.136  1.00  0.00     0.058 A 
ATOM     88  C   UNL A   1      48.544  26.541  31.305  1.00  0.00     0.135 A 
ATOM     89  C   UNL A   1      49.009  27.517  29.157  1.00  0.00     0.135 A 
ATOM     90  F   UNL A   1      47.688  26.180  32.275  1.00  0.00    -0.206 F 
ATOM     91  C   UNL A   1      49.901  26.321  31.513  1.00  0.00     0.059 A 
ATOM     92  C   UNL A   1      50.370  27.280  29.330  1.00  0.00     0.059 A 
ATOM     93  F   UNL A   1      48.606  28.096  28.015  1.00  0.00    -0.206 F 
ATOM     94  C   UNL A   1      50.807  26.701  30.521  1.00  0.00     0.060 A 
BRANCH  94  95
ATOM     95  S   UNL A   1      52.566  26.422  30.815  1.00  0.00     0.124 S 
ATOM     96  O   UNL A   1      52.548  25.192  31.600  1.00  0.00    -0.237 OA
ATOM     97  O   UNL A   1      53.088  26.302  29.456  1.00  0.00    -0.237 OA
ATOM     98  O   UNL A   1      52.984  27.621  31.536  1.00  0.00    -0.744 OA
ENDBRANCH  94  95
ENDBRANCH  62  87
ENDBRANCH  36  37
ENDBRANCH  28  31
ENDBRANCH  26  27
ENDBRANCH   1  26
TORSDOF 16
ENDMDL
MODEL 2
REMARK VINA RESULT:     -11.6      1.184      1.797
REMARK SMILES COc1ccc(F)c(NC(=O)N2CCCC[C@@H]2C(=O)NCCCNC(=O)c2ccc(-c3c4nc(c(-c5c(F)cc(S(=O)(=O)[O-])cc5F)c5ccc([nH]5)c(-c5c(F)cc(S(=O)(=O)[O-])cc5F)c5nc(c(-c6c(F)cc(S(=O)(=O)[O-])cc6F)c6ccc3[nH]6)C=C5)C=C4)cc2)c1
REMARK SMILES IDX 22 1 21 2 20 3 18 4 19 5 17 7 12 8 13 9 14 10 16 11 15 12
REMARK SMILES IDX 10 13 9 14 11 16 8 17 3 18 4 19 93 20 5 21 6 22 7 23 2 24
REMARK SMILES IDX 1 25 23 26 24 27 25 28 26 30 27 31 28 32 92 33 29 34 91 35
REMARK SMILES IDX 30 36 31 37 32 38 85 39 33 40 90 41 84 42 86 43 34 44 89 45
REMARK SMILES IDX 83 46 82 47 35 49 69 50 48 51 68 52 49 53 52 54 67 55 87 56
REMARK SMILES IDX 50 57 51 58 66 60 88 61 53 62 36 63 37 64 46 65 38 66 39 67
REMARK SMILES IDX 45 68 47 69 40 70 41 71 42 72 43 73 44 74 70 75 71 76 80 77
REMARK SMILES IDX 72 78 73 79 79 80 81 81 74 82 75 83 76 84 77 85 78 86 54 87
REMARK SMILES IDX 55 88 64 89 56 90 57 91 63 92 65 93 58 94 59 95 60 96 61 97
REMARK SMILES IDX 62 98
REMARK H PARENT 20 6 9 15 24 29 86 48 52 59
REMARK Flexibility Score: inf
ROOT
ATOM      1  C   UNL A   1      33.759  28.128  26.115  1.00  0.00     0.042 C 
ENDROOT
BRANCH   1   2
ATOM      2  C   UNL A   1      33.421  26.669  25.831  1.00  0.00     0.117 C 
BRANCH   2   3
ATOM      3  N   UNL A   1      34.605  25.965  25.377  1.00  0.00    -0.354 N 
ATOM      4  C   UNL A   1      34.812  24.628  25.254  1.00  0.00     0.242 C 
ATOM      5  O   UNL A   1      35.982  24.233  25.307  1.00  0.00    -0.273 OA
ATOM      6  H   UNL A   1      35.366  26.537  25.125  1.00  0.00     0.163 HD
BRANCH   4   7
ATOM      7  C   UNL A   1      33.639  23.628  25.175  1.00  0.00     0.176 C 
ATOM      8  N   UNL A   1      32.815  23.677  23.931  1.00  0.00    -0.313 N 
ATOM      9  C   UNL A   1      31.529  22.983  23.975  1.00  0.00     0.122 C 
ATOM     10  C   UNL A   1      30.716  23.283  25.220  1.00  0.00     0.022 C 
ATOM     11  C   UNL A   1      32.801  23.817  26.460  1.00  0.00     0.035 C 
ATOM     12  C   UNL A   1      31.531  22.980  26.465  1.00  0.00     0.004 C 
BRANCH   8  13
ATOM     13  C   UNL A   1      33.206  24.092  22.677  1.00  0.00     0.322 C 
ATOM     14  N   UNL A   1      32.638  25.141  22.038  1.00  0.00    -0.305 N 
ATOM     15  H   UNL A   1      32.639  25.046  21.058  1.00  0.00     0.171 HD
ATOM     16  O   UNL A   1      34.057  23.460  22.041  1.00  0.00    -0.248 OA
BRANCH  14  17
ATOM     17  C   UNL A   1      32.050  26.337  22.479  1.00  0.00     0.082 A 
ATOM     18  C   UNL A   1      30.154  27.684  23.082  1.00  0.00     0.121 A 
ATOM     19  C   UNL A   1      30.924  28.845  23.016  1.00  0.00     0.049 A 
ATOM     20  C   UNL A   1      30.735  26.428  22.920  1.00  0.00     0.075 A 
ATOM     21  C   UNL A   1      32.285  28.746  22.734  1.00  0.00     0.045 A 
ATOM     22  C   UNL A   1      32.833  27.497  22.455  1.00  0.00     0.147 A 
ATOM     23  F   UNL A   1      34.129  27.419  22.117  1.00  0.00    -0.205 F 
BRANCH  18  24
ATOM     24  O   UNL A   1      28.800  27.730  23.272  1.00  0.00    -0.497 OA
ATOM     25  C   UNL A   1      28.360  26.561  23.976  1.00  0.00     0.278 C 
ENDBRANCH  18  24
ENDBRANCH  14  17
ENDBRANCH   8  13
ENDBRANCH   4   7
ENDBRANCH   2   3
ENDBRANCH   1   2
BRANCH   1  26
ATOM     26  C   UNL A   1      33.439  28.554  27.543  1.00  0.00     0.118 C 
BRANCH  26  27
ATOM     27  N   UNL A   1      33.517  29.997  27.721  1.00  0.00    -0.352 N 
ATOM     28  C   UNL A   1      34.553  30.757  28.205  1.00  0.00     0.251 C 
ATOM     29  H   UNL A   1      32.712  30.499  27.456  1.00  0.00     0.163 HD
ATOM     30  O   UNL A   1      34.370  31.930  28.502  1.00  0.00    -0.269 OA
BRANCH  28  31
ATOM     31  C   UNL A   1      35.880  30.134  28.386  1.00  0.00     0.039 A 
ATOM     32  C   UNL A   1      36.753  30.074  27.298  1.00  0.00     0.014 A 
ATOM     33  C   UNL A   1      36.269  29.648  29.637  1.00  0.00     0.014 A 
ATOM     34  C   UNL A   1      38.052  29.604  27.491  1.00  0.00     0.010 A 
ATOM     35  C   UNL A   1      37.587  29.259  29.845  1.00  0.00     0.010 A 
ATOM     36  C   UNL A   1      38.495  29.246  28.776  1.00  0.00    -0.014 A 
BRANCH  36  37
ATOM     37  C   UNL A   1      39.917  28.909  29.031  1.00  0.00     0.031 A 
ATOM     38  C   UNL A   1      40.852  29.937  29.600  1.00  0.00     0.074 A 
ATOM     39  C   UNL A   1      40.377  27.690  28.680  1.00  0.00     0.049 A 
ATOM     40  N   UNL A   1      42.137  29.844  29.824  1.00  0.00    -0.248 NA
ATOM     41  C   UNL A   1      40.277  31.248  29.943  1.00  0.00     0.031 C 
ATOM     42  C   UNL A   1      39.568  26.626  28.078  1.00  0.00     0.029 A 
ATOM     43  N   UNL A   1      41.630  27.140  28.770  1.00  0.00    -0.354 N 
ATOM     44  C   UNL A   1      42.523  31.078  30.334  1.00  0.00     0.074 A 
ATOM     45  C   UNL A   1      41.349  31.923  30.332  1.00  0.00     0.031 C 
ATOM     46  C   UNL A   1      40.337  25.543  27.886  1.00  0.00     0.029 A 
ATOM     47  C   UNL A   1      41.703  25.849  28.300  1.00  0.00     0.049 A 
ATOM     48  H   UNL A   1      42.405  27.624  29.139  1.00  0.00     0.167 HD
ATOM     49  C   UNL A   1      43.741  31.460  30.784  1.00  0.00     0.037 A 
ATOM     50  C   UNL A   1      42.752  25.009  28.200  1.00  0.00     0.037 A 
ATOM     51  C   UNL A   1      44.899  30.604  30.794  1.00  0.00     0.049 A 
ATOM     52  C   UNL A   1      44.104  25.472  28.667  1.00  0.00     0.074 A 
ATOM     53  C   UNL A   1      46.165  30.880  31.280  1.00  0.00     0.029 A 
ATOM     54  N   UNL A   1      44.938  29.311  30.291  1.00  0.00    -0.354 N 
ATOM     55  N   UNL A   1      44.437  26.622  29.205  1.00  0.00    -0.248 NA
ATOM     56  C   UNL A   1      45.223  24.533  28.511  1.00  0.00     0.031 C 
ATOM     57  C   UNL A   1      46.983  29.778  31.019  1.00  0.00     0.029 A 
ATOM     58  C   UNL A   1      46.215  28.791  30.421  1.00  0.00     0.049 A 
ATOM     59  H   UNL A   1      44.171  28.834  29.898  1.00  0.00     0.167 HD
ATOM     60  C   UNL A   1      45.801  26.541  29.461  1.00  0.00     0.074 A 
ATOM     61  C   UNL A   1      46.226  25.220  29.040  1.00  0.00     0.031 C 
ATOM     62  C   UNL A   1      46.626  27.476  29.991  1.00  0.00     0.037 A 
BRANCH  49  63
ATOM     63  C   UNL A   1      43.891  32.856  31.321  1.00  0.00     0.058 A 
ATOM     64  C   UNL A   1      43.478  33.171  32.626  1.00  0.00     0.135 A 
ATOM     65  C   UNL A   1      44.371  33.904  30.518  1.00  0.00     0.135 A 
ATOM     66  F   UNL A   1      43.017  32.208  33.440  1.00  0.00    -0.206 F 
ATOM     67  C   UNL A   1      43.515  34.475  33.108  1.00  0.00     0.059 A 
ATOM     68  C   UNL A   1      44.445  35.212  30.989  1.00  0.00     0.059 A 
ATOM     69  F   UNL A   1      44.799  33.656  29.270  1.00  0.00    -0.206 F 
ATOM     70  C   UNL A   1      43.999  35.490  32.279  1.00  0.00     0.060 A 
BRANCH  70  71
ATOM     71  S   UNL A   1      44.057  37.174  32.927  1.00  0.00     0.124 S 
ATOM     72  O   UNL A   1      43.009  37.144  33.941  1.00  0.00    -0.237 OA
ATOM     73  O   UNL A   1      45.425  37.261  33.427  1.00  0.00    -0.237 OA
ATOM     74  O   UNL A   1      43.773  37.997  31.754  1.00  0.00    -0.744 OA
ENDBRANCH  70  71
ENDBRANCH  49  63
BRANCH  50  75
ATOM     75  C   UNL A   1      42.551  23.642  27.647  1.00  0.00     0.058 A 
ATOM     76  C   UNL A   1      42.361  22.534  28.488  1.00  0.00     0.135 A 
ATOM     77  C   UNL A   1      42.593  23.413  26.264  1.00  0.00     0.135 A 
ATOM     78  F   UNL A   1      42.322  22.696  29.819  1.00  0.00    -0.206 F 
ATOM     79  C   UNL A   1      42.252  21.245  27.979  1.00  0.00     0.059 A 
ATOM     80  C   UNL A   1      42.459  22.134  25.729  1.00  0.00     0.059 A 
ATOM     81  F   UNL A   1      42.760  24.442  25.419  1.00  0.00    -0.206 F 
ATOM     82  C   UNL A   1      42.308  21.055  26.599  1.00  0.00     0.060 A 
BRANCH  82  83
ATOM     83  S   UNL A   1      42.189  19.368  25.963  1.00  0.00     0.124 S 
ATOM     84  O   UNL A   1      40.755  19.251  25.717  1.00  0.00    -0.237 OA
ATOM     85  O   UNL A   1      43.034  19.430  24.776  1.00  0.00    -0.237 OA
ATOM     86  O   UNL A   1      42.706  18.557  27.060  1.00  0.00    -0.744 OA
ENDBRANCH  82  83
ENDBRANCH  50  75
BRANCH  62  87
ATOM     87  C   UNL A   1      48.079  27.123  30.146  1.00  0.00     0.058 A 
ATOM     88  C   UNL A   1      48.544  26.506  31.319  1.00  0.00     0.135 A 
ATOM     89  C   UNL A   1      49.025  27.485  29.175  1.00  0.00     0.135 A 
ATOM     90  F   UNL A   1      47.682  26.143  32.282  1.00  0.00    -0.206 F 
ATOM     91  C   UNL A   1      49.901  26.290  31.538  1.00  0.00     0.059 A 
ATOM     92  C   UNL A   1      50.385  27.252  29.360  1.00  0.00     0.059 A 
ATOM     93  F   UNL A   1      48.630  28.064  28.030  1.00  0.00    -0.206 F 
ATOM     94  C   UNL A   1      50.814  26.672  30.554  1.00  0.00     0.060 A 
BRANCH  94  95
ATOM     95  S   UNL A   1      52.572  26.398  30.862  1.00  0.00     0.124 S 
ATOM     96  O   UNL A   1      53.102  26.301  29.506  1.00  0.00    -0.237 OA
ATOM     97  O   UNL A   1      52.943  27.598  31.606  1.00  0.00    -0.237 OA
ATOM     98  O   UNL A   1      52.592  25.159  31.634  1.00  0.00    -0.744 OA
ENDBRANCH  94  95
ENDBRANCH  62  87
ENDBRANCH  36  37
ENDBRANCH  28  31
ENDBRANCH  26  27
ENDBRANCH   1  26
TORSDOF 16
ENDMDL
MODEL 3
REMARK VINA RESULT:     -11.5      5.032      9.759
REMARK SMILES COc1ccc(F)c(NC(=O)N2CCCC[C@@H]2C(=O)NCCCNC(=O)c2ccc(-c3c4nc(c(-c5c(F)cc(S(=O)(=O)[O-])cc5F)c5ccc([nH]5)c(-c5c(F)cc(S(=O)(=O)[O-])cc5F)c5nc(c(-c6c(F)cc(S(=O)(=O)[O-])cc6F)c6ccc3[nH]6)C=C5)C=C4)cc2)c1
REMARK SMILES IDX 22 1 21 2 20 3 18 4 19 5 17 7 12 8 13 9 14 10 16 11 15 12
REMARK SMILES IDX 10 13 9 14 11 16 8 17 3 18 4 19 93 20 5 21 6 22 7 23 2 24
REMARK SMILES IDX 1 25 23 26 24 27 25 28 26 30 27 31 28 32 92 33 29 34 91 35
REMARK SMILES IDX 30 36 31 37 32 38 85 39 33 40 90 41 84 42 86 43 34 44 89 45
REMARK SMILES IDX 83 46 82 47 35 49 69 50 48 51 68 52 49 53 52 54 67 55 87 56
REMARK SMILES IDX 50 57 51 58 66 60 88 61 53 62 36 63 37 64 46 65 38 66 39 67
REMARK SMILES IDX 45 68 47 69 40 70 41 71 42 72 43 73 44 74 70 75 71 76 80 77
REMARK SMILES IDX 72 78 73 79 79 80 81 81 74 82 75 83 76 84 77 85 78 86 54 87
REMARK SMILES IDX 55 88 64 89 56 90 57 91 63 92 65 93 58 94 59 95 60 96 61 97
REMARK SMILES IDX 62 98
REMARK H PARENT 20 6 9 15 24 29 86 48 52 59
REMARK Flexibility Score: inf
ROOT
ATOM      1  C   UNL A   1      39.465  21.973  26.529  1.00  0.00     0.042 C 
ENDROOT
BRANCH   1   2
ATOM      2  C   UNL A   1      38.146  21.895  25.769  1.00  0.00     0.117 C 
BRANCH   2   3
ATOM      3  N   UNL A   1      37.208  22.864  26.303  1.00  0.00    -0.354 N 
ATOM      4  C   UNL A   1      35.896  23.044  25.999  1.00  0.00     0.242 C 
ATOM      5  O   UNL A   1      35.422  24.167  26.197  1.00  0.00    -0.273 OA
ATOM      6  H   UNL A   1      37.575  23.478  26.981  1.00  0.00     0.163 HD
BRANCH   4   7
ATOM      7  C   UNL A   1      35.060  21.938  25.321  1.00  0.00     0.176 C 
ATOM      8  N   UNL A   1      34.156  22.378  24.218  1.00  0.00    -0.313 N 
ATOM      9  C   UNL A   1      33.135  21.423  23.792  1.00  0.00     0.122 C 
ATOM     10  C   UNL A   1      32.378  20.786  24.943  1.00  0.00     0.022 C 
ATOM     11  C   UNL A   1      34.315  21.184  26.446  1.00  0.00     0.035 C 
ATOM     12  C   UNL A   1      33.348  20.137  25.915  1.00  0.00     0.004 C 
BRANCH   8  13
ATOM     13  C   UNL A   1      34.302  23.474  23.395  1.00  0.00     0.322 C 
ATOM     14  N   UNL A   1      33.497  24.559  23.462  1.00  0.00    -0.305 N 
ATOM     15  H   UNL A   1      33.378  25.010  22.596  1.00  0.00     0.171 HD
ATOM     16  O   UNL A   1      35.145  23.473  22.491  1.00  0.00    -0.248 OA
BRANCH  14  17
ATOM     17  C   UNL A   1      32.798  25.178  24.510  1.00  0.00     0.082 A 
ATOM     18  C   UNL A   1      30.991  25.298  26.088  1.00  0.00     0.121 A 
ATOM     19  C   UNL A   1      31.268  26.641  26.345  1.00  0.00     0.049 A 
ATOM     20  C   UNL A   1      31.815  24.542  25.258  1.00  0.00     0.075 A 
ATOM     21  C   UNL A   1      32.357  27.244  25.720  1.00  0.00     0.045 A 
ATOM     22  C   UNL A   1      33.104  26.513  24.800  1.00  0.00     0.147 A 
ATOM     23  F   UNL A   1      34.109  27.122  24.152  1.00  0.00    -0.205 F 
BRANCH  18  24
ATOM     24  O   UNL A   1      29.886  24.681  26.608  1.00  0.00    -0.497 OA
ATOM     25  C   UNL A   1      30.168  23.298  26.866  1.00  0.00     0.278 C 
ENDBRANCH  18  24
ENDBRANCH  14  17
ENDBRANCH   8  13
ENDBRANCH   4   7
ENDBRANCH   2   3
ENDBRANCH   1   2
BRANCH   1  26
ATOM     26  C   UNL A   1      39.783  23.373  27.042  1.00  0.00     0.118 C 
BRANCH  26  27
ATOM     27  N   UNL A   1      40.475  24.182  26.048  1.00  0.00    -0.352 N 
ATOM     28  C   UNL A   1      40.886  25.490  26.126  1.00  0.00     0.251 C 
ATOM     29  H   UNL A   1      40.677  23.725  25.198  1.00  0.00     0.163 HD
ATOM     30  O   UNL A   1      41.248  26.083  25.119  1.00  0.00    -0.269 OA
BRANCH  28  31
ATOM     31  C   UNL A   1      40.860  26.175  27.434  1.00  0.00     0.039 A 
ATOM     32  C   UNL A   1      41.947  26.969  27.803  1.00  0.00     0.014 A 
ATOM     33  C   UNL A   1      39.745  26.062  28.269  1.00  0.00     0.014 A 
ATOM     34  C   UNL A   1      41.876  27.720  28.977  1.00  0.00     0.010 A 
ATOM     35  C   UNL A   1      39.643  26.874  29.393  1.00  0.00     0.010 A 
ATOM     36  C   UNL A   1      40.703  27.720  29.751  1.00  0.00    -0.014 A 
BRANCH  36  37
ATOM     37  C   UNL A   1      40.545  28.641  30.904  1.00  0.00     0.031 A 
ATOM     38  C   UNL A   1      39.529  29.746  30.861  1.00  0.00     0.074 A 
ATOM     39  C   UNL A   1      41.372  28.516  31.962  1.00  0.00     0.049 A 
ATOM     40  N   UNL A   1      39.298  30.684  31.743  1.00  0.00    -0.248 NA
ATOM     41  C   UNL A   1      38.674  29.823  29.665  1.00  0.00     0.031 C 
ATOM     42  C   UNL A   1      42.426  27.506  32.093  1.00  0.00     0.029 A 
ATOM     43  N   UNL A   1      41.465  29.242  33.122  1.00  0.00    -0.354 N 
ATOM     44  C   UNL A   1      38.275  31.459  31.211  1.00  0.00     0.074 A 
ATOM     45  C   UNL A   1      37.968  30.919  29.905  1.00  0.00     0.031 C 
ATOM     46  C   UNL A   1      43.034  27.655  33.280  1.00  0.00     0.029 A 
ATOM     47  C   UNL A   1      42.453  28.800  33.973  1.00  0.00     0.049 A 
ATOM     48  H   UNL A   1      40.878  30.005  33.328  1.00  0.00     0.167 HD
ATOM     49  C   UNL A   1      37.635  32.511  31.775  1.00  0.00     0.037 A 
ATOM     50  C   UNL A   1      42.855  29.272  35.169  1.00  0.00     0.037 A 
ATOM     51  C   UNL A   1      37.941  33.031  33.082  1.00  0.00     0.049 A 
ATOM     52  C   UNL A   1      42.157  30.468  35.754  1.00  0.00     0.074 A 
ATOM     53  C   UNL A   1      37.314  34.059  33.764  1.00  0.00     0.029 A 
ATOM     54  N   UNL A   1      38.961  32.571  33.903  1.00  0.00    -0.354 N 
ATOM     55  N   UNL A   1      41.150  31.151  35.265  1.00  0.00    -0.248 NA
ATOM     56  C   UNL A   1      42.651  30.963  37.046  1.00  0.00     0.031 C 
ATOM     57  C   UNL A   1      37.990  34.259  34.971  1.00  0.00     0.029 A 
ATOM     58  C   UNL A   1      39.003  33.319  35.069  1.00  0.00     0.049 A 
ATOM     59  H   UNL A   1      39.565  31.824  33.689  1.00  0.00     0.167 HD
ATOM     60  C   UNL A   1      40.881  32.149  36.194  1.00  0.00     0.074 A 
ATOM     61  C   UNL A   1      41.818  31.968  37.285  1.00  0.00     0.031 C 
ATOM     62  C   UNL A   1      39.947  33.130  36.145  1.00  0.00     0.037 A 
BRANCH  49  63
ATOM     63  C   UNL A   1      36.529  33.167  30.995  1.00  0.00     0.058 A 
ATOM     64  C   UNL A   1      36.820  34.083  29.971  1.00  0.00     0.135 A 
ATOM     65  C   UNL A   1      35.178  32.949  31.312  1.00  0.00     0.135 A 
ATOM     66  F   UNL A   1      38.093  34.325  29.622  1.00  0.00    -0.206 F 
ATOM     67  C   UNL A   1      35.813  34.775  29.305  1.00  0.00     0.059 A 
ATOM     68  C   UNL A   1      34.154  33.608  30.640  1.00  0.00     0.059 A 
ATOM     69  F   UNL A   1      34.843  32.068  32.268  1.00  0.00    -0.206 F 
ATOM     70  C   UNL A   1      34.482  34.531  29.649  1.00  0.00     0.060 A 
BRANCH  70  71
ATOM     71  S   UNL A   1      33.188  35.425  28.762  1.00  0.00     0.124 S 
ATOM     72  O   UNL A   1      32.500  34.345  28.065  1.00  0.00    -0.237 OA
ATOM     73  O   UNL A   1      32.448  36.052  29.854  1.00  0.00    -0.237 OA
ATOM     74  O   UNL A   1      33.935  36.347  27.912  1.00  0.00    -0.744 OA
ENDBRANCH  70  71
ENDBRANCH  49  63
BRANCH  50  75
ATOM     75  C   UNL A   1      43.966  28.594  35.892  1.00  0.00     0.058 A 
ATOM     76  C   UNL A   1      45.304  28.969  35.692  1.00  0.00     0.135 A 
ATOM     77  C   UNL A   1      43.711  27.524  36.763  1.00  0.00     0.135 A 
ATOM     78  F   UNL A   1      45.605  29.980  34.863  1.00  0.00    -0.206 F 
ATOM     79  C   UNL A   1      46.350  28.288  36.304  1.00  0.00     0.059 A 
ATOM     80  C   UNL A   1      44.740  26.844  37.408  1.00  0.00     0.059 A 
ATOM     81  F   UNL A   1      42.447  27.137  36.995  1.00  0.00    -0.206 F 
ATOM     82  C   UNL A   1      46.058  27.223  37.156  1.00  0.00     0.060 A 
BRANCH  82  83
ATOM     83  S   UNL A   1      47.434  26.337  37.920  1.00  0.00     0.124 S 
ATOM     84  O   UNL A   1      47.306  26.748  39.315  1.00  0.00    -0.237 OA
ATOM     85  O   UNL A   1      47.097  24.947  37.634  1.00  0.00    -0.237 OA
ATOM     86  O   UNL A   1      48.602  26.857  37.218  1.00  0.00    -0.744 OA
ENDBRANCH  82  83
ENDBRANCH  50  75
BRANCH  62  87
ATOM     87  C   UNL A   1      39.883  34.097  37.294  1.00  0.00     0.058 A 
ATOM     88  C   UNL A   1      39.065  33.836  38.405  1.00  0.00     0.135 A 
ATOM     89  C   UNL A   1      40.556  35.328  37.250  1.00  0.00     0.135 A 
ATOM     90  F   UNL A   1      38.396  32.675  38.496  1.00  0.00    -0.206 F 
ATOM     91  C   UNL A   1      38.891  34.774  39.417  1.00  0.00     0.059 A 
ATOM     92  C   UNL A   1      40.420  36.270  38.265  1.00  0.00     0.059 A 
ATOM     93  F   UNL A   1      41.362  35.620  36.216  1.00  0.00    -0.206 F 
ATOM     94  C   UNL A   1      39.569  35.991  39.334  1.00  0.00     0.060 A 
BRANCH  94  95
ATOM     95  S   UNL A   1      39.318  37.203  40.649  1.00  0.00     0.124 S 
ATOM     96  O   UNL A   1      38.306  38.076  40.064  1.00  0.00    -0.237 OA
ATOM     97  O   UNL A   1      38.872  36.364  41.757  1.00  0.00    -0.237 OA
ATOM     98  O   UNL A   1      40.640  37.800  40.816  1.00  0.00    -0.744 OA
ENDBRANCH  94  95
ENDBRANCH  62  87
ENDBRANCH  36  37
ENDBRANCH  28  31
ENDBRANCH  26  27
ENDBRANCH   1  26
TORSDOF 16
ENDMDL
