MODEL 1
REMARK VINA RESULT:     -12.0      0.000      0.000
REMARK SMILES CC1(C)NC(=O)N(CCC(=O)N2CCC[C@H]2C(=O)NCCCNC(=O)c2ccc(-c3c4nc(c(-c5c(F)cc(S(=O)(=O)[O-])cc5F)c5ccc([nH]5)c(-c5c(F)cc(S(=O)(=O)[O-])cc5F)c5nc(c(-c6c(F)cc(S(=O)(=O)[O-])cc6F)c6ccc3[nH]6)C=C5)C=C4)cc2)C1=O
REMARK SMILES IDX 20 1 19 2 17 3 18 4 16 6 12 7 13 8 14 9 15 10 10 11 11 12
REMARK SMILES IDX 9 13 8 14 7 15 1 16 2 17 3 18 4 19 92 20 5 21 93 23 6 24
REMARK SMILES IDX 21 25 22 26 23 27 24 28 25 30 26 31 27 32 91 33 28 34 90 35
REMARK SMILES IDX 29 36 30 37 31 38 84 39 32 40 89 41 83 42 85 43 33 44 88 45
REMARK SMILES IDX 82 46 81 47 34 49 68 50 47 51 67 52 48 53 51 54 66 55 86 56
REMARK SMILES IDX 49 57 50 58 65 60 87 61 52 62 35 63 36 64 45 65 37 66 38 67
REMARK SMILES IDX 44 68 46 69 39 70 40 71 41 72 42 73 43 74 69 75 70 76 79 77
REMARK SMILES IDX 71 78 72 79 78 80 80 81 73 82 74 83 75 84 76 85 77 86 53 87
REMARK SMILES IDX 54 88 63 89 55 90 56 91 62 92 64 93 57 94 58 95 59 96 60 97
REMARK SMILES IDX 61 98
REMARK H PARENT 19 5 4 22 23 29 85 48 51 59
REMARK Flexibility Score: inf
ROOT
ATOM      1  C   UNL A   1      36.854  23.925  26.035  1.00  0.00     0.117 C 
ENDROOT
BRANCH   1   2
ATOM      2  N   UNL A   1      35.768  22.986  26.215  1.00  0.00    -0.354 N 
ATOM      3  C   UNL A   1      34.492  23.342  26.508  1.00  0.00     0.242 C 
ATOM      4  O   UNL A   1      34.009  22.835  27.521  1.00  0.00    -0.273 OA
ATOM      5  H   UNL A   1      35.968  22.026  26.121  1.00  0.00     0.163 HD
BRANCH   3   6
ATOM      6  C   UNL A   1      33.692  24.307  25.630  1.00  0.00     0.174 C 
ATOM      7  N   UNL A   1      32.415  23.848  25.123  1.00  0.00    -0.331 N 
ATOM      8  C   UNL A   1      31.342  24.596  25.747  1.00  0.00     0.120 C 
ATOM      9  C   UNL A   1      31.958  25.913  26.201  1.00  0.00     0.024 C 
ATOM     10  C   UNL A   1      33.469  25.722  26.151  1.00  0.00     0.037 C 
BRANCH   7  11
ATOM     11  C   UNL A   1      32.201  23.084  23.990  1.00  0.00     0.225 C 
ATOM     12  O   UNL A   1      31.379  23.438  23.138  1.00  0.00    -0.275 OA
BRANCH  11  13
ATOM     13  C   UNL A   1      32.903  21.738  23.815  1.00  0.00     0.122 C 
BRANCH  13  14
ATOM     14  C   UNL A   1      32.791  20.724  24.960  1.00  0.00     0.140 C 
BRANCH  14  15
ATOM     15  N   UNL A   1      33.532  19.483  24.760  1.00  0.00    -0.262 N 
ATOM     16  C   UNL A   1      34.289  16.568  23.069  1.00  0.00     0.045 C 
ATOM     17  C   UNL A   1      34.102  17.197  24.442  1.00  0.00     0.115 C 
ATOM     18  C   UNL A   1      33.875  16.127  25.510  1.00  0.00     0.045 C 
ATOM     19  N   UNL A   1      35.233  18.049  24.740  1.00  0.00    -0.324 N 
ATOM     20  C   UNL A   1      32.982  18.267  24.431  1.00  0.00     0.255 C 
ATOM     21  C   UNL A   1      34.887  19.376  24.823  1.00  0.00     0.325 C 
ATOM     22  H   UNL A   1      36.150  17.714  24.869  1.00  0.00     0.166 HD
ATOM     23  O   UNL A   1      31.813  18.058  24.137  1.00  0.00    -0.272 OA
ATOM     24  O   UNL A   1      35.701  20.270  24.992  1.00  0.00    -0.248 OA
ENDBRANCH  14  15
ENDBRANCH  13  14
ENDBRANCH  11  13
ENDBRANCH   7  11
ENDBRANCH   3   6
ENDBRANCH   1   2
BRANCH   1  25
ATOM     25  C   UNL A   1      38.187  23.197  25.893  1.00  0.00     0.042 C 
BRANCH  25  26
ATOM     26  C   UNL A   1      39.259  23.675  26.871  1.00  0.00     0.118 C 
BRANCH  26  27
ATOM     27  N   UNL A   1      40.539  23.892  26.209  1.00  0.00    -0.352 N 
ATOM     28  C   UNL A   1      41.388  24.964  26.301  1.00  0.00     0.251 C 
ATOM     29  H   UNL A   1      40.836  23.167  25.613  1.00  0.00     0.163 HD
ATOM     30  O   UNL A   1      42.268  25.121  25.461  1.00  0.00    -0.269 OA
BRANCH  28  31
ATOM     31  C   UNL A   1      41.225  25.919  27.412  1.00  0.00     0.039 A 
ATOM     32  C   UNL A   1      42.096  27.005  27.512  1.00  0.00     0.014 A 
ATOM     33  C   UNL A   1      40.217  25.723  28.360  1.00  0.00     0.014 A 
ATOM     34  C   UNL A   1      41.927  27.921  28.549  1.00  0.00     0.010 A 
ATOM     35  C   UNL A   1      39.998  26.681  29.340  1.00  0.00     0.010 A 
ATOM     36  C   UNL A   1      40.866  27.775  29.458  1.00  0.00    -0.014 A 
BRANCH  36  37
ATOM     37  C   UNL A   1      40.673  28.731  30.572  1.00  0.00     0.031 A 
ATOM     38  C   UNL A   1      41.513  28.601  31.815  1.00  0.00     0.074 A 
ATOM     39  C   UNL A   1      39.711  29.670  30.488  1.00  0.00     0.049 A 
ATOM     40  N   UNL A   1      41.462  29.295  32.922  1.00  0.00    -0.248 NA
ATOM     41  C   UNL A   1      42.520  27.527  31.827  1.00  0.00     0.031 C 
ATOM     42  C   UNL A   1      38.797  29.845  29.357  1.00  0.00     0.029 A 
ATOM     43  N   UNL A   1      39.336  30.646  31.374  1.00  0.00    -0.354 N 
ATOM     44  C   UNL A   1      42.413  28.731  33.764  1.00  0.00     0.074 A 
ATOM     45  C   UNL A   1      42.983  27.601  33.065  1.00  0.00     0.031 C 
ATOM     46  C   UNL A   1      37.980  30.881  29.610  1.00  0.00     0.029 A 
ATOM     47  C   UNL A   1      38.295  31.425  30.927  1.00  0.00     0.049 A 
ATOM     48  H   UNL A   1      39.771  30.778  32.246  1.00  0.00     0.167 HD
ATOM     49  C   UNL A   1      42.796  29.136  34.998  1.00  0.00     0.037 A 
ATOM     50  C   UNL A   1      37.668  32.461  31.516  1.00  0.00     0.037 A 
ATOM     51  C   UNL A   1      42.246  30.282  35.669  1.00  0.00     0.049 A 
ATOM     52  C   UNL A   1      38.140  32.920  32.869  1.00  0.00     0.074 A 
ATOM     53  C   UNL A   1      42.598  30.816  36.895  1.00  0.00     0.029 A 
ATOM     54  N   UNL A   1      41.228  31.078  35.163  1.00  0.00    -0.354 N 
ATOM     55  N   UNL A   1      39.084  32.413  33.627  1.00  0.00    -0.248 NA
ATOM     56  C   UNL A   1      37.476  34.099  33.439  1.00  0.00     0.031 C 
ATOM     57  C   UNL A   1      41.773  31.919  37.144  1.00  0.00     0.029 A 
ATOM     58  C   UNL A   1      40.935  32.096  36.054  1.00  0.00     0.049 A 
ATOM     59  H   UNL A   1      40.780  30.940  34.297  1.00  0.00     0.167 HD
ATOM     60  C   UNL A   1      39.142  33.224  34.755  1.00  0.00     0.074 A 
ATOM     61  C   UNL A   1      38.148  34.263  34.570  1.00  0.00     0.031 C 
ATOM     62  C   UNL A   1      39.944  33.122  35.843  1.00  0.00     0.037 A 
BRANCH  49  63
ATOM     63  C   UNL A   1      43.872  28.339  35.685  1.00  0.00     0.058 A 
ATOM     64  C   UNL A   1      45.234  28.610  35.476  1.00  0.00     0.135 A 
ATOM     65  C   UNL A   1      43.540  27.300  36.568  1.00  0.00     0.135 A 
ATOM     66  F   UNL A   1      45.608  29.581  34.627  1.00  0.00    -0.206 F 
ATOM     67  C   UNL A   1      46.229  27.857  36.090  1.00  0.00     0.059 A 
ATOM     68  C   UNL A   1      44.520  26.550  37.215  1.00  0.00     0.059 A 
ATOM     69  F   UNL A   1      42.254  26.996  36.804  1.00  0.00    -0.206 F 
ATOM     70  C   UNL A   1      45.862  26.826  36.956  1.00  0.00     0.060 A 
BRANCH  70  71
ATOM     71  S   UNL A   1      47.165  25.854  37.741  1.00  0.00     0.124 S 
ATOM     72  O   UNL A   1      47.132  24.630  36.946  1.00  0.00    -0.237 OA
ATOM     73  O   UNL A   1      48.341  26.698  37.555  1.00  0.00    -0.237 OA
ATOM     74  O   UNL A   1      46.705  25.720  39.119  1.00  0.00    -0.744 OA
ENDBRANCH  70  71
ENDBRANCH  49  63
BRANCH  50  75
ATOM     75  C   UNL A   1      36.560  33.153  30.810  1.00  0.00     0.058 A 
ATOM     76  C   UNL A   1      35.227  32.967  31.206  1.00  0.00     0.135 A 
ATOM     77  C   UNL A   1      36.810  34.037  29.750  1.00  0.00     0.135 A 
ATOM     78  F   UNL A   1      34.938  32.131  32.215  1.00  0.00    -0.206 F 
ATOM     79  C   UNL A   1      34.179  33.622  30.567  1.00  0.00     0.059 A 
ATOM     80  C   UNL A   1      35.781  34.720  29.110  1.00  0.00     0.059 A 
ATOM     81  F   UNL A   1      38.070  34.266  29.348  1.00  0.00    -0.206 F 
ATOM     82  C   UNL A   1      34.466  34.499  29.520  1.00  0.00     0.060 A 
BRANCH  82  83
ATOM     83  S   UNL A   1      33.104  35.388  28.737  1.00  0.00     0.124 S 
ATOM     84  O   UNL A   1      32.369  35.880  29.897  1.00  0.00    -0.237 OA
ATOM     85  O   UNL A   1      33.805  36.397  27.950  1.00  0.00    -0.237 OA
ATOM     86  O   UNL A   1      32.433  34.352  27.957  1.00  0.00    -0.744 OA
ENDBRANCH  82  83
ENDBRANCH  50  75
BRANCH  62  87
ATOM     87  C   UNL A   1      39.799  34.176  36.903  1.00  0.00     0.058 A 
ATOM     88  C   UNL A   1      39.033  33.957  38.059  1.00  0.00     0.135 A 
ATOM     89  C   UNL A   1      40.471  35.402  36.780  1.00  0.00     0.135 A 
ATOM     90  F   UNL A   1      38.368  32.803  38.220  1.00  0.00    -0.206 F 
ATOM     91  C   UNL A   1      38.916  34.931  39.044  1.00  0.00     0.059 A 
ATOM     92  C   UNL A   1      40.388  36.380  37.765  1.00  0.00     0.059 A 
ATOM     93  F   UNL A   1      41.225  35.654  35.698  1.00  0.00    -0.206 F 
ATOM     94  C   UNL A   1      39.597  36.140  38.887  1.00  0.00     0.060 A 
BRANCH  94  95
ATOM     95  S   UNL A   1      39.457  37.388  40.184  1.00  0.00     0.124 S 
ATOM     96  O   UNL A   1      40.847  37.802  40.343  1.00  0.00    -0.237 OA
ATOM     97  O   UNL A   1      38.568  38.373  39.578  1.00  0.00    -0.237 OA
ATOM     98  O   UNL A   1      38.889  36.648  41.307  1.00  0.00    -0.744 OA
ENDBRANCH  94  95
ENDBRANCH  62  87
ENDBRANCH  36  37
ENDBRANCH  28  31
ENDBRANCH  26  27
ENDBRANCH  25  26
ENDBRANCH   1  25
TORSDOF 17
ENDMDL
MODEL 2
REMARK VINA RESULT:     -12.0      1.587      3.782
REMARK SMILES CC1(C)NC(=O)N(CCC(=O)N2CCC[C@H]2C(=O)NCCCNC(=O)c2ccc(-c3c4nc(c(-c5c(F)cc(S(=O)(=O)[O-])cc5F)c5ccc([nH]5)c(-c5c(F)cc(S(=O)(=O)[O-])cc5F)c5nc(c(-c6c(F)cc(S(=O)(=O)[O-])cc6F)c6ccc3[nH]6)C=C5)C=C4)cc2)C1=O
REMARK SMILES IDX 20 1 19 2 17 3 18 4 16 6 12 7 13 8 14 9 15 10 10 11 11 12
REMARK SMILES IDX 9 13 8 14 7 15 1 16 2 17 3 18 4 19 92 20 5 21 93 23 6 24
REMARK SMILES IDX 21 25 22 26 23 27 24 28 25 30 26 31 27 32 91 33 28 34 90 35
REMARK SMILES IDX 29 36 30 37 31 38 84 39 32 40 89 41 83 42 85 43 33 44 88 45
REMARK SMILES IDX 82 46 81 47 34 49 68 50 47 51 67 52 48 53 51 54 66 55 86 56
REMARK SMILES IDX 49 57 50 58 65 60 87 61 52 62 35 63 36 64 45 65 37 66 38 67
REMARK SMILES IDX 44 68 46 69 39 70 40 71 41 72 42 73 43 74 69 75 70 76 79 77
REMARK SMILES IDX 71 78 72 79 78 80 80 81 73 82 74 83 75 84 76 85 77 86 53 87
REMARK SMILES IDX 54 88 63 89 55 90 56 91 62 92 64 93 57 94 58 95 59 96 60 97
REMARK SMILES IDX 61 98
REMARK H PARENT 19 5 4 22 23 29 85 48 51 59
REMARK Flexibility Score: inf
ROOT
ATOM      1  C   UNL A   1      36.178  23.776  25.840  1.00  0.00     0.117 C 
ENDROOT
BRANCH   1   2
ATOM      2  N   UNL A   1      35.720  24.121  24.512  1.00  0.00    -0.354 N 
ATOM      3  C   UNL A   1      35.008  23.289  23.711  1.00  0.00     0.242 C 
ATOM      4  O   UNL A   1      35.487  23.069  22.598  1.00  0.00    -0.273 OA
ATOM      5  H   UNL A   1      35.941  25.016  24.166  1.00  0.00     0.163 HD
BRANCH   3   6
ATOM      6  C   UNL A   1      33.681  22.666  24.154  1.00  0.00     0.174 C 
ATOM      7  N   UNL A   1      32.524  22.887  23.312  1.00  0.00    -0.331 N 
ATOM      8  C   UNL A   1      32.123  21.640  22.692  1.00  0.00     0.120 C 
ATOM      9  C   UNL A   1      32.658  20.533  23.592  1.00  0.00     0.024 C 
ATOM     10  C   UNL A   1      33.679  21.186  24.517  1.00  0.00     0.037 C 
BRANCH   7  11
ATOM     11  C   UNL A   1      31.689  23.989  23.327  1.00  0.00     0.225 C 
ATOM     12  O   UNL A   1      30.461  23.849  23.293  1.00  0.00    -0.275 OA
BRANCH  11  13
ATOM     13  C   UNL A   1      32.265  25.403  23.285  1.00  0.00     0.122 C 
BRANCH  13  14
ATOM     14  C   UNL A   1      31.326  26.564  23.632  1.00  0.00     0.140 C 
BRANCH  14  15
ATOM     15  N   UNL A   1      31.585  27.205  24.917  1.00  0.00    -0.262 N 
ATOM     16  C   UNL A   1      31.844  29.933  27.019  1.00  0.00     0.045 C 
ATOM     17  C   UNL A   1      32.463  28.599  26.631  1.00  0.00     0.115 C 
ATOM     18  C   UNL A   1      33.905  28.497  27.128  1.00  0.00     0.045 C 
ATOM     19  N   UNL A   1      31.630  27.521  27.120  1.00  0.00    -0.324 N 
ATOM     20  C   UNL A   1      32.343  28.335  25.110  1.00  0.00     0.255 C 
ATOM     21  C   UNL A   1      31.060  26.793  26.103  1.00  0.00     0.325 C 
ATOM     22  H   UNL A   1      31.487  27.332  28.075  1.00  0.00     0.166 HD
ATOM     23  O   UNL A   1      32.816  29.047  24.234  1.00  0.00    -0.272 OA
ATOM     24  O   UNL A   1      30.264  25.887  26.295  1.00  0.00    -0.248 OA
ENDBRANCH  14  15
ENDBRANCH  13  14
ENDBRANCH  11  13
ENDBRANCH   7  11
ENDBRANCH   3   6
ENDBRANCH   1   2
BRANCH   1  25
ATOM     25  C   UNL A   1      37.623  23.287  25.808  1.00  0.00     0.042 C 
BRANCH  25  26
ATOM     26  C   UNL A   1      38.570  24.102  26.688  1.00  0.00     0.118 C 
BRANCH  26  27
ATOM     27  N   UNL A   1      39.937  24.077  26.183  1.00  0.00    -0.352 N 
ATOM     28  C   UNL A   1      40.952  24.973  26.391  1.00  0.00     0.251 C 
ATOM     29  H   UNL A   1      40.163  23.307  25.612  1.00  0.00     0.163 HD
ATOM     30  O   UNL A   1      41.938  24.962  25.662  1.00  0.00    -0.269 OA
BRANCH  28  31
ATOM     31  C   UNL A   1      40.840  25.945  27.494  1.00  0.00     0.039 A 
ATOM     32  C   UNL A   1      41.661  27.073  27.497  1.00  0.00     0.014 A 
ATOM     33  C   UNL A   1      39.928  25.724  28.530  1.00  0.00     0.014 A 
ATOM     34  C   UNL A   1      41.537  28.005  28.527  1.00  0.00     0.010 A 
ATOM     35  C   UNL A   1      39.747  26.693  29.507  1.00  0.00     0.010 A 
ATOM     36  C   UNL A   1      40.567  27.830  29.527  1.00  0.00    -0.014 A 
BRANCH  36  37
ATOM     37  C   UNL A   1      40.425  28.802  30.635  1.00  0.00     0.031 A 
ATOM     38  C   UNL A   1      41.292  28.665  31.858  1.00  0.00     0.074 A 
ATOM     39  C   UNL A   1      39.483  29.762  30.565  1.00  0.00     0.049 A 
ATOM     40  N   UNL A   1      41.286  29.372  32.959  1.00  0.00    -0.248 NA
ATOM     41  C   UNL A   1      42.274  27.568  31.857  1.00  0.00     0.031 C 
ATOM     42  C   UNL A   1      38.545  29.947  29.455  1.00  0.00     0.029 A 
ATOM     43  N   UNL A   1      39.153  30.756  31.449  1.00  0.00    -0.354 N 
ATOM     44  C   UNL A   1      42.244  28.794  33.783  1.00  0.00     0.074 A 
ATOM     45  C   UNL A   1      42.770  27.644  33.082  1.00  0.00     0.031 C 
ATOM     46  C   UNL A   1      37.759  31.004  29.716  1.00  0.00     0.029 A 
ATOM     47  C   UNL A   1      38.120  31.554  31.019  1.00  0.00     0.049 A 
ATOM     48  H   UNL A   1      39.613  30.887  32.308  1.00  0.00     0.167 HD
ATOM     49  C   UNL A   1      42.668  29.203  35.002  1.00  0.00     0.037 A 
ATOM     50  C   UNL A   1      37.532  32.610  31.613  1.00  0.00     0.037 A 
ATOM     51  C   UNL A   1      42.161  30.369  35.674  1.00  0.00     0.049 A 
ATOM     52  C   UNL A   1      38.048  33.072  32.948  1.00  0.00     0.074 A 
ATOM     53  C   UNL A   1      42.556  30.907  36.885  1.00  0.00     0.029 A 
ATOM     54  N   UNL A   1      41.149  31.183  35.184  1.00  0.00    -0.354 N 
ATOM     55  N   UNL A   1      38.999  32.552  33.688  1.00  0.00    -0.248 NA
ATOM     56  C   UNL A   1      37.426  34.273  33.522  1.00  0.00     0.031 C 
ATOM     57  C   UNL A   1      41.763  32.032  37.142  1.00  0.00     0.029 A 
ATOM     58  C   UNL A   1      40.902  32.216  36.071  1.00  0.00     0.049 A 
ATOM     59  H   UNL A   1      40.676  31.046  34.331  1.00  0.00     0.167 HD
ATOM     60  C   UNL A   1      39.104  33.373  34.805  1.00  0.00     0.074 A 
ATOM     61  C   UNL A   1      38.130  34.433  34.633  1.00  0.00     0.031 C 
ATOM     62  C   UNL A   1      39.930  33.264  35.874  1.00  0.00     0.037 A 
BRANCH  49  63
ATOM     63  C   UNL A   1      43.741  28.388  35.671  1.00  0.00     0.058 A 
ATOM     64  C   UNL A   1      45.104  28.627  35.428  1.00  0.00     0.135 A 
ATOM     65  C   UNL A   1      43.408  27.364  36.571  1.00  0.00     0.135 A 
ATOM     66  F   UNL A   1      45.479  29.583  34.561  1.00  0.00    -0.206 F 
ATOM     67  C   UNL A   1      46.096  27.858  36.025  1.00  0.00     0.059 A 
ATOM     68  C   UNL A   1      44.386  26.599  37.201  1.00  0.00     0.059 A 
ATOM     69  F   UNL A   1      42.121  27.091  36.840  1.00  0.00    -0.206 F 
ATOM     70  C   UNL A   1      45.728  26.843  36.908  1.00  0.00     0.060 A 
BRANCH  70  71
ATOM     71  S   UNL A   1      47.027  25.848  37.671  1.00  0.00     0.124 S 
ATOM     72  O   UNL A   1      48.183  26.206  36.855  1.00  0.00    -0.237 OA
ATOM     73  O   UNL A   1      47.040  26.350  39.042  1.00  0.00    -0.237 OA
ATOM     74  O   UNL A   1      46.545  24.480  37.513  1.00  0.00    -0.744 OA
ENDBRANCH  70  71
ENDBRANCH  49  63
BRANCH  50  75
ATOM     75  C   UNL A   1      36.423  33.321  30.927  1.00  0.00     0.058 A 
ATOM     76  C   UNL A   1      35.107  33.235  31.407  1.00  0.00     0.135 A 
ATOM     77  C   UNL A   1      36.656  34.125  29.801  1.00  0.00     0.135 A 
ATOM     78  F   UNL A   1      34.834  32.479  32.480  1.00  0.00    -0.206 F 
ATOM     79  C   UNL A   1      34.060  33.909  30.787  1.00  0.00     0.059 A 
ATOM     80  C   UNL A   1      35.629  34.826  29.177  1.00  0.00     0.059 A 
ATOM     81  F   UNL A   1      37.901  34.257  29.316  1.00  0.00    -0.206 F 
ATOM     82  C   UNL A   1      34.331  34.705  29.672  1.00  0.00     0.060 A 
BRANCH  82  83
ATOM     83  S   UNL A   1      32.974  35.621  28.912  1.00  0.00     0.124 S 
ATOM     84  O   UNL A   1      32.365  34.598  28.069  1.00  0.00    -0.237 OA
ATOM     85  O   UNL A   1      32.196  36.040  30.072  1.00  0.00    -0.237 OA
ATOM     86  O   UNL A   1      33.656  36.699  28.202  1.00  0.00    -0.744 OA
ENDBRANCH  82  83
ENDBRANCH  50  75
BRANCH  62  87
ATOM     87  C   UNL A   1      39.837  34.332  36.925  1.00  0.00     0.058 A 
ATOM     88  C   UNL A   1      40.606  35.504  36.852  1.00  0.00     0.135 A 
ATOM     89  C   UNL A   1      38.938  34.199  37.994  1.00  0.00     0.135 A 
ATOM     90  F   UNL A   1      41.485  35.676  35.853  1.00  0.00    -0.206 F 
ATOM     91  C   UNL A   1      40.504  36.497  37.820  1.00  0.00     0.059 A 
ATOM     92  C   UNL A   1      38.802  35.191  38.959  1.00  0.00     0.059 A 
ATOM     93  F   UNL A   1      38.172  33.101  38.101  1.00  0.00    -0.206 F 
ATOM     94  C   UNL A   1      39.599  36.331  38.870  1.00  0.00     0.060 A 
BRANCH  94  95
ATOM     95  S   UNL A   1      39.458  37.637  40.108  1.00  0.00     0.124 S 
ATOM     96  O   UNL A   1      38.298  38.377  39.622  1.00  0.00    -0.237 OA
ATOM     97  O   UNL A   1      39.258  36.882  41.341  1.00  0.00    -0.237 OA
ATOM     98  O   UNL A   1      40.736  38.336  40.010  1.00  0.00    -0.744 OA
ENDBRANCH  94  95
ENDBRANCH  62  87
ENDBRANCH  36  37
ENDBRANCH  28  31
ENDBRANCH  26  27
ENDBRANCH  25  26
ENDBRANCH   1  25
TORSDOF 17
ENDMDL
MODEL 3
REMARK VINA RESULT:     -12.0      3.111      9.019
REMARK SMILES CC1(C)NC(=O)N(CCC(=O)N2CCC[C@H]2C(=O)NCCCNC(=O)c2ccc(-c3c4nc(c(-c5c(F)cc(S(=O)(=O)[O-])cc5F)c5ccc([nH]5)c(-c5c(F)cc(S(=O)(=O)[O-])cc5F)c5nc(c(-c6c(F)cc(S(=O)(=O)[O-])cc6F)c6ccc3[nH]6)C=C5)C=C4)cc2)C1=O
REMARK SMILES IDX 20 1 19 2 17 3 18 4 16 6 12 7 13 8 14 9 15 10 10 11 11 12
REMARK SMILES IDX 9 13 8 14 7 15 1 16 2 17 3 18 4 19 92 20 5 21 93 23 6 24
REMARK SMILES IDX 21 25 22 26 23 27 24 28 25 30 26 31 27 32 91 33 28 34 90 35
REMARK SMILES IDX 29 36 30 37 31 38 84 39 32 40 89 41 83 42 85 43 33 44 88 45
REMARK SMILES IDX 82 46 81 47 34 49 68 50 47 51 67 52 48 53 51 54 66 55 86 56
REMARK SMILES IDX 49 57 50 58 65 60 87 61 52 62 35 63 36 64 45 65 37 66 38 67
REMARK SMILES IDX 44 68 46 69 39 70 40 71 41 72 42 73 43 74 69 75 70 76 79 77
REMARK SMILES IDX 71 78 72 79 78 80 80 81 73 82 74 83 75 84 76 85 77 86 53 87
REMARK SMILES IDX 54 88 63 89 55 90 56 91 62 92 64 93 57 94 58 95 59 96 60 97
REMARK SMILES IDX 61 98
REMARK H PARENT 19 5 4 22 23 29 85 48 51 59
REMARK Flexibility Score: inf
ROOT
ATOM      1  C   UNL A   1      32.409  27.361  24.470  1.00  0.00     0.117 C 
ENDROOT
BRANCH   1   2
ATOM      2  N   UNL A   1      32.448  26.414  23.376  1.00  0.00    -0.354 N 
ATOM      3  C   UNL A   1      33.426  25.491  23.202  1.00  0.00     0.242 C 
ATOM      4  O   UNL A   1      34.008  25.518  22.117  1.00  0.00    -0.273 OA
ATOM      5  H   UNL A   1      31.719  26.443  22.716  1.00  0.00     0.163 HD
BRANCH   3   6
ATOM      6  C   UNL A   1      33.782  24.465  24.281  1.00  0.00     0.174 C 
ATOM      7  N   UNL A   1      34.140  23.131  23.844  1.00  0.00    -0.331 N 
ATOM      8  C   UNL A   1      35.544  22.888  24.107  1.00  0.00     0.120 C 
ATOM      9  C   UNL A   1      35.930  23.838  25.234  1.00  0.00     0.024 C 
ATOM     10  C   UNL A   1      34.812  24.868  25.331  1.00  0.00     0.037 C 
BRANCH   7  11
ATOM     11  C   UNL A   1      33.270  22.098  23.547  1.00  0.00     0.225 C 
ATOM     12  O   UNL A   1      32.315  22.277  22.784  1.00  0.00    -0.275 OA
BRANCH  11  13
ATOM     13  C   UNL A   1      33.413  20.740  24.234  1.00  0.00     0.122 C 
BRANCH  13  14
ATOM     14  C   UNL A   1      32.255  19.745  24.088  1.00  0.00     0.140 C 
BRANCH  14  15
ATOM     15  N   UNL A   1      32.639  18.339  24.136  1.00  0.00    -0.262 N 
ATOM     16  C   UNL A   1      32.458  15.120  25.376  1.00  0.00     0.045 C 
ATOM     17  C   UNL A   1      33.395  16.208  24.871  1.00  0.00     0.115 C 
ATOM     18  C   UNL A   1      34.834  15.943  25.314  1.00  0.00     0.045 C 
ATOM     19  N   UNL A   1      33.269  16.322  23.434  1.00  0.00    -0.324 N 
ATOM     20  C   UNL A   1      32.902  17.619  25.277  1.00  0.00     0.255 C 
ATOM     21  C   UNL A   1      32.740  17.530  23.046  1.00  0.00     0.325 C 
ATOM     22  H   UNL A   1      33.533  15.613  22.804  1.00  0.00     0.166 HD
ATOM     23  O   UNL A   1      32.739  18.002  26.428  1.00  0.00    -0.272 OA
ATOM     24  O   UNL A   1      32.480  17.804  21.885  1.00  0.00    -0.248 OA
ENDBRANCH  14  15
ENDBRANCH  13  14
ENDBRANCH  11  13
ENDBRANCH   7  11
ENDBRANCH   3   6
ENDBRANCH   1   2
BRANCH   1  25
ATOM     25  C   UNL A   1      33.692  28.186  24.522  1.00  0.00     0.042 C 
BRANCH  25  26
ATOM     26  C   UNL A   1      34.153  28.521  25.940  1.00  0.00     0.118 C 
BRANCH  26  27
ATOM     27  N   UNL A   1      33.801  29.884  26.318  1.00  0.00    -0.352 N 
ATOM     28  C   UNL A   1      34.297  30.654  27.336  1.00  0.00     0.251 C 
ATOM     29  H   UNL A   1      33.110  30.312  25.762  1.00  0.00     0.163 HD
ATOM     30  O   UNL A   1      33.690  31.657  27.698  1.00  0.00    -0.269 OA
BRANCH  28  31
ATOM     31  C   UNL A   1      35.559  30.260  27.988  1.00  0.00     0.039 A 
ATOM     32  C   UNL A   1      36.769  30.503  27.337  1.00  0.00     0.014 A 
ATOM     33  C   UNL A   1      35.534  29.636  29.239  1.00  0.00     0.014 A 
ATOM     34  C   UNL A   1      37.964  30.153  27.966  1.00  0.00     0.010 A 
ATOM     35  C   UNL A   1      36.726  29.366  29.897  1.00  0.00     0.010 A 
ATOM     36  C   UNL A   1      37.950  29.600  29.256  1.00  0.00    -0.014 A 
BRANCH  36  37
ATOM     37  C   UNL A   1      39.207  29.211  29.937  1.00  0.00     0.031 A 
ATOM     38  C   UNL A   1      39.630  29.937  31.186  1.00  0.00     0.074 A 
ATOM     39  C   UNL A   1      39.987  28.253  29.402  1.00  0.00     0.049 A 
ATOM     40  N   UNL A   1      40.717  29.791  31.898  1.00  0.00    -0.248 NA
ATOM     41  C   UNL A   1      38.726  30.989  31.681  1.00  0.00     0.031 C 
ATOM     42  C   UNL A   1      39.706  27.528  28.160  1.00  0.00     0.029 A 
ATOM     43  N   UNL A   1      41.180  27.730  29.828  1.00  0.00    -0.354 N 
ATOM     44  C   UNL A   1      40.636  30.742  32.908  1.00  0.00     0.074 A 
ATOM     45  C   UNL A   1      39.425  31.499  32.683  1.00  0.00     0.031 C 
ATOM     46  C   UNL A   1      40.689  26.642  27.937  1.00  0.00     0.029 A 
ATOM     47  C   UNL A   1      41.680  26.752  29.003  1.00  0.00     0.049 A 
ATOM     48  H   UNL A   1      41.635  28.027  30.649  1.00  0.00     0.167 HD
ATOM     49  C   UNL A   1      41.480  30.947  33.947  1.00  0.00     0.037 A 
ATOM     50  C   UNL A   1      42.810  26.027  29.099  1.00  0.00     0.037 A 
ATOM     51  C   UNL A   1      42.664  30.164  34.179  1.00  0.00     0.049 A 
ATOM     52  C   UNL A   1      43.712  26.241  30.283  1.00  0.00     0.074 A 
ATOM     53  C   UNL A   1      43.561  30.247  35.228  1.00  0.00     0.029 A 
ATOM     54  N   UNL A   1      43.111  29.146  33.348  1.00  0.00    -0.354 N 
ATOM     55  N   UNL A   1      43.589  27.104  31.265  1.00  0.00    -0.248 NA
ATOM     56  C   UNL A   1      44.895  25.377  30.384  1.00  0.00     0.031 C 
ATOM     57  C   UNL A   1      44.568  29.297  35.017  1.00  0.00     0.029 A 
ATOM     58  C   UNL A   1      44.275  28.596  33.858  1.00  0.00     0.049 A 
ATOM     59  H   UNL A   1      42.667  28.856  32.519  1.00  0.00     0.167 HD
ATOM     60  C   UNL A   1      44.667  26.871  32.113  1.00  0.00     0.074 A 
ATOM     61  C   UNL A   1      45.421  25.776  31.533  1.00  0.00     0.031 C 
ATOM     62  C   UNL A   1      45.004  27.502  33.264  1.00  0.00     0.037 A 
BRANCH  49  63
ATOM     63  C   UNL A   1      41.137  32.049  34.911  1.00  0.00     0.058 A 
ATOM     64  C   UNL A   1      41.740  33.315  34.824  1.00  0.00     0.135 A 
ATOM     65  C   UNL A   1      40.191  31.845  35.926  1.00  0.00     0.135 A 
ATOM     66  F   UNL A   1      42.667  33.560  33.883  1.00  0.00    -0.206 F 
ATOM     67  C   UNL A   1      41.444  34.327  35.731  1.00  0.00     0.059 A 
ATOM     68  C   UNL A   1      39.858  32.852  36.829  1.00  0.00     0.059 A 
ATOM     69  F   UNL A   1      39.584  30.654  36.057  1.00  0.00    -0.206 F 
ATOM     70  C   UNL A   1      40.504  34.085  36.733  1.00  0.00     0.060 A 
BRANCH  70  71
ATOM     71  S   UNL A   1      40.133  35.406  37.906  1.00  0.00     0.124 S 
ATOM     72  O   UNL A   1      39.099  34.783  38.727  1.00  0.00    -0.237 OA
ATOM     73  O   UNL A   1      41.421  35.613  38.561  1.00  0.00    -0.237 OA
ATOM     74  O   UNL A   1      39.684  36.502  37.053  1.00  0.00    -0.744 OA
ENDBRANCH  70  71
ENDBRANCH  49  63
BRANCH  50  75
ATOM     75  C   UNL A   1      43.125  25.007  28.065  1.00  0.00     0.058 A 
ATOM     76  C   UNL A   1      43.991  25.303  27.002  1.00  0.00     0.135 A 
ATOM     77  C   UNL A   1      42.595  23.710  28.135  1.00  0.00     0.135 A 
ATOM     78  F   UNL A   1      44.523  26.530  26.893  1.00  0.00    -0.206 F 
ATOM     79  C   UNL A   1      44.310  24.354  26.036  1.00  0.00     0.059 A 
ATOM     80  C   UNL A   1      42.916  22.737  27.193  1.00  0.00     0.059 A 
ATOM     81  F   UNL A   1      41.778  23.371  29.145  1.00  0.00    -0.206 F 
ATOM     82  C   UNL A   1      43.769  23.072  26.142  1.00  0.00     0.060 A 
BRANCH  82  83
ATOM     83  S   UNL A   1      44.236  21.831  24.916  1.00  0.00     0.124 S 
ATOM     84  O   UNL A   1      43.369  20.716  25.281  1.00  0.00    -0.237 OA
ATOM     85  O   UNL A   1      43.919  22.503  23.660  1.00  0.00    -0.237 OA
ATOM     86  O   UNL A   1      45.660  21.632  25.168  1.00  0.00    -0.744 OA
ENDBRANCH  82  83
ENDBRANCH  50  75
BRANCH  62  87
ATOM     87  C   UNL A   1      46.221  27.005  33.989  1.00  0.00     0.058 A 
ATOM     88  C   UNL A   1      47.492  27.554  33.754  1.00  0.00     0.135 A 
ATOM     89  C   UNL A   1      46.108  25.997  34.959  1.00  0.00     0.135 A 
ATOM     90  F   UNL A   1      47.653  28.516  32.832  1.00  0.00    -0.206 F 
ATOM     91  C   UNL A   1      48.613  27.100  34.439  1.00  0.00     0.059 A 
ATOM     92  C   UNL A   1      47.212  25.547  35.673  1.00  0.00     0.059 A 
ATOM     93  F   UNL A   1      44.912  25.449  35.227  1.00  0.00    -0.206 F 
ATOM     94  C   UNL A   1      48.463  26.095  35.397  1.00  0.00     0.060 A 
BRANCH  94  95
ATOM     95  S   UNL A   1      49.922  25.531  36.297  1.00  0.00     0.124 S 
ATOM     96  O   UNL A   1      50.933  25.526  35.244  1.00  0.00    -0.237 OA
ATOM     97  O   UNL A   1      50.078  26.559  37.321  1.00  0.00    -0.237 OA
ATOM     98  O   UNL A   1      49.526  24.217  36.794  1.00  0.00    -0.744 OA
ENDBRANCH  94  95
ENDBRANCH  62  87
ENDBRANCH  36  37
ENDBRANCH  28  31
ENDBRANCH  26  27
ENDBRANCH  25  26
ENDBRANCH   1  25
TORSDOF 17
ENDMDL
