MODEL 1
REMARK VINA RESULT:     -11.5      0.000      0.000
REMARK SMILES CC(C)(C)c1ccc(C(=O)C[C@H](C(=O)NCCCNC(=O)c2ccc(-c3c4nc(c(-c5c(F)cc(S(=O)(=O)[O-])cc5F)c5ccc([nH]5)c(-c5c(F)cc(S(=O)(=O)[O-])cc5F)c5nc(c(-c6c(F)cc(S(=O)(=O)[O-])cc6F)c6ccc3[nH]6)C=C5)C=C4)cc2)[NH+]2CCCC2)cc1
REMARK SMILES IDX 16 1 15 2 13 3 14 4 12 6 11 7 9 8 10 9 8 10 5 11 6 12 94 13
REMARK SMILES IDX 7 14 93 15 2 16 1 17 3 18 4 19 88 20 89 21 92 22 90 24 91 25
REMARK SMILES IDX 17 26 18 27 19 28 20 29 21 31 22 32 23 33 87 34 24 35 86 36
REMARK SMILES IDX 25 37 26 38 27 39 80 40 28 41 85 42 79 43 81 44 29 45 84 46
REMARK SMILES IDX 78 47 77 48 30 50 64 51 43 52 63 53 44 54 47 55 62 56 82 57
REMARK SMILES IDX 45 58 46 59 61 61 83 62 48 63 31 64 32 65 41 66 33 67 34 68
REMARK SMILES IDX 40 69 42 70 35 71 36 72 37 73 38 74 39 75 65 76 66 77 75 78
REMARK SMILES IDX 67 79 68 80 74 81 76 82 69 83 70 84 71 85 72 86 73 87 49 88
REMARK SMILES IDX 50 89 59 90 51 91 52 92 58 93 60 94 53 95 54 96 55 97 56 98
REMARK SMILES IDX 57 99
REMARK H PARENT 15 5 88 23 19 30 81 49 47 60
REMARK Flexibility Score: inf
ROOT
ATOM      1  C   UNL A   1      31.590  27.896  25.724  1.00  0.00     0.118 C 
ENDROOT
BRANCH   1   2
ATOM      2  N   UNL A   1      30.756  26.797  25.278  1.00  0.00    -0.351 N 
ATOM      3  C   UNL A   1      30.333  26.441  24.034  1.00  0.00     0.278 C 
ATOM      4  O   UNL A   1      29.667  25.396  23.991  1.00  0.00    -0.268 OA
ATOM      5  H   UNL A   1      30.440  26.207  26.000  1.00  0.00     0.163 HD
BRANCH   3   6
ATOM      6  C   UNL A   1      30.760  27.170  22.725  1.00  0.00     0.281 C 
BRANCH   6   7
ATOM      7  C   UNL A   1      31.254  26.165  21.654  1.00  0.00     0.156 C 
BRANCH   7   8
ATOM      8  C   UNL A   1      32.673  25.611  21.538  1.00  0.00     0.169 C 
ATOM      9  O   UNL A   1      33.333  25.840  20.519  1.00  0.00    -0.294 OA
BRANCH   8  10
ATOM     10  C   UNL A   1      33.314  24.779  22.587  1.00  0.00     0.018 A 
ATOM     11  C   UNL A   1      35.027  23.408  24.371  1.00  0.00    -0.043 A 
ATOM     12  C   UNL A   1      34.742  24.771  24.548  1.00  0.00     0.005 A 
ATOM     13  C   UNL A   1      34.323  22.728  23.358  1.00  0.00     0.005 A 
ATOM     14  C   UNL A   1      33.890  25.449  23.671  1.00  0.00     0.012 A 
ATOM     15  C   UNL A   1      33.455  23.402  22.490  1.00  0.00     0.012 A 
BRANCH  11  16
ATOM     16  C   UNL A   1      36.122  22.685  25.176  1.00  0.00    -0.013 C 
ATOM     17  C   UNL A   1      35.505  21.635  26.122  1.00  0.00     0.016 C 
ATOM     18  C   UNL A   1      36.985  23.630  26.041  1.00  0.00     0.016 C 
ATOM     19  C   UNL A   1      37.070  21.977  24.180  1.00  0.00     0.016 C 
ENDBRANCH  11  16
ENDBRANCH   8  10
ENDBRANCH   7   8
ENDBRANCH   6   7
BRANCH   6  20
ATOM     20  N   UNL A   1      29.919  28.328  22.388  1.00  0.00    -0.324 N 
ATOM     21  C   UNL A   1      28.618  28.387  23.049  1.00  0.00     0.263 C 
ATOM     22  C   UNL A   1      30.433  29.684  22.438  1.00  0.00     0.263 C 
ATOM     23  H   UNL A   1      29.872  28.070  21.402  1.00  0.00     0.348 HD
ATOM     24  C   UNL A   1      28.017  29.621  22.395  1.00  0.00     0.067 C 
ATOM     25  C   UNL A   1      29.203  30.548  22.173  1.00  0.00     0.067 C 
ENDBRANCH   6  20
ENDBRANCH   3   6
ENDBRANCH   1   2
BRANCH   1  26
ATOM     26  C   UNL A   1      32.789  27.409  26.531  1.00  0.00     0.042 C 
BRANCH  26  27
ATOM     27  C   UNL A   1      34.020  28.294  26.368  1.00  0.00     0.118 C 
BRANCH  27  28
ATOM     28  N   UNL A   1      33.792  29.639  26.879  1.00  0.00    -0.352 N 
ATOM     29  C   UNL A   1      34.519  30.388  27.769  1.00  0.00     0.251 C 
ATOM     30  H   UNL A   1      32.986  30.082  26.528  1.00  0.00     0.163 HD
ATOM     31  O   UNL A   1      33.997  31.381  28.275  1.00  0.00    -0.269 OA
BRANCH  29  32
ATOM     32  C   UNL A   1      35.909  30.025  28.121  1.00  0.00     0.039 A 
ATOM     33  C   UNL A   1      36.904  30.128  27.144  1.00  0.00     0.014 A 
ATOM     34  C   UNL A   1      36.228  29.516  29.384  1.00  0.00     0.014 A 
ATOM     35  C   UNL A   1      38.219  29.763  27.444  1.00  0.00     0.010 A 
ATOM     36  C   UNL A   1      37.552  29.232  29.708  1.00  0.00     0.010 A 
ATOM     37  C   UNL A   1      38.559  29.335  28.737  1.00  0.00    -0.014 A 
BRANCH  37  38
ATOM     38  C   UNL A   1      39.955  28.970  29.092  1.00  0.00     0.031 A 
ATOM     39  C   UNL A   1      40.853  29.977  29.759  1.00  0.00     0.074 A 
ATOM     40  C   UNL A   1      40.436  27.761  28.741  1.00  0.00     0.049 A 
ATOM     41  N   UNL A   1      42.124  29.883  30.056  1.00  0.00    -0.248 NA
ATOM     42  C   UNL A   1      40.252  31.274  30.105  1.00  0.00     0.031 C 
ATOM     43  C   UNL A   1      39.679  26.721  28.042  1.00  0.00     0.029 A 
ATOM     44  N   UNL A   1      41.680  27.210  28.910  1.00  0.00    -0.354 N 
ATOM     45  C   UNL A   1      42.480  31.115  30.592  1.00  0.00     0.074 A 
ATOM     46  C   UNL A   1      41.304  31.954  30.538  1.00  0.00     0.031 C 
ATOM     47  C   UNL A   1      40.470  25.652  27.856  1.00  0.00     0.029 A 
ATOM     48  C   UNL A   1      41.797  25.943  28.390  1.00  0.00     0.049 A 
ATOM     49  H   UNL A   1      42.420  27.677  29.363  1.00  0.00     0.167 HD
ATOM     50  C   UNL A   1      43.673  31.505  31.102  1.00  0.00     0.037 A 
ATOM     51  C   UNL A   1      42.856  25.112  28.338  1.00  0.00     0.037 A 
ATOM     52  C   UNL A   1      44.828  30.649  31.191  1.00  0.00     0.049 A 
ATOM     53  C   UNL A   1      44.160  25.548  28.946  1.00  0.00     0.074 A 
ATOM     54  C   UNL A   1      46.059  30.918  31.763  1.00  0.00     0.029 A 
ATOM     55  N   UNL A   1      44.894  29.355  30.693  1.00  0.00    -0.354 N 
ATOM     56  N   UNL A   1      44.462  26.693  29.510  1.00  0.00    -0.248 NA
ATOM     57  C   UNL A   1      45.263  24.580  28.918  1.00  0.00     0.031 C 
ATOM     58  C   UNL A   1      46.882  29.801  31.577  1.00  0.00     0.029 A 
ATOM     59  C   UNL A   1      46.149  28.819  30.927  1.00  0.00     0.049 A 
ATOM     60  H   UNL A   1      44.155  28.886  30.239  1.00  0.00     0.167 HD
ATOM     61  C   UNL A   1      45.785  26.577  29.922  1.00  0.00     0.074 A 
ATOM     62  C   UNL A   1      46.220  25.246  29.552  1.00  0.00     0.031 C 
ATOM     63  C   UNL A   1      46.567  27.491  30.549  1.00  0.00     0.037 A 
BRANCH  50  64
ATOM     64  C   UNL A   1      43.786  32.921  31.598  1.00  0.00     0.058 A 
ATOM     65  C   UNL A   1      43.456  33.272  32.918  1.00  0.00     0.135 A 
ATOM     66  C   UNL A   1      44.229  33.943  30.743  1.00  0.00     0.135 A 
ATOM     67  F   UNL A   1      43.014  32.338  33.775  1.00  0.00    -0.206 F 
ATOM     68  C   UNL A   1      43.515  34.591  33.357  1.00  0.00     0.059 A 
ATOM     69  C   UNL A   1      44.324  35.265  31.170  1.00  0.00     0.059 A 
ATOM     70  F   UNL A   1      44.562  33.665  29.473  1.00  0.00    -0.206 F 
ATOM     71  C   UNL A   1      43.941  35.582  32.472  1.00  0.00     0.060 A 
BRANCH  71  72
ATOM     72  S   UNL A   1      43.984  37.294  33.045  1.00  0.00     0.124 S 
ATOM     73  O   UNL A   1      45.314  37.365  33.643  1.00  0.00    -0.237 OA
ATOM     74  O   UNL A   1      43.807  38.045  31.806  1.00  0.00    -0.237 OA
ATOM     75  O   UNL A   1      42.869  37.366  33.983  1.00  0.00    -0.744 OA
ENDBRANCH  71  72
ENDBRANCH  50  64
BRANCH  51  76
ATOM     76  C   UNL A   1      42.703  23.773  27.713  1.00  0.00     0.058 A 
ATOM     77  C   UNL A   1      42.911  23.594  26.338  1.00  0.00     0.135 A 
ATOM     78  C   UNL A   1      42.410  22.639  28.485  1.00  0.00     0.135 A 
ATOM     79  F   UNL A   1      43.190  24.651  25.559  1.00  0.00    -0.206 F 
ATOM     80  C   UNL A   1      42.836  22.337  25.748  1.00  0.00     0.059 A 
ATOM     81  C   UNL A   1      42.349  21.369  27.921  1.00  0.00     0.059 A 
ATOM     82  F   UNL A   1      42.220  22.756  29.809  1.00  0.00    -0.206 F 
ATOM     83  C   UNL A   1      42.562  21.228  26.551  1.00  0.00     0.060 A 
BRANCH  83  84
ATOM     84  S   UNL A   1      42.555  19.589  25.790  1.00  0.00     0.124 S 
ATOM     85  O   UNL A   1      43.511  19.764  24.704  1.00  0.00    -0.237 OA
ATOM     86  O   UNL A   1      42.990  18.738  26.894  1.00  0.00    -0.237 OA
ATOM     87  O   UNL A   1      41.163  19.414  25.387  1.00  0.00    -0.744 OA
ENDBRANCH  83  84
ENDBRANCH  51  76
BRANCH  63  88
ATOM     88  C   UNL A   1      47.969  27.075  30.896  1.00  0.00     0.058 A 
ATOM     89  C   UNL A   1      48.241  26.266  32.010  1.00  0.00     0.135 A 
ATOM     90  C   UNL A   1      49.044  27.447  30.074  1.00  0.00     0.135 A 
ATOM     91  F   UNL A   1      47.248  25.889  32.830  1.00  0.00    -0.206 F 
ATOM     92  C   UNL A   1      49.536  25.855  32.308  1.00  0.00     0.059 A 
ATOM     93  C   UNL A   1      50.343  27.027  30.341  1.00  0.00     0.059 A 
ATOM     94  F   UNL A   1      48.835  28.212  28.991  1.00  0.00    -0.206 F 
ATOM     95  C   UNL A   1      50.581  26.240  31.466  1.00  0.00     0.060 A 
BRANCH  95  96
ATOM     96  S   UNL A   1      52.253  25.672  31.844  1.00  0.00     0.124 S 
ATOM     97  O   UNL A   1      52.657  26.619  32.878  1.00  0.00    -0.237 OA
ATOM     98  O   UNL A   1      52.025  24.302  32.292  1.00  0.00    -0.237 OA
ATOM     99  O   UNL A   1      52.950  25.800  30.568  1.00  0.00    -0.744 OA
ENDBRANCH  95  96
ENDBRANCH  63  88
ENDBRANCH  37  38
ENDBRANCH  29  32
ENDBRANCH  27  28
ENDBRANCH  26  27
ENDBRANCH   1  26
TORSDOF 18
ENDMDL
MODEL 2
REMARK VINA RESULT:     -11.4      2.368      3.001
REMARK SMILES CC(C)(C)c1ccc(C(=O)C[C@H](C(=O)NCCCNC(=O)c2ccc(-c3c4nc(c(-c5c(F)cc(S(=O)(=O)[O-])cc5F)c5ccc([nH]5)c(-c5c(F)cc(S(=O)(=O)[O-])cc5F)c5nc(c(-c6c(F)cc(S(=O)(=O)[O-])cc6F)c6ccc3[nH]6)C=C5)C=C4)cc2)[NH+]2CCCC2)cc1
REMARK SMILES IDX 16 1 15 2 13 3 14 4 12 6 11 7 9 8 10 9 8 10 5 11 6 12 94 13
REMARK SMILES IDX 7 14 93 15 2 16 1 17 3 18 4 19 88 20 89 21 92 22 90 24 91 25
REMARK SMILES IDX 17 26 18 27 19 28 20 29 21 31 22 32 23 33 87 34 24 35 86 36
REMARK SMILES IDX 25 37 26 38 27 39 80 40 28 41 85 42 79 43 81 44 29 45 84 46
REMARK SMILES IDX 78 47 77 48 30 50 64 51 43 52 63 53 44 54 47 55 62 56 82 57
REMARK SMILES IDX 45 58 46 59 61 61 83 62 48 63 31 64 32 65 41 66 33 67 34 68
REMARK SMILES IDX 40 69 42 70 35 71 36 72 37 73 38 74 39 75 65 76 66 77 75 78
REMARK SMILES IDX 67 79 68 80 74 81 76 82 69 83 70 84 71 85 72 86 73 87 49 88
REMARK SMILES IDX 50 89 59 90 51 91 52 92 58 93 60 94 53 95 54 96 55 97 56 98
REMARK SMILES IDX 57 99
REMARK H PARENT 15 5 88 23 19 30 81 49 47 60
REMARK Flexibility Score: inf
ROOT
ATOM      1  C   UNL A   1      31.639  27.870  26.327  1.00  0.00     0.118 C 
ENDROOT
BRANCH   1   2
ATOM      2  N   UNL A   1      30.948  26.715  25.788  1.00  0.00    -0.351 N 
ATOM      3  C   UNL A   1      30.553  26.419  24.520  1.00  0.00     0.278 C 
ATOM      4  O   UNL A   1      30.029  25.303  24.386  1.00  0.00    -0.268 OA
ATOM      5  H   UNL A   1      30.725  26.027  26.456  1.00  0.00     0.163 HD
BRANCH   3   6
ATOM      6  C   UNL A   1      30.857  27.311  23.280  1.00  0.00     0.281 C 
BRANCH   6   7
ATOM      7  C   UNL A   1      31.305  26.458  22.066  1.00  0.00     0.156 C 
BRANCH   7   8
ATOM      8  C   UNL A   1      32.694  25.857  21.861  1.00  0.00     0.169 C 
ATOM      9  O   UNL A   1      33.322  26.116  20.828  1.00  0.00    -0.294 OA
BRANCH   8  10
ATOM     10  C   UNL A   1      33.343  24.947  22.838  1.00  0.00     0.018 A 
ATOM     11  C   UNL A   1      35.069  23.401  24.459  1.00  0.00    -0.043 A 
ATOM     12  C   UNL A   1      34.887  24.772  24.701  1.00  0.00     0.005 A 
ATOM     13  C   UNL A   1      34.259  22.808  23.471  1.00  0.00     0.005 A 
ATOM     14  C   UNL A   1      34.029  25.536  23.905  1.00  0.00     0.012 A 
ATOM     15  C   UNL A   1      33.386  23.568  22.685  1.00  0.00     0.012 A 
BRANCH  11  16
ATOM     16  C   UNL A   1      36.161  22.579  25.167  1.00  0.00    -0.013 C 
ATOM     17  C   UNL A   1      35.542  21.407  25.956  1.00  0.00     0.016 C 
ATOM     18  C   UNL A   1      37.013  23.400  26.160  1.00  0.00     0.016 C 
ATOM     19  C   UNL A   1      37.119  22.018  24.091  1.00  0.00     0.016 C 
ENDBRANCH  11  16
ENDBRANCH   8  10
ENDBRANCH   7   8
ENDBRANCH   6   7
BRANCH   6  20
ATOM     20  N   UNL A   1      29.956  28.464  23.142  1.00  0.00    -0.324 N 
ATOM     21  C   UNL A   1      30.283  29.408  22.076  1.00  0.00     0.263 C 
ATOM     22  C   UNL A   1      28.515  28.303  23.077  1.00  0.00     0.263 C 
ATOM     23  H   UNL A   1      30.169  28.807  24.079  1.00  0.00     0.348 HD
ATOM     24  C   UNL A   1      29.228  30.479  22.304  1.00  0.00     0.067 C 
ATOM     25  C   UNL A   1      28.004  29.711  22.782  1.00  0.00     0.067 C 
ENDBRANCH   6  20
ENDBRANCH   3   6
ENDBRANCH   1   2
BRANCH   1  26
ATOM     26  C   UNL A   1      33.093  27.557  26.665  1.00  0.00     0.042 C 
BRANCH  26  27
ATOM     27  C   UNL A   1      34.082  28.498  25.984  1.00  0.00     0.118 C 
BRANCH  27  28
ATOM     28  N   UNL A   1      33.837  29.889  26.338  1.00  0.00    -0.352 N 
ATOM     29  C   UNL A   1      34.400  30.671  27.314  1.00  0.00     0.251 C 
ATOM     30  H   UNL A   1      33.158  30.342  25.787  1.00  0.00     0.163 HD
ATOM     31  O   UNL A   1      33.847  31.727  27.622  1.00  0.00    -0.269 OA
BRANCH  29  32
ATOM     32  C   UNL A   1      35.652  30.270  27.993  1.00  0.00     0.039 A 
ATOM     33  C   UNL A   1      35.576  29.670  29.253  1.00  0.00     0.014 A 
ATOM     34  C   UNL A   1      36.902  30.545  27.430  1.00  0.00     0.014 A 
ATOM     35  C   UNL A   1      36.746  29.309  29.927  1.00  0.00     0.010 A 
ATOM     36  C   UNL A   1      38.063  30.110  28.062  1.00  0.00     0.010 A 
ATOM     37  C   UNL A   1      37.999  29.503  29.325  1.00  0.00    -0.014 A 
BRANCH  37  38
ATOM     38  C   UNL A   1      39.258  29.102  30.006  1.00  0.00     0.031 A 
ATOM     39  C   UNL A   1      39.721  29.840  31.234  1.00  0.00     0.074 A 
ATOM     40  C   UNL A   1      40.022  28.128  29.472  1.00  0.00     0.049 A 
ATOM     41  N   UNL A   1      40.835  29.705  31.908  1.00  0.00    -0.248 NA
ATOM     42  C   UNL A   1      38.831  30.891  31.750  1.00  0.00     0.031 C 
ATOM     43  C   UNL A   1      39.706  27.378  28.256  1.00  0.00     0.029 A 
ATOM     44  N   UNL A   1      41.227  27.614  29.877  1.00  0.00    -0.354 N 
ATOM     45  C   UNL A   1      40.793  30.674  32.905  1.00  0.00     0.074 A 
ATOM     46  C   UNL A   1      39.567  31.417  32.719  1.00  0.00     0.031 C 
ATOM     47  C   UNL A   1      40.685  26.490  28.021  1.00  0.00     0.029 A 
ATOM     48  C   UNL A   1      41.712  26.631  29.048  1.00  0.00     0.049 A 
ATOM     49  H   UNL A   1      41.699  27.920  30.685  1.00  0.00     0.167 HD
ATOM     50  C   UNL A   1      41.686  30.909  33.897  1.00  0.00     0.037 A 
ATOM     51  C   UNL A   1      42.860  25.927  29.103  1.00  0.00     0.037 A 
ATOM     52  C   UNL A   1      42.884  30.136  34.100  1.00  0.00     0.049 A 
ATOM     53  C   UNL A   1      43.818  26.175  30.235  1.00  0.00     0.074 A 
ATOM     54  C   UNL A   1      43.813  30.239  35.120  1.00  0.00     0.029 A 
ATOM     55  N   UNL A   1      43.319  29.117  33.264  1.00  0.00    -0.354 N 
ATOM     56  N   UNL A   1      43.732  27.050  31.208  1.00  0.00    -0.248 NA
ATOM     57  C   UNL A   1      45.024  25.338  30.281  1.00  0.00     0.031 C 
ATOM     58  C   UNL A   1      44.830  29.307  34.880  1.00  0.00     0.029 A 
ATOM     59  C   UNL A   1      44.512  28.594  33.734  1.00  0.00     0.049 A 
ATOM     60  H   UNL A   1      42.848  28.810  32.455  1.00  0.00     0.167 HD
ATOM     61  C   UNL A   1      44.862  26.856  31.994  1.00  0.00     0.074 A 
ATOM     62  C   UNL A   1      45.610  25.773  31.388  1.00  0.00     0.031 C 
ATOM     63  C   UNL A   1      45.245  27.516  33.116  1.00  0.00     0.037 A 
BRANCH  50  64
ATOM     64  C   UNL A   1      41.398  32.052  34.832  1.00  0.00     0.058 A 
ATOM     65  C   UNL A   1      40.601  31.888  35.978  1.00  0.00     0.135 A 
ATOM     66  C   UNL A   1      41.923  33.329  34.581  1.00  0.00     0.135 A 
ATOM     67  F   UNL A   1      40.061  30.691  36.260  1.00  0.00    -0.206 F 
ATOM     68  C   UNL A   1      40.297  32.959  36.812  1.00  0.00     0.059 A 
ATOM     69  C   UNL A   1      41.657  34.409  35.420  1.00  0.00     0.059 A 
ATOM     70  F   UNL A   1      42.695  33.543  33.504  1.00  0.00    -0.206 F 
ATOM     71  C   UNL A   1      40.822  34.217  36.520  1.00  0.00     0.060 A 
BRANCH  71  72
ATOM     72  S   UNL A   1      40.395  35.605  37.594  1.00  0.00     0.124 S 
ATOM     73  O   UNL A   1      39.277  35.050  38.351  1.00  0.00    -0.237 OA
ATOM     74  O   UNL A   1      41.629  35.811  38.347  1.00  0.00    -0.237 OA
ATOM     75  O   UNL A   1      40.053  36.668  36.656  1.00  0.00    -0.744 OA
ENDBRANCH  71  72
ENDBRANCH  50  64
BRANCH  51  76
ATOM     76  C   UNL A   1      43.138  24.902  28.065  1.00  0.00     0.058 A 
ATOM     77  C   UNL A   1      43.758  25.251  26.857  1.00  0.00     0.135 A 
ATOM     78  C   UNL A   1      42.847  23.547  28.284  1.00  0.00     0.135 A 
ATOM     79  F   UNL A   1      44.050  26.536  26.600  1.00  0.00    -0.206 F 
ATOM     80  C   UNL A   1      44.083  24.295  25.902  1.00  0.00     0.059 A 
ATOM     81  C   UNL A   1      43.181  22.569  27.354  1.00  0.00     0.059 A 
ATOM     82  F   UNL A   1      42.270  23.160  29.433  1.00  0.00    -0.206 F 
ATOM     83  C   UNL A   1      43.799  22.953  26.164  1.00  0.00     0.060 A 
BRANCH  83  84
ATOM     84  S   UNL A   1      44.306  21.708  24.957  1.00  0.00     0.124 S 
ATOM     85  O   UNL A   1      44.198  22.449  23.706  1.00  0.00    -0.237 OA
ATOM     86  O   UNL A   1      45.661  21.390  25.397  1.00  0.00    -0.237 OA
ATOM     87  O   UNL A   1      43.328  20.641  25.147  1.00  0.00    -0.744 OA
ENDBRANCH  83  84
ENDBRANCH  51  76
BRANCH  63  88
ATOM     88  C   UNL A   1      46.520  27.071  33.776  1.00  0.00     0.058 A 
ATOM     89  C   UNL A   1      47.751  27.671  33.473  1.00  0.00     0.135 A 
ATOM     90  C   UNL A   1      46.499  26.070  34.760  1.00  0.00     0.135 A 
ATOM     91  F   UNL A   1      47.825  28.628  32.535  1.00  0.00    -0.206 F 
ATOM     92  C   UNL A   1      48.924  27.280  34.111  1.00  0.00     0.059 A 
ATOM     93  C   UNL A   1      47.656  25.681  35.427  1.00  0.00     0.059 A 
ATOM     94  F   UNL A   1      45.344  25.472  35.093  1.00  0.00    -0.206 F 
ATOM     95  C   UNL A   1      48.867  26.285  35.088  1.00  0.00     0.060 A 
BRANCH  95  96
ATOM     96  S   UNL A   1      50.389  25.809  35.933  1.00  0.00     0.124 S 
ATOM     97  O   UNL A   1      49.903  25.545  37.284  1.00  0.00    -0.237 OA
ATOM     98  O   UNL A   1      50.818  24.640  35.173  1.00  0.00    -0.237 OA
ATOM     99  O   UNL A   1      51.238  26.988  35.791  1.00  0.00    -0.744 OA
ENDBRANCH  95  96
ENDBRANCH  63  88
ENDBRANCH  37  38
ENDBRANCH  29  32
ENDBRANCH  27  28
ENDBRANCH  26  27
ENDBRANCH   1  26
TORSDOF 18
ENDMDL
MODEL 3
REMARK VINA RESULT:     -11.1      3.260      9.034
REMARK SMILES CC(C)(C)c1ccc(C(=O)C[C@H](C(=O)NCCCNC(=O)c2ccc(-c3c4nc(c(-c5c(F)cc(S(=O)(=O)[O-])cc5F)c5ccc([nH]5)c(-c5c(F)cc(S(=O)(=O)[O-])cc5F)c5nc(c(-c6c(F)cc(S(=O)(=O)[O-])cc6F)c6ccc3[nH]6)C=C5)C=C4)cc2)[NH+]2CCCC2)cc1
REMARK SMILES IDX 16 1 15 2 13 3 14 4 12 6 11 7 9 8 10 9 8 10 5 11 6 12 94 13
REMARK SMILES IDX 7 14 93 15 2 16 1 17 3 18 4 19 88 20 89 21 92 22 90 24 91 25
REMARK SMILES IDX 17 26 18 27 19 28 20 29 21 31 22 32 23 33 87 34 24 35 86 36
REMARK SMILES IDX 25 37 26 38 27 39 80 40 28 41 85 42 79 43 81 44 29 45 84 46
REMARK SMILES IDX 78 47 77 48 30 50 64 51 43 52 63 53 44 54 47 55 62 56 82 57
REMARK SMILES IDX 45 58 46 59 61 61 83 62 48 63 31 64 32 65 41 66 33 67 34 68
REMARK SMILES IDX 40 69 42 70 35 71 36 72 37 73 38 74 39 75 65 76 66 77 75 78
REMARK SMILES IDX 67 79 68 80 74 81 76 82 69 83 70 84 71 85 72 86 73 87 49 88
REMARK SMILES IDX 50 89 59 90 51 91 52 92 58 93 60 94 53 95 54 96 55 97 56 98
REMARK SMILES IDX 57 99
REMARK H PARENT 15 5 88 23 19 30 81 49 47 60
REMARK Flexibility Score: inf
ROOT
ATOM      1  C   UNL A   1      34.735  24.514  24.021  1.00  0.00     0.118 C 
ENDROOT
BRANCH   1   2
ATOM      2  N   UNL A   1      34.348  25.419  25.085  1.00  0.00    -0.351 N 
ATOM      3  C   UNL A   1      33.149  25.991  25.383  1.00  0.00     0.278 C 
ATOM      4  O   UNL A   1      33.144  26.681  26.414  1.00  0.00    -0.268 OA
ATOM      5  H   UNL A   1      35.080  25.663  25.698  1.00  0.00     0.163 HD
BRANCH   3   6
ATOM      6  C   UNL A   1      31.828  25.701  24.611  1.00  0.00     0.281 C 
BRANCH   6   7
ATOM      7  C   UNL A   1      31.022  24.558  25.278  1.00  0.00     0.156 C 
BRANCH   7   8
ATOM      8  C   UNL A   1      31.598  23.470  26.181  1.00  0.00     0.169 C 
ATOM      9  O   UNL A   1      31.535  23.603  27.408  1.00  0.00    -0.294 OA
BRANCH   8  10
ATOM     10  C   UNL A   1      32.261  22.245  25.665  1.00  0.00     0.018 A 
ATOM     11  C   UNL A   1      32.988  19.694  24.687  1.00  0.00    -0.043 A 
ATOM     12  C   UNL A   1      32.380  20.641  23.849  1.00  0.00     0.005 A 
ATOM     13  C   UNL A   1      33.340  20.113  25.985  1.00  0.00     0.005 A 
ATOM     14  C   UNL A   1      32.026  21.906  24.329  1.00  0.00     0.012 A 
ATOM     15  C   UNL A   1      33.002  21.385  26.462  1.00  0.00     0.012 A 
BRANCH  11  16
ATOM     16  C   UNL A   1      33.192  18.229  24.261  1.00  0.00    -0.013 C 
ATOM     17  C   UNL A   1      32.608  17.978  22.856  1.00  0.00     0.016 C 
ATOM     18  C   UNL A   1      32.538  17.207  25.218  1.00  0.00     0.016 C 
ATOM     19  C   UNL A   1      34.710  17.935  24.242  1.00  0.00     0.016 C 
ENDBRANCH  11  16
ENDBRANCH   8  10
ENDBRANCH   7   8
ENDBRANCH   6   7
BRANCH   6  20
ATOM     20  N   UNL A   1      31.183  26.905  24.065  1.00  0.00    -0.324 N 
ATOM     21  C   UNL A   1      31.775  27.451  22.847  1.00  0.00     0.263 C 
ATOM     22  C   UNL A   1      29.749  26.973  23.855  1.00  0.00     0.263 C 
ATOM     23  H   UNL A   1      31.381  27.452  24.904  1.00  0.00     0.348 HD
ATOM     24  C   UNL A   1      30.934  28.703  22.653  1.00  0.00     0.067 C 
ATOM     25  C   UNL A   1      29.549  28.310  23.146  1.00  0.00     0.067 C 
ENDBRANCH   6  20
ENDBRANCH   3   6
ENDBRANCH   1   2
BRANCH   1  26
ATOM     26  C   UNL A   1      35.598  23.367  24.535  1.00  0.00     0.042 C 
BRANCH  26  27
ATOM     27  C   UNL A   1      36.412  23.737  25.771  1.00  0.00     0.118 C 
BRANCH  27  28
ATOM     28  N   UNL A   1      37.365  22.693  26.125  1.00  0.00    -0.352 N 
ATOM     29  C   UNL A   1      38.689  22.777  26.471  1.00  0.00     0.251 C 
ATOM     30  H   UNL A   1      36.998  21.779  26.115  1.00  0.00     0.163 HD
ATOM     31  O   UNL A   1      39.374  21.754  26.454  1.00  0.00    -0.269 OA
BRANCH  29  32
ATOM     32  C   UNL A   1      39.299  24.066  26.866  1.00  0.00     0.039 A 
ATOM     33  C   UNL A   1      39.234  24.463  28.205  1.00  0.00     0.014 A 
ATOM     34  C   UNL A   1      39.870  24.919  25.917  1.00  0.00     0.014 A 
ATOM     35  C   UNL A   1      39.776  25.690  28.597  1.00  0.00     0.010 A 
ATOM     36  C   UNL A   1      40.484  26.101  26.320  1.00  0.00     0.010 A 
ATOM     37  C   UNL A   1      40.428  26.508  27.662  1.00  0.00    -0.014 A 
BRANCH  37  38
ATOM     38  C   UNL A   1      41.040  27.804  28.057  1.00  0.00     0.031 A 
ATOM     39  C   UNL A   1      42.527  28.007  27.930  1.00  0.00     0.074 A 
ATOM     40  C   UNL A   1      40.270  28.764  28.604  1.00  0.00     0.049 A 
ATOM     41  N   UNL A   1      43.258  29.022  28.312  1.00  0.00    -0.248 NA
ATOM     42  C   UNL A   1      43.296  26.908  27.326  1.00  0.00     0.031 C 
ATOM     43  C   UNL A   1      38.827  28.664  28.829  1.00  0.00     0.029 A 
ATOM     44  N   UNL A   1      40.596  30.008  29.083  1.00  0.00    -0.354 N 
ATOM     45  C   UNL A   1      44.572  28.672  28.025  1.00  0.00     0.074 A 
ATOM     46  C   UNL A   1      44.542  27.333  27.480  1.00  0.00     0.031 C 
ATOM     47  C   UNL A   1      38.390  29.803  29.389  1.00  0.00     0.029 A 
ATOM     48  C   UNL A   1      39.523  30.699  29.594  1.00  0.00     0.049 A 
ATOM     49  H   UNL A   1      41.511  30.370  29.062  1.00  0.00     0.167 HD
ATOM     50  C   UNL A   1      45.700  29.406  28.183  1.00  0.00     0.037 A 
ATOM     51  C   UNL A   1      39.461  31.915  30.171  1.00  0.00     0.037 A 
ATOM     52  C   UNL A   1      45.716  30.755  28.688  1.00  0.00     0.049 A 
ATOM     53  C   UNL A   1      40.717  32.731  30.300  1.00  0.00     0.074 A 
ATOM     54  C   UNL A   1      46.793  31.616  28.812  1.00  0.00     0.029 A 
ATOM     55  N   UNL A   1      44.602  31.439  29.153  1.00  0.00    -0.354 N 
ATOM     56  N   UNL A   1      41.943  32.411  29.963  1.00  0.00    -0.248 NA
ATOM     57  C   UNL A   1      40.581  34.073  30.880  1.00  0.00     0.031 C 
ATOM     58  C   UNL A   1      46.336  32.807  29.387  1.00  0.00     0.029 A 
ATOM     59  C   UNL A   1      44.967  32.704  29.583  1.00  0.00     0.049 A 
ATOM     60  H   UNL A   1      43.686  31.077  29.175  1.00  0.00     0.167 HD
ATOM     61  C   UNL A   1      42.724  33.519  30.272  1.00  0.00     0.074 A 
ATOM     62  C   UNL A   1      41.828  34.521  30.812  1.00  0.00     0.031 C 
ATOM     63  C   UNL A   1      44.061  33.690  30.121  1.00  0.00     0.037 A 
BRANCH  50  64
ATOM     64  C   UNL A   1      47.007  28.760  27.810  1.00  0.00     0.058 A 
ATOM     65  C   UNL A   1      47.475  28.750  26.485  1.00  0.00     0.135 A 
ATOM     66  C   UNL A   1      47.802  28.142  28.787  1.00  0.00     0.135 A 
ATOM     67  F   UNL A   1      46.749  29.315  25.507  1.00  0.00    -0.206 F 
ATOM     68  C   UNL A   1      48.659  28.108  26.136  1.00  0.00     0.059 A 
ATOM     69  C   UNL A   1      49.006  27.520  28.466  1.00  0.00     0.059 A 
ATOM     70  F   UNL A   1      47.407  28.125  30.069  1.00  0.00    -0.206 F 
ATOM     71  C   UNL A   1      49.413  27.488  27.133  1.00  0.00     0.060 A 
BRANCH  71  72
ATOM     72  S   UNL A   1      50.933  26.633  26.663  1.00  0.00     0.124 S 
ATOM     73  O   UNL A   1      50.531  25.999  25.411  1.00  0.00    -0.237 OA
ATOM     74  O   UNL A   1      51.887  27.731  26.538  1.00  0.00    -0.237 OA
ATOM     75  O   UNL A   1      51.171  25.724  27.779  1.00  0.00    -0.744 OA
ENDBRANCH  71  72
ENDBRANCH  50  64
BRANCH  51  76
ATOM     76  C   UNL A   1      38.150  32.434  30.637  1.00  0.00     0.058 A 
ATOM     77  C   UNL A   1      37.783  32.354  31.988  1.00  0.00     0.135 A 
ATOM     78  C   UNL A   1      37.266  33.076  29.756  1.00  0.00     0.135 A 
ATOM     79  F   UNL A   1      38.594  31.745  32.868  1.00  0.00    -0.206 F 
ATOM     80  C   UNL A   1      36.588  32.893  32.452  1.00  0.00     0.059 A 
ATOM     81  C   UNL A   1      36.075  33.641  30.199  1.00  0.00     0.059 A 
ATOM     82  F   UNL A   1      37.581  33.194  28.456  1.00  0.00    -0.206 F 
ATOM     83  C   UNL A   1      35.744  33.543  31.550  1.00  0.00     0.060 A 
BRANCH  83  84
ATOM     84  S   UNL A   1      34.237  34.318  32.177  1.00  0.00     0.124 S 
ATOM     85  O   UNL A   1      33.629  33.221  32.921  1.00  0.00    -0.237 OA
ATOM     86  O   UNL A   1      34.769  35.416  32.978  1.00  0.00    -0.237 OA
ATOM     87  O   UNL A   1      33.538  34.722  30.961  1.00  0.00    -0.744 OA
ENDBRANCH  83  84
ENDBRANCH  51  76
BRANCH  63  88
ATOM     88  C   UNL A   1      44.635  35.018  30.526  1.00  0.00     0.058 A 
ATOM     89  C   UNL A   1      44.706  36.093  29.626  1.00  0.00     0.135 A 
ATOM     90  C   UNL A   1      45.070  35.233  31.843  1.00  0.00     0.135 A 
ATOM     91  F   UNL A   1      44.308  35.937  28.354  1.00  0.00    -0.206 F 
ATOM     92  C   UNL A   1      45.206  37.332  30.015  1.00  0.00     0.059 A 
ATOM     93  C   UNL A   1      45.552  36.469  32.259  1.00  0.00     0.059 A 
ATOM     94  F   UNL A   1      45.014  34.239  32.745  1.00  0.00    -0.206 F 
ATOM     95  C   UNL A   1      45.627  37.511  31.334  1.00  0.00     0.060 A 
BRANCH  95  96
ATOM     96  S   UNL A   1      46.242  39.131  31.836  1.00  0.00     0.124 S 
ATOM     97  O   UNL A   1      47.352  38.765  32.710  1.00  0.00    -0.237 OA
ATOM     98  O   UNL A   1      46.612  39.735  30.560  1.00  0.00    -0.237 OA
ATOM     99  O   UNL A   1      45.094  39.739  32.501  1.00  0.00    -0.744 OA
ENDBRANCH  95  96
ENDBRANCH  63  88
ENDBRANCH  37  38
ENDBRANCH  29  32
ENDBRANCH  27  28
ENDBRANCH  26  27
ENDBRANCH   1  26
TORSDOF 18
ENDMDL
