MODEL 1
REMARK VINA RESULT:      -9.8      0.000      0.000
REMARK SMILES N#Cc1ccc(-c2ccc(F)c(C(=O)NCCCNC(=O)c3ccc(-c4c5nc(c(-c6c(F)cc(S(=O)(=O)[O-])cc6F)c6ccc([nH]6)c(-c6c(F)cc(S(=O)(=O)[O-])cc6F)c6nc(c(-c7c(F)cc(S(=O)(=O)[O-])cc7F)c7ccc4[nH]7)C=C6)C=C5)cc3)c2)cc1
REMARK SMILES IDX 17 1 16 2 15 3 13 4 14 5 12 7 7 8 8 9 88 10 9 11 10 12 11 13
REMARK SMILES IDX 6 14 3 15 4 16 90 17 5 18 89 19 2 20 1 21 18 22 19 23 20 24
REMARK SMILES IDX 21 26 22 27 23 28 87 29 24 30 86 31 25 32 26 33 27 34 80 35
REMARK SMILES IDX 28 36 85 37 79 38 81 39 29 40 84 41 78 42 77 43 30 45 64 46
REMARK SMILES IDX 43 47 63 48 44 49 47 50 62 51 82 52 45 53 46 54 61 56 83 57
REMARK SMILES IDX 48 58 31 59 32 60 41 61 33 62 34 63 40 64 42 65 35 66 36 67
REMARK SMILES IDX 37 68 38 69 39 70 65 71 66 72 75 73 67 74 68 75 74 76 76 77
REMARK SMILES IDX 69 78 70 79 71 80 72 81 73 82 49 83 50 84 59 85 51 86 52 87
REMARK SMILES IDX 58 88 60 89 53 90 54 91 55 92 56 93 57 94
REMARK H PARENT 15 6 19 25 81 44 47 55
REMARK Flexibility Score: inf
ROOT
ATOM      1  C   UNL A   1      34.790  32.730  30.988  1.00  0.00     0.042 C 
ENDROOT
BRANCH   1   2
ATOM      2  C   UNL A   1      34.978  34.114  31.602  1.00  0.00     0.118 C 
BRANCH   2   3
ATOM      3  N   UNL A   1      36.335  34.579  31.413  1.00  0.00    -0.352 N 
ATOM      4  C   UNL A   1      37.528  34.276  32.000  1.00  0.00     0.254 C 
ATOM      5  O   UNL A   1      38.507  34.878  31.544  1.00  0.00    -0.269 OA
ATOM      6  H   UNL A   1      36.413  35.261  30.707  1.00  0.00     0.163 HD
BRANCH   4   7
ATOM      7  C   UNL A   1      37.760  33.270  33.078  1.00  0.00     0.076 A 
ATOM      8  C   UNL A   1      39.071  31.264  33.678  1.00  0.00    -0.017 A 
ATOM      9  C   UNL A   1      38.392  31.202  34.899  1.00  0.00     0.012 A 
ATOM     10  C   UNL A   1      38.731  32.289  32.779  1.00  0.00     0.025 A 
ATOM     11  C   UNL A   1      37.446  32.169  35.225  1.00  0.00     0.041 A 
ATOM     12  C   UNL A   1      37.163  33.209  34.336  1.00  0.00     0.135 A 
ATOM     13  F   UNL A   1      36.342  34.154  34.801  1.00  0.00    -0.206 F 
BRANCH   8  14
ATOM     14  C   UNL A   1      40.116  30.289  33.353  1.00  0.00    -0.018 A 
ATOM     15  C   UNL A   1      42.109  28.372  32.813  1.00  0.00     0.052 A 
ATOM     16  C   UNL A   1      42.462  29.625  33.322  1.00  0.00     0.020 A 
ATOM     17  C   UNL A   1      40.765  28.081  32.561  1.00  0.00     0.020 A 
ATOM     18  C   UNL A   1      41.472  30.577  33.586  1.00  0.00     0.010 A 
ATOM     19  C   UNL A   1      39.780  29.032  32.829  1.00  0.00     0.010 A 
BRANCH  15  20
ATOM     20  C   UNL A   1      43.114  27.381  32.560  1.00  0.00     0.099 C 
ATOM     21  N   UNL A   1      43.937  26.588  32.366  1.00  0.00    -0.192 NA
ENDBRANCH  15  20
ENDBRANCH   8  14
ENDBRANCH   4   7
ENDBRANCH   2   3
ENDBRANCH   1   2
BRANCH   1  22
ATOM     22  C   UNL A   1      34.918  32.754  29.467  1.00  0.00     0.118 C 
BRANCH  22  23
ATOM     23  N   UNL A   1      34.095  31.720  28.841  1.00  0.00    -0.352 N 
ATOM     24  C   UNL A   1      34.474  30.567  28.202  1.00  0.00     0.251 C 
ATOM     25  H   UNL A   1      33.124  31.874  28.887  1.00  0.00     0.163 HD
ATOM     26  O   UNL A   1      33.668  29.955  27.507  1.00  0.00    -0.269 OA
BRANCH  24  27
ATOM     27  C   UNL A   1      35.854  30.077  28.363  1.00  0.00     0.039 A 
ATOM     28  C   UNL A   1      36.734  30.115  27.278  1.00  0.00     0.014 A 
ATOM     29  C   UNL A   1      36.270  29.586  29.601  1.00  0.00     0.014 A 
ATOM     30  C   UNL A   1      38.059  29.717  27.460  1.00  0.00     0.010 A 
ATOM     31  C   UNL A   1      37.607  29.289  29.804  1.00  0.00     0.010 A 
ATOM     32  C   UNL A   1      38.511  29.336  28.732  1.00  0.00    -0.014 A 
BRANCH  32  33
ATOM     33  C   UNL A   1      39.914  28.939  28.990  1.00  0.00     0.031 A 
ATOM     34  C   UNL A   1      40.884  29.968  29.497  1.00  0.00     0.074 A 
ATOM     35  C   UNL A   1      40.335  27.701  28.667  1.00  0.00     0.049 A 
ATOM     36  N   UNL A   1      42.182  29.891  29.621  1.00  0.00    -0.248 NA
ATOM     37  C   UNL A   1      40.321  31.276  29.877  1.00  0.00     0.031 C 
ATOM     38  C   UNL A   1      39.486  26.630  28.144  1.00  0.00     0.029 A 
ATOM     39  N   UNL A   1      41.587  27.143  28.708  1.00  0.00    -0.354 N 
ATOM     40  C   UNL A   1      42.590  31.143  30.065  1.00  0.00     0.074 A 
ATOM     41  C   UNL A   1      41.414  31.979  30.126  1.00  0.00     0.031 C 
ATOM     42  C   UNL A   1      40.238  25.538  27.931  1.00  0.00     0.029 A 
ATOM     43  C   UNL A   1      41.631  25.849  28.246  1.00  0.00     0.049 A 
ATOM     44  H   UNL A   1      42.381  27.624  29.039  1.00  0.00     0.167 HD
ATOM     45  C   UNL A   1      43.833  31.547  30.414  1.00  0.00     0.037 A 
ATOM     46  C   UNL A   1      42.675  25.015  28.073  1.00  0.00     0.037 A 
ATOM     47  C   UNL A   1      44.988  30.691  30.366  1.00  0.00     0.049 A 
ATOM     48  C   UNL A   1      44.056  25.491  28.433  1.00  0.00     0.074 A 
ATOM     49  C   UNL A   1      46.285  30.982  30.746  1.00  0.00     0.029 A 
ATOM     50  N   UNL A   1      44.988  29.383  29.902  1.00  0.00    -0.354 N 
ATOM     51  N   UNL A   1      44.426  26.662  28.896  1.00  0.00    -0.248 NA
ATOM     52  C   UNL A   1      45.162  24.542  28.250  1.00  0.00     0.031 C 
ATOM     53  C   UNL A   1      47.082  29.875  30.446  1.00  0.00     0.029 A 
ATOM     54  C   UNL A   1      46.270  28.863  29.956  1.00  0.00     0.049 A 
ATOM     55  H   UNL A   1      44.194  28.896  29.582  1.00  0.00     0.167 HD
ATOM     56  C   UNL A   1      45.799  26.581  29.091  1.00  0.00     0.074 A 
ATOM     57  C   UNL A   1      46.198  25.247  28.692  1.00  0.00     0.031 C 
ATOM     58  C   UNL A   1      46.649  27.525  29.569  1.00  0.00     0.037 A 
BRANCH  45  59
ATOM     59  C   UNL A   1      44.008  32.971  30.867  1.00  0.00     0.058 A 
ATOM     60  C   UNL A   1      44.071  34.013  29.927  1.00  0.00     0.135 A 
ATOM     61  C   UNL A   1      44.146  33.308  32.224  1.00  0.00     0.135 A 
ATOM     62  F   UNL A   1      43.941  33.753  28.617  1.00  0.00    -0.206 F 
ATOM     63  C   UNL A   1      44.268  35.334  30.316  1.00  0.00     0.059 A 
ATOM     64  C   UNL A   1      44.304  34.628  32.637  1.00  0.00     0.059 A 
ATOM     65  F   UNL A   1      44.075  32.356  33.168  1.00  0.00    -0.206 F 
ATOM     66  C   UNL A   1      44.375  35.632  31.674  1.00  0.00     0.060 A 
BRANCH  66  67
ATOM     67  S   UNL A   1      44.563  37.359  32.162  1.00  0.00     0.124 S 
ATOM     68  O   UNL A   1      45.988  37.435  32.460  1.00  0.00    -0.237 OA
ATOM     69  O   UNL A   1      44.123  38.063  30.961  1.00  0.00    -0.237 OA
ATOM     70  O   UNL A   1      43.672  37.484  33.311  1.00  0.00    -0.744 OA
ENDBRANCH  66  67
ENDBRANCH  45  59
BRANCH  46  71
ATOM     71  C   UNL A   1      42.427  23.639  27.565  1.00  0.00     0.058 A 
ATOM     72  C   UNL A   1      42.293  22.549  28.439  1.00  0.00     0.135 A 
ATOM     73  C   UNL A   1      42.415  23.376  26.187  1.00  0.00     0.135 A 
ATOM     74  F   UNL A   1      42.311  22.745  29.767  1.00  0.00    -0.206 F 
ATOM     75  C   UNL A   1      42.206  21.244  27.969  1.00  0.00     0.059 A 
ATOM     76  C   UNL A   1      42.301  22.080  25.690  1.00  0.00     0.059 A 
ATOM     77  F   UNL A   1      42.527  24.385  25.311  1.00  0.00    -0.206 F 
ATOM     78  C   UNL A   1      42.222  21.019  26.591  1.00  0.00     0.060 A 
BRANCH  78  79
ATOM     79  S   UNL A   1      42.176  19.311  26.004  1.00  0.00     0.124 S 
ATOM     80  O   UNL A   1      40.764  19.155  25.669  1.00  0.00    -0.237 OA
ATOM     81  O   UNL A   1      43.096  19.355  24.873  1.00  0.00    -0.237 OA
ATOM     82  O   UNL A   1      42.635  18.544  27.157  1.00  0.00    -0.744 OA
ENDBRANCH  78  79
ENDBRANCH  46  71
BRANCH  58  83
ATOM     83  C   UNL A   1      48.101  27.167  29.735  1.00  0.00     0.058 A 
ATOM     84  C   UNL A   1      48.567  26.700  30.976  1.00  0.00     0.135 A 
ATOM     85  C   UNL A   1      49.048  27.437  28.737  1.00  0.00     0.135 A 
ATOM     86  F   UNL A   1      47.701  26.431  31.967  1.00  0.00    -0.206 F 
ATOM     87  C   UNL A   1      49.925  26.563  31.238  1.00  0.00     0.059 A 
ATOM     88  C   UNL A   1      50.413  27.276  28.968  1.00  0.00     0.059 A 
ATOM     89  F   UNL A   1      48.654  27.873  27.530  1.00  0.00    -0.206 F 
ATOM     90  C   UNL A   1      50.841  26.866  30.231  1.00  0.00     0.060 A 
BRANCH  90  91
ATOM     91  S   UNL A   1      52.600  26.733  30.610  1.00  0.00     0.124 S 
ATOM     92  O   UNL A   1      52.854  27.989  31.306  1.00  0.00    -0.237 OA
ATOM     93  O   UNL A   1      52.645  25.529  31.436  1.00  0.00    -0.237 OA
ATOM     94  O   UNL A   1      53.223  26.607  29.295  1.00  0.00    -0.744 OA
ENDBRANCH  90  91
ENDBRANCH  58  83
ENDBRANCH  32  33
ENDBRANCH  24  27
ENDBRANCH  22  23
ENDBRANCH   1  22
TORSDOF 15
ENDMDL
MODEL 2
REMARK VINA RESULT:      -9.7      3.138      5.791
REMARK SMILES N#Cc1ccc(-c2ccc(F)c(C(=O)NCCCNC(=O)c3ccc(-c4c5nc(c(-c6c(F)cc(S(=O)(=O)[O-])cc6F)c6ccc([nH]6)c(-c6c(F)cc(S(=O)(=O)[O-])cc6F)c6nc(c(-c7c(F)cc(S(=O)(=O)[O-])cc7F)c7ccc4[nH]7)C=C6)C=C5)cc3)c2)cc1
REMARK SMILES IDX 17 1 16 2 15 3 13 4 14 5 12 7 7 8 8 9 88 10 9 11 10 12 11 13
REMARK SMILES IDX 6 14 3 15 4 16 90 17 5 18 89 19 2 20 1 21 18 22 19 23 20 24
REMARK SMILES IDX 21 26 22 27 23 28 87 29 24 30 86 31 25 32 26 33 27 34 80 35
REMARK SMILES IDX 28 36 85 37 79 38 81 39 29 40 84 41 78 42 77 43 30 45 64 46
REMARK SMILES IDX 43 47 63 48 44 49 47 50 62 51 82 52 45 53 46 54 61 56 83 57
REMARK SMILES IDX 48 58 31 59 32 60 41 61 33 62 34 63 40 64 42 65 35 66 36 67
REMARK SMILES IDX 37 68 38 69 39 70 65 71 66 72 75 73 67 74 68 75 74 76 76 77
REMARK SMILES IDX 69 78 70 79 71 80 72 81 73 82 49 83 50 84 59 85 51 86 52 87
REMARK SMILES IDX 58 88 60 89 53 90 54 91 55 92 56 93 57 94
REMARK H PARENT 15 6 19 25 81 44 47 55
REMARK Flexibility Score: inf
ROOT
ATOM      1  C   UNL A   1      32.526  28.069  26.593  1.00  0.00     0.042 C 
ENDROOT
BRANCH   1   2
ATOM      2  C   UNL A   1      31.776  29.188  25.874  1.00  0.00     0.118 C 
BRANCH   2   3
ATOM      3  N   UNL A   1      32.396  29.484  24.600  1.00  0.00    -0.352 N 
ATOM      4  C   UNL A   1      32.743  28.727  23.520  1.00  0.00     0.254 C 
ATOM      5  O   UNL A   1      33.244  29.353  22.579  1.00  0.00    -0.269 OA
ATOM      6  H   UNL A   1      32.612  30.438  24.489  1.00  0.00     0.163 HD
BRANCH   4   7
ATOM      7  C   UNL A   1      32.531  27.259  23.356  1.00  0.00     0.076 A 
ATOM      8  C   UNL A   1      33.583  25.049  23.689  1.00  0.00    -0.017 A 
ATOM      9  C   UNL A   1      32.452  24.442  23.135  1.00  0.00     0.012 A 
ATOM     10  C   UNL A   1      33.611  26.450  23.777  1.00  0.00     0.025 A 
ATOM     11  C   UNL A   1      31.368  25.215  22.732  1.00  0.00     0.041 A 
ATOM     12  C   UNL A   1      31.397  26.604  22.877  1.00  0.00     0.135 A 
ATOM     13  F   UNL A   1      30.258  27.237  22.587  1.00  0.00    -0.206 F 
BRANCH   8  14
ATOM     14  C   UNL A   1      34.703  24.239  24.177  1.00  0.00    -0.018 A 
ATOM     15  C   UNL A   1      36.912  22.757  25.107  1.00  0.00     0.052 A 
ATOM     16  C   UNL A   1      36.529  22.675  23.766  1.00  0.00     0.020 A 
ATOM     17  C   UNL A   1      36.186  23.566  25.987  1.00  0.00     0.020 A 
ATOM     18  C   UNL A   1      35.429  23.409  23.307  1.00  0.00     0.010 A 
ATOM     19  C   UNL A   1      35.093  24.299  25.523  1.00  0.00     0.010 A 
BRANCH  15  20
ATOM     20  C   UNL A   1      38.051  22.027  25.583  1.00  0.00     0.099 C 
ATOM     21  N   UNL A   1      38.961  21.427  25.977  1.00  0.00    -0.192 NA
ENDBRANCH  15  20
ENDBRANCH   8  14
ENDBRANCH   4   7
ENDBRANCH   2   3
ENDBRANCH   1   2
BRANCH   1  22
ATOM     22  C   UNL A   1      33.873  28.537  27.136  1.00  0.00     0.118 C 
BRANCH  22  23
ATOM     23  N   UNL A   1      33.806  29.913  27.628  1.00  0.00    -0.352 N 
ATOM     24  C   UNL A   1      34.706  30.616  28.387  1.00  0.00     0.251 C 
ATOM     25  H   UNL A   1      32.994  30.409  27.375  1.00  0.00     0.163 HD
ATOM     26  O   UNL A   1      34.368  31.665  28.929  1.00  0.00    -0.269 OA
BRANCH  24  27
ATOM     27  C   UNL A   1      36.077  30.098  28.540  1.00  0.00     0.039 A 
ATOM     28  C   UNL A   1      36.954  30.125  27.453  1.00  0.00     0.014 A 
ATOM     29  C   UNL A   1      36.487  29.592  29.774  1.00  0.00     0.014 A 
ATOM     30  C   UNL A   1      38.271  29.701  27.628  1.00  0.00     0.010 A 
ATOM     31  C   UNL A   1      37.819  29.268  29.971  1.00  0.00     0.010 A 
ATOM     32  C   UNL A   1      38.720  29.304  28.896  1.00  0.00    -0.014 A 
BRANCH  32  33
ATOM     33  C   UNL A   1      40.116  28.878  29.147  1.00  0.00     0.031 A 
ATOM     34  C   UNL A   1      41.101  29.879  29.682  1.00  0.00     0.074 A 
ATOM     35  C   UNL A   1      40.519  27.643  28.793  1.00  0.00     0.049 A 
ATOM     36  N   UNL A   1      42.397  29.777  29.807  1.00  0.00    -0.248 NA
ATOM     37  C   UNL A   1      40.558  31.185  30.095  1.00  0.00     0.031 C 
ATOM     38  C   UNL A   1      39.654  26.598  28.240  1.00  0.00     0.029 A 
ATOM     39  N   UNL A   1      41.762  27.063  28.823  1.00  0.00    -0.354 N 
ATOM     40  C   UNL A   1      42.823  31.011  30.284  1.00  0.00     0.074 A 
ATOM     41  C   UNL A   1      41.660  31.864  30.365  1.00  0.00     0.031 C 
ATOM     42  C   UNL A   1      40.390  25.501  28.001  1.00  0.00     0.029 A 
ATOM     43  C   UNL A   1      41.786  25.782  28.327  1.00  0.00     0.049 A 
ATOM     44  H   UNL A   1      42.562  27.524  29.167  1.00  0.00     0.167 HD
ATOM     45  C   UNL A   1      44.072  31.386  30.646  1.00  0.00     0.037 A 
ATOM     46  C   UNL A   1      42.818  24.936  28.135  1.00  0.00     0.037 A 
ATOM     47  C   UNL A   1      45.213  30.514  30.579  1.00  0.00     0.049 A 
ATOM     48  C   UNL A   1      44.205  25.381  28.510  1.00  0.00     0.074 A 
ATOM     49  C   UNL A   1      46.514  30.774  30.969  1.00  0.00     0.029 A 
ATOM     50  N   UNL A   1      45.194  29.218  30.081  1.00  0.00    -0.354 N 
ATOM     51  N   UNL A   1      44.591  26.533  29.004  1.00  0.00    -0.248 NA
ATOM     52  C   UNL A   1      45.297  24.419  28.306  1.00  0.00     0.031 C 
ATOM     53  C   UNL A   1      47.294  29.663  30.642  1.00  0.00     0.029 A 
ATOM     54  C   UNL A   1      46.467  28.677  30.125  1.00  0.00     0.049 A 
ATOM     55  H   UNL A   1      44.393  28.752  29.748  1.00  0.00     0.167 HD
ATOM     56  C   UNL A   1      45.963  26.425  29.201  1.00  0.00     0.074 A 
ATOM     57  C   UNL A   1      46.342  25.096  28.768  1.00  0.00     0.031 C 
ATOM     58  C   UNL A   1      46.826  27.343  29.704  1.00  0.00     0.037 A 
BRANCH  45  59
ATOM     59  C   UNL A   1      44.268  32.795  31.137  1.00  0.00     0.058 A 
ATOM     60  C   UNL A   1      44.145  33.095  32.503  1.00  0.00     0.135 A 
ATOM     61  C   UNL A   1      44.545  33.857  30.259  1.00  0.00     0.135 A 
ATOM     62  F   UNL A   1      43.886  32.122  33.391  1.00  0.00    -0.206 F 
ATOM     63  C   UNL A   1      44.286  34.394  32.979  1.00  0.00     0.059 A 
ATOM     64  C   UNL A   1      44.729  35.157  30.719  1.00  0.00     0.059 A 
ATOM     65  F   UNL A   1      44.693  33.626  28.944  1.00  0.00    -0.206 F 
ATOM     66  C   UNL A   1      44.586  35.417  32.080  1.00  0.00     0.060 A 
BRANCH  66  67
ATOM     67  S   UNL A   1      44.831  37.085  32.726  1.00  0.00     0.124 S 
ATOM     68  O   UNL A   1      44.109  37.894  31.752  1.00  0.00    -0.237 OA
ATOM     69  O   UNL A   1      44.226  36.988  34.051  1.00  0.00    -0.237 OA
ATOM     70  O   UNL A   1      46.282  37.239  32.720  1.00  0.00    -0.744 OA
ENDBRANCH  66  67
ENDBRANCH  45  59
BRANCH  46  71
ATOM     71  C   UNL A   1      42.549  23.578  27.591  1.00  0.00     0.058 A 
ATOM     72  C   UNL A   1      42.357  22.475  28.438  1.00  0.00     0.135 A 
ATOM     73  C   UNL A   1      42.576  23.341  26.209  1.00  0.00     0.135 A 
ATOM     74  F   UNL A   1      42.335  22.644  29.770  1.00  0.00    -0.206 F 
ATOM     75  C   UNL A   1      42.249  21.182  27.939  1.00  0.00     0.059 A 
ATOM     76  C   UNL A   1      42.443  22.059  25.682  1.00  0.00     0.059 A 
ATOM     77  F   UNL A   1      42.745  24.365  25.358  1.00  0.00    -0.206 F 
ATOM     78  C   UNL A   1      42.306  20.983  26.558  1.00  0.00     0.060 A 
BRANCH  78  79
ATOM     79  S   UNL A   1      42.232  19.290  25.935  1.00  0.00     0.124 S 
ATOM     80  O   UNL A   1      43.116  19.366  24.776  1.00  0.00    -0.237 OA
ATOM     81  O   UNL A   1      42.740  18.528  27.072  1.00  0.00    -0.237 OA
ATOM     82  O   UNL A   1      40.817  19.100  25.635  1.00  0.00    -0.744 OA
ENDBRANCH  78  79
ENDBRANCH  46  71
BRANCH  58  83
ATOM     83  C   UNL A   1      48.272  26.958  29.865  1.00  0.00     0.058 A 
ATOM     84  C   UNL A   1      48.724  26.437  31.089  1.00  0.00     0.135 A 
ATOM     85  C   UNL A   1      49.229  27.253  28.883  1.00  0.00     0.135 A 
ATOM     86  F   UNL A   1      47.849  26.144  32.064  1.00  0.00    -0.206 F 
ATOM     87  C   UNL A   1      50.078  26.271  31.353  1.00  0.00     0.059 A 
ATOM     88  C   UNL A   1      50.590  27.063  29.115  1.00  0.00     0.059 A 
ATOM     89  F   UNL A   1      48.848  27.741  27.692  1.00  0.00    -0.206 F 
ATOM     90  C   UNL A   1      51.004  26.599  30.363  1.00  0.00     0.060 A 
BRANCH  90  91
ATOM     91  S   UNL A   1      52.760  26.426  30.747  1.00  0.00     0.124 S 
ATOM     92  O   UNL A   1      52.779  25.189  31.519  1.00  0.00    -0.237 OA
ATOM     93  O   UNL A   1      53.357  26.353  29.416  1.00  0.00    -0.237 OA
ATOM     94  O   UNL A   1      53.064  27.640  31.499  1.00  0.00    -0.744 OA
ENDBRANCH  90  91
ENDBRANCH  58  83
ENDBRANCH  32  33
ENDBRANCH  24  27
ENDBRANCH  22  23
ENDBRANCH   1  22
TORSDOF 15
ENDMDL
MODEL 3
REMARK VINA RESULT:      -9.6      1.451      2.541
REMARK SMILES N#Cc1ccc(-c2ccc(F)c(C(=O)NCCCNC(=O)c3ccc(-c4c5nc(c(-c6c(F)cc(S(=O)(=O)[O-])cc6F)c6ccc([nH]6)c(-c6c(F)cc(S(=O)(=O)[O-])cc6F)c6nc(c(-c7c(F)cc(S(=O)(=O)[O-])cc7F)c7ccc4[nH]7)C=C6)C=C5)cc3)c2)cc1
REMARK SMILES IDX 17 1 16 2 15 3 13 4 14 5 12 7 7 8 8 9 88 10 9 11 10 12 11 13
REMARK SMILES IDX 6 14 3 15 4 16 90 17 5 18 89 19 2 20 1 21 18 22 19 23 20 24
REMARK SMILES IDX 21 26 22 27 23 28 87 29 24 30 86 31 25 32 26 33 27 34 80 35
REMARK SMILES IDX 28 36 85 37 79 38 81 39 29 40 84 41 78 42 77 43 30 45 64 46
REMARK SMILES IDX 43 47 63 48 44 49 47 50 62 51 82 52 45 53 46 54 61 56 83 57
REMARK SMILES IDX 48 58 31 59 32 60 41 61 33 62 34 63 40 64 42 65 35 66 36 67
REMARK SMILES IDX 37 68 38 69 39 70 65 71 66 72 75 73 67 74 68 75 74 76 76 77
REMARK SMILES IDX 69 78 70 79 71 80 72 81 73 82 49 83 50 84 59 85 51 86 52 87
REMARK SMILES IDX 58 88 60 89 53 90 54 91 55 92 56 93 57 94
REMARK H PARENT 15 6 19 25 81 44 47 55
REMARK Flexibility Score: inf
ROOT
ATOM      1  C   UNL A   1      35.049  33.377  27.960  1.00  0.00     0.042 C 
ENDROOT
BRANCH   1   2
ATOM      2  C   UNL A   1      35.197  34.794  28.508  1.00  0.00     0.118 C 
BRANCH   2   3
ATOM      3  N   UNL A   1      33.900  35.393  28.736  1.00  0.00    -0.352 N 
ATOM      4  C   UNL A   1      33.240  35.820  29.851  1.00  0.00     0.254 C 
ATOM      5  O   UNL A   1      32.126  36.314  29.645  1.00  0.00    -0.269 OA
ATOM      6  H   UNL A   1      33.384  35.522  27.908  1.00  0.00     0.163 HD
BRANCH   4   7
ATOM      7  C   UNL A   1      33.750  35.792  31.253  1.00  0.00     0.076 A 
ATOM      8  C   UNL A   1      35.200  34.544  32.816  1.00  0.00    -0.017 A 
ATOM      9  C   UNL A   1      34.852  35.439  33.833  1.00  0.00     0.012 A 
ATOM     10  C   UNL A   1      34.630  34.726  31.545  1.00  0.00     0.025 A 
ATOM     11  C   UNL A   1      34.003  36.508  33.564  1.00  0.00     0.041 A 
ATOM     12  C   UNL A   1      33.489  36.699  32.279  1.00  0.00     0.135 A 
ATOM     13  F   UNL A   1      32.798  37.826  32.098  1.00  0.00    -0.206 F 
BRANCH   8  14
ATOM     14  C   UNL A   1      36.145  33.453  33.072  1.00  0.00    -0.018 A 
ATOM     15  C   UNL A   1      37.889  31.296  33.565  1.00  0.00     0.052 A 
ATOM     16  C   UNL A   1      37.461  32.105  34.621  1.00  0.00     0.020 A 
ATOM     17  C   UNL A   1      37.459  31.570  32.263  1.00  0.00     0.020 A 
ATOM     18  C   UNL A   1      36.598  33.178  34.373  1.00  0.00     0.010 A 
ATOM     19  C   UNL A   1      36.595  32.639  32.022  1.00  0.00     0.010 A 
BRANCH  15  20
ATOM     20  C   UNL A   1      38.755  30.180  33.810  1.00  0.00     0.099 C 
ATOM     21  N   UNL A   1      39.467  29.288  34.016  1.00  0.00    -0.192 NA
ENDBRANCH  15  20
ENDBRANCH   8  14
ENDBRANCH   4   7
ENDBRANCH   2   3
ENDBRANCH   1   2
BRANCH   1  22
ATOM     22  C   UNL A   1      34.565  32.397  29.025  1.00  0.00     0.118 C 
BRANCH  22  23
ATOM     23  N   UNL A   1      33.958  31.209  28.426  1.00  0.00    -0.352 N 
ATOM     24  C   UNL A   1      34.554  30.073  27.939  1.00  0.00     0.251 C 
ATOM     25  H   UNL A   1      32.977  31.226  28.364  1.00  0.00     0.163 HD
ATOM     26  O   UNL A   1      33.916  29.297  27.233  1.00  0.00    -0.269 OA
BRANCH  24  27
ATOM     27  C   UNL A   1      35.962  29.799  28.276  1.00  0.00     0.039 A 
ATOM     28  C   UNL A   1      36.288  29.301  29.540  1.00  0.00     0.014 A 
ATOM     29  C   UNL A   1      36.955  30.032  27.324  1.00  0.00     0.014 A 
ATOM     30  C   UNL A   1      37.614  28.975  29.824  1.00  0.00     0.010 A 
ATOM     31  C   UNL A   1      38.251  29.613  27.573  1.00  0.00     0.010 A 
ATOM     32  C   UNL A   1      38.597  29.096  28.830  1.00  0.00    -0.014 A 
BRANCH  32  33
ATOM     33  C   UNL A   1      40.013  28.731  29.065  1.00  0.00     0.031 A 
ATOM     34  C   UNL A   1      40.959  29.775  29.589  1.00  0.00     0.074 A 
ATOM     35  C   UNL A   1      40.465  27.515  28.707  1.00  0.00     0.049 A 
ATOM     36  N   UNL A   1      42.260  29.730  29.699  1.00  0.00    -0.248 NA
ATOM     37  C   UNL A   1      40.364  31.056  30.007  1.00  0.00     0.031 C 
ATOM     38  C   UNL A   1      39.641  26.433  28.165  1.00  0.00     0.029 A 
ATOM     39  N   UNL A   1      41.733  26.990  28.723  1.00  0.00    -0.354 N 
ATOM     40  C   UNL A   1      42.637  30.982  30.171  1.00  0.00     0.074 A 
ATOM     41  C   UNL A   1      41.439  31.783  30.264  1.00  0.00     0.031 C 
ATOM     42  C   UNL A   1      40.421  25.368  27.918  1.00  0.00     0.029 A 
ATOM     43  C   UNL A   1      41.808  25.710  28.228  1.00  0.00     0.049 A 
ATOM     44  H   UNL A   1      42.516  27.485  29.058  1.00  0.00     0.167 HD
ATOM     45  C   UNL A   1      43.872  31.412  30.518  1.00  0.00     0.037 A 
ATOM     46  C   UNL A   1      42.873  24.910  28.025  1.00  0.00     0.037 A 
ATOM     47  C   UNL A   1      45.049  30.590  30.438  1.00  0.00     0.049 A 
ATOM     48  C   UNL A   1      44.243  25.416  28.384  1.00  0.00     0.074 A 
ATOM     49  C   UNL A   1      46.341  30.907  30.814  1.00  0.00     0.029 A 
ATOM     50  N   UNL A   1      45.081  29.294  29.942  1.00  0.00    -0.354 N 
ATOM     51  N   UNL A   1      44.585  26.585  28.873  1.00  0.00    -0.248 NA
ATOM     52  C   UNL A   1      45.374  24.503  28.168  1.00  0.00     0.031 C 
ATOM     53  C   UNL A   1      47.166  29.831  30.479  1.00  0.00     0.029 A 
ATOM     54  C   UNL A   1      46.377  28.809  29.971  1.00  0.00     0.049 A 
ATOM     55  H   UNL A   1      44.298  28.793  29.617  1.00  0.00     0.167 HD
ATOM     56  C   UNL A   1      45.962  26.537  29.054  1.00  0.00     0.074 A 
ATOM     57  C   UNL A   1      46.394  25.225  28.617  1.00  0.00     0.031 C 
ATOM     58  C   UNL A   1      46.789  27.492  29.547  1.00  0.00     0.037 A 
BRANCH  45  59
ATOM     59  C   UNL A   1      44.012  32.829  31.005  1.00  0.00     0.058 A 
ATOM     60  C   UNL A   1      44.330  33.861  30.107  1.00  0.00     0.135 A 
ATOM     61  C   UNL A   1      43.865  33.167  32.361  1.00  0.00     0.135 A 
ATOM     62  F   UNL A   1      44.478  33.599  28.799  1.00  0.00    -0.206 F 
ATOM     63  C   UNL A   1      44.500  35.173  30.536  1.00  0.00     0.059 A 
ATOM     64  C   UNL A   1      43.992  34.480  32.805  1.00  0.00     0.059 A 
ATOM     65  F   UNL A   1      43.542  32.225  33.262  1.00  0.00    -0.206 F 
ATOM     66  C   UNL A   1      44.321  35.473  31.886  1.00  0.00     0.060 A 
BRANCH  66  67
ATOM     67  S   UNL A   1      44.480  37.193  32.411  1.00  0.00     0.124 S 
ATOM     68  O   UNL A   1      45.924  37.331  32.556  1.00  0.00    -0.237 OA
ATOM     69  O   UNL A   1      43.879  37.909  31.290  1.00  0.00    -0.237 OA
ATOM     70  O   UNL A   1      43.716  37.238  33.654  1.00  0.00    -0.744 OA
ENDBRANCH  66  67
ENDBRANCH  45  59
BRANCH  46  71
ATOM     71  C   UNL A   1      42.658  23.541  27.485  1.00  0.00     0.058 A 
ATOM     72  C   UNL A   1      42.433  22.446  28.334  1.00  0.00     0.135 A 
ATOM     73  C   UNL A   1      42.770  23.288  26.110  1.00  0.00     0.135 A 
ATOM     74  F   UNL A   1      42.330  22.632  29.659  1.00  0.00    -0.206 F 
ATOM     75  C   UNL A   1      42.375  21.145  27.847  1.00  0.00     0.059 A 
ATOM     76  C   UNL A   1      42.688  21.997  25.593  1.00  0.00     0.059 A 
ATOM     77  F   UNL A   1      42.973  24.303  25.256  1.00  0.00    -0.206 F 
ATOM     78  C   UNL A   1      42.516  20.930  26.474  1.00  0.00     0.060 A 
BRANCH  78  79
ATOM     79  S   UNL A   1      42.506  19.228  25.872  1.00  0.00     0.124 S 
ATOM     80  O   UNL A   1      43.384  19.323  24.710  1.00  0.00    -0.237 OA
ATOM     81  O   UNL A   1      43.043  18.499  27.016  1.00  0.00    -0.237 OA
ATOM     82  O   UNL A   1      41.098  18.981  25.576  1.00  0.00    -0.744 OA
ENDBRANCH  78  79
ENDBRANCH  46  71
BRANCH  58  83
ATOM     83  C   UNL A   1      48.252  27.171  29.692  1.00  0.00     0.058 A 
ATOM     84  C   UNL A   1      48.725  26.588  30.880  1.00  0.00     0.135 A 
ATOM     85  C   UNL A   1      49.198  27.583  28.741  1.00  0.00     0.135 A 
ATOM     86  F   UNL A   1      47.862  26.182  31.825  1.00  0.00    -0.206 F 
ATOM     87  C   UNL A   1      50.085  26.473  31.142  1.00  0.00     0.059 A 
ATOM     88  C   UNL A   1      50.565  27.447  28.969  1.00  0.00     0.059 A 
ATOM     89  F   UNL A   1      48.797  28.134  27.584  1.00  0.00    -0.206 F 
ATOM     90  C   UNL A   1      50.998  26.917  30.185  1.00  0.00     0.060 A 
BRANCH  90  91
ATOM     91  S   UNL A   1      52.758  26.807  30.569  1.00  0.00     0.124 S 
ATOM     92  O   UNL A   1      53.100  28.204  30.815  1.00  0.00    -0.237 OA
ATOM     93  O   UNL A   1      52.761  25.937  31.742  1.00  0.00    -0.237 OA
ATOM     94  O   UNL A   1      53.334  26.223  29.361  1.00  0.00    -0.744 OA
ENDBRANCH  90  91
ENDBRANCH  58  83
ENDBRANCH  32  33
ENDBRANCH  24  27
ENDBRANCH  22  23
ENDBRANCH   1  22
TORSDOF 15
ENDMDL
