MODEL 1
REMARK VINA RESULT:     -13.7      0.000      0.000
REMARK SMILES COc1ccccc1[C@@H]1C[N@@H+](Cc2cn3cc(C)ccc3n2)C[C@H]1C(=O)NCCCNC(=O)c1ccc(-c2c3nc(c(-c4c(F)cc(S(=O)(=O)[O-])cc4F)c4ccc([nH]4)c(-c4c(F)cc(S(=O)(=O)[O-])cc4F)c4nc(c(-c5c(F)cc(S(=O)(=O)[O-])cc5F)c5ccc2[nH]5)C=C4)C=C3)cc1
REMARK SMILES IDX 29 1 28 2 27 3 25 4 26 5 24 7 9 8 10 9 11 10 23 11 8 13 3 14
REMARK SMILES IDX 4 15 5 16 7 17 6 18 2 19 1 20 12 21 13 22 14 23 22 24 15 25
REMARK SMILES IDX 21 26 16 27 20 28 17 29 19 30 18 31 30 32 31 33 32 34 33 36
REMARK SMILES IDX 34 37 35 38 99 39 36 40 98 41 37 42 38 43 39 44 92 45 40 46
REMARK SMILES IDX 97 47 91 48 93 49 41 50 96 51 90 52 89 53 42 55 76 56 55 57
REMARK SMILES IDX 75 58 56 59 59 60 74 61 94 62 57 63 58 64 73 66 95 67 60 68
REMARK SMILES IDX 43 69 44 70 53 71 45 72 46 73 52 74 54 75 47 76 48 77 49 78
REMARK SMILES IDX 50 79 51 80 77 81 78 82 87 83 79 84 80 85 86 86 88 87 81 88
REMARK SMILES IDX 82 89 83 90 84 91 85 92 61 93 62 94 71 95 63 96 64 97 70 98
REMARK SMILES IDX 72 99 65 100 66 101 67 102 68 103 69 104
REMARK H PARENT 27 6 11 12 31 35 93 54 59 65
REMARK Flexibility Score: inf
ROOT
ATOM      1  C   UNL A   1      35.517  23.782  25.789  1.00  0.00     0.042 C 
ENDROOT
BRANCH   1   2
ATOM      2  C   UNL A   1      34.614  24.781  25.029  1.00  0.00     0.117 C 
BRANCH   2   3
ATOM      3  N   UNL A   1      34.009  25.916  25.740  1.00  0.00    -0.356 N 
ATOM      4  C   UNL A   1      32.769  26.394  26.053  1.00  0.00     0.229 C 
ATOM      5  O   UNL A   1      32.799  27.409  26.772  1.00  0.00    -0.275 OA
ATOM      6  H   UNL A   1      34.707  26.510  26.100  1.00  0.00     0.163 HD
BRANCH   4   7
ATOM      7  C   UNL A   1      31.371  25.842  25.685  1.00  0.00     0.146 C 
ATOM      8  C   UNL A   1      30.891  26.128  24.224  1.00  0.00     0.096 C 
ATOM      9  C   UNL A   1      30.165  24.847  23.782  1.00  0.00     0.272 C 
ATOM     10  N   UNL A   1      30.824  23.759  24.516  1.00  0.00    -0.329 N 
ATOM     11  C   UNL A   1      31.098  24.349  25.838  1.00  0.00     0.276 C 
ATOM     12  H   UNL A   1      30.235  22.931  24.601  1.00  0.00     0.348 HD
BRANCH   8  13
ATOM     13  C   UNL A   1      30.283  27.416  23.696  1.00  0.00     0.004 A 
ATOM     14  C   UNL A   1      30.880  28.680  23.611  1.00  0.00     0.122 A 
ATOM     15  C   UNL A   1      30.107  29.806  23.266  1.00  0.00     0.047 A 
ATOM     16  C   UNL A   1      28.734  29.710  23.033  1.00  0.00     0.004 A 
ATOM     17  C   UNL A   1      28.881  27.361  23.452  1.00  0.00     0.008 A 
ATOM     18  C   UNL A   1      28.113  28.481  23.144  1.00  0.00     0.001 A 
BRANCH  14  19
ATOM     19  O   UNL A   1      32.146  28.987  24.030  1.00  0.00    -0.496 OA
ATOM     20  C   UNL A   1      33.163  28.732  23.073  1.00  0.00     0.278 C 
ENDBRANCH  14  19
ENDBRANCH   8  13
BRANCH  10  21
ATOM     21  C   UNL A   1      31.979  23.132  23.814  1.00  0.00     0.321 C 
BRANCH  21  22
ATOM     22  C   UNL A   1      32.261  21.671  24.076  1.00  0.00     0.114 A 
ATOM     23  C   UNL A   1      32.394  20.933  25.242  1.00  0.00     0.122 A 
ATOM     24  N   UNL A   1      32.458  20.833  23.014  1.00  0.00    -0.228 NA
ATOM     25  N   UNL A   1      32.560  19.613  24.852  1.00  0.00    -0.306 N 
ATOM     26  C   UNL A   1      32.492  19.609  23.474  1.00  0.00     0.137 A 
ATOM     27  C   UNL A   1      32.768  18.445  25.587  1.00  0.00     0.096 A 
ATOM     28  C   UNL A   1      32.454  18.363  22.797  1.00  0.00     0.048 A 
ATOM     29  C   UNL A   1      32.848  17.259  24.940  1.00  0.00    -0.034 A 
ATOM     30  C   UNL A   1      32.618  17.230  23.498  1.00  0.00     0.009 A 
ATOM     31  C   UNL A   1      33.155  15.960  25.610  1.00  0.00     0.046 C 
ENDBRANCH  21  22
ENDBRANCH  10  21
ENDBRANCH   4   7
ENDBRANCH   2   3
ENDBRANCH   1   2
BRANCH   1  32
ATOM     32  C   UNL A   1      36.901  23.620  25.205  1.00  0.00     0.118 C 
BRANCH  32  33
ATOM     33  N   UNL A   1      37.662  22.511  25.760  1.00  0.00    -0.352 N 
ATOM     34  C   UNL A   1      38.832  22.503  26.485  1.00  0.00     0.251 C 
ATOM     35  H   UNL A   1      37.277  21.621  25.591  1.00  0.00     0.163 HD
ATOM     36  O   UNL A   1      39.318  21.401  26.771  1.00  0.00    -0.269 OA
BRANCH  34  37
ATOM     37  C   UNL A   1      39.494  23.743  26.972  1.00  0.00     0.039 A 
ATOM     38  C   UNL A   1      40.730  23.640  27.636  1.00  0.00     0.014 A 
ATOM     39  C   UNL A   1      38.904  25.001  26.865  1.00  0.00     0.014 A 
ATOM     40  C   UNL A   1      41.265  24.753  28.284  1.00  0.00     0.010 A 
ATOM     41  C   UNL A   1      39.472  26.115  27.414  1.00  0.00     0.010 A 
ATOM     42  C   UNL A   1      40.577  25.967  28.222  1.00  0.00    -0.014 A 
BRANCH  42  43
ATOM     43  C   UNL A   1      41.041  27.184  28.852  1.00  0.00     0.031 A 
ATOM     44  C   UNL A   1      42.218  27.740  28.157  1.00  0.00     0.074 A 
ATOM     45  C   UNL A   1      40.281  27.907  29.702  1.00  0.00     0.049 A 
ATOM     46  N   UNL A   1      43.462  27.545  28.450  1.00  0.00    -0.248 NA
ATOM     47  C   UNL A   1      42.008  28.324  26.819  1.00  0.00     0.031 C 
ATOM     48  C   UNL A   1      38.897  27.667  30.128  1.00  0.00     0.029 A 
ATOM     49  N   UNL A   1      40.570  29.092  30.297  1.00  0.00    -0.354 N 
ATOM     50  C   UNL A   1      44.154  28.290  27.505  1.00  0.00     0.074 A 
ATOM     51  C   UNL A   1      43.268  28.398  26.382  1.00  0.00     0.031 C 
ATOM     52  C   UNL A   1      38.415  28.771  30.746  1.00  0.00     0.029 A 
ATOM     53  C   UNL A   1      39.488  29.740  30.888  1.00  0.00     0.049 A 
ATOM     54  H   UNL A   1      41.481  29.468  30.309  1.00  0.00     0.167 HD
ATOM     55  C   UNL A   1      45.192  29.091  27.882  1.00  0.00     0.037 A 
ATOM     56  C   UNL A   1      39.496  30.996  31.414  1.00  0.00     0.037 A 
ATOM     57  C   UNL A   1      45.591  28.786  29.244  1.00  0.00     0.049 A 
ATOM     58  C   UNL A   1      40.925  31.351  31.648  1.00  0.00     0.074 A 
ATOM     59  C   UNL A   1      45.947  27.634  29.923  1.00  0.00     0.029 A 
ATOM     60  N   UNL A   1      45.241  29.695  30.218  1.00  0.00    -0.354 N 
ATOM     61  N   UNL A   1      41.688  30.755  32.525  1.00  0.00    -0.248 NA
ATOM     62  C   UNL A   1      41.635  32.035  30.578  1.00  0.00     0.031 C 
ATOM     63  C   UNL A   1      45.338  27.755  31.209  1.00  0.00     0.029 A 
ATOM     64  C   UNL A   1      44.727  29.007  31.288  1.00  0.00     0.049 A 
ATOM     65  H   UNL A   1      45.342  30.672  30.157  1.00  0.00     0.167 HD
ATOM     66  C   UNL A   1      42.912  30.603  31.890  1.00  0.00     0.074 A 
ATOM     67  C   UNL A   1      42.848  31.495  30.733  1.00  0.00     0.031 C 
ATOM     68  C   UNL A   1      43.729  29.547  32.188  1.00  0.00     0.037 A 
BRANCH  55  69
ATOM     69  C   UNL A   1      45.539  30.419  27.230  1.00  0.00     0.058 A 
ATOM     70  C   UNL A   1      46.884  30.645  26.866  1.00  0.00     0.135 A 
ATOM     71  C   UNL A   1      44.709  31.564  27.186  1.00  0.00     0.135 A 
ATOM     72  F   UNL A   1      47.764  29.630  26.840  1.00  0.00    -0.206 F 
ATOM     73  C   UNL A   1      47.388  31.917  26.602  1.00  0.00     0.059 A 
ATOM     74  C   UNL A   1      45.180  32.833  26.876  1.00  0.00     0.059 A 
ATOM     75  F   UNL A   1      43.416  31.553  27.516  1.00  0.00    -0.206 F 
ATOM     76  C   UNL A   1      46.529  33.009  26.632  1.00  0.00     0.060 A 
BRANCH  76  77
ATOM     77  S   UNL A   1      47.186  34.663  26.389  1.00  0.00     0.124 S 
ATOM     78  O   UNL A   1      47.628  34.996  27.737  1.00  0.00    -0.237 OA
ATOM     79  O   UNL A   1      48.237  34.425  25.406  1.00  0.00    -0.237 OA
ATOM     80  O   UNL A   1      46.032  35.412  25.897  1.00  0.00    -0.744 OA
ENDBRANCH  76  77
ENDBRANCH  55  69
BRANCH  56  81
ATOM     81  C   UNL A   1      38.415  32.020  31.456  1.00  0.00     0.058 A 
ATOM     82  C   UNL A   1      37.580  32.242  30.343  1.00  0.00     0.135 A 
ATOM     83  C   UNL A   1      37.982  32.587  32.670  1.00  0.00     0.135 A 
ATOM     84  F   UNL A   1      37.904  31.732  29.144  1.00  0.00    -0.206 F 
ATOM     85  C   UNL A   1      36.359  32.922  30.442  1.00  0.00     0.059 A 
ATOM     86  C   UNL A   1      36.774  33.278  32.792  1.00  0.00     0.059 A 
ATOM     87  F   UNL A   1      38.676  32.405  33.803  1.00  0.00    -0.206 F 
ATOM     88  C   UNL A   1      35.951  33.414  31.680  1.00  0.00     0.060 A 
BRANCH  88  89
ATOM     89  S   UNL A   1      34.291  34.115  31.857  1.00  0.00     0.124 S 
ATOM     90  O   UNL A   1      33.811  34.110  30.480  1.00  0.00    -0.237 OA
ATOM     91  O   UNL A   1      33.648  33.166  32.760  1.00  0.00    -0.237 OA
ATOM     92  O   UNL A   1      34.542  35.437  32.426  1.00  0.00    -0.744 OA
ENDBRANCH  88  89
ENDBRANCH  56  81
BRANCH  68  93
ATOM     93  C   UNL A   1      43.453  28.768  33.452  1.00  0.00     0.058 A 
ATOM     94  C   UNL A   1      43.884  29.130  34.741  1.00  0.00     0.135 A 
ATOM     95  C   UNL A   1      42.611  27.651  33.355  1.00  0.00     0.135 A 
ATOM     96  F   UNL A   1      44.595  30.247  34.945  1.00  0.00    -0.206 F 
ATOM     97  C   UNL A   1      43.548  28.377  35.870  1.00  0.00     0.059 A 
ATOM     98  C   UNL A   1      42.233  26.907  34.469  1.00  0.00     0.059 A 
ATOM     99  F   UNL A   1      42.108  27.287  32.164  1.00  0.00    -0.206 F 
ATOM    100  C   UNL A   1      42.726  27.261  35.721  1.00  0.00     0.060 A 
BRANCH 100 101
ATOM    101  S   UNL A   1      42.269  26.298  37.178  1.00  0.00     0.124 S 
ATOM    102  O   UNL A   1      42.378  24.929  36.687  1.00  0.00    -0.237 OA
ATOM    103  O   UNL A   1      43.275  26.703  38.156  1.00  0.00    -0.237 OA
ATOM    104  O   UNL A   1      40.911  26.748  37.474  1.00  0.00    -0.744 OA
ENDBRANCH 100 101
ENDBRANCH  68  93
ENDBRANCH  42  43
ENDBRANCH  34  37
ENDBRANCH  32  33
ENDBRANCH   1  32
TORSDOF 17
ENDMDL
MODEL 2
REMARK VINA RESULT:     -13.6      2.645      8.359
REMARK SMILES COc1ccccc1[C@@H]1C[N@@H+](Cc2cn3cc(C)ccc3n2)C[C@H]1C(=O)NCCCNC(=O)c1ccc(-c2c3nc(c(-c4c(F)cc(S(=O)(=O)[O-])cc4F)c4ccc([nH]4)c(-c4c(F)cc(S(=O)(=O)[O-])cc4F)c4nc(c(-c5c(F)cc(S(=O)(=O)[O-])cc5F)c5ccc2[nH]5)C=C4)C=C3)cc1
REMARK SMILES IDX 29 1 28 2 27 3 25 4 26 5 24 7 9 8 10 9 11 10 23 11 8 13 3 14
REMARK SMILES IDX 4 15 5 16 7 17 6 18 2 19 1 20 12 21 13 22 14 23 22 24 15 25
REMARK SMILES IDX 21 26 16 27 20 28 17 29 19 30 18 31 30 32 31 33 32 34 33 36
REMARK SMILES IDX 34 37 35 38 99 39 36 40 98 41 37 42 38 43 39 44 92 45 40 46
REMARK SMILES IDX 97 47 91 48 93 49 41 50 96 51 90 52 89 53 42 55 76 56 55 57
REMARK SMILES IDX 75 58 56 59 59 60 74 61 94 62 57 63 58 64 73 66 95 67 60 68
REMARK SMILES IDX 43 69 44 70 53 71 45 72 46 73 52 74 54 75 47 76 48 77 49 78
REMARK SMILES IDX 50 79 51 80 77 81 78 82 87 83 79 84 80 85 86 86 88 87 81 88
REMARK SMILES IDX 82 89 83 90 84 91 85 92 61 93 62 94 71 95 63 96 64 97 70 98
REMARK SMILES IDX 72 99 65 100 66 101 67 102 68 103 69 104
REMARK H PARENT 27 6 11 12 31 35 93 54 59 65
REMARK Flexibility Score: inf
ROOT
ATOM      1  C   UNL A   1      32.368  30.848  26.906  1.00  0.00     0.042 C 
ENDROOT
BRANCH   1   2
ATOM      2  C   UNL A   1      31.813  29.424  27.145  1.00  0.00     0.117 C 
BRANCH   2   3
ATOM      3  N   UNL A   1      32.647  28.249  26.855  1.00  0.00    -0.356 N 
ATOM      4  C   UNL A   1      32.508  26.981  26.369  1.00  0.00     0.229 C 
ATOM      5  O   UNL A   1      33.590  26.379  26.247  1.00  0.00    -0.275 OA
ATOM      6  H   UNL A   1      33.589  28.432  27.077  1.00  0.00     0.163 HD
BRANCH   4   7
ATOM      7  C   UNL A   1      31.235  26.223  25.923  1.00  0.00     0.146 C 
ATOM      8  C   UNL A   1      30.865  26.349  24.408  1.00  0.00     0.096 C 
ATOM      9  C   UNL A   1      30.356  24.957  24.002  1.00  0.00     0.272 C 
ATOM     10  N   UNL A   1      31.075  24.016  24.871  1.00  0.00    -0.329 N 
ATOM     11  C   UNL A   1      31.142  24.720  26.163  1.00  0.00     0.276 C 
ATOM     12  H   UNL A   1      30.592  23.123  24.966  1.00  0.00     0.348 HD
BRANCH   8  13
ATOM     13  C   UNL A   1      30.150  27.508  23.734  1.00  0.00     0.004 A 
ATOM     14  C   UNL A   1      30.644  28.793  23.476  1.00  0.00     0.122 A 
ATOM     15  C   UNL A   1      29.780  29.802  23.007  1.00  0.00     0.047 A 
ATOM     16  C   UNL A   1      28.417  29.571  22.818  1.00  0.00     0.004 A 
ATOM     17  C   UNL A   1      28.754  27.313  23.529  1.00  0.00     0.008 A 
ATOM     18  C   UNL A   1      27.896  28.322  23.098  1.00  0.00     0.001 A 
BRANCH  14  19
ATOM     19  O   UNL A   1      31.887  29.248  23.826  1.00  0.00    -0.496 OA
ATOM     20  C   UNL A   1      32.929  28.850  22.950  1.00  0.00     0.278 C 
ENDBRANCH  14  19
ENDBRANCH   8  13
BRANCH  10  21
ATOM     21  C   UNL A   1      32.363  23.508  24.322  1.00  0.00     0.321 C 
BRANCH  21  22
ATOM     22  C   UNL A   1      32.570  22.012  24.268  1.00  0.00     0.114 A 
ATOM     23  C   UNL A   1      32.899  21.073  25.234  1.00  0.00     0.122 A 
ATOM     24  N   UNL A   1      32.453  21.368  23.068  1.00  0.00    -0.228 NA
ATOM     25  N   UNL A   1      32.861  19.837  24.607  1.00  0.00    -0.306 N 
ATOM     26  C   UNL A   1      32.486  20.082  23.301  1.00  0.00     0.137 A 
ATOM     27  C   UNL A   1      33.128  18.549  25.071  1.00  0.00     0.096 A 
ATOM     28  C   UNL A   1      32.191  18.979  22.459  1.00  0.00     0.048 A 
ATOM     29  C   UNL A   1      32.960  17.495  24.240  1.00  0.00    -0.034 A 
ATOM     30  C   UNL A   1      32.410  17.734  22.907  1.00  0.00     0.009 A 
ATOM     31  C   UNL A   1      33.297  16.084  24.599  1.00  0.00     0.046 C 
ENDBRANCH  21  22
ENDBRANCH  10  21
ENDBRANCH   4   7
ENDBRANCH   2   3
ENDBRANCH   1   2
BRANCH   1  32
ATOM     32  C   UNL A   1      33.758  31.076  27.453  1.00  0.00     0.118 C 
BRANCH  32  33
ATOM     33  N   UNL A   1      33.805  31.901  28.651  1.00  0.00    -0.352 N 
ATOM     34  C   UNL A   1      34.782  32.031  29.610  1.00  0.00     0.251 C 
ATOM     35  H   UNL A   1      33.007  32.458  28.799  1.00  0.00     0.163 HD
ATOM     36  O   UNL A   1      34.533  32.751  30.585  1.00  0.00    -0.269 OA
BRANCH  34  37
ATOM     37  C   UNL A   1      36.122  31.390  29.498  1.00  0.00     0.039 A 
ATOM     38  C   UNL A   1      36.214  29.988  29.562  1.00  0.00     0.014 A 
ATOM     39  C   UNL A   1      37.301  32.127  29.407  1.00  0.00     0.014 A 
ATOM     40  C   UNL A   1      37.464  29.379  29.671  1.00  0.00     0.010 A 
ATOM     41  C   UNL A   1      38.529  31.529  29.414  1.00  0.00     0.010 A 
ATOM     42  C   UNL A   1      38.608  30.179  29.671  1.00  0.00    -0.014 A 
BRANCH  42  43
ATOM     43  C   UNL A   1      39.953  29.655  29.775  1.00  0.00     0.031 A 
ATOM     44  C   UNL A   1      40.333  29.411  31.180  1.00  0.00     0.074 A 
ATOM     45  C   UNL A   1      40.611  29.108  28.730  1.00  0.00     0.049 A 
ATOM     46  N   UNL A   1      40.974  30.211  31.966  1.00  0.00    -0.248 NA
ATOM     47  C   UNL A   1      39.674  28.294  31.880  1.00  0.00     0.031 C 
ATOM     48  C   UNL A   1      40.140  28.900  27.355  1.00  0.00     0.029 A 
ATOM     49  N   UNL A   1      41.835  28.523  28.714  1.00  0.00    -0.354 N 
ATOM     50  C   UNL A   1      41.079  29.507  33.157  1.00  0.00     0.074 A 
ATOM     51  C   UNL A   1      39.984  28.579  33.147  1.00  0.00     0.031 C 
ATOM     52  C   UNL A   1      40.988  28.066  26.708  1.00  0.00     0.029 A 
ATOM     53  C   UNL A   1      42.130  27.794  27.564  1.00  0.00     0.049 A 
ATOM     54  H   UNL A   1      42.470  28.607  29.462  1.00  0.00     0.167 HD
ATOM     55  C   UNL A   1      42.266  29.454  33.827  1.00  0.00     0.037 A 
ATOM     56  C   UNL A   1      43.222  27.005  27.374  1.00  0.00     0.037 A 
ATOM     57  C   UNL A   1      43.189  30.436  33.287  1.00  0.00     0.049 A 
ATOM     58  C   UNL A   1      44.228  27.415  28.395  1.00  0.00     0.074 A 
ATOM     59  C   UNL A   1      43.136  31.797  33.045  1.00  0.00     0.029 A 
ATOM     60  N   UNL A   1      44.223  29.963  32.510  1.00  0.00    -0.354 N 
ATOM     61  N   UNL A   1      44.815  28.582  28.409  1.00  0.00    -0.248 NA
ATOM     62  C   UNL A   1      44.219  26.715  29.671  1.00  0.00     0.031 C 
ATOM     63  C   UNL A   1      43.805  31.982  31.798  1.00  0.00     0.029 A 
ATOM     64  C   UNL A   1      44.316  30.749  31.390  1.00  0.00     0.049 A 
ATOM     65  H   UNL A   1      44.797  29.192  32.721  1.00  0.00     0.167 HD
ATOM     66  C   UNL A   1      44.844  28.952  29.746  1.00  0.00     0.074 A 
ATOM     67  C   UNL A   1      44.552  27.724  30.483  1.00  0.00     0.031 C 
ATOM     68  C   UNL A   1      44.795  30.271  30.109  1.00  0.00     0.037 A 
BRANCH  55  69
ATOM     69  C   UNL A   1      42.755  28.256  34.625  1.00  0.00     0.058 A 
ATOM     70  C   UNL A   1      43.087  28.458  35.981  1.00  0.00     0.135 A 
ATOM     71  C   UNL A   1      43.166  27.013  34.088  1.00  0.00     0.135 A 
ATOM     72  F   UNL A   1      42.725  29.587  36.613  1.00  0.00    -0.206 F 
ATOM     73  C   UNL A   1      43.867  27.558  36.707  1.00  0.00     0.059 A 
ATOM     74  C   UNL A   1      43.899  26.080  34.808  1.00  0.00     0.059 A 
ATOM     75  F   UNL A   1      42.961  26.651  32.820  1.00  0.00    -0.206 F 
ATOM     76  C   UNL A   1      44.286  26.380  36.100  1.00  0.00     0.060 A 
BRANCH  76  77
ATOM     77  S   UNL A   1      45.371  25.260  36.993  1.00  0.00     0.124 S 
ATOM     78  O   UNL A   1      44.455  24.695  37.975  1.00  0.00    -0.237 OA
ATOM     79  O   UNL A   1      45.811  24.361  35.931  1.00  0.00    -0.237 OA
ATOM     80  O   UNL A   1      46.403  26.146  37.523  1.00  0.00    -0.744 OA
ENDBRANCH  76  77
ENDBRANCH  55  69
BRANCH  56  81
ATOM     81  C   UNL A   1      43.365  25.743  26.595  1.00  0.00     0.058 A 
ATOM     82  C   UNL A   1      44.215  25.674  25.472  1.00  0.00     0.135 A 
ATOM     83  C   UNL A   1      42.917  24.508  27.101  1.00  0.00     0.135 A 
ATOM     84  F   UNL A   1      44.701  26.799  24.924  1.00  0.00    -0.206 F 
ATOM     85  C   UNL A   1      44.647  24.457  24.929  1.00  0.00     0.059 A 
ATOM     86  C   UNL A   1      43.327  23.282  26.572  1.00  0.00     0.059 A 
ATOM     87  F   UNL A   1      42.139  24.450  28.193  1.00  0.00    -0.206 F 
ATOM     88  C   UNL A   1      44.218  23.263  25.505  1.00  0.00     0.060 A 
BRANCH  88  89
ATOM     89  S   UNL A   1      44.927  21.696  24.938  1.00  0.00     0.124 S 
ATOM     90  O   UNL A   1      43.803  20.780  25.096  1.00  0.00    -0.237 OA
ATOM     91  O   UNL A   1      45.308  22.007  23.564  1.00  0.00    -0.237 OA
ATOM     92  O   UNL A   1      46.043  21.479  25.856  1.00  0.00    -0.744 OA
ENDBRANCH  88  89
ENDBRANCH  56  81
BRANCH  68  93
ATOM     93  C   UNL A   1      45.073  31.311  29.049  1.00  0.00     0.058 A 
ATOM     94  C   UNL A   1      46.350  31.686  28.592  1.00  0.00     0.135 A 
ATOM     95  C   UNL A   1      43.972  31.876  28.389  1.00  0.00     0.135 A 
ATOM     96  F   UNL A   1      47.457  31.112  29.083  1.00  0.00    -0.206 F 
ATOM     97  C   UNL A   1      46.522  32.628  27.574  1.00  0.00     0.059 A 
ATOM     98  C   UNL A   1      44.118  32.788  27.348  1.00  0.00     0.059 A 
ATOM     99  F   UNL A   1      42.724  31.514  28.729  1.00  0.00    -0.206 F 
ATOM    100  C   UNL A   1      45.397  33.179  26.962  1.00  0.00     0.060 A 
BRANCH 100 101
ATOM    101  S   UNL A   1      45.613  34.378  25.630  1.00  0.00     0.124 S 
ATOM    102  O   UNL A   1      47.044  34.288  25.365  1.00  0.00    -0.237 OA
ATOM    103  O   UNL A   1      44.740  33.852  24.584  1.00  0.00    -0.237 OA
ATOM    104  O   UNL A   1      45.168  35.635  26.227  1.00  0.00    -0.744 OA
ENDBRANCH 100 101
ENDBRANCH  68  93
ENDBRANCH  42  43
ENDBRANCH  34  37
ENDBRANCH  32  33
ENDBRANCH   1  32
TORSDOF 17
ENDMDL
MODEL 3
REMARK VINA RESULT:     -13.6      2.874      8.585
REMARK SMILES COc1ccccc1[C@@H]1C[N@@H+](Cc2cn3cc(C)ccc3n2)C[C@H]1C(=O)NCCCNC(=O)c1ccc(-c2c3nc(c(-c4c(F)cc(S(=O)(=O)[O-])cc4F)c4ccc([nH]4)c(-c4c(F)cc(S(=O)(=O)[O-])cc4F)c4nc(c(-c5c(F)cc(S(=O)(=O)[O-])cc5F)c5ccc2[nH]5)C=C4)C=C3)cc1
REMARK SMILES IDX 29 1 28 2 27 3 25 4 26 5 24 7 9 8 10 9 11 10 23 11 8 13 3 14
REMARK SMILES IDX 4 15 5 16 7 17 6 18 2 19 1 20 12 21 13 22 14 23 22 24 15 25
REMARK SMILES IDX 21 26 16 27 20 28 17 29 19 30 18 31 30 32 31 33 32 34 33 36
REMARK SMILES IDX 34 37 35 38 99 39 36 40 98 41 37 42 38 43 39 44 92 45 40 46
REMARK SMILES IDX 97 47 91 48 93 49 41 50 96 51 90 52 89 53 42 55 76 56 55 57
REMARK SMILES IDX 75 58 56 59 59 60 74 61 94 62 57 63 58 64 73 66 95 67 60 68
REMARK SMILES IDX 43 69 44 70 53 71 45 72 46 73 52 74 54 75 47 76 48 77 49 78
REMARK SMILES IDX 50 79 51 80 77 81 78 82 87 83 79 84 80 85 86 86 88 87 81 88
REMARK SMILES IDX 82 89 83 90 84 91 85 92 61 93 62 94 71 95 63 96 64 97 70 98
REMARK SMILES IDX 72 99 65 100 66 101 67 102 68 103 69 104
REMARK H PARENT 27 6 11 12 31 35 93 54 59 65
REMARK Flexibility Score: inf
ROOT
ATOM      1  C   UNL A   1      32.370  28.799  27.366  1.00  0.00     0.042 C 
ENDROOT
BRANCH   1   2
ATOM      2  C   UNL A   1      32.375  27.307  26.960  1.00  0.00     0.117 C 
BRANCH   2   3
ATOM      3  N   UNL A   1      31.114  26.553  26.906  1.00  0.00    -0.356 N 
ATOM      4  C   UNL A   1      30.282  25.999  25.976  1.00  0.00     0.229 C 
ATOM      5  O   UNL A   1      29.330  25.374  26.476  1.00  0.00    -0.275 OA
ATOM      6  H   UNL A   1      30.765  26.400  27.814  1.00  0.00     0.163 HD
BRANCH   4   7
ATOM      7  C   UNL A   1      30.378  26.005  24.431  1.00  0.00     0.146 C 
ATOM      8  C   UNL A   1      30.735  27.381  23.778  1.00  0.00     0.096 C 
ATOM      9  C   UNL A   1      31.681  27.041  22.615  1.00  0.00     0.272 C 
ATOM     10  N   UNL A   1      32.385  25.822  23.037  1.00  0.00    -0.329 N 
ATOM     11  C   UNL A   1      31.348  25.050  23.744  1.00  0.00     0.276 C 
ATOM     12  H   UNL A   1      32.761  25.295  22.250  1.00  0.00     0.348 HD
BRANCH   8  13
ATOM     13  C   UNL A   1      29.789  28.539  23.508  1.00  0.00     0.004 A 
ATOM     14  C   UNL A   1      29.947  29.883  23.866  1.00  0.00     0.122 A 
ATOM     15  C   UNL A   1      28.882  30.790  23.698  1.00  0.00     0.047 A 
ATOM     16  C   UNL A   1      27.641  30.381  23.207  1.00  0.00     0.004 A 
ATOM     17  C   UNL A   1      28.508  28.162  23.013  1.00  0.00     0.008 A 
ATOM     18  C   UNL A   1      27.447  29.054  22.878  1.00  0.00     0.001 A 
BRANCH  14  19
ATOM     19  O   UNL A   1      31.003  30.396  24.570  1.00  0.00    -0.496 OA
ATOM     20  C   UNL A   1      30.680  31.501  25.398  1.00  0.00     0.278 C 
ENDBRANCH  14  19
ENDBRANCH   8  13
BRANCH  10  21
ATOM     21  C   UNL A   1      33.661  26.052  23.771  1.00  0.00     0.321 C 
BRANCH  21  22
ATOM     22  C   UNL A   1      34.513  24.850  24.107  1.00  0.00     0.114 A 
ATOM     23  C   UNL A   1      34.659  23.606  23.514  1.00  0.00     0.122 A 
ATOM     24  N   UNL A   1      35.319  24.896  25.210  1.00  0.00    -0.228 NA
ATOM     25  N   UNL A   1      35.657  22.951  24.219  1.00  0.00    -0.306 N 
ATOM     26  C   UNL A   1      36.086  23.838  25.186  1.00  0.00     0.137 A 
ATOM     27  C   UNL A   1      36.201  21.673  24.092  1.00  0.00     0.096 A 
ATOM     28  C   UNL A   1      37.233  23.505  25.954  1.00  0.00     0.048 A 
ATOM     29  C   UNL A   1      37.222  21.302  24.898  1.00  0.00    -0.034 A 
ATOM     30  C   UNL A   1      37.786  22.291  25.814  1.00  0.00     0.009 A 
ATOM     31  C   UNL A   1      37.824  19.935  24.912  1.00  0.00     0.046 C 
ENDBRANCH  21  22
ENDBRANCH  10  21
ENDBRANCH   4   7
ENDBRANCH   2   3
ENDBRANCH   1   2
BRANCH   1  32
ATOM     32  C   UNL A   1      33.683  29.512  27.144  1.00  0.00     0.118 C 
BRANCH  32  33
ATOM     33  N   UNL A   1      33.666  30.926  27.489  1.00  0.00    -0.352 N 
ATOM     34  C   UNL A   1      34.577  31.689  28.182  1.00  0.00     0.251 C 
ATOM     35  H   UNL A   1      32.872  31.416  27.174  1.00  0.00     0.163 HD
ATOM     36  O   UNL A   1      34.277  32.868  28.411  1.00  0.00    -0.269 OA
BRANCH  34  37
ATOM     37  C   UNL A   1      35.905  31.175  28.615  1.00  0.00     0.039 A 
ATOM     38  C   UNL A   1      36.872  32.087  29.074  1.00  0.00     0.014 A 
ATOM     39  C   UNL A   1      36.259  29.831  28.514  1.00  0.00     0.014 A 
ATOM     40  C   UNL A   1      38.184  31.663  29.283  1.00  0.00     0.010 A 
ATOM     41  C   UNL A   1      37.517  29.391  28.811  1.00  0.00     0.010 A 
ATOM     42  C   UNL A   1      38.501  30.319  29.071  1.00  0.00    -0.014 A 
BRANCH  42  43
ATOM     43  C   UNL A   1      39.826  29.769  29.261  1.00  0.00     0.031 A 
ATOM     44  C   UNL A   1      40.121  29.548  30.690  1.00  0.00     0.074 A 
ATOM     45  C   UNL A   1      40.528  29.184  28.267  1.00  0.00     0.049 A 
ATOM     46  N   UNL A   1      40.736  30.351  31.493  1.00  0.00    -0.248 NA
ATOM     47  C   UNL A   1      39.398  28.461  31.376  1.00  0.00     0.031 C 
ATOM     48  C   UNL A   1      40.130  28.955  26.873  1.00  0.00     0.029 A 
ATOM     49  N   UNL A   1      41.737  28.572  28.332  1.00  0.00    -0.354 N 
ATOM     50  C   UNL A   1      40.758  29.672  32.703  1.00  0.00     0.074 A 
ATOM     51  C   UNL A   1      39.645  28.768  32.652  1.00  0.00     0.031 C 
ATOM     52  C   UNL A   1      40.993  28.088  26.292  1.00  0.00     0.029 A 
ATOM     53  C   UNL A   1      42.078  27.811  27.216  1.00  0.00     0.049 A 
ATOM     54  H   UNL A   1      42.331  28.659  29.112  1.00  0.00     0.167 HD
ATOM     55  C   UNL A   1      41.904  29.608  33.440  1.00  0.00     0.037 A 
ATOM     56  C   UNL A   1      43.161  26.994  27.104  1.00  0.00     0.037 A 
ATOM     57  C   UNL A   1      42.879  30.557  32.932  1.00  0.00     0.049 A 
ATOM     58  C   UNL A   1      44.118  27.405  28.172  1.00  0.00     0.074 A 
ATOM     59  C   UNL A   1      42.870  31.913  32.659  1.00  0.00     0.029 A 
ATOM     60  N   UNL A   1      43.943  30.044  32.224  1.00  0.00    -0.354 N 
ATOM     61  N   UNL A   1      44.730  28.559  28.193  1.00  0.00    -0.248 NA
ATOM     62  C   UNL A   1      44.022  26.734  29.460  1.00  0.00     0.031 C 
ATOM     63  C   UNL A   1      43.612  32.055  31.447  1.00  0.00     0.029 A 
ATOM     64  C   UNL A   1      44.116  30.803  31.094  1.00  0.00     0.049 A 
ATOM     65  H   UNL A   1      44.486  29.266  32.484  1.00  0.00     0.167 HD
ATOM     66  C   UNL A   1      44.693  28.958  29.522  1.00  0.00     0.074 A 
ATOM     67  C   UNL A   1      44.332  27.753  30.267  1.00  0.00     0.031 C 
ATOM     68  C   UNL A   1      44.655  30.286  29.853  1.00  0.00     0.037 A 
BRANCH  55  69
ATOM     69  C   UNL A   1      42.321  28.418  34.289  1.00  0.00     0.058 A 
ATOM     70  C   UNL A   1      42.534  28.633  35.668  1.00  0.00     0.135 A 
ATOM     71  C   UNL A   1      42.775  27.170  33.803  1.00  0.00     0.135 A 
ATOM     72  F   UNL A   1      42.120  29.769  36.253  1.00  0.00    -0.206 F 
ATOM     73  C   UNL A   1      43.246  27.741  36.467  1.00  0.00     0.059 A 
ATOM     74  C   UNL A   1      43.442  26.243  34.594  1.00  0.00     0.059 A 
ATOM     75  F   UNL A   1      42.681  26.795  32.526  1.00  0.00    -0.206 F 
ATOM     76  C   UNL A   1      43.715  26.556  35.911  1.00  0.00     0.060 A 
BRANCH  76  77
ATOM     77  S   UNL A   1      44.717  25.445  36.905  1.00  0.00     0.124 S 
ATOM     78  O   UNL A   1      46.037  26.047  36.767  1.00  0.00    -0.237 OA
ATOM     79  O   UNL A   1      44.087  25.567  38.216  1.00  0.00    -0.237 OA
ATOM     80  O   UNL A   1      44.536  24.154  36.248  1.00  0.00    -0.744 OA
ENDBRANCH  76  77
ENDBRANCH  55  69
BRANCH  56  81
ATOM     81  C   UNL A   1      43.318  25.712  26.361  1.00  0.00     0.058 A 
ATOM     82  C   UNL A   1      44.371  25.529  25.442  1.00  0.00     0.135 A 
ATOM     83  C   UNL A   1      42.633  24.544  26.751  1.00  0.00     0.135 A 
ATOM     84  F   UNL A   1      45.089  26.581  25.020  1.00  0.00    -0.206 F 
ATOM     85  C   UNL A   1      44.764  24.261  24.992  1.00  0.00     0.059 A 
ATOM     86  C   UNL A   1      43.001  23.271  26.308  1.00  0.00     0.059 A 
ATOM     87  F   UNL A   1      41.642  24.594  27.653  1.00  0.00    -0.206 F 
ATOM     88  C   UNL A   1      44.088  23.134  25.453  1.00  0.00     0.060 A 
BRANCH  88  89
ATOM     89  S   UNL A   1      44.714  21.487  25.035  1.00  0.00     0.124 S 
ATOM     90  O   UNL A   1      46.072  21.535  25.564  1.00  0.00    -0.237 OA
ATOM     91  O   UNL A   1      43.784  20.613  25.743  1.00  0.00    -0.237 OA
ATOM     92  O   UNL A   1      44.613  21.447  23.578  1.00  0.00    -0.744 OA
ENDBRANCH  88  89
ENDBRANCH  56  81
BRANCH  68  93
ATOM     93  C   UNL A   1      45.015  31.295  28.789  1.00  0.00     0.058 A 
ATOM     94  C   UNL A   1      44.115  31.865  27.870  1.00  0.00     0.135 A 
ATOM     95  C   UNL A   1      46.329  31.787  28.779  1.00  0.00     0.135 A 
ATOM     96  F   UNL A   1      42.815  31.542  27.883  1.00  0.00    -0.206 F 
ATOM     97  C   UNL A   1      44.521  32.829  26.942  1.00  0.00     0.059 A 
ATOM     98  C   UNL A   1      46.746  32.772  27.889  1.00  0.00     0.059 A 
ATOM     99  F   UNL A   1      47.224  31.335  29.672  1.00  0.00    -0.206 F 
ATOM    100  C   UNL A   1      45.842  33.271  26.956  1.00  0.00     0.060 A 
BRANCH 100 101
ATOM    101  S   UNL A   1      46.366  34.533  25.775  1.00  0.00     0.124 S 
ATOM    102  O   UNL A   1      46.122  35.766  26.516  1.00  0.00    -0.237 OA
ATOM    103  O   UNL A   1      47.768  34.196  25.550  1.00  0.00    -0.237 OA
ATOM    104  O   UNL A   1      45.489  34.312  24.627  1.00  0.00    -0.744 OA
ENDBRANCH 100 101
ENDBRANCH  68  93
ENDBRANCH  42  43
ENDBRANCH  34  37
ENDBRANCH  32  33
ENDBRANCH   1  32
TORSDOF 17
ENDMDL
