MODEL 1
REMARK VINA RESULT:     -10.5      0.000      0.000
REMARK SMILES CN(C)C(=O)Nc1cccc(/C=C/C(=O)NCCCNC(=O)c2ccc(-c3c4nc(c(-c5c(F)cc(S(=O)(=O)[O-])cc5F)c5ccc([nH]5)c(-c5c(F)cc(S(=O)(=O)[O-])cc5F)c5nc(c(-c6c(F)cc(S(=O)(=O)[O-])cc6F)c6ccc3[nH]6)C=C5)C=C4)cc2)n1
REMARK SMILES IDX 18 1 17 2 16 3 14 4 15 5 13 7 12 8 11 9 7 10 8 11 89 12 9 13
REMARK SMILES IDX 10 14 6 15 1 16 2 17 3 18 4 19 5 20 19 22 20 23 21 24 22 26
REMARK SMILES IDX 23 27 24 28 88 29 25 30 87 31 26 32 27 33 28 34 81 35 29 36
REMARK SMILES IDX 86 37 80 38 82 39 30 40 85 41 79 42 78 43 31 45 65 46 44 47
REMARK SMILES IDX 64 48 45 49 48 50 63 51 83 52 46 53 47 54 62 56 84 57 49 58
REMARK SMILES IDX 32 59 33 60 42 61 34 62 35 63 41 64 43 65 36 66 37 67 38 68
REMARK SMILES IDX 39 69 40 70 66 71 67 72 76 73 68 74 69 75 75 76 77 77 70 78
REMARK SMILES IDX 71 79 72 80 73 81 74 82 50 83 51 84 60 85 52 86 53 87 59 88
REMARK SMILES IDX 61 89 54 90 55 91 56 92 57 93 58 94
REMARK H PARENT 16 6 6 21 20 25 82 44 48 55
REMARK Flexibility Score: inf
ROOT
ATOM      1  C   UNL A   1      33.501  33.870  28.016  1.00  0.00     0.042 C 
ENDROOT
BRANCH   1   2
ATOM      2  C   UNL A   1      34.101  35.216  28.419  1.00  0.00     0.118 C 
BRANCH   2   3
ATOM      3  N   UNL A   1      33.220  35.959  29.302  1.00  0.00    -0.352 N 
ATOM      4  C   UNL A   1      33.050  35.902  30.650  1.00  0.00     0.244 C 
ATOM      5  O   UNL A   1      32.347  36.747  31.202  1.00  0.00    -0.270 OA
ATOM      6  H   UNL A   1      32.646  36.618  28.846  1.00  0.00     0.163 HD
BRANCH   4   7
ATOM      7  C   UNL A   1      33.761  34.902  31.477  1.00  0.00     0.073 C 
ATOM      8  C   UNL A   1      35.094  34.762  31.542  1.00  0.00     0.034 C 
BRANCH   8   9
ATOM      9  C   UNL A   1      35.770  33.762  32.371  1.00  0.00     0.066 A 
ATOM     10  C   UNL A   1      36.753  33.224  34.390  1.00  0.00     0.134 A 
ATOM     11  C   UNL A   1      37.084  31.952  33.941  1.00  0.00     0.047 A 
ATOM     12  N   UNL A   1      36.067  34.109  33.643  1.00  0.00    -0.231 NA
ATOM     13  C   UNL A   1      36.763  31.603  32.634  1.00  0.00     0.006 A 
ATOM     14  C   UNL A   1      36.107  32.527  31.829  1.00  0.00     0.028 A 
BRANCH  10  15
ATOM     15  N   UNL A   1      37.101  33.686  35.654  1.00  0.00    -0.292 N 
ATOM     16  C   UNL A   1      40.695  34.221  36.193  1.00  0.00     0.148 C 
ATOM     17  N   UNL A   1      39.414  34.184  35.512  1.00  0.00    -0.331 N 
ATOM     18  C   UNL A   1      39.380  34.844  34.211  1.00  0.00     0.148 C 
ATOM     19  C   UNL A   1      38.306  33.831  36.258  1.00  0.00     0.322 C 
ATOM     20  O   UNL A   1      38.359  33.737  37.487  1.00  0.00    -0.248 OA
ATOM     21  H   UNL A   1      36.335  33.954  36.211  1.00  0.00     0.173 HD
ENDBRANCH  10  15
ENDBRANCH   8   9
ENDBRANCH   4   7
ENDBRANCH   2   3
ENDBRANCH   1   2
BRANCH   1  22
ATOM     22  C   UNL A   1      34.337  32.668  28.447  1.00  0.00     0.118 C 
BRANCH  22  23
ATOM     23  N   UNL A   1      33.691  31.406  28.115  1.00  0.00    -0.352 N 
ATOM     24  C   UNL A   1      34.235  30.169  27.874  1.00  0.00     0.251 C 
ATOM     25  H   UNL A   1      32.710  31.447  28.053  1.00  0.00     0.163 HD
ATOM     26  O   UNL A   1      33.528  29.294  27.383  1.00  0.00    -0.269 OA
BRANCH  24  27
ATOM     27  C   UNL A   1      35.654  29.885  28.187  1.00  0.00     0.039 A 
ATOM     28  C   UNL A   1      35.990  29.492  29.487  1.00  0.00     0.014 A 
ATOM     29  C   UNL A   1      36.660  30.057  27.232  1.00  0.00     0.014 A 
ATOM     30  C   UNL A   1      37.322  29.220  29.811  1.00  0.00     0.010 A 
ATOM     31  C   UNL A   1      37.978  29.720  27.538  1.00  0.00     0.010 A 
ATOM     32  C   UNL A   1      38.325  29.303  28.832  1.00  0.00    -0.014 A 
BRANCH  32  33
ATOM     33  C   UNL A   1      39.739  28.969  29.143  1.00  0.00     0.031 A 
ATOM     34  C   UNL A   1      40.631  29.993  29.796  1.00  0.00     0.074 A 
ATOM     35  C   UNL A   1      40.233  27.765  28.792  1.00  0.00     0.049 A 
ATOM     36  N   UNL A   1      41.911  29.925  30.060  1.00  0.00    -0.248 NA
ATOM     37  C   UNL A   1      40.007  31.269  30.183  1.00  0.00     0.031 C 
ATOM     38  C   UNL A   1      39.476  26.702  28.128  1.00  0.00     0.029 A 
ATOM     39  N   UNL A   1      41.491  27.236  28.935  1.00  0.00    -0.354 N 
ATOM     40  C   UNL A   1      42.245  31.143  30.640  1.00  0.00     0.074 A 
ATOM     41  C   UNL A   1      41.046  31.954  30.636  1.00  0.00     0.031 C 
ATOM     42  C   UNL A   1      40.280  25.643  27.935  1.00  0.00     0.029 A 
ATOM     43  C   UNL A   1      41.616  25.964  28.426  1.00  0.00     0.049 A 
ATOM     44  H   UNL A   1      42.233  27.721  29.361  1.00  0.00     0.167 HD
ATOM     45  C   UNL A   1      43.433  31.540  31.155  1.00  0.00     0.037 A 
ATOM     46  C   UNL A   1      42.691  25.154  28.351  1.00  0.00     0.037 A 
ATOM     47  C   UNL A   1      44.619  30.724  31.172  1.00  0.00     0.049 A 
ATOM     48  C   UNL A   1      44.007  25.632  28.905  1.00  0.00     0.074 A 
ATOM     49  C   UNL A   1      45.869  31.029  31.682  1.00  0.00     0.029 A 
ATOM     50  N   UNL A   1      44.699  29.436  30.663  1.00  0.00    -0.354 N 
ATOM     51  N   UNL A   1      44.294  26.776  29.478  1.00  0.00    -0.248 NA
ATOM     52  C   UNL A   1      45.145  24.706  28.807  1.00  0.00     0.031 C 
ATOM     53  C   UNL A   1      46.713  29.937  31.457  1.00  0.00     0.029 A 
ATOM     54  C   UNL A   1      45.979  28.935  30.843  1.00  0.00     0.049 A 
ATOM     55  H   UNL A   1      43.957  28.949  30.237  1.00  0.00     0.167 HD
ATOM     56  C   UNL A   1      45.634  26.695  29.838  1.00  0.00     0.074 A 
ATOM     57  C   UNL A   1      46.098  25.384  29.428  1.00  0.00     0.031 C 
ATOM     58  C   UNL A   1      46.413  27.620  30.450  1.00  0.00     0.037 A 
BRANCH  45  59
ATOM     59  C   UNL A   1      43.505  32.914  31.766  1.00  0.00     0.058 A 
ATOM     60  C   UNL A   1      43.279  33.114  33.138  1.00  0.00     0.135 A 
ATOM     61  C   UNL A   1      43.852  34.033  30.991  1.00  0.00     0.135 A 
ATOM     62  F   UNL A   1      42.928  32.083  33.922  1.00  0.00    -0.206 F 
ATOM     63  C   UNL A   1      43.371  34.376  33.714  1.00  0.00     0.059 A 
ATOM     64  C   UNL A   1      43.977  35.300  31.552  1.00  0.00     0.059 A 
ATOM     65  F   UNL A   1      44.079  33.899  29.674  1.00  0.00    -0.206 F 
ATOM     66  C   UNL A   1      43.723  35.464  32.914  1.00  0.00     0.060 A 
BRANCH  66  67
ATOM     67  S   UNL A   1      43.855  37.091  33.684  1.00  0.00     0.124 S 
ATOM     68  O   UNL A   1      45.176  37.014  34.301  1.00  0.00    -0.237 OA
ATOM     69  O   UNL A   1      43.744  37.987  32.537  1.00  0.00    -0.237 OA
ATOM     70  O   UNL A   1      42.729  37.121  34.611  1.00  0.00    -0.744 OA
ENDBRANCH  66  67
ENDBRANCH  45  59
BRANCH  46  71
ATOM     71  C   UNL A   1      42.574  23.803  27.740  1.00  0.00     0.058 A 
ATOM     72  C   UNL A   1      42.405  22.661  28.539  1.00  0.00     0.135 A 
ATOM     73  C   UNL A   1      42.660  23.620  26.351  1.00  0.00     0.135 A 
ATOM     74  F   UNL A   1      42.322  22.784  29.872  1.00  0.00    -0.206 F 
ATOM     75  C   UNL A   1      42.361  21.385  27.988  1.00  0.00     0.059 A 
ATOM     76  C   UNL A   1      42.591  22.356  25.774  1.00  0.00     0.059 A 
ATOM     77  F   UNL A   1      42.801  24.680  25.540  1.00  0.00    -0.206 F 
ATOM     78  C   UNL A   1      42.461  21.242  26.604  1.00  0.00     0.060 A 
BRANCH  78  79
ATOM     79  S   UNL A   1      42.395  19.583  25.894  1.00  0.00     0.124 S 
ATOM     80  O   UNL A   1      42.806  18.764  27.027  1.00  0.00    -0.237 OA
ATOM     81  O   UNL A   1      40.994  19.472  25.499  1.00  0.00    -0.237 OA
ATOM     82  O   UNL A   1      43.345  19.655  24.788  1.00  0.00    -0.744 OA
ENDBRANCH  78  79
ENDBRANCH  46  71
BRANCH  58  83
ATOM     83  C   UNL A   1      47.832  27.231  30.762  1.00  0.00     0.058 A 
ATOM     84  C   UNL A   1      48.178  26.611  31.973  1.00  0.00     0.135 A 
ATOM     85  C   UNL A   1      48.848  27.440  29.816  1.00  0.00     0.135 A 
ATOM     86  F   UNL A   1      47.246  26.396  32.913  1.00  0.00    -0.206 F 
ATOM     87  C   UNL A   1      49.489  26.233  32.244  1.00  0.00     0.059 A 
ATOM     88  C   UNL A   1      50.161  27.046  30.055  1.00  0.00     0.059 A 
ATOM     89  F   UNL A   1      48.567  28.020  28.639  1.00  0.00    -0.206 F 
ATOM     90  C   UNL A   1      50.474  26.453  31.277  1.00  0.00     0.060 A 
BRANCH  90  91
ATOM     91  S   UNL A   1      52.164  25.925  31.628  1.00  0.00     0.124 S 
ATOM     92  O   UNL A   1      52.532  26.822  32.718  1.00  0.00    -0.237 OA
ATOM     93  O   UNL A   1      51.985  24.524  31.993  1.00  0.00    -0.237 OA
ATOM     94  O   UNL A   1      52.860  26.154  30.365  1.00  0.00    -0.744 OA
ENDBRANCH  90  91
ENDBRANCH  58  83
ENDBRANCH  32  33
ENDBRANCH  24  27
ENDBRANCH  22  23
ENDBRANCH   1  22
TORSDOF 15
ENDMDL
MODEL 2
REMARK VINA RESULT:     -10.4      0.917      1.953
REMARK SMILES CN(C)C(=O)Nc1cccc(/C=C/C(=O)NCCCNC(=O)c2ccc(-c3c4nc(c(-c5c(F)cc(S(=O)(=O)[O-])cc5F)c5ccc([nH]5)c(-c5c(F)cc(S(=O)(=O)[O-])cc5F)c5nc(c(-c6c(F)cc(S(=O)(=O)[O-])cc6F)c6ccc3[nH]6)C=C5)C=C4)cc2)n1
REMARK SMILES IDX 18 1 17 2 16 3 14 4 15 5 13 7 12 8 11 9 7 10 8 11 89 12 9 13
REMARK SMILES IDX 10 14 6 15 1 16 2 17 3 18 4 19 5 20 19 22 20 23 21 24 22 26
REMARK SMILES IDX 23 27 24 28 88 29 25 30 87 31 26 32 27 33 28 34 81 35 29 36
REMARK SMILES IDX 86 37 80 38 82 39 30 40 85 41 79 42 78 43 31 45 65 46 44 47
REMARK SMILES IDX 64 48 45 49 48 50 63 51 83 52 46 53 47 54 62 56 84 57 49 58
REMARK SMILES IDX 32 59 33 60 42 61 34 62 35 63 41 64 43 65 36 66 37 67 38 68
REMARK SMILES IDX 39 69 40 70 66 71 67 72 76 73 68 74 69 75 75 76 77 77 70 78
REMARK SMILES IDX 71 79 72 80 73 81 74 82 50 83 51 84 60 85 52 86 53 87 59 88
REMARK SMILES IDX 61 89 54 90 55 91 56 92 57 93 58 94
REMARK H PARENT 16 6 6 21 20 25 82 44 48 55
REMARK Flexibility Score: inf
ROOT
ATOM      1  C   UNL A   1      33.673  33.740  28.160  1.00  0.00     0.042 C 
ENDROOT
BRANCH   1   2
ATOM      2  C   UNL A   1      33.968  34.990  28.988  1.00  0.00     0.118 C 
BRANCH   2   3
ATOM      3  N   UNL A   1      33.249  34.986  30.249  1.00  0.00    -0.352 N 
ATOM      4  C   UNL A   1      33.676  34.757  31.520  1.00  0.00     0.244 C 
ATOM      5  O   UNL A   1      32.906  34.963  32.457  1.00  0.00    -0.270 OA
ATOM      6  H   UNL A   1      32.287  35.183  30.172  1.00  0.00     0.163 HD
BRANCH   4   7
ATOM      7  C   UNL A   1      35.070  34.353  31.806  1.00  0.00     0.073 C 
ATOM      8  C   UNL A   1      35.717  34.578  32.960  1.00  0.00     0.034 C 
BRANCH   8   9
ATOM      9  C   UNL A   1      37.099  34.165  33.215  1.00  0.00     0.066 A 
ATOM     10  C   UNL A   1      39.105  34.569  34.286  1.00  0.00     0.134 A 
ATOM     11  C   UNL A   1      39.700  33.469  33.682  1.00  0.00     0.047 A 
ATOM     12  N   UNL A   1      37.813  34.897  34.099  1.00  0.00    -0.231 NA
ATOM     13  C   UNL A   1      38.952  32.717  32.783  1.00  0.00     0.006 A 
ATOM     14  C   UNL A   1      37.633  33.077  32.534  1.00  0.00     0.028 A 
BRANCH  10  15
ATOM     15  N   UNL A   1      39.798  35.421  35.138  1.00  0.00    -0.292 N 
ATOM     16  C   UNL A   1      39.028  35.034  38.709  1.00  0.00     0.148 C 
ATOM     17  N   UNL A   1      39.264  34.674  37.323  1.00  0.00    -0.331 N 
ATOM     18  C   UNL A   1      39.392  33.244  37.064  1.00  0.00     0.148 C 
ATOM     19  C   UNL A   1      39.657  35.679  36.461  1.00  0.00     0.322 C 
ATOM     20  O   UNL A   1      39.979  36.795  36.877  1.00  0.00    -0.248 OA
ATOM     21  H   UNL A   1      40.519  35.929  34.703  1.00  0.00     0.173 HD
ENDBRANCH  10  15
ENDBRANCH   8   9
ENDBRANCH   4   7
ENDBRANCH   2   3
ENDBRANCH   1   2
BRANCH   1  22
ATOM     22  C   UNL A   1      34.553  32.545  28.514  1.00  0.00     0.118 C 
BRANCH  22  23
ATOM     23  N   UNL A   1      33.913  31.279  28.186  1.00  0.00    -0.352 N 
ATOM     24  C   UNL A   1      34.463  30.052  27.914  1.00  0.00     0.251 C 
ATOM     25  H   UNL A   1      32.929  31.309  28.156  1.00  0.00     0.163 HD
ATOM     26  O   UNL A   1      33.751  29.174  27.434  1.00  0.00    -0.269 OA
BRANCH  24  27
ATOM     27  C   UNL A   1      35.895  29.781  28.179  1.00  0.00     0.039 A 
ATOM     28  C   UNL A   1      36.273  29.354  29.456  1.00  0.00     0.014 A 
ATOM     29  C   UNL A   1      36.871  29.999  27.203  1.00  0.00     0.014 A 
ATOM     30  C   UNL A   1      37.617  29.094  29.735  1.00  0.00     0.010 A 
ATOM     31  C   UNL A   1      38.201  29.674  27.461  1.00  0.00     0.010 A 
ATOM     32  C   UNL A   1      38.591  29.223  28.732  1.00  0.00    -0.014 A 
BRANCH  32  33
ATOM     33  C   UNL A   1      40.018  28.903  28.994  1.00  0.00     0.031 A 
ATOM     34  C   UNL A   1      40.937  29.955  29.556  1.00  0.00     0.074 A 
ATOM     35  C   UNL A   1      40.496  27.683  28.679  1.00  0.00     0.049 A 
ATOM     36  N   UNL A   1      42.228  29.899  29.764  1.00  0.00    -0.248 NA
ATOM     37  C   UNL A   1      40.331  31.249  29.909  1.00  0.00     0.031 C 
ATOM     38  C   UNL A   1      39.711  26.590  28.101  1.00  0.00     0.029 A 
ATOM     39  N   UNL A   1      41.760  27.159  28.789  1.00  0.00    -0.354 N 
ATOM     40  C   UNL A   1      42.587  31.143  30.270  1.00  0.00     0.074 A 
ATOM     41  C   UNL A   1      41.389  31.954  30.282  1.00  0.00     0.031 C 
ATOM     42  C   UNL A   1      40.507  25.522  27.923  1.00  0.00     0.029 A 
ATOM     43  C   UNL A   1      41.864  25.864  28.336  1.00  0.00     0.049 A 
ATOM     44  H   UNL A   1      42.521  27.663  29.157  1.00  0.00     0.167 HD
ATOM     45  C   UNL A   1      43.797  31.563  30.711  1.00  0.00     0.037 A 
ATOM     46  C   UNL A   1      42.934  25.050  28.251  1.00  0.00     0.037 A 
ATOM     47  C   UNL A   1      44.983  30.746  30.712  1.00  0.00     0.049 A 
ATOM     48  C   UNL A   1      44.274  25.553  28.721  1.00  0.00     0.074 A 
ATOM     49  C   UNL A   1      46.255  31.075  31.150  1.00  0.00     0.029 A 
ATOM     50  N   UNL A   1      45.042  29.435  30.262  1.00  0.00    -0.354 N 
ATOM     51  N   UNL A   1      44.586  26.723  29.225  1.00  0.00    -0.248 NA
ATOM     52  C   UNL A   1      45.407  24.622  28.616  1.00  0.00     0.031 C 
ATOM     53  C   UNL A   1      47.089  29.972  30.938  1.00  0.00     0.029 A 
ATOM     54  C   UNL A   1      46.329  28.943  30.407  1.00  0.00     0.049 A 
ATOM     55  H   UNL A   1      44.282  28.930  29.894  1.00  0.00     0.167 HD
ATOM     56  C   UNL A   1      45.941  26.657  29.527  1.00  0.00     0.074 A 
ATOM     57  C   UNL A   1      46.387  25.328  29.160  1.00  0.00     0.031 C 
ATOM     58  C   UNL A   1      46.746  27.609  30.058  1.00  0.00     0.037 A 
BRANCH  45  59
ATOM     59  C   UNL A   1      43.896  32.963  31.251  1.00  0.00     0.058 A 
ATOM     60  C   UNL A   1      44.232  34.044  30.419  1.00  0.00     0.135 A 
ATOM     61  C   UNL A   1      43.605  33.241  32.597  1.00  0.00     0.135 A 
ATOM     62  F   UNL A   1      44.535  33.834  29.128  1.00  0.00    -0.206 F 
ATOM     63  C   UNL A   1      44.298  35.344  30.906  1.00  0.00     0.059 A 
ATOM     64  C   UNL A   1      43.639  34.539  33.099  1.00  0.00     0.059 A 
ATOM     65  F   UNL A   1      43.278  32.246  33.438  1.00  0.00    -0.206 F 
ATOM     66  C   UNL A   1      43.998  35.583  32.248  1.00  0.00     0.060 A 
BRANCH  66  67
ATOM     67  S   UNL A   1      44.073  37.281  32.857  1.00  0.00     0.124 S 
ATOM     68  O   UNL A   1      45.386  37.303  33.495  1.00  0.00    -0.237 OA
ATOM     69  O   UNL A   1      43.954  38.058  31.626  1.00  0.00    -0.237 OA
ATOM     70  O   UNL A   1      42.933  37.368  33.763  1.00  0.00    -0.744 OA
ENDBRANCH  66  67
ENDBRANCH  45  59
BRANCH  46  71
ATOM     71  C   UNL A   1      42.791  23.672  27.711  1.00  0.00     0.058 A 
ATOM     72  C   UNL A   1      42.867  23.427  26.331  1.00  0.00     0.135 A 
ATOM     73  C   UNL A   1      42.546  22.578  28.555  1.00  0.00     0.135 A 
ATOM     74  F   UNL A   1      43.097  24.441  25.482  1.00  0.00    -0.206 F 
ATOM     75  C   UNL A   1      42.670  22.155  25.804  1.00  0.00     0.059 A 
ATOM     76  C   UNL A   1      42.372  21.292  28.054  1.00  0.00     0.059 A 
ATOM     77  F   UNL A   1      42.484  22.755  29.885  1.00  0.00    -0.206 F 
ATOM     78  C   UNL A   1      42.417  21.094  26.674  1.00  0.00     0.060 A 
BRANCH  78  79
ATOM     79  S   UNL A   1      42.170  19.444  25.984  1.00  0.00     0.124 S 
ATOM     80  O   UNL A   1      40.724  19.416  25.803  1.00  0.00    -0.237 OA
ATOM     81  O   UNL A   1      42.966  19.498  24.763  1.00  0.00    -0.237 OA
ATOM     82  O   UNL A   1      42.695  18.565  27.025  1.00  0.00    -0.744 OA
ENDBRANCH  78  79
ENDBRANCH  46  71
BRANCH  58  83
ATOM     83  C   UNL A   1      48.178  27.234  30.323  1.00  0.00     0.058 A 
ATOM     84  C   UNL A   1      49.187  27.452  29.372  1.00  0.00     0.135 A 
ATOM     85  C   UNL A   1      48.550  26.694  31.565  1.00  0.00     0.135 A 
ATOM     86  F   UNL A   1      48.882  27.959  28.168  1.00  0.00    -0.206 F 
ATOM     87  C   UNL A   1      50.512  27.124  29.634  1.00  0.00     0.059 A 
ATOM     88  C   UNL A   1      49.874  26.383  31.858  1.00  0.00     0.059 A 
ATOM     89  F   UNL A   1      47.625  26.475  32.512  1.00  0.00    -0.206 F 
ATOM     90  C   UNL A   1      50.847  26.591  30.881  1.00  0.00     0.060 A 
BRANCH  90  91
ATOM     91  S   UNL A   1      52.577  26.202  31.221  1.00  0.00     0.124 S 
ATOM     92  O   UNL A   1      52.978  27.339  32.042  1.00  0.00    -0.237 OA
ATOM     93  O   UNL A   1      52.479  24.922  31.914  1.00  0.00    -0.237 OA
ATOM     94  O   UNL A   1      53.179  26.144  29.892  1.00  0.00    -0.744 OA
ENDBRANCH  90  91
ENDBRANCH  58  83
ENDBRANCH  32  33
ENDBRANCH  24  27
ENDBRANCH  22  23
ENDBRANCH   1  22
TORSDOF 15
ENDMDL
MODEL 3
REMARK VINA RESULT:     -10.4      3.086     11.866
REMARK SMILES CN(C)C(=O)Nc1cccc(/C=C/C(=O)NCCCNC(=O)c2ccc(-c3c4nc(c(-c5c(F)cc(S(=O)(=O)[O-])cc5F)c5ccc([nH]5)c(-c5c(F)cc(S(=O)(=O)[O-])cc5F)c5nc(c(-c6c(F)cc(S(=O)(=O)[O-])cc6F)c6ccc3[nH]6)C=C5)C=C4)cc2)n1
REMARK SMILES IDX 18 1 17 2 16 3 14 4 15 5 13 7 12 8 11 9 7 10 8 11 89 12 9 13
REMARK SMILES IDX 10 14 6 15 1 16 2 17 3 18 4 19 5 20 19 22 20 23 21 24 22 26
REMARK SMILES IDX 23 27 24 28 88 29 25 30 87 31 26 32 27 33 28 34 81 35 29 36
REMARK SMILES IDX 86 37 80 38 82 39 30 40 85 41 79 42 78 43 31 45 65 46 44 47
REMARK SMILES IDX 64 48 45 49 48 50 63 51 83 52 46 53 47 54 62 56 84 57 49 58
REMARK SMILES IDX 32 59 33 60 42 61 34 62 35 63 41 64 43 65 36 66 37 67 38 68
REMARK SMILES IDX 39 69 40 70 66 71 67 72 76 73 68 74 69 75 75 76 77 77 70 78
REMARK SMILES IDX 71 79 72 80 73 81 74 82 50 83 51 84 60 85 52 86 53 87 59 88
REMARK SMILES IDX 61 89 54 90 55 91 56 92 57 93 58 94
REMARK H PARENT 16 6 6 21 20 25 82 44 48 55
REMARK Flexibility Score: inf
ROOT
ATOM      1  C   UNL A   1      40.797  20.012  26.422  1.00  0.00     0.042 C 
ENDROOT
BRANCH   1   2
ATOM      2  C   UNL A   1      42.172  19.543  26.898  1.00  0.00     0.118 C 
BRANCH   2   3
ATOM      3  N   UNL A   1      42.971  19.012  25.809  1.00  0.00    -0.352 N 
ATOM      4  C   UNL A   1      43.987  19.564  25.094  1.00  0.00     0.244 C 
ATOM      5  O   UNL A   1      44.623  18.859  24.312  1.00  0.00    -0.270 OA
ATOM      6  H   UNL A   1      42.736  18.093  25.541  1.00  0.00     0.163 HD
BRANCH   4   7
ATOM      7  C   UNL A   1      44.402  20.970  25.300  1.00  0.00     0.073 C 
ATOM      8  C   UNL A   1      44.026  22.005  24.533  1.00  0.00     0.034 C 
BRANCH   8   9
ATOM      9  C   UNL A   1      44.453  23.387  24.762  1.00  0.00     0.066 A 
ATOM     10  C   UNL A   1      46.164  24.938  24.782  1.00  0.00     0.134 A 
ATOM     11  C   UNL A   1      45.311  25.939  25.228  1.00  0.00     0.047 A 
ATOM     12  N   UNL A   1      45.745  23.688  24.506  1.00  0.00    -0.231 NA
ATOM     13  C   UNL A   1      43.981  25.619  25.477  1.00  0.00     0.006 A 
ATOM     14  C   UNL A   1      43.545  24.319  25.253  1.00  0.00     0.028 A 
BRANCH  10  15
ATOM     15  N   UNL A   1      47.523  25.147  24.580  1.00  0.00    -0.292 N 
ATOM     16  C   UNL A   1      49.344  26.516  27.462  1.00  0.00     0.148 C 
ATOM     17  N   UNL A   1      48.379  25.735  26.711  1.00  0.00    -0.331 N 
ATOM     18  C   UNL A   1      47.653  24.732  27.483  1.00  0.00     0.148 C 
ATOM     19  C   UNL A   1      48.457  25.778  25.333  1.00  0.00     0.322 C 
ATOM     20  O   UNL A   1      49.416  26.300  24.758  1.00  0.00    -0.248 OA
ATOM     21  H   UNL A   1      47.870  24.769  23.740  1.00  0.00     0.173 HD
ENDBRANCH  10  15
ENDBRANCH   8   9
ENDBRANCH   4   7
ENDBRANCH   2   3
ENDBRANCH   1   2
BRANCH   1  22
ATOM     22  C   UNL A   1      40.603  21.524  26.494  1.00  0.00     0.118 C 
BRANCH  22  23
ATOM     23  N   UNL A   1      39.426  21.960  25.757  1.00  0.00    -0.352 N 
ATOM     24  C   UNL A   1      38.679  23.105  25.876  1.00  0.00     0.251 C 
ATOM     25  H   UNL A   1      39.116  21.333  25.064  1.00  0.00     0.163 HD
ATOM     26  O   UNL A   1      37.589  23.166  25.314  1.00  0.00    -0.269 OA
BRANCH  24  27
ATOM     27  C   UNL A   1      39.164  24.253  26.676  1.00  0.00     0.039 A 
ATOM     28  C   UNL A   1      39.996  25.196  26.063  1.00  0.00     0.014 A 
ATOM     29  C   UNL A   1      38.856  24.378  28.034  1.00  0.00     0.014 A 
ATOM     30  C   UNL A   1      40.471  26.287  26.795  1.00  0.00     0.010 A 
ATOM     31  C   UNL A   1      39.273  25.502  28.743  1.00  0.00     0.010 A 
ATOM     32  C   UNL A   1      40.091  26.467  28.134  1.00  0.00    -0.014 A 
BRANCH  32  33
ATOM     33  C   UNL A   1      40.543  27.648  28.915  1.00  0.00     0.031 A 
ATOM     34  C   UNL A   1      41.901  27.647  29.566  1.00  0.00     0.074 A 
ATOM     35  C   UNL A   1      39.712  28.696  29.080  1.00  0.00     0.049 A 
ATOM     36  N   UNL A   1      42.436  28.538  30.361  1.00  0.00    -0.248 NA
ATOM     37  C   UNL A   1      42.763  26.482  29.306  1.00  0.00     0.031 C 
ATOM     38  C   UNL A   1      38.361  28.801  28.525  1.00  0.00     0.029 A 
ATOM     39  N   UNL A   1      39.877  29.870  29.772  1.00  0.00    -0.354 N 
ATOM     40  C   UNL A   1      43.692  28.043  30.697  1.00  0.00     0.074 A 
ATOM     41  C   UNL A   1      43.816  26.746  30.067  1.00  0.00     0.031 C 
ATOM     42  C   UNL A   1      37.827  29.980  28.884  1.00  0.00     0.029 A 
ATOM     43  C   UNL A   1      38.779  30.698  29.725  1.00  0.00     0.049 A 
ATOM     44  H   UNL A   1      40.702  30.098  30.257  1.00  0.00     0.167 HD
ATOM     45  C   UNL A   1      44.663  28.627  31.438  1.00  0.00     0.037 A 
ATOM     46  C   UNL A   1      38.560  31.894  30.306  1.00  0.00     0.037 A 
ATOM     47  C   UNL A   1      44.542  29.925  32.050  1.00  0.00     0.049 A 
ATOM     48  C   UNL A   1      39.647  32.507  31.150  1.00  0.00     0.074 A 
ATOM     49  C   UNL A   1      45.474  30.611  32.810  1.00  0.00     0.029 A 
ATOM     50  N   UNL A   1      43.421  30.738  31.964  1.00  0.00    -0.354 N 
ATOM     51  N   UNL A   1      40.838  32.036  31.430  1.00  0.00    -0.248 NA
ATOM     52  C   UNL A   1      39.360  33.817  31.753  1.00  0.00     0.031 C 
ATOM     53  C   UNL A   1      44.907  31.826  33.207  1.00  0.00     0.029 A 
ATOM     54  C   UNL A   1      43.637  31.916  32.661  1.00  0.00     0.049 A 
ATOM     55  H   UNL A   1      42.595  30.512  31.480  1.00  0.00     0.167 HD
ATOM     56  C   UNL A   1      41.455  33.006  32.212  1.00  0.00     0.074 A 
ATOM     57  C   UNL A   1      40.509  34.095  32.352  1.00  0.00     0.031 C 
ATOM     58  C   UNL A   1      42.692  32.998  32.767  1.00  0.00     0.037 A 
BRANCH  45  59
ATOM     59  C   UNL A   1      45.956  27.877  31.611  1.00  0.00     0.058 A 
ATOM     60  C   UNL A   1      46.141  26.981  32.677  1.00  0.00     0.135 A 
ATOM     61  C   UNL A   1      47.000  28.011  30.681  1.00  0.00     0.135 A 
ATOM     62  F   UNL A   1      45.183  26.826  33.604  1.00  0.00    -0.206 F 
ATOM     63  C   UNL A   1      47.323  26.264  32.828  1.00  0.00     0.059 A 
ATOM     64  C   UNL A   1      48.181  27.282  30.798  1.00  0.00     0.059 A 
ATOM     65  F   UNL A   1      46.877  28.853  29.643  1.00  0.00    -0.206 F 
ATOM     66  C   UNL A   1      48.337  26.419  31.882  1.00  0.00     0.060 A 
BRANCH  66  67
ATOM     67  S   UNL A   1      49.856  25.466  32.085  1.00  0.00     0.124 S 
ATOM     68  O   UNL A   1      50.079  24.981  30.726  1.00  0.00    -0.237 OA
ATOM     69  O   UNL A   1      50.797  26.477  32.559  1.00  0.00    -0.237 OA
ATOM     70  O   UNL A   1      49.491  24.446  33.064  1.00  0.00    -0.744 OA
ENDBRANCH  66  67
ENDBRANCH  45  59
BRANCH  46  71
ATOM     71  C   UNL A   1      37.267  32.602  30.108  1.00  0.00     0.058 A 
ATOM     72  C   UNL A   1      37.127  33.581  29.112  1.00  0.00     0.135 A 
ATOM     73  C   UNL A   1      36.158  32.340  30.926  1.00  0.00     0.135 A 
ATOM     74  F   UNL A   1      38.160  33.870  28.306  1.00  0.00    -0.206 F 
ATOM     75  C   UNL A   1      35.946  34.299  28.956  1.00  0.00     0.059 A 
ATOM     76  C   UNL A   1      34.957  33.025  30.772  1.00  0.00     0.059 A 
ATOM     77  F   UNL A   1      36.232  31.399  31.880  1.00  0.00    -0.206 F 
ATOM     78  C   UNL A   1      34.868  34.018  29.796  1.00  0.00     0.060 A 
BRANCH  78  79
ATOM     79  S   UNL A   1      33.334  34.948  29.584  1.00  0.00     0.124 S 
ATOM     80  O   UNL A   1      32.854  35.037  30.957  1.00  0.00    -0.237 OA
ATOM     81  O   UNL A   1      33.810  36.194  28.991  1.00  0.00    -0.237 OA
ATOM     82  O   UNL A   1      32.550  34.100  28.692  1.00  0.00    -0.744 OA
ENDBRANCH  78  79
ENDBRANCH  46  71
BRANCH  58  83
ATOM     83  C   UNL A   1      43.114  34.221  33.532  1.00  0.00     0.058 A 
ATOM     84  C   UNL A   1      43.717  35.317  32.897  1.00  0.00     0.135 A 
ATOM     85  C   UNL A   1      42.866  34.314  34.911  1.00  0.00     0.135 A 
ATOM     86  F   UNL A   1      43.981  35.275  31.582  1.00  0.00    -0.206 F 
ATOM     87  C   UNL A   1      44.083  36.455  33.608  1.00  0.00     0.059 A 
ATOM     88  C   UNL A   1      43.200  35.453  35.637  1.00  0.00     0.059 A 
ATOM     89  F   UNL A   1      42.283  33.297  35.564  1.00  0.00    -0.206 F 
ATOM     90  C   UNL A   1      43.819  36.515  34.979  1.00  0.00     0.060 A 
BRANCH  90  91
ATOM     91  S   UNL A   1      44.267  38.012  35.883  1.00  0.00     0.124 S 
ATOM     92  O   UNL A   1      43.520  37.840  37.124  1.00  0.00    -0.237 OA
ATOM     93  O   UNL A   1      45.717  37.888  35.992  1.00  0.00    -0.237 OA
ATOM     94  O   UNL A   1      43.799  39.086  35.012  1.00  0.00    -0.744 OA
ENDBRANCH  90  91
ENDBRANCH  58  83
ENDBRANCH  32  33
ENDBRANCH  24  27
ENDBRANCH  22  23
ENDBRANCH   1  22
TORSDOF 15
ENDMDL
