MODEL 1
REMARK VINA RESULT:     -11.7      0.000      0.000
REMARK SMILES C[C@H](c1ccoc1)[NH+]1CC[NH+]([C@@H](C)C(=O)NCCCNC(=O)c2ccc(-c3c4nc(c(-c5c(F)cc(S(=O)(=O)[O-])cc5F)c5ccc([nH]5)c(-c5c(F)cc(S(=O)(=O)[O-])cc5F)c5nc(c(-c6c(F)cc(S(=O)(=O)[O-])cc6F)c6ccc3[nH]6)C=C5)C=C4)cc2)CC1
REMARK SMILES IDX 18 1 17 2 16 3 14 4 15 5 12 7 13 8 11 9 8 10 9 11 90 12
REMARK SMILES IDX 10 14 89 15 2 17 1 18 3 19 4 20 7 21 5 22 6 23 19 24 20 25
REMARK SMILES IDX 21 26 22 28 23 29 24 30 88 31 25 32 87 33 26 34 27 35 28 36
REMARK SMILES IDX 81 37 29 38 86 39 80 40 82 41 30 42 85 43 79 44 78 45 31 47
REMARK SMILES IDX 65 48 44 49 64 50 45 51 48 52 63 53 83 54 46 55 47 56 62 58
REMARK SMILES IDX 84 59 49 60 32 61 33 62 42 63 34 64 35 65 41 66 43 67 36 68
REMARK SMILES IDX 37 69 38 70 39 71 40 72 66 73 67 74 76 75 68 76 69 77 75 78
REMARK SMILES IDX 77 79 70 80 71 81 72 82 73 83 74 84 50 85 51 86 60 87 52 88
REMARK SMILES IDX 53 89 59 90 61 91 54 92 55 93 56 94 57 95 58 96
REMARK H PARENT 16 6 8 13 11 16 20 27 82 46 48 57
REMARK Flexibility Score: inf
ROOT
ATOM      1  C   UNL A   1      37.580  23.515  25.399  1.00  0.00     0.042 C 
ENDROOT
BRANCH   1   2
ATOM      2  C   UNL A   1      36.982  22.110  25.507  1.00  0.00     0.118 C 
BRANCH   2   3
ATOM      3  N   UNL A   1      35.937  22.014  26.515  1.00  0.00    -0.351 N 
ATOM      4  C   UNL A   1      34.588  22.223  26.494  1.00  0.00     0.278 C 
ATOM      5  O   UNL A   1      34.013  22.055  27.580  1.00  0.00    -0.268 OA
ATOM      6  H   UNL A   1      36.273  21.741  27.399  1.00  0.00     0.163 HD
BRANCH   4   7
ATOM      7  C   UNL A   1      33.757  22.619  25.233  1.00  0.00     0.271 C 
ATOM      8  C   UNL A   1      33.367  21.435  24.352  1.00  0.00     0.086 C 
BRANCH   7   9
ATOM      9  N   UNL A   1      34.202  23.892  24.616  1.00  0.00    -0.316 N 
ATOM     10  N   UNL A   1      32.244  26.192  24.302  1.00  0.00    -0.320 N 
ATOM     11  C   UNL A   1      32.230  24.979  23.475  1.00  0.00     0.325 C 
ATOM     12  C   UNL A   1      32.987  25.964  25.553  1.00  0.00     0.325 C 
ATOM     13  H   UNL A   1      31.302  26.405  24.631  1.00  0.00     0.348 HD
ATOM     14  C   UNL A   1      33.597  24.285  23.354  1.00  0.00     0.325 C 
ATOM     15  C   UNL A   1      34.255  25.062  25.503  1.00  0.00     0.325 C 
ATOM     16  H   UNL A   1      35.156  23.600  24.405  1.00  0.00     0.349 HD
BRANCH  10  17
ATOM     17  C   UNL A   1      32.533  27.410  23.523  1.00  0.00     0.215 C 
ATOM     18  C   UNL A   1      33.704  28.286  23.968  1.00  0.00     0.081 C 
BRANCH  17  19
ATOM     19  C   UNL A   1      31.268  28.217  23.357  1.00  0.00     0.047 A 
ATOM     20  C   UNL A   1      30.165  28.002  22.477  1.00  0.00     0.052 A 
ATOM     21  C   UNL A   1      30.903  29.315  24.116  1.00  0.00     0.204 A 
ATOM     22  C   UNL A   1      29.235  28.973  22.760  1.00  0.00     0.195 A 
ATOM     23  O   UNL A   1      29.679  29.777  23.756  1.00  0.00    -0.472 OA
ENDBRANCH  17  19
ENDBRANCH  10  17
ENDBRANCH   7   9
ENDBRANCH   4   7
ENDBRANCH   2   3
ENDBRANCH   1   2
BRANCH   1  24
ATOM     24  C   UNL A   1      38.503  23.898  26.543  1.00  0.00     0.118 C 
BRANCH  24  25
ATOM     25  N   UNL A   1      39.894  23.919  26.131  1.00  0.00    -0.352 N 
ATOM     26  C   UNL A   1      40.899  24.807  26.442  1.00  0.00     0.251 C 
ATOM     27  H   UNL A   1      40.162  23.182  25.536  1.00  0.00     0.163 HD
ATOM     28  O   UNL A   1      41.939  24.769  25.789  1.00  0.00    -0.269 OA
BRANCH  26  29
ATOM     29  C   UNL A   1      40.745  25.807  27.530  1.00  0.00     0.039 A 
ATOM     30  C   UNL A   1      41.617  26.901  27.567  1.00  0.00     0.014 A 
ATOM     31  C   UNL A   1      39.801  25.655  28.550  1.00  0.00     0.014 A 
ATOM     32  C   UNL A   1      41.515  27.850  28.592  1.00  0.00     0.010 A 
ATOM     33  C   UNL A   1      39.632  26.652  29.509  1.00  0.00     0.010 A 
ATOM     34  C   UNL A   1      40.505  27.746  29.560  1.00  0.00    -0.014 A 
BRANCH  34  35
ATOM     35  C   UNL A   1      40.379  28.737  30.664  1.00  0.00     0.031 A 
ATOM     36  C   UNL A   1      41.263  28.625  31.882  1.00  0.00     0.074 A 
ATOM     37  C   UNL A   1      39.442  29.704  30.601  1.00  0.00     0.049 A 
ATOM     38  N   UNL A   1      41.261  29.342  32.977  1.00  0.00    -0.248 NA
ATOM     39  C   UNL A   1      42.259  27.541  31.882  1.00  0.00     0.031 C 
ATOM     40  C   UNL A   1      38.493  29.892  29.502  1.00  0.00     0.029 A 
ATOM     41  N   UNL A   1      39.127  30.706  31.484  1.00  0.00    -0.354 N 
ATOM     42  C   UNL A   1      42.233  28.782  33.800  1.00  0.00     0.074 A 
ATOM     43  C   UNL A   1      42.763  27.631  33.103  1.00  0.00     0.031 C 
ATOM     44  C   UNL A   1      37.724  30.962  29.763  1.00  0.00     0.029 A 
ATOM     45  C   UNL A   1      38.096  31.513  31.062  1.00  0.00     0.049 A 
ATOM     46  H   UNL A   1      39.596  30.835  32.341  1.00  0.00     0.167 HD
ATOM     47  C   UNL A   1      42.665  29.203  35.013  1.00  0.00     0.037 A 
ATOM     48  C   UNL A   1      37.517  32.575  31.653  1.00  0.00     0.037 A 
ATOM     49  C   UNL A   1      42.164  30.372  35.684  1.00  0.00     0.049 A 
ATOM     50  C   UNL A   1      38.025  33.038  32.992  1.00  0.00     0.074 A 
ATOM     51  C   UNL A   1      42.578  30.922  36.884  1.00  0.00     0.029 A 
ATOM     52  N   UNL A   1      41.139  31.178  35.209  1.00  0.00    -0.354 N 
ATOM     53  N   UNL A   1      38.984  32.529  33.729  1.00  0.00    -0.248 NA
ATOM     54  C   UNL A   1      37.381  34.222  33.576  1.00  0.00     0.031 C 
ATOM     55  C   UNL A   1      41.779  32.038  37.154  1.00  0.00     0.029 A 
ATOM     56  C   UNL A   1      40.896  32.210  36.099  1.00  0.00     0.049 A 
ATOM     57  H   UNL A   1      40.655  31.035  34.363  1.00  0.00     0.167 HD
ATOM     58  C   UNL A   1      39.074  33.345  34.852  1.00  0.00     0.074 A 
ATOM     59  C   UNL A   1      38.080  34.388  34.690  1.00  0.00     0.031 C 
ATOM     60  C   UNL A   1      39.905  33.243  35.918  1.00  0.00     0.037 A 
BRANCH  47  61
ATOM     61  C   UNL A   1      43.742  28.392  35.686  1.00  0.00     0.058 A 
ATOM     62  C   UNL A   1      45.105  28.615  35.427  1.00  0.00     0.135 A 
ATOM     63  C   UNL A   1      43.410  27.388  36.611  1.00  0.00     0.135 A 
ATOM     64  F   UNL A   1      45.481  29.552  34.542  1.00  0.00    -0.206 F 
ATOM     65  C   UNL A   1      46.096  27.845  36.026  1.00  0.00     0.059 A 
ATOM     66  C   UNL A   1      44.387  26.625  37.245  1.00  0.00     0.059 A 
ATOM     67  F   UNL A   1      42.124  27.134  36.899  1.00  0.00    -0.206 F 
ATOM     68  C   UNL A   1      45.726  26.848  36.931  1.00  0.00     0.060 A 
BRANCH  68  69
ATOM     69  S   UNL A   1      47.024  25.847  37.688  1.00  0.00     0.124 S 
ATOM     70  O   UNL A   1      46.551  25.754  39.065  1.00  0.00    -0.237 OA
ATOM     71  O   UNL A   1      46.961  24.612  36.911  1.00  0.00    -0.237 OA
ATOM     72  O   UNL A   1      48.229  26.646  37.490  1.00  0.00    -0.744 OA
ENDBRANCH  68  69
ENDBRANCH  47  61
BRANCH  48  73
ATOM     73  C   UNL A   1      36.415  33.295  30.963  1.00  0.00     0.058 A 
ATOM     74  C   UNL A   1      35.096  33.218  31.437  1.00  0.00     0.135 A 
ATOM     75  C   UNL A   1      36.658  34.099  29.838  1.00  0.00     0.135 A 
ATOM     76  F   UNL A   1      34.812  32.457  32.505  1.00  0.00    -0.206 F 
ATOM     77  C   UNL A   1      34.056  33.903  30.817  1.00  0.00     0.059 A 
ATOM     78  C   UNL A   1      35.638  34.812  29.214  1.00  0.00     0.059 A 
ATOM     79  F   UNL A   1      37.904  34.220  29.354  1.00  0.00    -0.206 F 
ATOM     80  C   UNL A   1      34.338  34.702  29.708  1.00  0.00     0.060 A 
BRANCH  80  81
ATOM     81  S   UNL A   1      32.993  35.641  28.952  1.00  0.00     0.124 S 
ATOM     82  O   UNL A   1      32.362  34.626  28.115  1.00  0.00    -0.237 OA
ATOM     83  O   UNL A   1      32.229  36.074  30.118  1.00  0.00    -0.237 OA
ATOM     84  O   UNL A   1      33.690  36.706  28.238  1.00  0.00    -0.744 OA
ENDBRANCH  80  81
ENDBRANCH  48  73
BRANCH  60  85
ATOM     85  C   UNL A   1      39.800  34.300  36.981  1.00  0.00     0.058 A 
ATOM     86  C   UNL A   1      40.338  35.584  36.799  1.00  0.00     0.135 A 
ATOM     87  C   UNL A   1      39.108  34.041  38.175  1.00  0.00     0.135 A 
ATOM     88  F   UNL A   1      41.014  35.881  35.678  1.00  0.00    -0.206 F 
ATOM     89  C   UNL A   1      40.210  36.569  37.773  1.00  0.00     0.059 A 
ATOM     90  C   UNL A   1      38.945  35.018  39.151  1.00  0.00     0.059 A 
ATOM     91  F   UNL A   1      38.566  32.832  38.393  1.00  0.00    -0.206 F 
ATOM     92  C   UNL A   1      39.510  36.276  38.947  1.00  0.00     0.060 A 
BRANCH  92  93
ATOM     93  S   UNL A   1      39.322  37.572  40.188  1.00  0.00     0.124 S 
ATOM     94  O   UNL A   1      40.677  38.110  40.259  1.00  0.00    -0.237 OA
ATOM     95  O   UNL A   1      38.323  38.447  39.580  1.00  0.00    -0.237 OA
ATOM     96  O   UNL A   1      38.872  36.846  41.371  1.00  0.00    -0.744 OA
ENDBRANCH  92  93
ENDBRANCH  60  85
ENDBRANCH  34  35
ENDBRANCH  26  29
ENDBRANCH  24  25
ENDBRANCH   1  24
TORSDOF 16
ENDMDL
MODEL 2
REMARK VINA RESULT:     -11.7      5.173     12.031
REMARK SMILES C[C@H](c1ccoc1)[NH+]1CC[NH+]([C@@H](C)C(=O)NCCCNC(=O)c2ccc(-c3c4nc(c(-c5c(F)cc(S(=O)(=O)[O-])cc5F)c5ccc([nH]5)c(-c5c(F)cc(S(=O)(=O)[O-])cc5F)c5nc(c(-c6c(F)cc(S(=O)(=O)[O-])cc6F)c6ccc3[nH]6)C=C5)C=C4)cc2)CC1
REMARK SMILES IDX 18 1 17 2 16 3 14 4 15 5 12 7 13 8 11 9 8 10 9 11 90 12
REMARK SMILES IDX 10 14 89 15 2 17 1 18 3 19 4 20 7 21 5 22 6 23 19 24 20 25
REMARK SMILES IDX 21 26 22 28 23 29 24 30 88 31 25 32 87 33 26 34 27 35 28 36
REMARK SMILES IDX 81 37 29 38 86 39 80 40 82 41 30 42 85 43 79 44 78 45 31 47
REMARK SMILES IDX 65 48 44 49 64 50 45 51 48 52 63 53 83 54 46 55 47 56 62 58
REMARK SMILES IDX 84 59 49 60 32 61 33 62 42 63 34 64 35 65 41 66 43 67 36 68
REMARK SMILES IDX 37 69 38 70 39 71 40 72 66 73 67 74 76 75 68 76 69 77 75 78
REMARK SMILES IDX 77 79 70 80 71 81 72 82 73 83 74 84 50 85 51 86 60 87 52 88
REMARK SMILES IDX 53 89 59 90 61 91 54 92 55 93 56 94 57 95 58 96
REMARK H PARENT 16 6 8 13 11 16 20 27 82 46 48 57
REMARK Flexibility Score: inf
ROOT
ATOM      1  C   UNL A   1      33.648  33.809  28.399  1.00  0.00     0.042 C 
ENDROOT
BRANCH   1   2
ATOM      2  C   UNL A   1      34.410  35.137  28.357  1.00  0.00     0.118 C 
BRANCH   2   3
ATOM      3  N   UNL A   1      33.781  36.176  29.159  1.00  0.00    -0.351 N 
ATOM      4  C   UNL A   1      33.437  36.268  30.476  1.00  0.00     0.278 C 
ATOM      5  O   UNL A   1      32.888  37.332  30.803  1.00  0.00    -0.268 OA
ATOM      6  H   UNL A   1      33.557  36.983  28.642  1.00  0.00     0.163 HD
BRANCH   4   7
ATOM      7  C   UNL A   1      33.703  35.172  31.555  1.00  0.00     0.271 C 
ATOM      8  C   UNL A   1      32.521  34.923  32.489  1.00  0.00     0.086 C 
BRANCH   7   9
ATOM      9  N   UNL A   1      35.084  35.204  32.094  1.00  0.00    -0.316 N 
ATOM     10  N   UNL A   1      36.326  32.683  33.244  1.00  0.00    -0.320 N 
ATOM     11  C   UNL A   1      35.290  33.474  33.920  1.00  0.00     0.325 C 
ATOM     12  C   UNL A   1      36.351  32.979  31.801  1.00  0.00     0.325 C 
ATOM     13  H   UNL A   1      36.086  31.692  33.270  1.00  0.00     0.348 HD
ATOM     14  C   UNL A   1      35.267  34.958  33.514  1.00  0.00     0.325 C 
ATOM     15  C   UNL A   1      36.094  34.445  31.345  1.00  0.00     0.325 C 
ATOM     16  H   UNL A   1      35.250  36.200  31.946  1.00  0.00     0.349 HD
BRANCH  10  17
ATOM     17  C   UNL A   1      37.602  32.665  33.981  1.00  0.00     0.215 C 
ATOM     18  C   UNL A   1      38.513  33.888  33.872  1.00  0.00     0.081 C 
BRANCH  17  19
ATOM     19  C   UNL A   1      38.347  31.389  33.673  1.00  0.00     0.047 A 
ATOM     20  C   UNL A   1      39.752  31.167  33.548  1.00  0.00     0.052 A 
ATOM     21  C   UNL A   1      37.780  30.135  33.525  1.00  0.00     0.204 A 
ATOM     22  C   UNL A   1      39.924  29.822  33.330  1.00  0.00     0.195 A 
ATOM     23  O   UNL A   1      38.727  29.188  33.313  1.00  0.00    -0.472 OA
ENDBRANCH  17  19
ENDBRANCH  10  17
ENDBRANCH   7   9
ENDBRANCH   4   7
ENDBRANCH   2   3
ENDBRANCH   1   2
BRANCH   1  24
ATOM     24  C   UNL A   1      34.503  32.600  28.733  1.00  0.00     0.118 C 
BRANCH  24  25
ATOM     25  N   UNL A   1      33.862  31.358  28.341  1.00  0.00    -0.352 N 
ATOM     26  C   UNL A   1      34.413  30.140  28.015  1.00  0.00     0.251 C 
ATOM     27  H   UNL A   1      32.879  31.393  28.303  1.00  0.00     0.163 HD
ATOM     28  O   UNL A   1      33.697  29.297  27.480  1.00  0.00    -0.269 OA
BRANCH  26  29
ATOM     29  C   UNL A   1      35.842  29.834  28.283  1.00  0.00     0.039 A 
ATOM     30  C   UNL A   1      36.771  30.000  27.249  1.00  0.00     0.014 A 
ATOM     31  C   UNL A   1      36.274  29.327  29.512  1.00  0.00     0.014 A 
ATOM     32  C   UNL A   1      38.121  29.698  27.460  1.00  0.00     0.010 A 
ATOM     33  C   UNL A   1      37.632  29.126  29.753  1.00  0.00     0.010 A 
ATOM     34  C   UNL A   1      38.569  29.280  28.723  1.00  0.00    -0.014 A 
BRANCH  34  35
ATOM     35  C   UNL A   1      39.998  28.947  28.971  1.00  0.00     0.031 A 
ATOM     36  C   UNL A   1      40.923  29.983  29.562  1.00  0.00     0.074 A 
ATOM     37  C   UNL A   1      40.481  27.738  28.621  1.00  0.00     0.049 A 
ATOM     38  N   UNL A   1      42.210  29.913  29.788  1.00  0.00    -0.248 NA
ATOM     39  C   UNL A   1      40.326  31.282  29.915  1.00  0.00     0.031 C 
ATOM     40  C   UNL A   1      39.704  26.665  27.996  1.00  0.00     0.029 A 
ATOM     41  N   UNL A   1      41.743  27.210  28.732  1.00  0.00    -0.354 N 
ATOM     42  C   UNL A   1      42.577  31.160  30.285  1.00  0.00     0.074 A 
ATOM     43  C   UNL A   1      41.389  31.986  30.270  1.00  0.00     0.031 C 
ATOM     44  C   UNL A   1      40.499  25.599  27.808  1.00  0.00     0.029 A 
ATOM     45  C   UNL A   1      41.848  25.922  28.261  1.00  0.00     0.049 A 
ATOM     46  H   UNL A   1      42.503  27.707  29.113  1.00  0.00     0.167 HD
ATOM     47  C   UNL A   1      43.786  31.574  30.737  1.00  0.00     0.037 A 
ATOM     48  C   UNL A   1      42.910  25.095  28.200  1.00  0.00     0.037 A 
ATOM     49  C   UNL A   1      44.954  30.737  30.787  1.00  0.00     0.049 A 
ATOM     50  C   UNL A   1      44.239  25.567  28.726  1.00  0.00     0.074 A 
ATOM     51  C   UNL A   1      46.209  31.038  31.286  1.00  0.00     0.029 A 
ATOM     52  N   UNL A   1      45.011  29.429  30.326  1.00  0.00    -0.354 N 
ATOM     53  N   UNL A   1      44.553  26.731  29.243  1.00  0.00    -0.248 NA
ATOM     54  C   UNL A   1      45.354  24.614  28.668  1.00  0.00     0.031 C 
ATOM     55  C   UNL A   1      47.035  29.925  31.092  1.00  0.00     0.029 A 
ATOM     56  C   UNL A   1      46.282  28.915  30.514  1.00  0.00     0.049 A 
ATOM     57  H   UNL A   1      44.257  28.939  29.924  1.00  0.00     0.167 HD
ATOM     58  C   UNL A   1      45.895  26.642  29.595  1.00  0.00     0.074 A 
ATOM     59  C   UNL A   1      46.330  25.305  29.241  1.00  0.00     0.031 C 
ATOM     60  C   UNL A   1      46.695  27.579  30.160  1.00  0.00     0.037 A 
BRANCH  47  61
ATOM     61  C   UNL A   1      43.897  32.997  31.220  1.00  0.00     0.058 A 
ATOM     62  C   UNL A   1      43.740  33.330  32.576  1.00  0.00     0.135 A 
ATOM     63  C   UNL A   1      44.176  34.038  30.320  1.00  0.00     0.135 A 
ATOM     64  F   UNL A   1      43.458  32.377  33.478  1.00  0.00    -0.206 F 
ATOM     65  C   UNL A   1      43.812  34.648  33.015  1.00  0.00     0.059 A 
ATOM     66  C   UNL A   1      44.283  35.360  30.742  1.00  0.00     0.059 A 
ATOM     67  F   UNL A   1      44.338  33.777  29.014  1.00  0.00    -0.206 F 
ATOM     68  C   UNL A   1      44.079  35.658  32.089  1.00  0.00     0.060 A 
BRANCH  68  69
ATOM     69  S   UNL A   1      44.154  37.364  32.673  1.00  0.00     0.124 S 
ATOM     70  O   UNL A   1      45.491  37.413  33.253  1.00  0.00    -0.237 OA
ATOM     71  O   UNL A   1      43.970  38.126  31.441  1.00  0.00    -0.237 OA
ATOM     72  O   UNL A   1      43.052  37.446  33.626  1.00  0.00    -0.744 OA
ENDBRANCH  68  69
ENDBRANCH  47  61
BRANCH  48  73
ATOM     73  C   UNL A   1      42.747  23.723  27.653  1.00  0.00     0.058 A 
ATOM     74  C   UNL A   1      42.481  22.637  28.501  1.00  0.00     0.135 A 
ATOM     75  C   UNL A   1      42.823  23.472  26.274  1.00  0.00     0.135 A 
ATOM     76  F   UNL A   1      42.406  22.825  29.827  1.00  0.00    -0.206 F 
ATOM     77  C   UNL A   1      42.304  21.349  28.004  1.00  0.00     0.059 A 
ATOM     78  C   UNL A   1      42.627  22.197  25.751  1.00  0.00     0.059 A 
ATOM     79  F   UNL A   1      43.059  24.479  25.419  1.00  0.00    -0.206 F 
ATOM     80  C   UNL A   1      42.373  21.140  26.625  1.00  0.00     0.060 A 
BRANCH  80  81
ATOM     81  S   UNL A   1      42.075  19.478  25.986  1.00  0.00     0.124 S 
ATOM     82  O   UNL A   1      40.636  19.509  25.748  1.00  0.00    -0.237 OA
ATOM     83  O   UNL A   1      42.920  19.452  24.796  1.00  0.00    -0.237 OA
ATOM     84  O   UNL A   1      42.518  18.616  27.078  1.00  0.00    -0.744 OA
ENDBRANCH  80  81
ENDBRANCH  48  73
BRANCH  60  85
ATOM     85  C   UNL A   1      48.115  27.186  30.463  1.00  0.00     0.058 A 
ATOM     86  C   UNL A   1      49.168  27.505  29.592  1.00  0.00     0.135 A 
ATOM     87  C   UNL A   1      48.430  26.530  31.663  1.00  0.00     0.135 A 
ATOM     88  F   UNL A   1      48.920  28.128  28.429  1.00  0.00    -0.206 F 
ATOM     89  C   UNL A   1      50.484  27.167  29.891  1.00  0.00     0.059 A 
ATOM     90  C   UNL A   1      49.740  26.205  31.995  1.00  0.00     0.059 A 
ATOM     91  F   UNL A   1      47.459  26.212  32.534  1.00  0.00    -0.206 F 
ATOM     92  C   UNL A   1      50.761  26.518  31.097  1.00  0.00     0.060 A 
BRANCH  92  93
ATOM     93  S   UNL A   1      52.475  26.115  31.490  1.00  0.00     0.124 S 
ATOM     94  O   UNL A   1      52.336  24.794  32.093  1.00  0.00    -0.237 OA
ATOM     95  O   UNL A   1      53.115  26.149  30.178  1.00  0.00    -0.237 OA
ATOM     96  O   UNL A   1      52.874  27.183  32.402  1.00  0.00    -0.744 OA
ENDBRANCH  92  93
ENDBRANCH  60  85
ENDBRANCH  34  35
ENDBRANCH  26  29
ENDBRANCH  24  25
ENDBRANCH   1  24
TORSDOF 16
ENDMDL
MODEL 3
REMARK VINA RESULT:     -11.5      6.635     12.264
REMARK SMILES C[C@H](c1ccoc1)[NH+]1CC[NH+]([C@@H](C)C(=O)NCCCNC(=O)c2ccc(-c3c4nc(c(-c5c(F)cc(S(=O)(=O)[O-])cc5F)c5ccc([nH]5)c(-c5c(F)cc(S(=O)(=O)[O-])cc5F)c5nc(c(-c6c(F)cc(S(=O)(=O)[O-])cc6F)c6ccc3[nH]6)C=C5)C=C4)cc2)CC1
REMARK SMILES IDX 18 1 17 2 16 3 14 4 15 5 12 7 13 8 11 9 8 10 9 11 90 12
REMARK SMILES IDX 10 14 89 15 2 17 1 18 3 19 4 20 7 21 5 22 6 23 19 24 20 25
REMARK SMILES IDX 21 26 22 28 23 29 24 30 88 31 25 32 87 33 26 34 27 35 28 36
REMARK SMILES IDX 81 37 29 38 86 39 80 40 82 41 30 42 85 43 79 44 78 45 31 47
REMARK SMILES IDX 65 48 44 49 64 50 45 51 48 52 63 53 83 54 46 55 47 56 62 58
REMARK SMILES IDX 84 59 49 60 32 61 33 62 42 63 34 64 35 65 41 66 43 67 36 68
REMARK SMILES IDX 37 69 38 70 39 71 40 72 66 73 67 74 76 75 68 76 69 77 75 78
REMARK SMILES IDX 77 79 70 80 71 81 72 82 73 83 74 84 50 85 51 86 60 87 52 88
REMARK SMILES IDX 53 89 59 90 61 91 54 92 55 93 56 94 57 95 58 96
REMARK H PARENT 16 6 8 13 11 16 20 27 82 46 48 57
REMARK Flexibility Score: inf
ROOT
ATOM      1  C   UNL A   1      34.290  31.185  27.654  1.00  0.00     0.042 C 
ENDROOT
BRANCH   1   2
ATOM      2  C   UNL A   1      34.088  29.825  26.979  1.00  0.00     0.118 C 
BRANCH   2   3
ATOM      3  N   UNL A   1      32.955  29.088  27.517  1.00  0.00    -0.351 N 
ATOM      4  C   UNL A   1      32.060  28.211  26.975  1.00  0.00     0.278 C 
ATOM      5  O   UNL A   1      31.198  27.787  27.760  1.00  0.00    -0.268 OA
ATOM      6  H   UNL A   1      32.801  29.257  28.475  1.00  0.00     0.163 HD
BRANCH   4   7
ATOM      7  C   UNL A   1      32.072  27.711  25.496  1.00  0.00     0.271 C 
ATOM      8  C   UNL A   1      30.691  27.355  24.952  1.00  0.00     0.086 C 
BRANCH   7   9
ATOM      9  N   UNL A   1      33.242  26.859  25.176  1.00  0.00    -0.316 N 
ATOM     10  N   UNL A   1      32.846  23.918  24.525  1.00  0.00    -0.320 N 
ATOM     11  C   UNL A   1      32.739  24.486  25.875  1.00  0.00     0.325 C 
ATOM     12  C   UNL A   1      32.708  24.971  23.504  1.00  0.00     0.325 C 
ATOM     13  H   UNL A   1      32.051  23.309  24.335  1.00  0.00     0.348 HD
ATOM     14  C   UNL A   1      33.560  25.770  26.085  1.00  0.00     0.325 C 
ATOM     15  C   UNL A   1      33.333  26.367  23.795  1.00  0.00     0.325 C 
ATOM     16  H   UNL A   1      33.956  27.573  25.314  1.00  0.00     0.349 HD
BRANCH  10  17
ATOM     17  C   UNL A   1      33.954  22.954  24.398  1.00  0.00     0.215 C 
ATOM     18  C   UNL A   1      34.871  23.071  23.180  1.00  0.00     0.081 C 
BRANCH  17  19
ATOM     19  C   UNL A   1      33.424  21.550  24.561  1.00  0.00     0.047 A 
ATOM     20  C   UNL A   1      32.629  20.772  23.667  1.00  0.00     0.052 A 
ATOM     21  C   UNL A   1      33.693  20.702  25.621  1.00  0.00     0.204 A 
ATOM     22  C   UNL A   1      32.473  19.537  24.247  1.00  0.00     0.195 A 
ATOM     23  O   UNL A   1      33.117  19.488  25.438  1.00  0.00    -0.472 OA
ENDBRANCH  17  19
ENDBRANCH  10  17
ENDBRANCH   7   9
ENDBRANCH   4   7
ENDBRANCH   2   3
ENDBRANCH   1   2
BRANCH   1  24
ATOM     24  C   UNL A   1      35.637  31.361  28.331  1.00  0.00     0.118 C 
BRANCH  24  25
ATOM     25  N   UNL A   1      35.553  31.155  29.765  1.00  0.00    -0.352 N 
ATOM     26  C   UNL A   1      36.415  30.507  30.620  1.00  0.00     0.251 C 
ATOM     27  H   UNL A   1      34.754  31.538  30.193  1.00  0.00     0.163 HD
ATOM     28  O   UNL A   1      36.027  30.242  31.755  1.00  0.00    -0.269 OA
BRANCH  26  29
ATOM     29  C   UNL A   1      37.785  30.115  30.197  1.00  0.00     0.039 A 
ATOM     30  C   UNL A   1      38.065  30.020  28.828  1.00  0.00     0.014 A 
ATOM     31  C   UNL A   1      38.778  29.777  31.120  1.00  0.00     0.014 A 
ATOM     32  C   UNL A   1      39.337  29.630  28.395  1.00  0.00     0.010 A 
ATOM     33  C   UNL A   1      40.072  29.490  30.689  1.00  0.00     0.010 A 
ATOM     34  C   UNL A   1      40.361  29.384  29.323  1.00  0.00    -0.014 A 
BRANCH  34  35
ATOM     35  C   UNL A   1      41.721  28.962  28.888  1.00  0.00     0.031 A 
ATOM     36  C   UNL A   1      42.845  29.968  28.843  1.00  0.00     0.074 A 
ATOM     37  C   UNL A   1      41.938  27.694  28.484  1.00  0.00     0.049 A 
ATOM     38  N   UNL A   1      44.077  29.817  28.428  1.00  0.00    -0.248 NA
ATOM     39  C   UNL A   1      42.532  31.334  29.294  1.00  0.00     0.031 C 
ATOM     40  C   UNL A   1      40.926  26.637  28.433  1.00  0.00     0.029 A 
ATOM     41  N   UNL A   1      43.079  27.080  28.032  1.00  0.00    -0.354 N 
ATOM     42  C   UNL A   1      44.674  31.068  28.546  1.00  0.00     0.074 A 
ATOM     43  C   UNL A   1      43.653  31.979  29.014  1.00  0.00     0.031 C 
ATOM     44  C   UNL A   1      41.498  25.500  28.005  1.00  0.00     0.029 A 
ATOM     45  C   UNL A   1      42.905  25.753  27.714  1.00  0.00     0.049 A 
ATOM     46  H   UNL A   1      43.942  27.546  27.944  1.00  0.00     0.167 HD
ATOM     47  C   UNL A   1      45.961  31.422  28.312  1.00  0.00     0.037 A 
ATOM     48  C   UNL A   1      43.780  24.844  27.242  1.00  0.00     0.037 A 
ATOM     49  C   UNL A   1      46.982  30.503  27.887  1.00  0.00     0.049 A 
ATOM     50  C   UNL A   1      45.209  25.252  27.008  1.00  0.00     0.074 A 
ATOM     51  C   UNL A   1      48.329  30.745  27.684  1.00  0.00     0.029 A 
ATOM     52  N   UNL A   1      46.771  29.161  27.603  1.00  0.00    -0.354 N 
ATOM     53  N   UNL A   1      45.768  26.427  27.178  1.00  0.00    -0.248 NA
ATOM     54  C   UNL A   1      46.128  24.213  26.526  1.00  0.00     0.031 C 
ATOM     55  C   UNL A   1      48.925  29.559  27.240  1.00  0.00     0.029 A 
ATOM     56  C   UNL A   1      47.958  28.566  27.211  1.00  0.00     0.049 A 
ATOM     57  H   UNL A   1      45.903  28.700  27.670  1.00  0.00     0.167 HD
ATOM     58  C   UNL A   1      47.109  26.262  26.849  1.00  0.00     0.074 A 
ATOM     59  C   UNL A   1      47.278  24.870  26.480  1.00  0.00     0.031 C 
ATOM     60  C   UNL A   1      48.109  27.177  26.852  1.00  0.00     0.037 A 
BRANCH  47  61
ATOM     61  C   UNL A   1      46.333  32.866  28.522  1.00  0.00     0.058 A 
ATOM     62  C   UNL A   1      46.773  33.342  29.769  1.00  0.00     0.135 A 
ATOM     63  C   UNL A   1      46.262  33.785  27.462  1.00  0.00     0.135 A 
ATOM     64  F   UNL A   1      46.847  32.511  30.822  1.00  0.00    -0.206 F 
ATOM     65  C   UNL A   1      47.086  34.682  29.969  1.00  0.00     0.059 A 
ATOM     66  C   UNL A   1      46.600  35.125  27.632  1.00  0.00     0.059 A 
ATOM     67  F   UNL A   1      45.852  33.386  26.248  1.00  0.00    -0.206 F 
ATOM     68  C   UNL A   1      46.992  35.568  28.894  1.00  0.00     0.060 A 
BRANCH  68  69
ATOM     69  S   UNL A   1      47.387  37.307  29.173  1.00  0.00     0.124 S 
ATOM     70  O   UNL A   1      46.226  37.966  28.586  1.00  0.00    -0.237 OA
ATOM     71  O   UNL A   1      47.488  37.377  30.628  1.00  0.00    -0.237 OA
ATOM     72  O   UNL A   1      48.644  37.489  28.452  1.00  0.00    -0.744 OA
ENDBRANCH  68  69
ENDBRANCH  47  61
BRANCH  48  73
ATOM     73  C   UNL A   1      43.333  23.448  26.996  1.00  0.00     0.058 A 
ATOM     74  C   UNL A   1      43.146  22.971  25.689  1.00  0.00     0.135 A 
ATOM     75  C   UNL A   1      43.114  22.552  28.055  1.00  0.00     0.135 A 
ATOM     76  F   UNL A   1      43.335  23.791  24.644  1.00  0.00    -0.206 F 
ATOM     77  C   UNL A   1      42.750  21.661  25.439  1.00  0.00     0.059 A 
ATOM     78  C   UNL A   1      42.740  21.231  27.830  1.00  0.00     0.059 A 
ATOM     79  F   UNL A   1      43.296  22.953  29.323  1.00  0.00    -0.206 F 
ATOM     80  C   UNL A   1      42.555  20.796  26.518  1.00  0.00     0.060 A 
BRANCH  80  81
ATOM     81  S   UNL A   1      42.107  19.079  26.180  1.00  0.00     0.124 S 
ATOM     82  O   UNL A   1      40.694  19.207  25.840  1.00  0.00    -0.237 OA
ATOM     83  O   UNL A   1      43.002  18.740  25.078  1.00  0.00    -0.237 OA
ATOM     84  O   UNL A   1      42.395  18.405  27.442  1.00  0.00    -0.744 OA
ENDBRANCH  80  81
ENDBRANCH  48  73
BRANCH  60  85
ATOM     85  C   UNL A   1      49.484  26.701  26.476  1.00  0.00     0.058 A 
ATOM     86  C   UNL A   1      50.365  26.167  27.429  1.00  0.00     0.135 A 
ATOM     87  C   UNL A   1      49.904  26.732  25.137  1.00  0.00     0.135 A 
ATOM     88  F   UNL A   1      50.013  26.120  28.723  1.00  0.00    -0.206 F 
ATOM     89  C   UNL A   1      51.625  25.699  27.070  1.00  0.00     0.059 A 
ATOM     90  C   UNL A   1      51.149  26.245  24.751  1.00  0.00     0.059 A 
ATOM     91  F   UNL A   1      49.094  27.223  24.185  1.00  0.00    -0.206 F 
ATOM     92  C   UNL A   1      52.007  25.741  25.727  1.00  0.00     0.060 A 
BRANCH  92  93
ATOM     93  S   UNL A   1      53.631  25.099  25.269  1.00  0.00     0.124 S 
ATOM     94  O   UNL A   1      53.844  25.735  23.973  1.00  0.00    -0.237 OA
ATOM     95  O   UNL A   1      54.477  25.579  26.358  1.00  0.00    -0.237 OA
ATOM     96  O   UNL A   1      53.426  23.654  25.233  1.00  0.00    -0.744 OA
ENDBRANCH  92  93
ENDBRANCH  60  85
ENDBRANCH  34  35
ENDBRANCH  26  29
ENDBRANCH  24  25
ENDBRANCH   1  24
TORSDOF 16
ENDMDL
