MODEL 1
REMARK VINA RESULT:     -11.0      0.000      0.000
REMARK SMILES O=C(NCCCNC(=O)[C@]1([NH2+]C2CC2)CC[C@@H](SCCCO)C1)c1ccc(-c2c3nc(c(-c4c(F)cc(S(=O)(=O)[O-])cc4F)c4ccc([nH]4)c(-c4c(F)cc(S(=O)(=O)[O-])cc4F)c4nc(c(-c5c(F)cc(S(=O)(=O)[O-])cc5F)c5ccc2[nH]5)C=C4)C=C3)cc1
REMARK SMILES IDX 6 1 5 2 4 3 3 4 1 5 2 6 24 8 25 9 89 10 26 11 88 12 27 13
REMARK SMILES IDX 28 14 29 15 82 16 30 17 87 18 81 19 83 20 31 21 86 22 80 23
REMARK SMILES IDX 79 24 32 26 66 27 45 28 65 29 46 30 49 31 64 32 84 33 47 34
REMARK SMILES IDX 48 35 63 37 85 38 50 39 33 40 34 41 43 42 35 43 36 44 42 45
REMARK SMILES IDX 44 46 37 47 38 48 39 49 40 50 41 51 67 52 68 53 77 54 69 55
REMARK SMILES IDX 70 56 76 57 78 58 71 59 72 60 73 61 74 62 75 63 51 64 52 65
REMARK SMILES IDX 61 66 53 67 54 68 60 69 62 70 55 71 56 72 57 73 58 74 59 75
REMARK SMILES IDX 7 76 8 77 9 79 10 80 15 81 23 82 16 83 17 84 11 85 12 88
REMARK SMILES IDX 13 89 14 90 18 91 19 92 20 93 21 94 22 95
REMARK H PARENT 3 7 83 25 49 36 7 78 11 86 11 87 22 96
REMARK Flexibility Score: inf
ROOT
ATOM      1  C   UNL A   1      33.588  30.323  26.883  1.00  0.00     0.118 C 
ENDROOT
BRANCH   1   2
ATOM      2  C   UNL A   1      34.247  31.319  27.822  1.00  0.00     0.042 C 
BRANCH   2   3
ATOM      3  C   UNL A   1      35.572  30.784  28.326  1.00  0.00     0.118 C 
BRANCH   3   4
ATOM      4  N   UNL A   1      35.564  30.655  29.782  1.00  0.00    -0.352 N 
ATOM      5  O   UNL A   1      36.197  29.802  31.766  1.00  0.00    -0.269 OA
ATOM      6  C   UNL A   1      36.492  30.072  30.611  1.00  0.00     0.251 C 
ATOM      7  H   UNL A   1      34.780  31.042  30.234  1.00  0.00     0.163 HD
BRANCH   6   8
ATOM      8  C   UNL A   1      37.838  29.784  30.081  1.00  0.00     0.039 A 
ATOM      9  C   UNL A   1      38.845  29.373  30.956  1.00  0.00     0.014 A 
ATOM     10  C   UNL A   1      38.097  29.922  28.717  1.00  0.00     0.014 A 
ATOM     11  C   UNL A   1      40.146  29.277  30.507  1.00  0.00     0.010 A 
ATOM     12  C   UNL A   1      39.386  29.679  28.240  1.00  0.00     0.010 A 
ATOM     13  C   UNL A   1      40.422  29.373  29.136  1.00  0.00    -0.014 A 
BRANCH  13  14
ATOM     14  C   UNL A   1      41.785  29.028  28.674  1.00  0.00     0.031 A 
ATOM     15  C   UNL A   1      42.881  30.050  28.645  1.00  0.00     0.074 A 
ATOM     16  C   UNL A   1      42.013  27.751  28.309  1.00  0.00     0.049 A 
ATOM     17  N   UNL A   1      44.120  29.906  28.255  1.00  0.00    -0.248 NA
ATOM     18  C   UNL A   1      42.545  31.410  29.095  1.00  0.00     0.031 C 
ATOM     19  C   UNL A   1      41.000  26.688  28.291  1.00  0.00     0.029 A 
ATOM     20  N   UNL A   1      43.158  27.118  27.907  1.00  0.00    -0.354 N 
ATOM     21  C   UNL A   1      44.705  31.160  28.380  1.00  0.00     0.074 A 
ATOM     22  C   UNL A   1      43.681  32.057  28.868  1.00  0.00     0.031 C 
ATOM     23  C   UNL A   1      41.579  25.529  27.957  1.00  0.00     0.029 A 
ATOM     24  C   UNL A   1      42.977  25.781  27.642  1.00  0.00     0.049 A 
ATOM     25  H   UNL A   1      44.025  27.574  27.818  1.00  0.00     0.167 HD
ATOM     26  C   UNL A   1      45.983  31.518  28.107  1.00  0.00     0.037 A 
ATOM     27  C   UNL A   1      43.831  24.862  27.160  1.00  0.00     0.037 A 
ATOM     28  C   UNL A   1      46.987  30.596  27.635  1.00  0.00     0.049 A 
ATOM     29  C   UNL A   1      45.235  25.287  26.859  1.00  0.00     0.074 A 
ATOM     30  C   UNL A   1      48.320  30.842  27.362  1.00  0.00     0.029 A 
ATOM     31  N   UNL A   1      46.763  29.253  27.360  1.00  0.00    -0.354 N 
ATOM     32  N   UNL A   1      45.779  26.472  27.004  1.00  0.00    -0.248 NA
ATOM     33  C   UNL A   1      46.137  24.263  26.327  1.00  0.00     0.031 C 
ATOM     34  C   UNL A   1      48.891  29.660  26.875  1.00  0.00     0.029 A 
ATOM     35  C   UNL A   1      47.927  28.663  26.896  1.00  0.00     0.049 A 
ATOM     36  H   UNL A   1      45.904  28.788  27.478  1.00  0.00     0.167 HD
ATOM     37  C   UNL A   1      47.094  26.337  26.584  1.00  0.00     0.074 A 
ATOM     38  C   UNL A   1      47.267  24.947  26.202  1.00  0.00     0.031 C 
ATOM     39  C   UNL A   1      48.070  27.277  26.516  1.00  0.00     0.037 A 
BRANCH  26  40
ATOM     40  C   UNL A   1      46.356  32.967  28.275  1.00  0.00     0.058 A 
ATOM     41  C   UNL A   1      46.874  33.470  29.479  1.00  0.00     0.135 A 
ATOM     42  C   UNL A   1      46.209  33.864  27.204  1.00  0.00     0.135 A 
ATOM     43  F   UNL A   1      47.021  32.662  30.541  1.00  0.00    -0.206 F 
ATOM     44  C   UNL A   1      47.201  34.815  29.626  1.00  0.00     0.059 A 
ATOM     45  C   UNL A   1      46.556  35.208  27.319  1.00  0.00     0.059 A 
ATOM     46  F   UNL A   1      45.719  33.439  26.029  1.00  0.00    -0.206 F 
ATOM     47  C   UNL A   1      47.035  35.677  28.541  1.00  0.00     0.060 A 
BRANCH  47  48
ATOM     48  S   UNL A   1      47.450  37.422  28.750  1.00  0.00     0.124 S 
ATOM     49  O   UNL A   1      47.085  37.643  30.146  1.00  0.00    -0.237 OA
ATOM     50  O   UNL A   1      48.881  37.440  28.460  1.00  0.00    -0.237 OA
ATOM     51  O   UNL A   1      46.607  38.094  27.768  1.00  0.00    -0.744 OA
ENDBRANCH  47  48
ENDBRANCH  26  40
BRANCH  27  52
ATOM     52  C   UNL A   1      43.349  23.480  26.908  1.00  0.00     0.058 A 
ATOM     53  C   UNL A   1      43.191  22.991  25.605  1.00  0.00     0.135 A 
ATOM     54  C   UNL A   1      43.110  22.596  27.973  1.00  0.00     0.135 A 
ATOM     55  F   UNL A   1      43.410  23.795  24.554  1.00  0.00    -0.206 F 
ATOM     56  C   UNL A   1      42.811  21.674  25.365  1.00  0.00     0.059 A 
ATOM     57  C   UNL A   1      42.759  21.268  27.759  1.00  0.00     0.059 A 
ATOM     58  F   UNL A   1      43.274  23.010  29.241  1.00  0.00    -0.206 F 
ATOM     59  C   UNL A   1      42.604  20.819  26.450  1.00  0.00     0.060 A 
BRANCH  59  60
ATOM     60  S   UNL A   1      42.180  19.094  26.128  1.00  0.00     0.124 S 
ATOM     61  O   UNL A   1      43.020  18.797  24.973  1.00  0.00    -0.237 OA
ATOM     62  O   UNL A   1      42.561  18.444  27.379  1.00  0.00    -0.237 OA
ATOM     63  O   UNL A   1      40.744  19.144  25.870  1.00  0.00    -0.744 OA
ENDBRANCH  59  60
ENDBRANCH  27  52
BRANCH  39  64
ATOM     64  C   UNL A   1      49.414  26.822  26.025  1.00  0.00     0.058 A 
ATOM     65  C   UNL A   1      49.812  27.011  24.693  1.00  0.00     0.135 A 
ATOM     66  C   UNL A   1      50.325  26.227  26.910  1.00  0.00     0.135 A 
ATOM     67  F   UNL A   1      48.970  27.565  23.806  1.00  0.00    -0.206 F 
ATOM     68  C   UNL A   1      51.065  26.605  24.249  1.00  0.00     0.059 A 
ATOM     69  C   UNL A   1      51.594  25.837  26.493  1.00  0.00     0.059 A 
ATOM     70  F   UNL A   1      49.992  26.029  28.196  1.00  0.00    -0.206 F 
ATOM     71  C   UNL A   1      51.950  26.022  25.158  1.00  0.00     0.060 A 
BRANCH  71  72
ATOM     72  S   UNL A   1      53.588  25.533  24.577  1.00  0.00     0.124 S 
ATOM     73  O   UNL A   1      53.582  24.101  24.856  1.00  0.00    -0.237 OA
ATOM     74  O   UNL A   1      53.543  25.906  23.167  1.00  0.00    -0.237 OA
ATOM     75  O   UNL A   1      54.491  26.329  25.402  1.00  0.00    -0.744 OA
ENDBRANCH  71  72
ENDBRANCH  39  64
ENDBRANCH  13  14
ENDBRANCH   6   8
ENDBRANCH   3   4
ENDBRANCH   2   3
ENDBRANCH   1   2
BRANCH   1  76
ATOM     76  N   UNL A   1      32.829  29.345  27.619  1.00  0.00    -0.351 N 
ATOM     77  C   UNL A   1      32.115  28.257  27.232  1.00  0.00     0.281 C 
ATOM     78  H   UNL A   1      32.828  29.494  28.592  1.00  0.00     0.163 HD
ATOM     79  O   UNL A   1      31.363  27.828  28.116  1.00  0.00    -0.268 OA
BRANCH  77  80
ATOM     80  C   UNL A   1      32.194  27.619  25.789  1.00  0.00     0.176 C 
ATOM     81  C   UNL A   1      33.359  28.137  24.918  1.00  0.00     0.080 C 
ATOM     82  C   UNL A   1      30.907  27.913  24.974  1.00  0.00     0.093 C 
ATOM     83  C   UNL A   1      32.781  28.937  23.744  1.00  0.00     0.022 C 
ATOM     84  C   UNL A   1      31.269  28.957  23.923  1.00  0.00     0.053 C 
BRANCH  80  85
ATOM     85  N   UNL A   1      32.258  26.131  25.937  1.00  0.00    -0.331 N 
ATOM     86  H   UNL A   1      32.514  25.931  26.904  1.00  0.00     0.347 HD
ATOM     87  H   UNL A   1      32.932  25.831  25.233  1.00  0.00     0.347 HD
BRANCH  85  88
ATOM     88  C   UNL A   1      31.041  25.363  25.637  1.00  0.00     0.183 C 
ATOM     89  C   UNL A   1      31.034  24.212  24.673  1.00  0.00     0.071 C 
ATOM     90  C   UNL A   1      31.014  23.942  26.145  1.00  0.00     0.071 C 
ENDBRANCH  85  88
ENDBRANCH  80  85
BRANCH  84  91
ATOM     91  S   UNL A   1      30.325  28.951  22.356  1.00  0.00    -0.158 SA
BRANCH  91  92
ATOM     92  C   UNL A   1      28.892  30.052  22.651  1.00  0.00     0.072 C 
BRANCH  92  93
ATOM     93  C   UNL A   1      28.024  30.336  21.425  1.00  0.00     0.039 C 
BRANCH  93  94
ATOM     94  C   UNL A   1      28.206  31.739  20.856  1.00  0.00     0.157 C 
BRANCH  94  95
ATOM     95  O   UNL A   1      27.314  31.979  19.777  1.00  0.00    -0.396 OA
ATOM     96  H   UNL A   1      26.921  32.860  19.874  1.00  0.00     0.210 HD
ENDBRANCH  94  95
ENDBRANCH  93  94
ENDBRANCH  92  93
ENDBRANCH  91  92
ENDBRANCH  84  91
ENDBRANCH  77  80
ENDBRANCH   1  76
TORSDOF 20
ENDMDL
MODEL 2
REMARK VINA RESULT:     -11.0      3.372      9.553
REMARK SMILES O=C(NCCCNC(=O)[C@]1([NH2+]C2CC2)CC[C@@H](SCCCO)C1)c1ccc(-c2c3nc(c(-c4c(F)cc(S(=O)(=O)[O-])cc4F)c4ccc([nH]4)c(-c4c(F)cc(S(=O)(=O)[O-])cc4F)c4nc(c(-c5c(F)cc(S(=O)(=O)[O-])cc5F)c5ccc2[nH]5)C=C4)C=C3)cc1
REMARK SMILES IDX 6 1 5 2 4 3 3 4 1 5 2 6 24 8 25 9 89 10 26 11 88 12 27 13
REMARK SMILES IDX 28 14 29 15 82 16 30 17 87 18 81 19 83 20 31 21 86 22 80 23
REMARK SMILES IDX 79 24 32 26 66 27 45 28 65 29 46 30 49 31 64 32 84 33 47 34
REMARK SMILES IDX 48 35 63 37 85 38 50 39 33 40 34 41 43 42 35 43 36 44 42 45
REMARK SMILES IDX 44 46 37 47 38 48 39 49 40 50 41 51 67 52 68 53 77 54 69 55
REMARK SMILES IDX 70 56 76 57 78 58 71 59 72 60 73 61 74 62 75 63 51 64 52 65
REMARK SMILES IDX 61 66 53 67 54 68 60 69 62 70 55 71 56 72 57 73 58 74 59 75
REMARK SMILES IDX 7 76 8 77 9 79 10 80 15 81 23 82 16 83 17 84 11 85 12 88
REMARK SMILES IDX 13 89 14 90 18 91 19 92 20 93 21 94 22 95
REMARK H PARENT 3 7 83 25 49 36 7 78 11 86 11 87 22 96
REMARK Flexibility Score: inf
ROOT
ATOM      1  C   UNL A   1      32.927  27.699  24.613  1.00  0.00     0.118 C 
ENDROOT
BRANCH   1   2
ATOM      2  C   UNL A   1      34.233  28.163  25.234  1.00  0.00     0.042 C 
BRANCH   2   3
ATOM      3  C   UNL A   1      34.109  28.245  26.742  1.00  0.00     0.118 C 
BRANCH   3   4
ATOM      4  N   UNL A   1      33.836  29.615  27.171  1.00  0.00    -0.352 N 
ATOM      5  O   UNL A   1      34.065  31.440  28.467  1.00  0.00    -0.269 OA
ATOM      6  C   UNL A   1      34.573  30.438  27.987  1.00  0.00     0.251 C 
ATOM      7  H   UNL A   1      33.001  30.006  26.824  1.00  0.00     0.163 HD
BRANCH   6   8
ATOM      8  C   UNL A   1      35.979  30.087  28.268  1.00  0.00     0.039 A 
ATOM      9  C   UNL A   1      36.944  30.284  27.280  1.00  0.00     0.014 A 
ATOM     10  C   UNL A   1      36.334  29.563  29.512  1.00  0.00     0.014 A 
ATOM     11  C   UNL A   1      38.221  29.794  27.462  1.00  0.00     0.010 A 
ATOM     12  C   UNL A   1      37.663  29.203  29.746  1.00  0.00     0.010 A 
ATOM     13  C   UNL A   1      38.609  29.300  28.714  1.00  0.00    -0.014 A 
BRANCH  13  14
ATOM     14  C   UNL A   1      40.044  29.009  28.934  1.00  0.00     0.031 A 
ATOM     15  C   UNL A   1      40.640  27.689  28.551  1.00  0.00     0.074 A 
ATOM     16  C   UNL A   1      40.803  29.989  29.464  1.00  0.00     0.049 A 
ATOM     17  N   UNL A   1      41.873  27.278  28.692  1.00  0.00    -0.248 NA
ATOM     18  C   UNL A   1      39.739  26.694  27.947  1.00  0.00     0.031 C 
ATOM     19  C   UNL A   1      40.304  31.306  29.882  1.00  0.00     0.029 A 
ATOM     20  N   UNL A   1      42.145  30.050  29.723  1.00  0.00    -0.354 N 
ATOM     21  C   UNL A   1      41.893  25.969  28.227  1.00  0.00     0.074 A 
ATOM     22  C   UNL A   1      40.544  25.648  27.813  1.00  0.00     0.031 C 
ATOM     23  C   UNL A   1      41.332  32.060  30.288  1.00  0.00     0.029 A 
ATOM     24  C   UNL A   1      42.543  31.255  30.253  1.00  0.00     0.049 A 
ATOM     25  H   UNL A   1      42.765  29.306  29.547  1.00  0.00     0.167 HD
ATOM     26  C   UNL A   1      42.948  25.122  28.158  1.00  0.00     0.037 A 
ATOM     27  C   UNL A   1      43.744  31.659  30.701  1.00  0.00     0.037 A 
ATOM     28  C   UNL A   1      44.284  25.477  28.565  1.00  0.00     0.049 A 
ATOM     29  C   UNL A   1      44.890  30.699  30.621  1.00  0.00     0.074 A 
ATOM     30  C   UNL A   1      45.434  24.711  28.505  1.00  0.00     0.029 A 
ATOM     31  N   UNL A   1      44.648  26.700  29.115  1.00  0.00    -0.354 N 
ATOM     32  N   UNL A   1      44.899  29.471  30.157  1.00  0.00    -0.248 NA
ATOM     33  C   UNL A   1      46.184  31.167  31.126  1.00  0.00     0.031 C 
ATOM     34  C   UNL A   1      46.483  25.452  29.064  1.00  0.00     0.029 A 
ATOM     35  C   UNL A   1      45.999  26.701  29.423  1.00  0.00     0.049 A 
ATOM     36  H   UNL A   1      44.036  27.456  29.264  1.00  0.00     0.167 HD
ATOM     37  C   UNL A   1      46.201  29.018  30.310  1.00  0.00     0.074 A 
ATOM     38  C   UNL A   1      46.956  30.115  30.887  1.00  0.00     0.031 C 
ATOM     39  C   UNL A   1      46.724  27.805  30.004  1.00  0.00     0.037 A 
BRANCH  26  40
ATOM     40  C   UNL A   1      42.692  23.724  27.662  1.00  0.00     0.058 A 
ATOM     41  C   UNL A   1      42.480  22.647  28.539  1.00  0.00     0.135 A 
ATOM     42  C   UNL A   1      42.639  23.461  26.283  1.00  0.00     0.135 A 
ATOM     43  F   UNL A   1      42.535  22.836  29.867  1.00  0.00    -0.206 F 
ATOM     44  C   UNL A   1      42.259  21.357  28.067  1.00  0.00     0.059 A 
ATOM     45  C   UNL A   1      42.391  22.183  25.789  1.00  0.00     0.059 A 
ATOM     46  F   UNL A   1      42.833  24.451  25.398  1.00  0.00    -0.206 F 
ATOM     47  C   UNL A   1      42.219  21.134  26.690  1.00  0.00     0.060 A 
BRANCH  47  48
ATOM     48  S   UNL A   1      41.945  19.452  26.092  1.00  0.00     0.124 S 
ATOM     49  O   UNL A   1      40.507  19.463  25.841  1.00  0.00    -0.237 OA
ATOM     50  O   UNL A   1      42.794  19.399  24.906  1.00  0.00    -0.237 OA
ATOM     51  O   UNL A   1      42.380  18.618  27.208  1.00  0.00    -0.744 OA
ENDBRANCH  47  48
ENDBRANCH  26  40
BRANCH  27  52
ATOM     52  C   UNL A   1      43.884  33.015  31.290  1.00  0.00     0.058 A 
ATOM     53  C   UNL A   1      44.154  34.132  30.489  1.00  0.00     0.135 A 
ATOM     54  C   UNL A   1      43.674  33.228  32.663  1.00  0.00     0.135 A 
ATOM     55  F   UNL A   1      44.360  33.980  29.172  1.00  0.00    -0.206 F 
ATOM     56  C   UNL A   1      44.213  35.414  31.027  1.00  0.00     0.059 A 
ATOM     57  C   UNL A   1      43.698  34.502  33.218  1.00  0.00     0.059 A 
ATOM     58  F   UNL A   1      43.386  32.193  33.469  1.00  0.00    -0.206 F 
ATOM     59  C   UNL A   1      43.976  35.589  32.392  1.00  0.00     0.060 A 
BRANCH  59  60
ATOM     60  S   UNL A   1      43.984  37.263  33.067  1.00  0.00     0.124 S 
ATOM     61  O   UNL A   1      42.798  37.242  33.915  1.00  0.00    -0.237 OA
ATOM     62  O   UNL A   1      45.267  37.308  33.764  1.00  0.00    -0.237 OA
ATOM     63  O   UNL A   1      43.898  38.104  31.878  1.00  0.00    -0.744 OA
ENDBRANCH  59  60
ENDBRANCH  27  52
BRANCH  39  64
ATOM     64  C   UNL A   1      48.188  27.613  30.275  1.00  0.00     0.058 A 
ATOM     65  C   UNL A   1      48.648  27.085  31.492  1.00  0.00     0.135 A 
ATOM     66  C   UNL A   1      49.137  27.925  29.290  1.00  0.00     0.135 A 
ATOM     67  F   UNL A   1      47.779  26.783  32.470  1.00  0.00    -0.206 F 
ATOM     68  C   UNL A   1      50.003  26.892  31.730  1.00  0.00     0.059 A 
ATOM     69  C   UNL A   1      50.496  27.714  29.497  1.00  0.00     0.059 A 
ATOM     70  F   UNL A   1      48.747  28.428  28.107  1.00  0.00    -0.206 F 
ATOM     71  C   UNL A   1      50.920  27.207  30.724  1.00  0.00     0.060 A 
BRANCH  71  72
ATOM     72  S   UNL A   1      52.674  26.916  31.033  1.00  0.00     0.124 S 
ATOM     73  O   UNL A   1      53.148  26.548  29.703  1.00  0.00    -0.237 OA
ATOM     74  O   UNL A   1      53.122  28.213  31.530  1.00  0.00    -0.237 OA
ATOM     75  O   UNL A   1      52.671  25.841  32.019  1.00  0.00    -0.744 OA
ENDBRANCH  71  72
ENDBRANCH  39  64
ENDBRANCH  13  14
ENDBRANCH   6   8
ENDBRANCH   3   4
ENDBRANCH   2   3
ENDBRANCH   1   2
BRANCH   1  76
ATOM     76  N   UNL A   1      33.170  26.783  23.528  1.00  0.00    -0.351 N 
ATOM     77  C   UNL A   1      33.584  25.490  23.495  1.00  0.00     0.281 C 
ATOM     78  H   UNL A   1      33.002  27.169  22.638  1.00  0.00     0.163 HD
ATOM     79  O   UNL A   1      33.955  25.126  22.372  1.00  0.00    -0.268 OA
BRANCH  77  80
ATOM     80  C   UNL A   1      33.632  24.547  24.761  1.00  0.00     0.176 C 
ATOM     81  C   UNL A   1      34.993  24.517  25.492  1.00  0.00     0.080 C 
ATOM     82  C   UNL A   1      33.341  23.073  24.374  1.00  0.00     0.093 C 
ATOM     83  C   UNL A   1      35.612  23.124  25.328  1.00  0.00     0.022 C 
ATOM     84  C   UNL A   1      34.663  22.316  24.455  1.00  0.00     0.053 C 
BRANCH  80  85
ATOM     85  N   UNL A   1      32.534  24.955  25.692  1.00  0.00    -0.331 N 
ATOM     86  H   UNL A   1      32.434  25.967  25.622  1.00  0.00     0.347 HD
ATOM     87  H   UNL A   1      32.825  24.603  26.604  1.00  0.00     0.347 HD
BRANCH  85  88
ATOM     88  C   UNL A   1      31.204  24.367  25.476  1.00  0.00     0.183 C 
ATOM     89  C   UNL A   1      30.440  23.682  26.572  1.00  0.00     0.071 C 
ATOM     90  C   UNL A   1      30.053  25.068  26.157  1.00  0.00     0.071 C 
ENDBRANCH  85  88
ENDBRANCH  80  85
BRANCH  84  91
ATOM     91  S   UNL A   1      34.600  20.533  24.859  1.00  0.00    -0.158 SA
BRANCH  91  92
ATOM     92  C   UNL A   1      32.845  20.054  24.657  1.00  0.00     0.072 C 
BRANCH  92  93
ATOM     93  C   UNL A   1      32.611  18.622  24.174  1.00  0.00     0.039 C 
BRANCH  93  94
ATOM     94  C   UNL A   1      32.573  17.593  25.299  1.00  0.00     0.157 C 
BRANCH  94  95
ATOM     95  O   UNL A   1      32.580  18.220  26.573  1.00  0.00    -0.396 OA
ATOM     96  H   UNL A   1      31.670  18.302  26.897  1.00  0.00     0.210 HD
ENDBRANCH  94  95
ENDBRANCH  93  94
ENDBRANCH  92  93
ENDBRANCH  91  92
ENDBRANCH  84  91
ENDBRANCH  77  80
ENDBRANCH   1  76
TORSDOF 20
ENDMDL
MODEL 3
REMARK VINA RESULT:     -10.9      1.508      3.277
REMARK SMILES O=C(NCCCNC(=O)[C@]1([NH2+]C2CC2)CC[C@@H](SCCCO)C1)c1ccc(-c2c3nc(c(-c4c(F)cc(S(=O)(=O)[O-])cc4F)c4ccc([nH]4)c(-c4c(F)cc(S(=O)(=O)[O-])cc4F)c4nc(c(-c5c(F)cc(S(=O)(=O)[O-])cc5F)c5ccc2[nH]5)C=C4)C=C3)cc1
REMARK SMILES IDX 6 1 5 2 4 3 3 4 1 5 2 6 24 8 25 9 89 10 26 11 88 12 27 13
REMARK SMILES IDX 28 14 29 15 82 16 30 17 87 18 81 19 83 20 31 21 86 22 80 23
REMARK SMILES IDX 79 24 32 26 66 27 45 28 65 29 46 30 49 31 64 32 84 33 47 34
REMARK SMILES IDX 48 35 63 37 85 38 50 39 33 40 34 41 43 42 35 43 36 44 42 45
REMARK SMILES IDX 44 46 37 47 38 48 39 49 40 50 41 51 67 52 68 53 77 54 69 55
REMARK SMILES IDX 70 56 76 57 78 58 71 59 72 60 73 61 74 62 75 63 51 64 52 65
REMARK SMILES IDX 61 66 53 67 54 68 60 69 62 70 55 71 56 72 57 73 58 74 59 75
REMARK SMILES IDX 7 76 8 77 9 79 10 80 15 81 23 82 16 83 17 84 11 85 12 88
REMARK SMILES IDX 13 89 14 90 18 91 19 92 20 93 21 94 22 95
REMARK H PARENT 3 7 83 25 49 36 7 78 11 86 11 87 22 96
REMARK Flexibility Score: inf
ROOT
ATOM      1  C   UNL A   1      33.680  29.778  26.703  1.00  0.00     0.118 C 
ENDROOT
BRANCH   1   2
ATOM      2  C   UNL A   1      34.211  31.010  27.414  1.00  0.00     0.042 C 
BRANCH   2   3
ATOM      3  C   UNL A   1      35.580  30.739  28.003  1.00  0.00     0.118 C 
BRANCH   3   4
ATOM      4  N   UNL A   1      35.532  30.749  29.464  1.00  0.00    -0.352 N 
ATOM      5  O   UNL A   1      36.108  30.088  31.537  1.00  0.00    -0.269 OA
ATOM      6  C   UNL A   1      36.435  30.249  30.371  1.00  0.00     0.251 C 
ATOM      7  H   UNL A   1      34.735  31.174  29.856  1.00  0.00     0.163 HD
BRANCH   6   8
ATOM      8  C   UNL A   1      37.796  29.916  29.908  1.00  0.00     0.039 A 
ATOM      9  C   UNL A   1      38.756  29.512  30.838  1.00  0.00     0.014 A 
ATOM     10  C   UNL A   1      38.116  30.003  28.552  1.00  0.00     0.014 A 
ATOM     11  C   UNL A   1      40.072  29.375  30.448  1.00  0.00     0.010 A 
ATOM     12  C   UNL A   1      39.418  29.719  28.139  1.00  0.00     0.010 A 
ATOM     13  C   UNL A   1      40.408  29.421  29.088  1.00  0.00    -0.014 A 
BRANCH  13  14
ATOM     14  C   UNL A   1      41.782  29.033  28.695  1.00  0.00     0.031 A 
ATOM     15  C   UNL A   1      42.905  30.024  28.708  1.00  0.00     0.074 A 
ATOM     16  C   UNL A   1      41.991  27.746  28.356  1.00  0.00     0.049 A 
ATOM     17  N   UNL A   1      44.158  29.842  28.380  1.00  0.00    -0.248 NA
ATOM     18  C   UNL A   1      42.587  31.398  29.127  1.00  0.00     0.031 C 
ATOM     19  C   UNL A   1      40.950  26.711  28.300  1.00  0.00     0.029 A 
ATOM     20  N   UNL A   1      43.135  27.077  28.017  1.00  0.00    -0.354 N 
ATOM     21  C   UNL A   1      44.771  31.080  28.520  1.00  0.00     0.074 A 
ATOM     22  C   UNL A   1      43.750  32.011  28.948  1.00  0.00     0.031 C 
ATOM     23  C   UNL A   1      41.512  25.533  28.007  1.00  0.00     0.029 A 
ATOM     24  C   UNL A   1      42.930  25.742  27.757  1.00  0.00     0.049 A 
ATOM     25  H   UNL A   1      44.019  27.508  27.964  1.00  0.00     0.167 HD
ATOM     26  C   UNL A   1      46.070  31.400  28.305  1.00  0.00     0.037 A 
ATOM     27  C   UNL A   1      43.780  24.794  27.327  1.00  0.00     0.037 A 
ATOM     28  C   UNL A   1      47.069  30.445  27.892  1.00  0.00     0.049 A 
ATOM     29  C   UNL A   1      45.208  25.177  27.090  1.00  0.00     0.074 A 
ATOM     30  C   UNL A   1      48.420  30.651  27.680  1.00  0.00     0.029 A 
ATOM     31  N   UNL A   1      46.821  29.105  27.621  1.00  0.00    -0.354 N 
ATOM     32  N   UNL A   1      45.778  26.348  27.248  1.00  0.00    -0.248 NA
ATOM     33  C   UNL A   1      46.106  24.122  26.612  1.00  0.00     0.031 C 
ATOM     34  C   UNL A   1      48.980  29.447  27.234  1.00  0.00     0.029 A 
ATOM     35  C   UNL A   1      47.989  28.477  27.219  1.00  0.00     0.049 A 
ATOM     36  H   UNL A   1      45.945  28.665  27.702  1.00  0.00     0.167 HD
ATOM     37  C   UNL A   1      47.107  26.172  26.892  1.00  0.00     0.074 A 
ATOM     38  C   UNL A   1      47.259  24.774  26.535  1.00  0.00     0.031 C 
ATOM     39  C   UNL A   1      48.111  27.084  26.861  1.00  0.00     0.037 A 
BRANCH  26  40
ATOM     40  C   UNL A   1      46.475  32.839  28.475  1.00  0.00     0.058 A 
ATOM     41  C   UNL A   1      46.368  33.773  27.430  1.00  0.00     0.135 A 
ATOM     42  C   UNL A   1      46.960  33.297  29.710  1.00  0.00     0.135 A 
ATOM     43  F   UNL A   1      45.925  33.389  26.223  1.00  0.00    -0.206 F 
ATOM     44  C   UNL A   1      46.759  35.098  27.596  1.00  0.00     0.059 A 
ATOM     45  C   UNL A   1      47.331  34.625  29.907  1.00  0.00     0.059 A 
ATOM     46  F   UNL A   1      47.083  32.450  30.744  1.00  0.00    -0.206 F 
ATOM     47  C   UNL A   1      47.243  35.514  28.838  1.00  0.00     0.060 A 
BRANCH  47  48
ATOM     48  S   UNL A   1      47.759  37.234  29.034  1.00  0.00     0.124 S 
ATOM     49  O   UNL A   1      49.213  37.109  28.975  1.00  0.00    -0.237 OA
ATOM     50  O   UNL A   1      47.133  37.881  27.885  1.00  0.00    -0.237 OA
ATOM     51  O   UNL A   1      47.215  37.607  30.334  1.00  0.00    -0.744 OA
ENDBRANCH  47  48
ENDBRANCH  26  40
BRANCH  27  52
ATOM     52  C   UNL A   1      43.272  23.423  27.066  1.00  0.00     0.058 A 
ATOM     53  C   UNL A   1      42.979  22.990  25.767  1.00  0.00     0.135 A 
ATOM     54  C   UNL A   1      43.144  22.493  28.112  1.00  0.00     0.135 A 
ATOM     55  F   UNL A   1      43.088  23.840  24.735  1.00  0.00    -0.206 F 
ATOM     56  C   UNL A   1      42.573  21.683  25.511  1.00  0.00     0.059 A 
ATOM     57  C   UNL A   1      42.769  21.175  27.878  1.00  0.00     0.059 A 
ATOM     58  F   UNL A   1      43.438  22.852  29.372  1.00  0.00    -0.206 F 
ATOM     59  C   UNL A   1      42.478  20.782  26.574  1.00  0.00     0.060 A 
BRANCH  59  60
ATOM     60  S   UNL A   1      42.021  19.071  26.223  1.00  0.00     0.124 S 
ATOM     61  O   UNL A   1      40.626  19.218  25.825  1.00  0.00    -0.237 OA
ATOM     62  O   UNL A   1      42.955  18.715  25.160  1.00  0.00    -0.237 OA
ATOM     63  O   UNL A   1      42.248  18.396  27.497  1.00  0.00    -0.744 OA
ENDBRANCH  59  60
ENDBRANCH  27  52
BRANCH  39  64
ATOM     64  C   UNL A   1      49.463  26.586  26.441  1.00  0.00     0.058 A 
ATOM     65  C   UNL A   1      49.931  26.749  25.128  1.00  0.00     0.135 A 
ATOM     66  C   UNL A   1      50.314  25.976  27.375  1.00  0.00     0.135 A 
ATOM     67  F   UNL A   1      49.148  27.315  24.196  1.00  0.00    -0.206 F 
ATOM     68  C   UNL A   1      51.191  26.303  24.749  1.00  0.00     0.059 A 
ATOM     69  C   UNL A   1      51.590  25.547  27.024  1.00  0.00     0.059 A 
ATOM     70  F   UNL A   1      49.914  25.802  28.645  1.00  0.00    -0.206 F 
ATOM     71  C   UNL A   1      52.015  25.706  25.706  1.00  0.00     0.060 A 
BRANCH  71  72
ATOM     72  S   UNL A   1      53.664  25.165  25.210  1.00  0.00     0.124 S 
ATOM     73  O   UNL A   1      53.544  23.716  25.325  1.00  0.00    -0.237 OA
ATOM     74  O   UNL A   1      53.768  25.688  23.851  1.00  0.00    -0.237 OA
ATOM     75  O   UNL A   1      54.538  25.803  26.189  1.00  0.00    -0.744 OA
ENDBRANCH  71  72
ENDBRANCH  39  64
ENDBRANCH  13  14
ENDBRANCH   6   8
ENDBRANCH   3   4
ENDBRANCH   2   3
ENDBRANCH   1   2
BRANCH   1  76
ATOM     76  N   UNL A   1      32.710  29.091  27.518  1.00  0.00    -0.351 N 
ATOM     77  C   UNL A   1      31.784  28.139  27.236  1.00  0.00     0.281 C 
ATOM     78  H   UNL A   1      32.722  29.365  28.463  1.00  0.00     0.163 HD
ATOM     79  O   UNL A   1      30.939  28.002  28.129  1.00  0.00    -0.268 OA
BRANCH  77  80
ATOM     80  C   UNL A   1      31.752  27.312  25.890  1.00  0.00     0.176 C 
ATOM     81  C   UNL A   1      30.591  26.301  25.782  1.00  0.00     0.080 C 
ATOM     82  C   UNL A   1      33.046  26.473  25.717  1.00  0.00     0.093 C 
ATOM     83  C   UNL A   1      31.168  24.881  25.796  1.00  0.00     0.022 C 
ATOM     84  C   UNL A   1      32.675  25.015  25.968  1.00  0.00     0.053 C 
BRANCH  80  85
ATOM     85  N   UNL A   1      31.730  28.278  24.747  1.00  0.00    -0.331 N 
ATOM     86  H   UNL A   1      32.570  28.113  24.192  1.00  0.00     0.347 HD
ATOM     87  H   UNL A   1      31.667  29.196  25.187  1.00  0.00     0.347 HD
BRANCH  85  88
ATOM     88  C   UNL A   1      30.582  28.225  23.831  1.00  0.00     0.183 C 
ATOM     89  C   UNL A   1      30.400  29.208  22.712  1.00  0.00     0.071 C 
ATOM     90  C   UNL A   1      30.889  27.826  22.408  1.00  0.00     0.071 C 
ENDBRANCH  85  88
ENDBRANCH  80  85
BRANCH  84  91
ATOM     91  S   UNL A   1      33.650  23.728  25.109  1.00  0.00    -0.158 SA
BRANCH  91  92
ATOM     92  C   UNL A   1      35.366  24.364  25.075  1.00  0.00     0.072 C 
BRANCH  92  93
ATOM     93  C   UNL A   1      36.323  23.710  26.072  1.00  0.00     0.039 C 
BRANCH  93  94
ATOM     94  C   UNL A   1      37.035  22.479  25.522  1.00  0.00     0.157 C 
BRANCH  94  95
ATOM     95  O   UNL A   1      38.195  22.171  26.280  1.00  0.00    -0.396 OA
ATOM     96  H   UNL A   1      37.998  22.263  27.225  1.00  0.00     0.210 HD
ENDBRANCH  94  95
ENDBRANCH  93  94
ENDBRANCH  92  93
ENDBRANCH  91  92
ENDBRANCH  84  91
ENDBRANCH  77  80
ENDBRANCH   1  76
TORSDOF 20
ENDMDL
