MODEL 1
REMARK VINA RESULT:     -10.2      0.000      0.000
REMARK SMILES COc1ccc(-c2[nH]nc3nc(-c4ccc(C(F)(F)F)cc4)cc(C(=O)NCCCNC(=O)c4ccc(-c5c6nc(c(-c7c(F)cc(S(=O)(=O)[O-])cc7F)c7ccc([nH]7)c(-c7c(F)cc(S(=O)(=O)[O-])cc7F)c7nc(c(-c8c(F)cc(S(=O)(=O)[O-])cc8F)c8ccc5[nH]8)C=C7)C=C6)cc4)c23)cc1
REMARK SMILES IDX 29 1 28 2 27 3 25 4 26 5 24 7 7 8 8 9 100 10 9 11 10 13
REMARK SMILES IDX 11 14 23 15 12 16 6 17 3 18 4 19 102 20 5 21 101 22 2 23
REMARK SMILES IDX 1 24 13 25 14 26 22 27 15 28 21 29 16 30 17 31 18 32 19 33
REMARK SMILES IDX 20 34 30 35 31 36 32 37 33 39 34 40 35 41 99 42 36 43 98 44
REMARK SMILES IDX 37 45 38 46 39 47 92 48 40 49 97 50 91 51 93 52 41 53 96 54
REMARK SMILES IDX 90 55 89 56 42 58 76 59 55 60 75 61 56 62 59 63 74 64 94 65
REMARK SMILES IDX 57 66 58 67 73 69 95 70 60 71 43 72 44 73 53 74 45 75 46 76
REMARK SMILES IDX 52 77 54 78 47 79 48 80 49 81 50 82 51 83 77 84 78 85 87 86
REMARK SMILES IDX 79 87 80 88 86 89 88 90 81 91 82 92 83 93 84 94 85 95 61 96
REMARK SMILES IDX 62 97 71 98 63 99 64 100 70 101 72 102 65 103 66 104 67 105
REMARK SMILES IDX 68 106 69 107
REMARK H PARENT 27 6 8 12 31 38 93 57 59 68
REMARK Flexibility Score: inf
ROOT
ATOM      1  C   UNL A   1      36.031  33.388  32.441  1.00  0.00     0.042 C 
ENDROOT
BRANCH   1   2
ATOM      2  C   UNL A   1      36.109  33.611  33.958  1.00  0.00     0.118 C 
BRANCH   2   3
ATOM      3  N   UNL A   1      36.694  32.479  34.661  1.00  0.00    -0.352 N 
ATOM      4  C   UNL A   1      37.873  32.259  35.334  1.00  0.00     0.252 C 
ATOM      5  O   UNL A   1      37.903  31.215  35.974  1.00  0.00    -0.269 OA
ATOM      6  H   UNL A   1      36.111  31.686  34.651  1.00  0.00     0.163 HD
BRANCH   4   7
ATOM      7  C   UNL A   1      39.007  33.213  35.363  1.00  0.00     0.055 A 
ATOM      8  C   UNL A   1      38.860  34.288  37.665  1.00  0.00     0.075 A 
ATOM      9  N   UNL A   1      39.519  35.388  38.163  1.00  0.00    -0.275 N 
ATOM     10  C   UNL A   1      39.330  34.149  36.368  1.00  0.00     0.059 A 
ATOM     11  N   UNL A   1      40.396  35.957  37.323  1.00  0.00    -0.154 NA
ATOM     12  H   UNL A   1      39.356  35.733  39.070  1.00  0.00     0.190 HD
ATOM     13  C   UNL A   1      40.322  35.197  36.234  1.00  0.00     0.182 A 
ATOM     14  N   UNL A   1      41.067  35.375  35.109  1.00  0.00    -0.226 NA
ATOM     15  C   UNL A   1      39.903  33.363  34.301  1.00  0.00     0.043 A 
ATOM     16  C   UNL A   1      40.823  34.429  34.173  1.00  0.00     0.074 A 
BRANCH   8  17
ATOM     17  C   UNL A   1      37.982  33.521  38.543  1.00  0.00     0.001 A 
ATOM     18  C   UNL A   1      36.306  31.975  40.198  1.00  0.00     0.118 A 
ATOM     19  C   UNL A   1      35.779  32.694  39.121  1.00  0.00     0.047 A 
ATOM     20  C   UNL A   1      37.673  32.047  40.458  1.00  0.00     0.047 A 
ATOM     21  C   UNL A   1      36.605  33.470  38.302  1.00  0.00     0.014 A 
ATOM     22  C   UNL A   1      38.504  32.825  39.641  1.00  0.00     0.014 A 
BRANCH  18  23
ATOM     23  O   UNL A   1      35.392  31.224  40.883  1.00  0.00    -0.497 OA
ATOM     24  C   UNL A   1      35.048  31.656  42.198  1.00  0.00     0.278 C 
ENDBRANCH  18  23
ENDBRANCH   8  17
BRANCH  16  25
ATOM     25  C   UNL A   1      41.499  34.579  32.873  1.00  0.00     0.000 A 
ATOM     26  C   UNL A   1      41.007  33.983  31.707  1.00  0.00     0.011 A 
ATOM     27  C   UNL A   1      42.615  35.432  32.765  1.00  0.00     0.011 A 
ATOM     28  C   UNL A   1      41.594  34.260  30.465  1.00  0.00     0.014 A 
ATOM     29  C   UNL A   1      43.202  35.710  31.529  1.00  0.00     0.014 A 
ATOM     30  C   UNL A   1      42.691  35.132  30.362  1.00  0.00     0.056 A 
BRANCH  30  31
ATOM     31  C   UNL A   1      43.302  35.437  29.016  1.00  0.00     0.416 C 
ATOM     32  F   UNL A   1      42.681  34.778  27.998  1.00  0.00    -0.166 F 
ATOM     33  F   UNL A   1      43.240  36.759  28.700  1.00  0.00    -0.166 F 
ATOM     34  F   UNL A   1      44.620  35.097  28.928  1.00  0.00    -0.166 F 
ENDBRANCH  30  31
ENDBRANCH  16  25
ENDBRANCH   4   7
ENDBRANCH   2   3
ENDBRANCH   1   2
BRANCH   1  35
ATOM     35  C   UNL A   1      35.452  32.028  32.097  1.00  0.00     0.118 C 
BRANCH  35  36
ATOM     36  N   UNL A   1      34.762  32.034  30.803  1.00  0.00    -0.352 N 
ATOM     37  C   UNL A   1      35.301  31.972  29.533  1.00  0.00     0.251 C 
ATOM     38  H   UNL A   1      33.779  32.090  30.845  1.00  0.00     0.163 HD
ATOM     39  O   UNL A   1      34.637  32.318  28.559  1.00  0.00    -0.269 OA
BRANCH  37  40
ATOM     40  C   UNL A   1      36.682  31.493  29.375  1.00  0.00     0.039 A 
ATOM     41  C   UNL A   1      37.773  32.367  29.368  1.00  0.00     0.014 A 
ATOM     42  C   UNL A   1      36.871  30.119  29.296  1.00  0.00     0.014 A 
ATOM     43  C   UNL A   1      39.057  31.829  29.373  1.00  0.00     0.010 A 
ATOM     44  C   UNL A   1      38.113  29.599  29.523  1.00  0.00     0.010 A 
ATOM     45  C   UNL A   1      39.216  30.438  29.478  1.00  0.00    -0.014 A 
BRANCH  45  46
ATOM     46  C   UNL A   1      40.527  29.824  29.645  1.00  0.00     0.031 A 
ATOM     47  C   UNL A   1      40.981  29.740  31.055  1.00  0.00     0.074 A 
ATOM     48  C   UNL A   1      41.157  29.179  28.638  1.00  0.00     0.049 A 
ATOM     49  N   UNL A   1      41.886  30.459  31.633  1.00  0.00    -0.248 NA
ATOM     50  C   UNL A   1      40.215  28.895  31.986  1.00  0.00     0.031 C 
ATOM     51  C   UNL A   1      40.667  28.925  27.274  1.00  0.00     0.029 A 
ATOM     52  N   UNL A   1      42.346  28.519  28.649  1.00  0.00    -0.354 N 
ATOM     53  C   UNL A   1      41.989  29.962  32.929  1.00  0.00     0.074 A 
ATOM     54  C   UNL A   1      40.795  29.194  33.152  1.00  0.00     0.031 C 
ATOM     55  C   UNL A   1      41.435  27.988  26.676  1.00  0.00     0.029 A 
ATOM     56  C   UNL A   1      42.575  27.723  27.531  1.00  0.00     0.049 A 
ATOM     57  H   UNL A   1      42.992  28.598  29.387  1.00  0.00     0.167 HD
ATOM     58  C   UNL A   1      43.182  29.987  33.589  1.00  0.00     0.037 A 
ATOM     59  C   UNL A   1      43.635  26.909  27.308  1.00  0.00     0.037 A 
ATOM     60  C   UNL A   1      44.126  30.827  32.889  1.00  0.00     0.049 A 
ATOM     61  C   UNL A   1      44.732  27.404  28.171  1.00  0.00     0.074 A 
ATOM     62  C   UNL A   1      44.217  32.169  32.584  1.00  0.00     0.029 A 
ATOM     63  N   UNL A   1      44.982  30.170  32.038  1.00  0.00    -0.354 N 
ATOM     64  N   UNL A   1      45.290  28.576  28.026  1.00  0.00    -0.248 NA
ATOM     65  C   UNL A   1      44.924  26.786  29.475  1.00  0.00     0.031 C 
ATOM     66  C   UNL A   1      44.849  32.225  31.305  1.00  0.00     0.029 A 
ATOM     67  C   UNL A   1      45.174  30.925  30.910  1.00  0.00     0.049 A 
ATOM     68  H   UNL A   1      45.393  29.293  32.210  1.00  0.00     0.167 HD
ATOM     69  C   UNL A   1      45.517  29.025  29.317  1.00  0.00     0.074 A 
ATOM     70  C   UNL A   1      45.408  27.831  30.152  1.00  0.00     0.031 C 
ATOM     71  C   UNL A   1      45.481  30.359  29.610  1.00  0.00     0.037 A 
BRANCH  58  72
ATOM     72  C   UNL A   1      43.659  28.937  34.578  1.00  0.00     0.058 A 
ATOM     73  C   UNL A   1      43.644  27.580  34.185  1.00  0.00     0.135 A 
ATOM     74  C   UNL A   1      43.839  29.159  35.961  1.00  0.00     0.135 A 
ATOM     75  F   UNL A   1      43.494  27.244  32.893  1.00  0.00    -0.206 F 
ATOM     76  C   UNL A   1      43.696  26.530  35.104  1.00  0.00     0.059 A 
ATOM     77  C   UNL A   1      43.945  28.127  36.888  1.00  0.00     0.059 A 
ATOM     78  F   UNL A   1      43.824  30.379  36.507  1.00  0.00    -0.206 F 
ATOM     79  C   UNL A   1      43.825  26.818  36.458  1.00  0.00     0.060 A 
BRANCH  79  80
ATOM     80  S   UNL A   1      43.774  25.477  37.658  1.00  0.00     0.124 S 
ATOM     81  O   UNL A   1      43.792  26.214  38.917  1.00  0.00    -0.237 OA
ATOM     82  O   UNL A   1      42.518  24.816  37.320  1.00  0.00    -0.237 OA
ATOM     83  O   UNL A   1      44.980  24.712  37.357  1.00  0.00    -0.744 OA
ENDBRANCH  79  80
ENDBRANCH  58  72
BRANCH  59  84
ATOM     84  C   UNL A   1      43.652  25.591  26.625  1.00  0.00     0.058 A 
ATOM     85  C   UNL A   1      44.392  25.369  25.451  1.00  0.00     0.135 A 
ATOM     86  C   UNL A   1      43.150  24.443  27.270  1.00  0.00     0.135 A 
ATOM     87  F   UNL A   1      44.931  26.404  24.789  1.00  0.00    -0.206 F 
ATOM     88  C   UNL A   1      44.650  24.080  24.963  1.00  0.00     0.059 A 
ATOM     89  C   UNL A   1      43.390  23.152  26.802  1.00  0.00     0.059 A 
ATOM     90  F   UNL A   1      42.484  24.541  28.431  1.00  0.00    -0.206 F 
ATOM     91  C   UNL A   1      44.157  22.975  25.658  1.00  0.00     0.060 A 
BRANCH  91  92
ATOM     92  S   UNL A   1      44.600  21.304  25.121  1.00  0.00     0.124 S 
ATOM     93  O   UNL A   1      45.946  21.159  25.661  1.00  0.00    -0.237 OA
ATOM     94  O   UNL A   1      43.566  20.493  25.754  1.00  0.00    -0.237 OA
ATOM     95  O   UNL A   1      44.521  21.387  23.664  1.00  0.00    -0.744 OA
ENDBRANCH  91  92
ENDBRANCH  59  84
BRANCH  71  96
ATOM     96  C   UNL A   1      45.586  31.331  28.460  1.00  0.00     0.058 A 
ATOM     97  C   UNL A   1      44.504  31.760  27.670  1.00  0.00     0.135 A 
ATOM     98  C   UNL A   1      46.819  31.964  28.250  1.00  0.00     0.135 A 
ATOM     99  F   UNL A   1      43.273  31.270  27.862  1.00  0.00    -0.206 F 
ATOM    100  C   UNL A   1      44.649  32.756  26.701  1.00  0.00     0.059 A 
ATOM    101  C   UNL A   1      46.980  32.979  27.311  1.00  0.00     0.059 A 
ATOM    102  F   UNL A   1      47.878  31.637  29.010  1.00  0.00    -0.206 F 
ATOM    103  C   UNL A   1      45.892  33.365  26.533  1.00  0.00     0.060 A 
BRANCH 103 104
ATOM    104  S   UNL A   1      46.057  34.719  25.349  1.00  0.00     0.124 S 
ATOM    105  O   UNL A   1      47.469  34.643  24.989  1.00  0.00    -0.237 OA
ATOM    106  O   UNL A   1      45.114  34.343  24.301  1.00  0.00    -0.237 OA
ATOM    107  O   UNL A   1      45.674  35.898  26.124  1.00  0.00    -0.744 OA
ENDBRANCH 103 104
ENDBRANCH  71  96
ENDBRANCH  45  46
ENDBRANCH  37  40
ENDBRANCH  35  36
ENDBRANCH   1  35
TORSDOF 17
ENDMDL
MODEL 2
REMARK VINA RESULT:     -10.1      2.437      5.593
REMARK SMILES COc1ccc(-c2[nH]nc3nc(-c4ccc(C(F)(F)F)cc4)cc(C(=O)NCCCNC(=O)c4ccc(-c5c6nc(c(-c7c(F)cc(S(=O)(=O)[O-])cc7F)c7ccc([nH]7)c(-c7c(F)cc(S(=O)(=O)[O-])cc7F)c7nc(c(-c8c(F)cc(S(=O)(=O)[O-])cc8F)c8ccc5[nH]8)C=C7)C=C6)cc4)c23)cc1
REMARK SMILES IDX 29 1 28 2 27 3 25 4 26 5 24 7 7 8 8 9 100 10 9 11 10 13
REMARK SMILES IDX 11 14 23 15 12 16 6 17 3 18 4 19 102 20 5 21 101 22 2 23
REMARK SMILES IDX 1 24 13 25 14 26 22 27 15 28 21 29 16 30 17 31 18 32 19 33
REMARK SMILES IDX 20 34 30 35 31 36 32 37 33 39 34 40 35 41 99 42 36 43 98 44
REMARK SMILES IDX 37 45 38 46 39 47 92 48 40 49 97 50 91 51 93 52 41 53 96 54
REMARK SMILES IDX 90 55 89 56 42 58 76 59 55 60 75 61 56 62 59 63 74 64 94 65
REMARK SMILES IDX 57 66 58 67 73 69 95 70 60 71 43 72 44 73 53 74 45 75 46 76
REMARK SMILES IDX 52 77 54 78 47 79 48 80 49 81 50 82 51 83 77 84 78 85 87 86
REMARK SMILES IDX 79 87 80 88 86 89 88 90 81 91 82 92 83 93 84 94 85 95 61 96
REMARK SMILES IDX 62 97 71 98 63 99 64 100 70 101 72 102 65 103 66 104 67 105
REMARK SMILES IDX 68 106 69 107
REMARK H PARENT 27 6 8 12 31 38 93 57 59 68
REMARK Flexibility Score: inf
ROOT
ATOM      1  C   UNL A   1      35.172  32.110  32.570  1.00  0.00     0.042 C 
ENDROOT
BRANCH   1   2
ATOM      2  C   UNL A   1      36.517  32.186  33.306  1.00  0.00     0.118 C 
BRANCH   2   3
ATOM      3  N   UNL A   1      36.992  33.552  33.464  1.00  0.00    -0.352 N 
ATOM      4  C   UNL A   1      37.850  34.188  34.331  1.00  0.00     0.252 C 
ATOM      5  O   UNL A   1      38.151  35.328  34.001  1.00  0.00    -0.269 OA
ATOM      6  H   UNL A   1      36.609  34.165  32.795  1.00  0.00     0.163 HD
BRANCH   4   7
ATOM      7  C   UNL A   1      38.436  33.554  35.536  1.00  0.00     0.055 A 
ATOM      8  C   UNL A   1      40.679  32.654  34.741  1.00  0.00     0.075 A 
ATOM      9  N   UNL A   1      41.551  31.796  35.370  1.00  0.00    -0.275 N 
ATOM     10  C   UNL A   1      39.628  32.808  35.634  1.00  0.00     0.059 A 
ATOM     11  N   UNL A   1      41.183  31.404  36.598  1.00  0.00    -0.154 NA
ATOM     12  H   UNL A   1      42.386  31.490  34.946  1.00  0.00     0.190 HD
ATOM     13  C   UNL A   1      40.029  32.038  36.794  1.00  0.00     0.182 A 
ATOM     14  N   UNL A   1      39.288  31.969  37.933  1.00  0.00    -0.226 NA
ATOM     15  C   UNL A   1      37.800  33.556  36.782  1.00  0.00     0.043 A 
ATOM     16  C   UNL A   1      38.184  32.750  37.878  1.00  0.00     0.074 A 
BRANCH   8  17
ATOM     17  C   UNL A   1      41.049  33.239  33.457  1.00  0.00     0.001 A 
ATOM     18  C   UNL A   1      41.818  34.313  30.969  1.00  0.00     0.118 A 
ATOM     19  C   UNL A   1      42.276  34.878  32.163  1.00  0.00     0.047 A 
ATOM     20  C   UNL A   1      40.956  33.220  31.022  1.00  0.00     0.047 A 
ATOM     21  C   UNL A   1      41.891  34.354  33.400  1.00  0.00     0.014 A 
ATOM     22  C   UNL A   1      40.565  32.692  32.260  1.00  0.00     0.014 A 
BRANCH  18  23
ATOM     23  O   UNL A   1      42.313  34.896  29.836  1.00  0.00    -0.497 OA
ATOM     24  C   UNL A   1      41.366  35.339  28.864  1.00  0.00     0.278 C 
ENDBRANCH  18  23
ENDBRANCH   8  17
BRANCH  16  25
ATOM     25  C   UNL A   1      37.252  32.678  39.016  1.00  0.00     0.000 A 
ATOM     26  C   UNL A   1      36.303  31.657  39.136  1.00  0.00     0.011 A 
ATOM     27  C   UNL A   1      37.379  33.597  40.077  1.00  0.00     0.011 A 
ATOM     28  C   UNL A   1      35.528  31.540  40.298  1.00  0.00     0.014 A 
ATOM     29  C   UNL A   1      36.608  33.483  41.235  1.00  0.00     0.014 A 
ATOM     30  C   UNL A   1      35.679  32.445  41.362  1.00  0.00     0.056 A 
BRANCH  30  31
ATOM     31  C   UNL A   1      34.852  32.296  42.615  1.00  0.00     0.416 C 
ATOM     32  F   UNL A   1      34.403  31.023  42.798  1.00  0.00    -0.166 F 
ATOM     33  F   UNL A   1      35.546  32.615  43.742  1.00  0.00    -0.166 F 
ATOM     34  F   UNL A   1      33.740  33.086  42.631  1.00  0.00    -0.166 F 
ENDBRANCH  30  31
ENDBRANCH  16  25
ENDBRANCH   4   7
ENDBRANCH   2   3
ENDBRANCH   1   2
BRANCH   1  35
ATOM     35  C   UNL A   1      35.147  33.000  31.341  1.00  0.00     0.118 C 
BRANCH  35  36
ATOM     36  N   UNL A   1      34.597  32.308  30.171  1.00  0.00    -0.352 N 
ATOM     37  C   UNL A   1      35.233  31.457  29.288  1.00  0.00     0.251 C 
ATOM     38  H   UNL A   1      33.643  32.471  29.989  1.00  0.00     0.163 HD
ATOM     39  O   UNL A   1      34.741  31.224  28.187  1.00  0.00    -0.269 OA
BRANCH  37  40
ATOM     40  C   UNL A   1      36.509  30.848  29.690  1.00  0.00     0.039 A 
ATOM     41  C   UNL A   1      36.594  29.518  30.112  1.00  0.00     0.014 A 
ATOM     42  C   UNL A   1      37.651  31.631  29.572  1.00  0.00     0.014 A 
ATOM     43  C   UNL A   1      37.854  28.966  30.325  1.00  0.00     0.010 A 
ATOM     44  C   UNL A   1      38.877  31.031  29.566  1.00  0.00     0.010 A 
ATOM     45  C   UNL A   1      38.995  29.726  30.022  1.00  0.00    -0.014 A 
BRANCH  45  46
ATOM     46  C   UNL A   1      40.335  29.157  30.073  1.00  0.00     0.031 A 
ATOM     47  C   UNL A   1      40.856  28.958  31.448  1.00  0.00     0.074 A 
ATOM     48  C   UNL A   1      40.944  28.641  28.982  1.00  0.00     0.049 A 
ATOM     49  N   UNL A   1      41.757  29.657  32.055  1.00  0.00    -0.248 NA
ATOM     50  C   UNL A   1      40.168  27.994  32.323  1.00  0.00     0.031 C 
ATOM     51  C   UNL A   1      40.402  28.498  27.621  1.00  0.00     0.029 A 
ATOM     52  N   UNL A   1      42.157  28.036  28.879  1.00  0.00    -0.354 N 
ATOM     53  C   UNL A   1      41.940  29.043  33.291  1.00  0.00     0.074 A 
ATOM     54  C   UNL A   1      40.788  28.204  33.487  1.00  0.00     0.031 C 
ATOM     55  C   UNL A   1      41.178  27.658  26.903  1.00  0.00     0.029 A 
ATOM     56  C   UNL A   1      42.366  27.362  27.679  1.00  0.00     0.049 A 
ATOM     57  H   UNL A   1      42.832  28.072  29.593  1.00  0.00     0.167 HD
ATOM     58  C   UNL A   1      43.160  29.056  33.900  1.00  0.00     0.037 A 
ATOM     59  C   UNL A   1      43.446  26.620  27.333  1.00  0.00     0.037 A 
ATOM     60  C   UNL A   1      44.036  30.000  33.247  1.00  0.00     0.049 A 
ATOM     61  C   UNL A   1      44.561  27.078  28.195  1.00  0.00     0.074 A 
ATOM     62  C   UNL A   1      44.060  31.369  33.072  1.00  0.00     0.029 A 
ATOM     63  N   UNL A   1      44.878  29.467  32.300  1.00  0.00    -0.354 N 
ATOM     64  N   UNL A   1      45.065  28.281  28.142  1.00  0.00    -0.248 NA
ATOM     65  C   UNL A   1      44.836  26.346  29.422  1.00  0.00     0.031 C 
ATOM     66  C   UNL A   1      44.631  31.575  31.780  1.00  0.00     0.029 A 
ATOM     67  C   UNL A   1      44.988  30.334  31.246  1.00  0.00     0.049 A 
ATOM     68  H   UNL A   1      45.331  28.596  32.368  1.00  0.00     0.167 HD
ATOM     69  C   UNL A   1      45.333  28.613  29.461  1.00  0.00     0.074 A 
ATOM     70  C   UNL A   1      45.310  27.341  30.178  1.00  0.00     0.031 C 
ATOM     71  C   UNL A   1      45.257  29.910  29.884  1.00  0.00     0.037 A 
BRANCH  58  72
ATOM     72  C   UNL A   1      43.723  27.938  34.760  1.00  0.00     0.058 A 
ATOM     73  C   UNL A   1      44.209  28.254  36.049  1.00  0.00     0.135 A 
ATOM     74  C   UNL A   1      44.081  26.658  34.281  1.00  0.00     0.135 A 
ATOM     75  F   UNL A   1      43.922  29.436  36.617  1.00  0.00    -0.206 F 
ATOM     76  C   UNL A   1      45.067  27.410  36.757  1.00  0.00     0.059 A 
ATOM     77  C   UNL A   1      44.894  25.782  34.993  1.00  0.00     0.059 A 
ATOM     78  F   UNL A   1      43.750  26.223  33.062  1.00  0.00    -0.206 F 
ATOM     79  C   UNL A   1      45.421  26.184  36.207  1.00  0.00     0.060 A 
BRANCH  79  80
ATOM     80  S   UNL A   1      46.618  25.142  37.057  1.00  0.00     0.124 S 
ATOM     81  O   UNL A   1      46.878  25.922  38.261  1.00  0.00    -0.237 OA
ATOM     82  O   UNL A   1      45.866  23.905  37.242  1.00  0.00    -0.237 OA
ATOM     83  O   UNL A   1      47.724  25.061  36.107  1.00  0.00    -0.744 OA
ENDBRANCH  79  80
ENDBRANCH  58  72
BRANCH  59  84
ATOM     84  C   UNL A   1      43.483  25.377  26.524  1.00  0.00     0.058 A 
ATOM     85  C   UNL A   1      44.280  25.261  25.372  1.00  0.00     0.135 A 
ATOM     86  C   UNL A   1      42.938  24.178  27.026  1.00  0.00     0.135 A 
ATOM     87  F   UNL A   1      44.862  26.347  24.843  1.00  0.00    -0.206 F 
ATOM     88  C   UNL A   1      44.549  24.023  24.771  1.00  0.00     0.059 A 
ATOM     89  C   UNL A   1      43.188  22.937  26.444  1.00  0.00     0.059 A 
ATOM     90  F   UNL A   1      42.215  24.171  28.157  1.00  0.00    -0.206 F 
ATOM     91  C   UNL A   1      44.010  22.862  25.327  1.00  0.00     0.060 A 
BRANCH  91  92
ATOM     92  S   UNL A   1      44.463  21.246  24.649  1.00  0.00     0.124 S 
ATOM     93  O   UNL A   1      43.353  20.410  25.091  1.00  0.00    -0.237 OA
ATOM     94  O   UNL A   1      44.527  21.519  23.217  1.00  0.00    -0.237 OA
ATOM     95  O   UNL A   1      45.748  20.962  25.286  1.00  0.00    -0.744 OA
ENDBRANCH  91  92
ENDBRANCH  59  84
BRANCH  71  96
ATOM     96  C   UNL A   1      45.271  30.992  28.832  1.00  0.00     0.058 A 
ATOM     97  C   UNL A   1      46.409  31.399  28.113  1.00  0.00     0.135 A 
ATOM     98  C   UNL A   1      44.040  31.535  28.437  1.00  0.00     0.135 A 
ATOM     99  F   UNL A   1      47.611  30.868  28.367  1.00  0.00    -0.206 F 
ATOM    100  C   UNL A   1      46.329  32.320  27.066  1.00  0.00     0.059 A 
ATOM    101  C   UNL A   1      43.932  32.432  27.377  1.00  0.00     0.059 A 
ATOM    102  F   UNL A   1      42.908  31.145  29.047  1.00  0.00    -0.206 F 
ATOM    103  C   UNL A   1      45.082  32.827  26.701  1.00  0.00     0.060 A 
BRANCH 103 104
ATOM    104  S   UNL A   1      44.965  33.942  25.284  1.00  0.00     0.124 S 
ATOM    105  O   UNL A   1      44.386  33.079  24.260  1.00  0.00    -0.237 OA
ATOM    106  O   UNL A   1      44.096  35.003  25.785  1.00  0.00    -0.237 OA
ATOM    107  O   UNL A   1      46.351  34.344  25.051  1.00  0.00    -0.744 OA
ENDBRANCH 103 104
ENDBRANCH  71  96
ENDBRANCH  45  46
ENDBRANCH  37  40
ENDBRANCH  35  36
ENDBRANCH   1  35
TORSDOF 17
ENDMDL
MODEL 3
REMARK VINA RESULT:     -10.0      6.525     12.881
REMARK SMILES COc1ccc(-c2[nH]nc3nc(-c4ccc(C(F)(F)F)cc4)cc(C(=O)NCCCNC(=O)c4ccc(-c5c6nc(c(-c7c(F)cc(S(=O)(=O)[O-])cc7F)c7ccc([nH]7)c(-c7c(F)cc(S(=O)(=O)[O-])cc7F)c7nc(c(-c8c(F)cc(S(=O)(=O)[O-])cc8F)c8ccc5[nH]8)C=C7)C=C6)cc4)c23)cc1
REMARK SMILES IDX 29 1 28 2 27 3 25 4 26 5 24 7 7 8 8 9 100 10 9 11 10 13
REMARK SMILES IDX 11 14 23 15 12 16 6 17 3 18 4 19 102 20 5 21 101 22 2 23
REMARK SMILES IDX 1 24 13 25 14 26 22 27 15 28 21 29 16 30 17 31 18 32 19 33
REMARK SMILES IDX 20 34 30 35 31 36 32 37 33 39 34 40 35 41 99 42 36 43 98 44
REMARK SMILES IDX 37 45 38 46 39 47 92 48 40 49 97 50 91 51 93 52 41 53 96 54
REMARK SMILES IDX 90 55 89 56 42 58 76 59 55 60 75 61 56 62 59 63 74 64 94 65
REMARK SMILES IDX 57 66 58 67 73 69 95 70 60 71 43 72 44 73 53 74 45 75 46 76
REMARK SMILES IDX 52 77 54 78 47 79 48 80 49 81 50 82 51 83 77 84 78 85 87 86
REMARK SMILES IDX 79 87 80 88 86 89 88 90 81 91 82 92 83 93 84 94 85 95 61 96
REMARK SMILES IDX 62 97 71 98 63 99 64 100 70 101 72 102 65 103 66 104 67 105
REMARK SMILES IDX 68 106 69 107
REMARK H PARENT 27 6 8 12 31 38 93 57 59 68
REMARK Flexibility Score: inf
ROOT
ATOM      1  C   UNL A   1      47.714  23.760  38.898  1.00  0.00     0.042 C 
ENDROOT
BRANCH   1   2
ATOM      2  C   UNL A   1      47.112  22.360  39.090  1.00  0.00     0.118 C 
BRANCH   2   3
ATOM      3  N   UNL A   1      48.128  21.330  39.242  1.00  0.00    -0.352 N 
ATOM      4  C   UNL A   1      48.232  20.007  38.881  1.00  0.00     0.252 C 
ATOM      5  O   UNL A   1      49.353  19.532  39.012  1.00  0.00    -0.269 OA
ATOM      6  H   UNL A   1      48.929  21.656  39.716  1.00  0.00     0.163 HD
BRANCH   4   7
ATOM      7  C   UNL A   1      47.119  19.211  38.310  1.00  0.00     0.055 A 
ATOM      8  C   UNL A   1      47.049  19.899  35.861  1.00  0.00     0.075 A 
ATOM      9  N   UNL A   1      46.093  19.644  34.906  1.00  0.00    -0.275 N 
ATOM     10  C   UNL A   1      46.579  19.279  37.009  1.00  0.00     0.059 A 
ATOM     11  N   UNL A   1      45.062  18.890  35.315  1.00  0.00    -0.154 NA
ATOM     12  H   UNL A   1      46.160  19.992  33.988  1.00  0.00     0.190 HD
ATOM     13  C   UNL A   1      45.356  18.627  36.587  1.00  0.00     0.182 A 
ATOM     14  N   UNL A   1      44.600  17.856  37.415  1.00  0.00    -0.226 NA
ATOM     15  C   UNL A   1      46.377  18.294  39.060  1.00  0.00     0.043 A 
ATOM     16  C   UNL A   1      45.157  17.717  38.641  1.00  0.00     0.074 A 
BRANCH   8  17
ATOM     17  C   UNL A   1      48.272  20.600  35.482  1.00  0.00     0.001 A 
ATOM     18  C   UNL A   1      50.597  21.975  34.684  1.00  0.00     0.118 A 
ATOM     19  C   UNL A   1      50.494  20.591  34.520  1.00  0.00     0.047 A 
ATOM     20  C   UNL A   1      49.540  22.669  35.269  1.00  0.00     0.047 A 
ATOM     21  C   UNL A   1      49.347  19.903  34.922  1.00  0.00     0.014 A 
ATOM     22  C   UNL A   1      48.388  21.984  35.675  1.00  0.00     0.014 A 
BRANCH  18  23
ATOM     23  O   UNL A   1      51.754  22.522  34.204  1.00  0.00    -0.497 OA
ATOM     24  C   UNL A   1      52.960  22.212  34.901  1.00  0.00     0.278 C 
ENDBRANCH  18  23
ENDBRANCH   8  17
BRANCH  16  25
ATOM     25  C   UNL A   1      44.379  16.985  39.654  1.00  0.00     0.000 A 
ATOM     26  C   UNL A   1      43.330  16.126  39.309  1.00  0.00     0.011 A 
ATOM     27  C   UNL A   1      44.759  17.059  41.010  1.00  0.00     0.011 A 
ATOM     28  C   UNL A   1      42.704  15.339  40.285  1.00  0.00     0.014 A 
ATOM     29  C   UNL A   1      44.137  16.277  41.984  1.00  0.00     0.014 A 
ATOM     30  C   UNL A   1      43.106  15.400  41.630  1.00  0.00     0.056 A 
BRANCH  30  31
ATOM     31  C   UNL A   1      42.436  14.534  42.668  1.00  0.00     0.416 C 
ATOM     32  F   UNL A   1      41.200  14.113  42.280  1.00  0.00    -0.166 F 
ATOM     33  F   UNL A   1      43.146  13.407  42.947  1.00  0.00    -0.166 F 
ATOM     34  F   UNL A   1      42.254  15.162  43.866  1.00  0.00    -0.166 F 
ENDBRANCH  30  31
ENDBRANCH  16  25
ENDBRANCH   4   7
ENDBRANCH   2   3
ENDBRANCH   1   2
BRANCH   1  35
ATOM     35  C   UNL A   1      46.941  24.574  37.877  1.00  0.00     0.118 C 
BRANCH  35  36
ATOM     36  N   UNL A   1      45.506  24.275  37.905  1.00  0.00    -0.352 N 
ATOM     37  C   UNL A   1      44.547  24.536  36.945  1.00  0.00     0.251 C 
ATOM     38  H   UNL A   1      45.181  23.825  38.719  1.00  0.00     0.163 HD
ATOM     39  O   UNL A   1      43.355  24.531  37.243  1.00  0.00    -0.269 OA
BRANCH  37  40
ATOM     40  C   UNL A   1      44.983  24.825  35.572  1.00  0.00     0.039 A 
ATOM     41  C   UNL A   1      45.377  23.814  34.691  1.00  0.00     0.014 A 
ATOM     42  C   UNL A   1      44.926  26.149  35.154  1.00  0.00     0.014 A 
ATOM     43  C   UNL A   1      45.625  24.147  33.362  1.00  0.00     0.010 A 
ATOM     44  C   UNL A   1      44.952  26.433  33.819  1.00  0.00     0.010 A 
ATOM     45  C   UNL A   1      45.382  25.460  32.929  1.00  0.00    -0.014 A 
BRANCH  45  46
ATOM     46  C   UNL A   1      45.471  25.836  31.524  1.00  0.00     0.031 A 
ATOM     47  C   UNL A   1      46.531  26.830  31.229  1.00  0.00     0.074 A 
ATOM     48  C   UNL A   1      44.811  25.164  30.553  1.00  0.00     0.049 A 
ATOM     49  N   UNL A   1      46.379  28.083  30.955  1.00  0.00    -0.248 NA
ATOM     50  C   UNL A   1      47.934  26.440  31.446  1.00  0.00     0.031 C 
ATOM     51  C   UNL A   1      43.971  23.964  30.688  1.00  0.00     0.029 A 
ATOM     52  N   UNL A   1      44.830  25.359  29.207  1.00  0.00    -0.354 N 
ATOM     53  C   UNL A   1      47.657  28.570  30.698  1.00  0.00     0.074 A 
ATOM     54  C   UNL A   1      48.565  27.600  31.247  1.00  0.00     0.031 C 
ATOM     55  C   UNL A   1      43.756  23.415  29.473  1.00  0.00     0.029 A 
ATOM     56  C   UNL A   1      44.269  24.322  28.467  1.00  0.00     0.049 A 
ATOM     57  H   UNL A   1      45.209  26.166  28.791  1.00  0.00     0.167 HD
ATOM     58  C   UNL A   1      47.849  29.577  29.799  1.00  0.00     0.037 A 
ATOM     59  C   UNL A   1      44.214  24.217  27.117  1.00  0.00     0.037 A 
ATOM     60  C   UNL A   1      46.587  30.188  29.453  1.00  0.00     0.049 A 
ATOM     61  C   UNL A   1      44.355  25.591  26.583  1.00  0.00     0.074 A 
ATOM     62  C   UNL A   1      45.623  30.912  30.123  1.00  0.00     0.029 A 
ATOM     63  N   UNL A   1      45.997  29.715  28.305  1.00  0.00    -0.354 N 
ATOM     64  N   UNL A   1      43.479  26.537  26.790  1.00  0.00    -0.248 NA
ATOM     65  C   UNL A   1      45.678  26.050  26.185  1.00  0.00     0.031 C 
ATOM     66  C   UNL A   1      44.382  30.531  29.530  1.00  0.00     0.029 A 
ATOM     67  C   UNL A   1      44.641  29.641  28.485  1.00  0.00     0.049 A 
ATOM     68  H   UNL A   1      46.475  29.466  27.480  1.00  0.00     0.167 HD
ATOM     69  C   UNL A   1      44.233  27.686  26.975  1.00  0.00     0.074 A 
ATOM     70  C   UNL A   1      45.554  27.354  26.450  1.00  0.00     0.031 C 
ATOM     71  C   UNL A   1      43.792  28.685  27.797  1.00  0.00     0.037 A 
BRANCH  58  72
ATOM     72  C   UNL A   1      49.060  29.725  28.892  1.00  0.00     0.058 A 
ATOM     73  C   UNL A   1      49.731  30.968  28.856  1.00  0.00     0.135 A 
ATOM     74  C   UNL A   1      49.402  28.828  27.857  1.00  0.00     0.135 A 
ATOM     75  F   UNL A   1      49.499  31.898  29.797  1.00  0.00    -0.206 F 
ATOM     76  C   UNL A   1      50.591  31.329  27.818  1.00  0.00     0.059 A 
ATOM     77  C   UNL A   1      50.296  29.149  26.840  1.00  0.00     0.059 A 
ATOM     78  F   UNL A   1      48.822  27.633  27.713  1.00  0.00    -0.206 F 
ATOM     79  C   UNL A   1      50.849  30.416  26.801  1.00  0.00     0.060 A 
BRANCH  79  80
ATOM     80  S   UNL A   1      51.861  30.914  25.398  1.00  0.00     0.124 S 
ATOM     81  O   UNL A   1      51.356  32.256  25.137  1.00  0.00    -0.237 OA
ATOM     82  O   UNL A   1      53.208  30.830  25.952  1.00  0.00    -0.237 OA
ATOM     83  O   UNL A   1      51.543  29.912  24.384  1.00  0.00    -0.744 OA
ENDBRANCH  79  80
ENDBRANCH  58  72
BRANCH  59  84
ATOM     84  C   UNL A   1      44.334  22.992  26.287  1.00  0.00     0.058 A 
ATOM     85  C   UNL A   1      45.582  22.459  25.920  1.00  0.00     0.135 A 
ATOM     86  C   UNL A   1      43.215  22.164  26.065  1.00  0.00     0.135 A 
ATOM     87  F   UNL A   1      46.703  23.168  26.123  1.00  0.00    -0.206 F 
ATOM     88  C   UNL A   1      45.717  21.167  25.395  1.00  0.00     0.059 A 
ATOM     89  C   UNL A   1      43.324  20.878  25.541  1.00  0.00     0.059 A 
ATOM     90  F   UNL A   1      41.986  22.553  26.439  1.00  0.00    -0.206 F 
ATOM     91  C   UNL A   1      44.580  20.376  25.225  1.00  0.00     0.060 A 
BRANCH  91  92
ATOM     92  S   UNL A   1      44.752  18.657  24.683  1.00  0.00     0.124 S 
ATOM     93  O   UNL A   1      43.528  18.054  25.194  1.00  0.00    -0.237 OA
ATOM     94  O   UNL A   1      44.839  18.799  23.233  1.00  0.00    -0.237 OA
ATOM     95  O   UNL A   1      45.983  18.219  25.339  1.00  0.00    -0.744 OA
ENDBRANCH  91  92
ENDBRANCH  59  84
BRANCH  71  96
ATOM     96  C   UNL A   1      42.330  28.692  28.170  1.00  0.00     0.058 A 
ATOM     97  C   UNL A   1      41.821  28.320  29.428  1.00  0.00     0.135 A 
ATOM     98  C   UNL A   1      41.424  29.242  27.253  1.00  0.00     0.135 A 
ATOM     99  F   UNL A   1      42.630  27.866  30.392  1.00  0.00    -0.206 F 
ATOM    100  C   UNL A   1      40.469  28.468  29.747  1.00  0.00     0.059 A 
ATOM    101  C   UNL A   1      40.079  29.426  27.561  1.00  0.00     0.059 A 
ATOM    102  F   UNL A   1      41.859  29.668  26.055  1.00  0.00    -0.206 F 
ATOM    103  C   UNL A   1      39.606  29.029  28.808  1.00  0.00     0.060 A 
BRANCH 103 104
ATOM    104  S   UNL A   1      37.878  29.310  29.255  1.00  0.00     0.124 S 
ATOM    105  O   UNL A   1      37.862  30.742  29.534  1.00  0.00    -0.237 OA
ATOM    106  O   UNL A   1      37.165  28.889  28.053  1.00  0.00    -0.237 OA
ATOM    107  O   UNL A   1      37.683  28.446  30.418  1.00  0.00    -0.744 OA
ENDBRANCH 103 104
ENDBRANCH  71  96
ENDBRANCH  45  46
ENDBRANCH  37  40
ENDBRANCH  35  36
ENDBRANCH   1  35
TORSDOF 17
ENDMDL
