MODEL 1
REMARK VINA RESULT:     -12.7      0.000      0.000
REMARK SMILES O=C(NCCCNC(=O)c1cc(Br)ccc1OC(=O)c1ccc(F)cc1)c1ccc(-c2c3nc(c(-c4c(F)cc(S(=O)(=O)[O-])cc4F)c4ccc([nH]4)c(-c4c(F)cc(S(=O)(=O)[O-])cc4F)c4nc(c(-c5c(F)cc(S(=O)(=O)[O-])cc5F)c5ccc2[nH]5)C=C4)C=C3)cc1
REMARK SMILES IDX 5 1 4 2 3 3 1 4 2 5 27 7 28 8 92 9 29 10 91 11 30 12 31 13
REMARK SMILES IDX 32 14 85 15 33 16 90 17 84 18 86 19 34 20 89 21 83 22 82 23
REMARK SMILES IDX 35 25 69 26 48 27 68 28 49 29 52 30 67 31 87 32 50 33 51 34
REMARK SMILES IDX 66 36 88 37 53 38 36 39 37 40 46 41 38 42 39 43 45 44 47 45
REMARK SMILES IDX 40 46 41 47 42 48 43 49 44 50 70 51 71 52 80 53 72 54 73 55
REMARK SMILES IDX 79 56 81 57 74 58 75 59 76 60 77 61 78 62 54 63 55 64 64 65
REMARK SMILES IDX 56 66 57 67 63 68 65 69 58 70 59 71 60 72 61 73 62 74 6 75
REMARK SMILES IDX 7 76 8 77 9 79 10 80 11 81 16 82 12 83 15 84 13 85 14 86
REMARK SMILES IDX 17 87 18 88 19 89 20 90 21 91 26 92 22 93 25 94 23 95 24 96
REMARK H PARENT 3 6 86 24 52 35 7 78
REMARK Flexibility Score: inf
ROOT
ATOM      1  C   UNL A   1      34.241  31.012  27.667  1.00  0.00     0.042 C 
ENDROOT
BRANCH   1   2
ATOM      2  C   UNL A   1      35.524  31.419  28.382  1.00  0.00     0.118 C 
BRANCH   2   3
ATOM      3  N   UNL A   1      35.525  31.058  29.795  1.00  0.00    -0.352 N 
ATOM      4  O   UNL A   1      36.082  30.012  31.696  1.00  0.00    -0.269 OA
ATOM      5  C   UNL A   1      36.414  30.338  30.557  1.00  0.00     0.251 C 
ATOM      6  H   UNL A   1      34.746  31.391  30.296  1.00  0.00     0.163 HD
BRANCH   5   7
ATOM      7  C   UNL A   1      37.742  29.934  30.037  1.00  0.00     0.039 A 
ATOM      8  C   UNL A   1      38.739  29.443  30.878  1.00  0.00     0.014 A 
ATOM      9  C   UNL A   1      37.972  29.985  28.656  1.00  0.00     0.014 A 
ATOM     10  C   UNL A   1      40.004  29.163  30.371  1.00  0.00     0.010 A 
ATOM     11  C   UNL A   1      39.218  29.611  28.134  1.00  0.00     0.010 A 
ATOM     12  C   UNL A   1      40.259  29.235  28.992  1.00  0.00    -0.014 A 
BRANCH  12  13
ATOM     13  C   UNL A   1      41.609  28.871  28.485  1.00  0.00     0.031 A 
ATOM     14  C   UNL A   1      42.747  29.855  28.529  1.00  0.00     0.074 A 
ATOM     15  C   UNL A   1      41.824  27.616  28.045  1.00  0.00     0.049 A 
ATOM     16  N   UNL A   1      44.003  29.674  28.203  1.00  0.00    -0.248 NA
ATOM     17  C   UNL A   1      42.440  31.217  28.992  1.00  0.00     0.031 C 
ATOM     18  C   UNL A   1      40.797  26.574  27.943  1.00  0.00     0.029 A 
ATOM     19  N   UNL A   1      42.973  26.986  27.641  1.00  0.00    -0.354 N 
ATOM     20  C   UNL A   1      44.632  30.895  28.411  1.00  0.00     0.074 A 
ATOM     21  C   UNL A   1      43.614  31.820  28.861  1.00  0.00     0.031 C 
ATOM     22  C   UNL A   1      41.376  25.421  27.581  1.00  0.00     0.029 A 
ATOM     23  C   UNL A   1      42.802  25.649  27.372  1.00  0.00     0.049 A 
ATOM     24  H   UNL A   1      43.839  27.447  27.553  1.00  0.00     0.167 HD
ATOM     25  C   UNL A   1      45.940  31.212  28.255  1.00  0.00     0.037 A 
ATOM     26  C   UNL A   1      43.689  24.705  27.003  1.00  0.00     0.037 A 
ATOM     27  C   UNL A   1      46.954  30.286  27.819  1.00  0.00     0.049 A 
ATOM     28  C   UNL A   1      45.131  25.080  26.832  1.00  0.00     0.074 A 
ATOM     29  C   UNL A   1      48.307  30.515  27.633  1.00  0.00     0.029 A 
ATOM     30  N   UNL A   1      46.730  28.952  27.510  1.00  0.00    -0.354 N 
ATOM     31  N   UNL A   1      45.705  26.243  27.027  1.00  0.00    -0.248 NA
ATOM     32  C   UNL A   1      46.044  24.022  26.383  1.00  0.00     0.031 C 
ATOM     33  C   UNL A   1      48.896  29.327  27.184  1.00  0.00     0.029 A 
ATOM     34  C   UNL A   1      47.916  28.349  27.125  1.00  0.00     0.049 A 
ATOM     35  H   UNL A   1      45.856  28.501  27.557  1.00  0.00     0.167 HD
ATOM     36  C   UNL A   1      47.048  26.059  26.724  1.00  0.00     0.074 A 
ATOM     37  C   UNL A   1      47.205  24.666  26.353  1.00  0.00     0.031 C 
ATOM     38  C   UNL A   1      48.056  26.964  26.746  1.00  0.00     0.037 A 
BRANCH  25  39
ATOM     39  C   UNL A   1      46.351  32.628  28.551  1.00  0.00     0.058 A 
ATOM     40  C   UNL A   1      46.371  33.596  27.534  1.00  0.00     0.135 A 
ATOM     41  C   UNL A   1      46.755  33.021  29.838  1.00  0.00     0.135 A 
ATOM     42  F   UNL A   1      45.991  33.275  26.288  1.00  0.00    -0.206 F 
ATOM     43  C   UNL A   1      46.778  34.904  27.782  1.00  0.00     0.059 A 
ATOM     44  C   UNL A   1      47.147  34.328  30.112  1.00  0.00     0.059 A 
ATOM     45  F   UNL A   1      46.733  32.139  30.850  1.00  0.00    -0.206 F 
ATOM     46  C   UNL A   1      47.164  35.260  29.075  1.00  0.00     0.060 A 
BRANCH  46  47
ATOM     47  S   UNL A   1      47.625  36.976  29.400  1.00  0.00     0.124 S 
ATOM     48  O   UNL A   1      46.932  37.241  30.655  1.00  0.00    -0.237 OA
ATOM     49  O   UNL A   1      49.081  36.896  29.481  1.00  0.00    -0.237 OA
ATOM     50  O   UNL A   1      47.114  37.689  28.233  1.00  0.00    -0.744 OA
ENDBRANCH  46  47
ENDBRANCH  25  39
BRANCH  26  51
ATOM     51  C   UNL A   1      43.221  23.310  26.807  1.00  0.00     0.058 A 
ATOM     52  C   UNL A   1      42.929  22.483  27.902  1.00  0.00     0.135 A 
ATOM     53  C   UNL A   1      43.140  22.753  25.523  1.00  0.00     0.135 A 
ATOM     54  F   UNL A   1      42.999  22.969  29.151  1.00  0.00    -0.206 F 
ATOM     55  C   UNL A   1      42.616  21.139  27.734  1.00  0.00     0.059 A 
ATOM     56  C   UNL A   1      42.809  21.415  25.328  1.00  0.00     0.059 A 
ATOM     57  F   UNL A   1      43.401  23.510  24.446  1.00  0.00    -0.206 F 
ATOM     58  C   UNL A   1      42.574  20.612  26.443  1.00  0.00     0.060 A 
BRANCH  58  59
ATOM     59  S   UNL A   1      42.222  18.851  26.247  1.00  0.00     0.124 S 
ATOM     60  O   UNL A   1      43.201  18.472  25.232  1.00  0.00    -0.237 OA
ATOM     61  O   UNL A   1      42.466  18.336  27.590  1.00  0.00    -0.237 OA
ATOM     62  O   UNL A   1      40.829  18.833  25.814  1.00  0.00    -0.744 OA
ENDBRANCH  58  59
ENDBRANCH  26  51
BRANCH  38  63
ATOM     63  C   UNL A   1      49.423  26.481  26.356  1.00  0.00     0.058 A 
ATOM     64  C   UNL A   1      50.263  25.874  27.301  1.00  0.00     0.135 A 
ATOM     65  C   UNL A   1      49.919  26.669  25.057  1.00  0.00     0.135 A 
ATOM     66  F   UNL A   1      49.835  25.673  28.558  1.00  0.00    -0.206 F 
ATOM     67  C   UNL A   1      51.556  25.479  26.975  1.00  0.00     0.059 A 
ATOM     68  C   UNL A   1      51.203  26.264  24.703  1.00  0.00     0.059 A 
ATOM     69  F   UNL A   1      49.147  27.233  24.115  1.00  0.00    -0.206 F 
ATOM     70  C   UNL A   1      52.019  25.683  25.673  1.00  0.00     0.060 A 
BRANCH  70  71
ATOM     71  S   UNL A   1      53.691  25.145  25.257  1.00  0.00     0.124 S 
ATOM     72  O   UNL A   1      53.547  23.694  25.262  1.00  0.00    -0.237 OA
ATOM     73  O   UNL A   1      53.900  25.758  23.950  1.00  0.00    -0.237 OA
ATOM     74  O   UNL A   1      54.502  25.701  26.338  1.00  0.00    -0.744 OA
ENDBRANCH  70  71
ENDBRANCH  38  63
ENDBRANCH  12  13
ENDBRANCH   5   7
ENDBRANCH   2   3
ENDBRANCH   1   2
BRANCH   1  75
ATOM     75  C   UNL A   1      34.193  29.550  27.242  1.00  0.00     0.118 C 
BRANCH  75  76
ATOM     76  N   UNL A   1      32.951  28.879  27.610  1.00  0.00    -0.352 N 
ATOM     77  C   UNL A   1      32.202  27.953  26.924  1.00  0.00     0.255 C 
ATOM     78  H   UNL A   1      32.592  29.130  28.490  1.00  0.00     0.163 HD
ATOM     79  O   UNL A   1      31.106  27.607  27.357  1.00  0.00    -0.269 OA
BRANCH  77  80
ATOM     80  C   UNL A   1      32.714  27.354  25.675  1.00  0.00     0.083 A 
ATOM     81  C   UNL A   1      33.460  26.169  25.742  1.00  0.00     0.033 A 
ATOM     82  C   UNL A   1      32.392  27.887  24.421  1.00  0.00     0.144 A 
ATOM     83  C   UNL A   1      33.951  25.589  24.574  1.00  0.00     0.019 A 
ATOM     84  C   UNL A   1      32.871  27.290  23.250  1.00  0.00     0.049 A 
ATOM     85  Br  UNL A   1      34.995  24.017  24.683  1.00  0.00    -0.051 Br
ATOM     86  C   UNL A   1      33.673  26.151  23.329  1.00  0.00     0.019 A 
BRANCH  82  87
ATOM     87  O   UNL A   1      31.475  28.934  24.233  1.00  0.00    -0.422 OA
BRANCH  87  88
ATOM     88  C   UNL A   1      30.201  28.605  23.812  1.00  0.00     0.343 C 
ATOM     89  O   UNL A   1      29.647  27.523  23.931  1.00  0.00    -0.246 OA
BRANCH  88  90
ATOM     90  C   UNL A   1      29.572  29.803  23.184  1.00  0.00     0.060 A 
ATOM     91  C   UNL A   1      29.396  31.012  23.880  1.00  0.00     0.019 A 
ATOM     92  C   UNL A   1      29.122  29.703  21.858  1.00  0.00     0.019 A 
ATOM     93  C   UNL A   1      28.782  32.101  23.256  1.00  0.00     0.040 A 
ATOM     94  C   UNL A   1      28.513  30.797  21.236  1.00  0.00     0.040 A 
ATOM     95  C   UNL A   1      28.349  31.984  21.940  1.00  0.00     0.123 A 
ATOM     96  F   UNL A   1      27.762  33.031  21.346  1.00  0.00    -0.207 F 
ENDBRANCH  88  90
ENDBRANCH  87  88
ENDBRANCH  82  87
ENDBRANCH  77  80
ENDBRANCH  75  76
ENDBRANCH   1  75
TORSDOF 16
ENDMDL
MODEL 2
REMARK VINA RESULT:     -12.6      7.001     12.275
REMARK SMILES O=C(NCCCNC(=O)c1cc(Br)ccc1OC(=O)c1ccc(F)cc1)c1ccc(-c2c3nc(c(-c4c(F)cc(S(=O)(=O)[O-])cc4F)c4ccc([nH]4)c(-c4c(F)cc(S(=O)(=O)[O-])cc4F)c4nc(c(-c5c(F)cc(S(=O)(=O)[O-])cc5F)c5ccc2[nH]5)C=C4)C=C3)cc1
REMARK SMILES IDX 5 1 4 2 3 3 1 4 2 5 27 7 28 8 92 9 29 10 91 11 30 12 31 13
REMARK SMILES IDX 32 14 85 15 33 16 90 17 84 18 86 19 34 20 89 21 83 22 82 23
REMARK SMILES IDX 35 25 69 26 48 27 68 28 49 29 52 30 67 31 87 32 50 33 51 34
REMARK SMILES IDX 66 36 88 37 53 38 36 39 37 40 46 41 38 42 39 43 45 44 47 45
REMARK SMILES IDX 40 46 41 47 42 48 43 49 44 50 70 51 71 52 80 53 72 54 73 55
REMARK SMILES IDX 79 56 81 57 74 58 75 59 76 60 77 61 78 62 54 63 55 64 64 65
REMARK SMILES IDX 56 66 57 67 63 68 65 69 58 70 59 71 60 72 61 73 62 74 6 75
REMARK SMILES IDX 7 76 8 77 9 79 10 80 11 81 16 82 12 83 15 84 13 85 14 86
REMARK SMILES IDX 17 87 18 88 19 89 20 90 21 91 26 92 22 93 25 94 23 95 24 96
REMARK H PARENT 3 6 86 24 52 35 7 78
REMARK Flexibility Score: inf
ROOT
ATOM      1  C   UNL A   1      36.906  23.601  25.545  1.00  0.00     0.042 C 
ENDROOT
BRANCH   1   2
ATOM      2  C   UNL A   1      37.971  23.879  26.599  1.00  0.00     0.118 C 
BRANCH   2   3
ATOM      3  N   UNL A   1      39.299  24.070  26.026  1.00  0.00    -0.352 N 
ATOM      4  O   UNL A   1      41.253  25.047  25.531  1.00  0.00    -0.269 OA
ATOM      5  C   UNL A   1      40.292  24.981  26.297  1.00  0.00     0.251 C 
ATOM      6  H   UNL A   1      39.526  23.429  25.315  1.00  0.00     0.163 HD
BRANCH   5   7
ATOM      7  C   UNL A   1      40.225  25.888  27.467  1.00  0.00     0.039 A 
ATOM      8  C   UNL A   1      39.486  25.564  28.603  1.00  0.00     0.014 A 
ATOM      9  C   UNL A   1      40.981  27.067  27.453  1.00  0.00     0.014 A 
ATOM     10  C   UNL A   1      39.368  26.481  29.644  1.00  0.00     0.010 A 
ATOM     11  C   UNL A   1      40.939  27.946  28.543  1.00  0.00     0.010 A 
ATOM     12  C   UNL A   1      40.099  27.680  29.633  1.00  0.00    -0.014 A 
BRANCH  12  13
ATOM     13  C   UNL A   1      39.990  28.606  30.792  1.00  0.00     0.031 A 
ATOM     14  C   UNL A   1      40.973  28.547  31.929  1.00  0.00     0.074 A 
ATOM     15  C   UNL A   1      39.034  29.556  30.780  1.00  0.00     0.049 A 
ATOM     16  N   UNL A   1      41.069  29.330  32.974  1.00  0.00    -0.248 NA
ATOM     17  C   UNL A   1      41.974  27.469  31.897  1.00  0.00     0.031 C 
ATOM     18  C   UNL A   1      38.015  29.708  29.737  1.00  0.00     0.029 A 
ATOM     19  N   UNL A   1      38.784  30.594  31.640  1.00  0.00    -0.354 N 
ATOM     20  C   UNL A   1      42.129  28.838  33.726  1.00  0.00     0.074 A 
ATOM     21  C   UNL A   1      42.625  27.667  33.035  1.00  0.00     0.031 C 
ATOM     22  C   UNL A   1      37.303  30.818  29.978  1.00  0.00     0.029 A 
ATOM     23  C   UNL A   1      37.775  31.426  31.218  1.00  0.00     0.049 A 
ATOM     24  H   UNL A   1      39.280  30.730  32.480  1.00  0.00     0.167 HD
ATOM     25  C   UNL A   1      42.649  29.325  34.879  1.00  0.00     0.037 A 
ATOM     26  C   UNL A   1      37.283  32.557  31.759  1.00  0.00     0.037 A 
ATOM     27  C   UNL A   1      42.162  30.498  35.558  1.00  0.00     0.049 A 
ATOM     28  C   UNL A   1      37.871  33.075  33.038  1.00  0.00     0.074 A 
ATOM     29  C   UNL A   1      42.625  31.069  36.731  1.00  0.00     0.029 A 
ATOM     30  N   UNL A   1      41.106  31.285  35.123  1.00  0.00    -0.354 N 
ATOM     31  N   UNL A   1      38.869  32.590  33.737  1.00  0.00    -0.248 NA
ATOM     32  C   UNL A   1      37.264  34.284  33.607  1.00  0.00     0.031 C 
ATOM     33  C   UNL A   1      41.832  32.186  37.019  1.00  0.00     0.029 A 
ATOM     34  C   UNL A   1      40.896  32.331  36.007  1.00  0.00     0.049 A 
ATOM     35  H   UNL A   1      40.582  31.124  34.305  1.00  0.00     0.167 HD
ATOM     36  C   UNL A   1      39.011  33.434  34.830  1.00  0.00     0.074 A 
ATOM     37  C   UNL A   1      38.010  34.474  34.689  1.00  0.00     0.031 C 
ATOM     38  C   UNL A   1      39.889  33.351  35.861  1.00  0.00     0.037 A 
BRANCH  25  39
ATOM     39  C   UNL A   1      43.807  28.582  35.486  1.00  0.00     0.058 A 
ATOM     40  C   UNL A   1      45.126  28.878  35.107  1.00  0.00     0.135 A 
ATOM     41  C   UNL A   1      43.609  27.555  36.423  1.00  0.00     0.135 A 
ATOM     42  F   UNL A   1      45.372  29.854  34.219  1.00  0.00    -0.206 F 
ATOM     43  C   UNL A   1      46.209  28.181  35.635  1.00  0.00     0.059 A 
ATOM     44  C   UNL A   1      44.679  26.857  36.978  1.00  0.00     0.059 A 
ATOM     45  F   UNL A   1      42.369  27.248  36.835  1.00  0.00    -0.206 F 
ATOM     46  C   UNL A   1      45.975  27.172  36.570  1.00  0.00     0.060 A 
BRANCH  46  47
ATOM     47  S   UNL A   1      47.391  26.319  37.299  1.00  0.00     0.124 S 
ATOM     48  O   UNL A   1      47.302  26.729  38.695  1.00  0.00    -0.237 OA
ATOM     49  O   UNL A   1      47.083  24.918  37.026  1.00  0.00    -0.237 OA
ATOM     50  O   UNL A   1      48.526  26.854  36.553  1.00  0.00    -0.744 OA
ENDBRANCH  46  47
ENDBRANCH  25  39
BRANCH  26  51
ATOM     51  C   UNL A   1      36.192  33.279  31.057  1.00  0.00     0.058 A 
ATOM     52  C   UNL A   1      36.442  34.009  29.886  1.00  0.00     0.135 A 
ATOM     53  C   UNL A   1      34.898  33.323  31.595  1.00  0.00     0.135 A 
ATOM     54  F   UNL A   1      37.667  34.004  29.338  1.00  0.00    -0.206 F 
ATOM     55  C   UNL A   1      35.458  34.793  29.295  1.00  0.00     0.059 A 
ATOM     56  C   UNL A   1      33.890  34.084  31.010  1.00  0.00     0.059 A 
ATOM     57  F   UNL A   1      34.610  32.631  32.708  1.00  0.00    -0.206 F 
ATOM     58  C   UNL A   1      34.189  34.835  29.874  1.00  0.00     0.060 A 
BRANCH  58  59
ATOM     59  S   UNL A   1      32.940  35.904  29.126  1.00  0.00     0.124 S 
ATOM     60  O   UNL A   1      32.094  36.209  30.275  1.00  0.00    -0.237 OA
ATOM     61  O   UNL A   1      33.745  37.010  28.617  1.00  0.00    -0.237 OA
ATOM     62  O   UNL A   1      32.335  35.052  28.108  1.00  0.00    -0.744 OA
ENDBRANCH  58  59
ENDBRANCH  26  51
BRANCH  38  63
ATOM     63  C   UNL A   1      39.806  34.410  36.921  1.00  0.00     0.058 A 
ATOM     64  C   UNL A   1      38.959  34.250  38.028  1.00  0.00     0.135 A 
ATOM     65  C   UNL A   1      40.528  35.609  36.812  1.00  0.00     0.135 A 
ATOM     66  F   UNL A   1      38.247  33.121  38.177  1.00  0.00    -0.206 F 
ATOM     67  C   UNL A   1      38.820  35.248  38.986  1.00  0.00     0.059 A 
ATOM     68  C   UNL A   1      40.419  36.613  37.769  1.00  0.00     0.059 A 
ATOM     69  F   UNL A   1      41.361  35.803  35.778  1.00  0.00    -0.206 F 
ATOM     70  C   UNL A   1      39.552  36.429  38.845  1.00  0.00     0.060 A 
BRANCH  70  71
ATOM     71  S   UNL A   1      39.379  37.706  40.109  1.00  0.00     0.124 S 
ATOM     72  O   UNL A   1      38.250  38.477  39.603  1.00  0.00    -0.237 OA
ATOM     73  O   UNL A   1      39.125  36.922  41.313  1.00  0.00    -0.237 OA
ATOM     74  O   UNL A   1      40.671  38.388  40.077  1.00  0.00    -0.744 OA
ENDBRANCH  70  71
ENDBRANCH  38  63
ENDBRANCH  12  13
ENDBRANCH   5   7
ENDBRANCH   2   3
ENDBRANCH   1   2
BRANCH   1  75
ATOM     75  C   UNL A   1      35.615  24.390  25.730  1.00  0.00     0.118 C 
BRANCH  75  76
ATOM     76  N   UNL A   1      34.971  24.752  24.472  1.00  0.00    -0.352 N 
ATOM     77  C   UNL A   1      33.895  25.570  24.225  1.00  0.00     0.255 C 
ATOM     78  H   UNL A   1      35.371  24.344  23.672  1.00  0.00     0.163 HD
ATOM     79  O   UNL A   1      33.421  25.639  23.094  1.00  0.00    -0.269 OA
BRANCH  77  80
ATOM     80  C   UNL A   1      33.312  26.385  25.310  1.00  0.00     0.083 A 
ATOM     81  C   UNL A   1      33.943  27.581  25.681  1.00  0.00     0.033 A 
ATOM     82  C   UNL A   1      32.094  26.043  25.911  1.00  0.00     0.144 A 
ATOM     83  C   UNL A   1      33.407  28.363  26.702  1.00  0.00     0.019 A 
ATOM     84  C   UNL A   1      31.550  26.843  26.921  1.00  0.00     0.049 A 
ATOM     85  Br  UNL A   1      34.295  29.949  27.223  1.00  0.00    -0.051 Br
ATOM     86  C   UNL A   1      32.222  27.994  27.334  1.00  0.00     0.019 A 
BRANCH  82  87
ATOM     87  O   UNL A   1      31.273  24.995  25.463  1.00  0.00    -0.422 OA
BRANCH  87  88
ATOM     88  C   UNL A   1      31.140  23.889  26.280  1.00  0.00     0.343 C 
ATOM     89  O   UNL A   1      30.353  23.753  27.205  1.00  0.00    -0.246 OA
BRANCH  88  90
ATOM     90  C   UNL A   1      32.113  22.845  25.849  1.00  0.00     0.060 A 
ATOM     91  C   UNL A   1      32.216  22.417  24.513  1.00  0.00     0.019 A 
ATOM     92  C   UNL A   1      32.937  22.258  26.823  1.00  0.00     0.019 A 
ATOM     93  C   UNL A   1      33.130  21.421  24.161  1.00  0.00     0.040 A 
ATOM     94  C   UNL A   1      33.853  21.265  26.464  1.00  0.00     0.040 A 
ATOM     95  C   UNL A   1      33.941  20.856  25.139  1.00  0.00     0.123 A 
ATOM     96  F   UNL A   1      34.816  19.902  24.795  1.00  0.00    -0.207 F 
ENDBRANCH  88  90
ENDBRANCH  87  88
ENDBRANCH  82  87
ENDBRANCH  77  80
ENDBRANCH  75  76
ENDBRANCH   1  75
TORSDOF 16
ENDMDL
MODEL 3
REMARK VINA RESULT:     -12.6      7.077     12.671
REMARK SMILES O=C(NCCCNC(=O)c1cc(Br)ccc1OC(=O)c1ccc(F)cc1)c1ccc(-c2c3nc(c(-c4c(F)cc(S(=O)(=O)[O-])cc4F)c4ccc([nH]4)c(-c4c(F)cc(S(=O)(=O)[O-])cc4F)c4nc(c(-c5c(F)cc(S(=O)(=O)[O-])cc5F)c5ccc2[nH]5)C=C4)C=C3)cc1
REMARK SMILES IDX 5 1 4 2 3 3 1 4 2 5 27 7 28 8 92 9 29 10 91 11 30 12 31 13
REMARK SMILES IDX 32 14 85 15 33 16 90 17 84 18 86 19 34 20 89 21 83 22 82 23
REMARK SMILES IDX 35 25 69 26 48 27 68 28 49 29 52 30 67 31 87 32 50 33 51 34
REMARK SMILES IDX 66 36 88 37 53 38 36 39 37 40 46 41 38 42 39 43 45 44 47 45
REMARK SMILES IDX 40 46 41 47 42 48 43 49 44 50 70 51 71 52 80 53 72 54 73 55
REMARK SMILES IDX 79 56 81 57 74 58 75 59 76 60 77 61 78 62 54 63 55 64 64 65
REMARK SMILES IDX 56 66 57 67 63 68 65 69 58 70 59 71 60 72 61 73 62 74 6 75
REMARK SMILES IDX 7 76 8 77 9 79 10 80 11 81 16 82 12 83 15 84 13 85 14 86
REMARK SMILES IDX 17 87 18 88 19 89 20 90 21 91 26 92 22 93 25 94 23 95 24 96
REMARK H PARENT 3 6 86 24 52 35 7 78
REMARK Flexibility Score: inf
ROOT
ATOM      1  C   UNL A   1      38.578  22.211  26.051  1.00  0.00     0.042 C 
ENDROOT
BRANCH   1   2
ATOM      2  C   UNL A   1      39.307  23.301  26.826  1.00  0.00     0.118 C 
BRANCH   2   3
ATOM      3  N   UNL A   1      40.462  23.832  26.110  1.00  0.00    -0.352 N 
ATOM      4  O   UNL A   1      41.987  25.299  25.376  1.00  0.00    -0.269 OA
ATOM      5  C   UNL A   1      41.162  25.007  26.241  1.00  0.00     0.251 C 
ATOM      6  H   UNL A   1      40.803  23.239  25.402  1.00  0.00     0.163 HD
BRANCH   5   7
ATOM      7  C   UNL A   1      40.936  25.930  27.378  1.00  0.00     0.039 A 
ATOM      8  C   UNL A   1      41.645  27.124  27.505  1.00  0.00     0.014 A 
ATOM      9  C   UNL A   1      39.936  25.623  28.310  1.00  0.00     0.014 A 
ATOM     10  C   UNL A   1      41.475  27.919  28.635  1.00  0.00     0.010 A 
ATOM     11  C   UNL A   1      39.698  26.474  29.398  1.00  0.00     0.010 A 
ATOM     12  C   UNL A   1      40.494  27.610  29.592  1.00  0.00    -0.014 A 
BRANCH  12  13
ATOM     13  C   UNL A   1      40.306  28.519  30.755  1.00  0.00     0.031 A 
ATOM     14  C   UNL A   1      41.238  28.474  31.935  1.00  0.00     0.074 A 
ATOM     15  C   UNL A   1      39.324  29.440  30.710  1.00  0.00     0.049 A 
ATOM     16  N   UNL A   1      41.264  29.248  32.991  1.00  0.00    -0.248 NA
ATOM     17  C   UNL A   1      42.271  27.427  31.936  1.00  0.00     0.031 C 
ATOM     18  C   UNL A   1      38.349  29.576  29.623  1.00  0.00     0.029 A 
ATOM     19  N   UNL A   1      39.004  30.460  31.569  1.00  0.00    -0.354 N 
ATOM     20  C   UNL A   1      42.303  28.778  33.786  1.00  0.00     0.074 A 
ATOM     21  C   UNL A   1      42.864  27.630  33.105  1.00  0.00     0.031 C 
ATOM     22  C   UNL A   1      37.593  30.661  29.843  1.00  0.00     0.029 A 
ATOM     23  C   UNL A   1      37.991  31.268  31.110  1.00  0.00     0.049 A 
ATOM     24  H   UNL A   1      39.457  30.601  32.431  1.00  0.00     0.167 HD
ATOM     25  C   UNL A   1      42.755  29.266  34.965  1.00  0.00     0.037 A 
ATOM     26  C   UNL A   1      37.441  32.377  31.641  1.00  0.00     0.037 A 
ATOM     27  C   UNL A   1      42.204  30.415  35.634  1.00  0.00     0.049 A 
ATOM     28  C   UNL A   1      37.956  32.896  32.950  1.00  0.00     0.074 A 
ATOM     29  C   UNL A   1      42.597  30.986  36.834  1.00  0.00     0.029 A 
ATOM     30  N   UNL A   1      41.145  31.177  35.160  1.00  0.00    -0.354 N 
ATOM     31  N   UNL A   1      38.936  32.433  33.689  1.00  0.00    -0.248 NA
ATOM     32  C   UNL A   1      37.289  34.081  33.504  1.00  0.00     0.031 C 
ATOM     33  C   UNL A   1      41.758  32.075  37.097  1.00  0.00     0.029 A 
ATOM     34  C   UNL A   1      40.865  32.205  36.046  1.00  0.00     0.049 A 
ATOM     35  H   UNL A   1      40.663  31.011  34.318  1.00  0.00     0.167 HD
ATOM     36  C   UNL A   1      39.003  33.268  34.796  1.00  0.00     0.074 A 
ATOM     37  C   UNL A   1      37.979  34.279  34.621  1.00  0.00     0.031 C 
ATOM     38  C   UNL A   1      39.835  33.198  35.865  1.00  0.00     0.037 A 
BRANCH  25  39
ATOM     39  C   UNL A   1      43.906  28.550  35.616  1.00  0.00     0.058 A 
ATOM     40  C   UNL A   1      45.232  28.884  35.297  1.00  0.00     0.135 A 
ATOM     41  C   UNL A   1      43.697  27.510  36.537  1.00  0.00     0.135 A 
ATOM     42  F   UNL A   1      45.488  29.873  34.426  1.00  0.00    -0.206 F 
ATOM     43  C   UNL A   1      46.310  28.212  35.865  1.00  0.00     0.059 A 
ATOM     44  C   UNL A   1      44.761  26.837  37.133  1.00  0.00     0.059 A 
ATOM     45  F   UNL A   1      42.449  27.166  36.894  1.00  0.00    -0.206 F 
ATOM     46  C   UNL A   1      46.064  27.190  36.783  1.00  0.00     0.060 A 
BRANCH  46  47
ATOM     47  S   UNL A   1      47.470  26.370  37.566  1.00  0.00     0.124 S 
ATOM     48  O   UNL A   1      46.816  25.566  38.591  1.00  0.00    -0.237 OA
ATOM     49  O   UNL A   1      48.056  25.629  36.453  1.00  0.00    -0.237 OA
ATOM     50  O   UNL A   1      48.279  27.483  38.055  1.00  0.00    -0.744 OA
ENDBRANCH  46  47
ENDBRANCH  25  39
BRANCH  26  51
ATOM     51  C   UNL A   1      36.362  33.076  30.898  1.00  0.00     0.058 A 
ATOM     52  C   UNL A   1      36.652  33.887  29.790  1.00  0.00     0.135 A 
ATOM     53  C   UNL A   1      35.032  33.013  31.336  1.00  0.00     0.135 A 
ATOM     54  F   UNL A   1      37.912  33.985  29.339  1.00  0.00    -0.206 F 
ATOM     55  C   UNL A   1      35.668  34.647  29.170  1.00  0.00     0.059 A 
ATOM     56  C   UNL A   1      34.025  33.748  30.718  1.00  0.00     0.059 A 
ATOM     57  F   UNL A   1      34.708  32.241  32.385  1.00  0.00    -0.206 F 
ATOM     58  C   UNL A   1      34.359  34.582  29.651  1.00  0.00     0.060 A 
BRANCH  58  59
ATOM     59  S   UNL A   1      33.105  35.619  28.869  1.00  0.00     0.124 S 
ATOM     60  O   UNL A   1      32.352  34.633  28.101  1.00  0.00    -0.237 OA
ATOM     61  O   UNL A   1      32.415  36.190  30.021  1.00  0.00    -0.237 OA
ATOM     62  O   UNL A   1      33.892  36.562  28.082  1.00  0.00    -0.744 OA
ENDBRANCH  58  59
ENDBRANCH  26  51
BRANCH  38  63
ATOM     63  C   UNL A   1      39.674  34.241  36.931  1.00  0.00     0.058 A 
ATOM     64  C   UNL A   1      40.256  35.509  36.785  1.00  0.00     0.135 A 
ATOM     65  C   UNL A   1      38.987  33.965  38.123  1.00  0.00     0.135 A 
ATOM     66  F   UNL A   1      40.925  35.822  35.663  1.00  0.00    -0.206 F 
ATOM     67  C   UNL A   1      40.173  36.466  37.790  1.00  0.00     0.059 A 
ATOM     68  C   UNL A   1      38.875  34.915  39.135  1.00  0.00     0.059 A 
ATOM     69  F   UNL A   1      38.402  32.770  38.304  1.00  0.00    -0.206 F 
ATOM     70  C   UNL A   1      39.484  36.157  38.964  1.00  0.00     0.060 A 
BRANCH  70  71
ATOM     71  S   UNL A   1      39.364  37.417  40.251  1.00  0.00     0.124 S 
ATOM     72  O   UNL A   1      38.711  36.683  41.329  1.00  0.00    -0.237 OA
ATOM     73  O   UNL A   1      40.763  37.767  40.478  1.00  0.00    -0.237 OA
ATOM     74  O   UNL A   1      38.559  38.463  39.625  1.00  0.00    -0.744 OA
ENDBRANCH  70  71
ENDBRANCH  38  63
ENDBRANCH  12  13
ENDBRANCH   5   7
ENDBRANCH   2   3
ENDBRANCH   1   2
BRANCH   1  75
ATOM     75  C   UNL A   1      37.204  22.618  25.531  1.00  0.00     0.118 C 
BRANCH  75  76
ATOM     76  N   UNL A   1      36.144  22.474  26.522  1.00  0.00    -0.352 N 
ATOM     77  C   UNL A   1      34.820  22.843  26.471  1.00  0.00     0.255 C 
ATOM     78  H   UNL A   1      36.420  22.044  27.362  1.00  0.00     0.163 HD
ATOM     79  O   UNL A   1      34.118  22.752  27.473  1.00  0.00    -0.269 OA
BRANCH  77  80
ATOM     80  C   UNL A   1      34.230  23.333  25.208  1.00  0.00     0.083 A 
ATOM     81  C   UNL A   1      34.217  24.710  24.951  1.00  0.00     0.033 A 
ATOM     82  C   UNL A   1      33.771  22.450  24.222  1.00  0.00     0.144 A 
ATOM     83  C   UNL A   1      33.664  25.191  23.765  1.00  0.00     0.019 A 
ATOM     84  C   UNL A   1      33.236  22.938  23.026  1.00  0.00     0.049 A 
ATOM     85  Br  UNL A   1      33.611  27.055  23.452  1.00  0.00    -0.051 Br
ATOM     86  C   UNL A   1      33.161  24.314  22.807  1.00  0.00     0.019 A 
BRANCH  82  87
ATOM     87  O   UNL A   1      33.942  21.058  24.285  1.00  0.00    -0.422 OA
BRANCH  87  88
ATOM     88  C   UNL A   1      32.905  20.305  24.802  1.00  0.00     0.343 C 
ATOM     89  O   UNL A   1      31.785  20.701  25.091  1.00  0.00    -0.246 OA
BRANCH  88  90
ATOM     90  C   UNL A   1      33.356  18.891  24.949  1.00  0.00     0.060 A 
ATOM     91  C   UNL A   1      34.569  18.429  24.409  1.00  0.00     0.019 A 
ATOM     92  C   UNL A   1      32.522  17.992  25.633  1.00  0.00     0.019 A 
ATOM     93  C   UNL A   1      34.940  17.090  24.554  1.00  0.00     0.040 A 
ATOM     94  C   UNL A   1      32.900  16.655  25.780  1.00  0.00     0.040 A 
ATOM     95  C   UNL A   1      34.104  16.216  25.240  1.00  0.00     0.123 A 
ATOM     96  F   UNL A   1      34.464  14.934  25.378  1.00  0.00    -0.207 F 
ENDBRANCH  88  90
ENDBRANCH  87  88
ENDBRANCH  82  87
ENDBRANCH  77  80
ENDBRANCH  75  76
ENDBRANCH   1  75
TORSDOF 16
ENDMDL
