MODEL 1
REMARK VINA RESULT:      -9.8      0.000      0.000
REMARK SMILES CCN(Cc1ccccn1)C(=O)[C@H]([NH3+])CCC(=O)NCCCNC(=O)c1ccc(-c2c3nc(c(-c4c(F)cc(S(=O)(=O)[O-])cc4F)c4ccc([nH]4)c(-c4c(F)cc(S(=O)(=O)[O-])cc4F)c4nc(c(-c5c(F)cc(S(=O)(=O)[O-])cc5F)c5ccc2[nH]5)C=C4)C=C3)cc1
REMARK SMILES IDX 17 1 18 2 19 3 16 5 15 6 13 7 11 8 12 9 3 10 2 11 1 12 4 13
REMARK SMILES IDX 5 14 6 15 10 16 7 17 9 18 8 19 14 20 20 24 21 25 22 26 23 27
REMARK SMILES IDX 24 28 25 30 26 31 27 32 91 33 28 34 90 35 29 36 30 37 31 38
REMARK SMILES IDX 84 39 32 40 89 41 83 42 85 43 33 44 88 45 82 46 81 47 34 49
REMARK SMILES IDX 68 50 47 51 67 52 48 53 51 54 66 55 86 56 49 57 50 58 65 60
REMARK SMILES IDX 87 61 52 62 35 63 36 64 45 65 37 66 38 67 44 68 46 69 39 70
REMARK SMILES IDX 40 71 41 72 42 73 43 74 69 75 70 76 79 77 71 78 72 79 78 80
REMARK SMILES IDX 80 81 73 82 74 83 75 84 76 85 77 86 53 87 54 88 63 89 55 90
REMARK SMILES IDX 56 91 62 92 64 93 57 94 58 95 59 96 60 97 61 98
REMARK H PARENT 19 4 14 21 14 22 14 23 23 29 85 48 51 59
REMARK Flexibility Score: inf
ROOT
ATOM      1  C   UNL A   1      30.728  26.236  25.678  1.00  0.00     0.220 C 
ATOM      2  O   UNL A   1      29.812  25.894  26.429  1.00  0.00    -0.275 OA
ATOM      3  N   UNL A   1      31.065  27.554  25.662  1.00  0.00    -0.356 N 
ATOM      4  H   UNL A   1      30.500  28.114  26.241  1.00  0.00     0.163 HD
ENDROOT
BRANCH   1   5
ATOM      5  C   UNL A   1      31.404  25.222  24.778  1.00  0.00     0.106 C 
BRANCH   5   6
ATOM      6  C   UNL A   1      32.374  24.319  25.556  1.00  0.00     0.085 C 
BRANCH   6   7
ATOM      7  C   UNL A   1      31.806  22.923  25.827  1.00  0.00     0.271 C 
BRANCH   7   8
ATOM      8  C   UNL A   1      32.486  21.825  24.976  1.00  0.00     0.281 C 
ATOM      9  O   UNL A   1      32.198  21.738  23.777  1.00  0.00    -0.268 OA
BRANCH   8  10
ATOM     10  N   UNL A   1      33.232  20.851  25.633  1.00  0.00    -0.332 N 
BRANCH  10  11
ATOM     11  C   UNL A   1      32.786  19.466  25.483  1.00  0.00     0.116 C 
ATOM     12  C   UNL A   1      33.567  18.778  24.362  1.00  0.00     0.027 C 
ENDBRANCH  10  11
BRANCH  10  13
ATOM     13  C   UNL A   1      34.293  21.090  26.623  1.00  0.00     0.175 C 
BRANCH  13  14
ATOM     14  C   UNL A   1      35.512  21.842  26.103  1.00  0.00     0.060 A 
ATOM     15  C   UNL A   1      35.660  23.213  26.307  1.00  0.00     0.026 A 
ATOM     16  N   UNL A   1      36.489  21.122  25.503  1.00  0.00    -0.259 NA
ATOM     17  C   UNL A   1      36.824  23.863  25.908  1.00  0.00     0.004 A 
ATOM     18  C   UNL A   1      37.613  21.775  25.117  1.00  0.00     0.111 A 
ATOM     19  C   UNL A   1      37.828  23.129  25.304  1.00  0.00     0.020 A 
ENDBRANCH  13  14
ENDBRANCH  10  13
ENDBRANCH   8  10
ENDBRANCH   7   8
BRANCH   7  20
ATOM     20  N   UNL A   1      30.351  22.857  25.549  1.00  0.00    -0.347 N 
ATOM     21  H   UNL A   1      30.117  21.935  25.183  1.00  0.00     0.345 HD
ATOM     22  H   UNL A   1      30.105  23.569  24.861  1.00  0.00     0.345 HD
ATOM     23  H   UNL A   1      29.833  23.024  26.411  1.00  0.00     0.345 HD
ENDBRANCH   7  20
ENDBRANCH   6   7
ENDBRANCH   5   6
ENDBRANCH   1   5
BRANCH   3  24
ATOM     24  C   UNL A   1      32.099  28.300  24.957  1.00  0.00     0.117 C 
BRANCH  24  25
ATOM     25  C   UNL A   1      33.446  28.384  25.689  1.00  0.00     0.042 C 
BRANCH  25  26
ATOM     26  C   UNL A   1      33.387  28.535  27.215  1.00  0.00     0.118 C 
BRANCH  26  27
ATOM     27  N   UNL A   1      33.514  29.914  27.630  1.00  0.00    -0.352 N 
ATOM     28  C   UNL A   1      34.564  30.584  28.209  1.00  0.00     0.251 C 
ATOM     29  H   UNL A   1      32.715  30.466  27.469  1.00  0.00     0.163 HD
ATOM     30  O   UNL A   1      34.334  31.707  28.662  1.00  0.00    -0.269 OA
BRANCH  28  31
ATOM     31  C   UNL A   1      35.946  30.030  28.315  1.00  0.00     0.039 A 
ATOM     32  C   UNL A   1      36.349  29.563  29.575  1.00  0.00     0.014 A 
ATOM     33  C   UNL A   1      36.895  30.085  27.288  1.00  0.00     0.014 A 
ATOM     34  C   UNL A   1      37.677  29.191  29.813  1.00  0.00     0.010 A 
ATOM     35  C   UNL A   1      38.221  29.667  27.516  1.00  0.00     0.010 A 
ATOM     36  C   UNL A   1      38.638  29.252  28.792  1.00  0.00    -0.014 A 
BRANCH  36  37
ATOM     37  C   UNL A   1      40.065  28.941  29.115  1.00  0.00     0.031 A 
ATOM     38  C   UNL A   1      40.669  27.604  28.752  1.00  0.00     0.074 A 
ATOM     39  C   UNL A   1      40.858  29.884  29.666  1.00  0.00     0.049 A 
ATOM     40  N   UNL A   1      41.922  27.219  28.809  1.00  0.00    -0.248 NA
ATOM     41  C   UNL A   1      39.748  26.564  28.273  1.00  0.00     0.031 C 
ATOM     42  C   UNL A   1      40.413  31.208  30.098  1.00  0.00     0.029 A 
ATOM     43  N   UNL A   1      42.206  29.880  29.935  1.00  0.00    -0.354 N 
ATOM     44  C   UNL A   1      41.940  25.901  28.365  1.00  0.00     0.074 A 
ATOM     45  C   UNL A   1      40.565  25.536  28.092  1.00  0.00     0.031 C 
ATOM     46  C   UNL A   1      41.473  31.901  30.549  1.00  0.00     0.029 A 
ATOM     47  C   UNL A   1      42.671  31.070  30.447  1.00  0.00     0.049 A 
ATOM     48  H   UNL A   1      42.785  29.100  29.777  1.00  0.00     0.167 HD
ATOM     49  C   UNL A   1      43.000  25.074  28.177  1.00  0.00     0.037 A 
ATOM     50  C   UNL A   1      43.919  31.459  30.780  1.00  0.00     0.037 A 
ATOM     51  C   UNL A   1      44.373  25.428  28.437  1.00  0.00     0.049 A 
ATOM     52  C   UNL A   1      45.083  30.531  30.551  1.00  0.00     0.074 A 
ATOM     53  C   UNL A   1      45.513  24.664  28.239  1.00  0.00     0.029 A 
ATOM     54  N   UNL A   1      44.798  26.642  28.953  1.00  0.00    -0.354 N 
ATOM     55  N   UNL A   1      45.085  29.315  30.060  1.00  0.00    -0.248 NA
ATOM     56  C   UNL A   1      46.418  31.040  30.900  1.00  0.00     0.031 C 
ATOM     57  C   UNL A   1      46.622  25.403  28.669  1.00  0.00     0.029 A 
ATOM     58  C   UNL A   1      46.178  26.644  29.092  1.00  0.00     0.049 A 
ATOM     59  H   UNL A   1      44.207  27.394  29.186  1.00  0.00     0.167 HD
ATOM     60  C   UNL A   1      46.422  28.928  30.009  1.00  0.00     0.074 A 
ATOM     61  C   UNL A   1      47.199  30.042  30.511  1.00  0.00     0.031 C 
ATOM     62  C   UNL A   1      46.954  27.756  29.581  1.00  0.00     0.037 A 
BRANCH  49  63
ATOM     63  C   UNL A   1      42.719  23.690  27.655  1.00  0.00     0.058 A 
ATOM     64  C   UNL A   1      42.639  23.426  26.278  1.00  0.00     0.135 A 
ATOM     65  C   UNL A   1      42.570  22.606  28.537  1.00  0.00     0.135 A 
ATOM     66  F   UNL A   1      42.764  24.425  25.391  1.00  0.00    -0.206 F 
ATOM     67  C   UNL A   1      42.390  22.145  25.795  1.00  0.00     0.059 A 
ATOM     68  C   UNL A   1      42.346  21.312  28.075  1.00  0.00     0.059 A 
ATOM     69  F   UNL A   1      42.644  22.800  29.864  1.00  0.00    -0.206 F 
ATOM     70  C   UNL A   1      42.242  21.094  26.702  1.00  0.00     0.060 A 
BRANCH  70  71
ATOM     71  S   UNL A   1      41.911  19.439  26.060  1.00  0.00     0.124 S 
ATOM     72  O   UNL A   1      42.791  19.400  24.895  1.00  0.00    -0.237 OA
ATOM     73  O   UNL A   1      42.300  18.585  27.177  1.00  0.00    -0.237 OA
ATOM     74  O   UNL A   1      40.482  19.468  25.765  1.00  0.00    -0.744 OA
ENDBRANCH  70  71
ENDBRANCH  49  63
BRANCH  50  75
ATOM     75  C   UNL A   1      44.144  32.823  31.332  1.00  0.00     0.058 A 
ATOM     76  C   UNL A   1      44.130  33.058  32.715  1.00  0.00     0.135 A 
ATOM     77  C   UNL A   1      44.375  33.917  30.484  1.00  0.00     0.135 A 
ATOM     78  F   UNL A   1      43.902  32.045  33.564  1.00  0.00    -0.206 F 
ATOM     79  C   UNL A   1      44.321  34.332  33.239  1.00  0.00     0.059 A 
ATOM     80  C   UNL A   1      44.592  35.196  30.986  1.00  0.00     0.059 A 
ATOM     81  F   UNL A   1      44.410  33.742  29.154  1.00  0.00    -0.206 F 
ATOM     82  C   UNL A   1      44.553  35.396  32.365  1.00  0.00     0.060 A 
BRANCH  82  83
ATOM     83  S   UNL A   1      44.850  37.038  33.055  1.00  0.00     0.124 S 
ATOM     84  O   UNL A   1      45.322  37.768  31.884  1.00  0.00    -0.237 OA
ATOM     85  O   UNL A   1      43.528  37.408  33.550  1.00  0.00    -0.237 OA
ATOM     86  O   UNL A   1      45.849  36.789  34.091  1.00  0.00    -0.744 OA
ENDBRANCH  82  83
ENDBRANCH  50  75
BRANCH  62  87
ATOM     87  C   UNL A   1      48.454  27.630  29.591  1.00  0.00     0.058 A 
ATOM     88  C   UNL A   1      49.150  27.110  30.693  1.00  0.00     0.135 A 
ATOM     89  C   UNL A   1      49.206  28.021  28.470  1.00  0.00     0.135 A 
ATOM     90  F   UNL A   1      48.483  26.723  31.791  1.00  0.00    -0.206 F 
ATOM     91  C   UNL A   1      50.540  27.018  30.699  1.00  0.00     0.059 A 
ATOM     92  C   UNL A   1      50.594  27.914  28.444  1.00  0.00     0.059 A 
ATOM     93  F   UNL A   1      48.591  28.513  27.381  1.00  0.00    -0.206 F 
ATOM     94  C   UNL A   1      51.254  27.429  29.572  1.00  0.00     0.060 A 
BRANCH  94  95
ATOM     95  S   UNL A   1      53.056  27.306  29.589  1.00  0.00     0.124 S 
ATOM     96  O   UNL A   1      53.441  28.678  29.900  1.00  0.00    -0.237 OA
ATOM     97  O   UNL A   1      53.296  26.326  30.644  1.00  0.00    -0.237 OA
ATOM     98  O   UNL A   1      53.377  26.854  28.239  1.00  0.00    -0.744 OA
ENDBRANCH  94  95
ENDBRANCH  62  87
ENDBRANCH  36  37
ENDBRANCH  28  31
ENDBRANCH  26  27
ENDBRANCH  25  26
ENDBRANCH  24  25
ENDBRANCH   3  24
TORSDOF 21
ENDMDL
MODEL 2
REMARK VINA RESULT:      -9.8      0.861      2.134
REMARK SMILES CCN(Cc1ccccn1)C(=O)[C@H]([NH3+])CCC(=O)NCCCNC(=O)c1ccc(-c2c3nc(c(-c4c(F)cc(S(=O)(=O)[O-])cc4F)c4ccc([nH]4)c(-c4c(F)cc(S(=O)(=O)[O-])cc4F)c4nc(c(-c5c(F)cc(S(=O)(=O)[O-])cc5F)c5ccc2[nH]5)C=C4)C=C3)cc1
REMARK SMILES IDX 17 1 18 2 19 3 16 5 15 6 13 7 11 8 12 9 3 10 2 11 1 12 4 13
REMARK SMILES IDX 5 14 6 15 10 16 7 17 9 18 8 19 14 20 20 24 21 25 22 26 23 27
REMARK SMILES IDX 24 28 25 30 26 31 27 32 91 33 28 34 90 35 29 36 30 37 31 38
REMARK SMILES IDX 84 39 32 40 89 41 83 42 85 43 33 44 88 45 82 46 81 47 34 49
REMARK SMILES IDX 68 50 47 51 67 52 48 53 51 54 66 55 86 56 49 57 50 58 65 60
REMARK SMILES IDX 87 61 52 62 35 63 36 64 45 65 37 66 38 67 44 68 46 69 39 70
REMARK SMILES IDX 40 71 41 72 42 73 43 74 69 75 70 76 79 77 71 78 72 79 78 80
REMARK SMILES IDX 80 81 73 82 74 83 75 84 76 85 77 86 53 87 54 88 63 89 55 90
REMARK SMILES IDX 56 91 62 92 64 93 57 94 58 95 59 96 60 97 61 98
REMARK H PARENT 19 4 14 21 14 22 14 23 23 29 85 48 51 59
REMARK Flexibility Score: inf
ROOT
ATOM      1  C   UNL A   1      30.944  25.844  25.750  1.00  0.00     0.220 C 
ATOM      2  O   UNL A   1      29.936  25.614  26.421  1.00  0.00    -0.275 OA
ATOM      3  N   UNL A   1      31.282  27.147  25.552  1.00  0.00    -0.356 N 
ATOM      4  H   UNL A   1      30.644  27.784  25.946  1.00  0.00     0.163 HD
ENDROOT
BRANCH   1   5
ATOM      5  C   UNL A   1      31.735  24.707  25.136  1.00  0.00     0.106 C 
BRANCH   5   6
ATOM      6  C   UNL A   1      32.782  24.143  26.109  1.00  0.00     0.085 C 
BRANCH   6   7
ATOM      7  C   UNL A   1      32.298  22.897  26.855  1.00  0.00     0.271 C 
BRANCH   7   8
ATOM      8  C   UNL A   1      33.183  21.657  26.584  1.00  0.00     0.281 C 
ATOM      9  O   UNL A   1      33.868  21.201  27.507  1.00  0.00    -0.268 OA
BRANCH   8  10
ATOM     10  N   UNL A   1      33.335  21.233  25.267  1.00  0.00    -0.332 N 
BRANCH  10  11
ATOM     11  C   UNL A   1      34.377  21.890  24.478  1.00  0.00     0.116 C 
ATOM     12  C   UNL A   1      35.760  21.457  24.966  1.00  0.00     0.027 C 
ENDBRANCH  10  11
BRANCH  10  13
ATOM     13  C   UNL A   1      32.424  20.342  24.530  1.00  0.00     0.175 C 
BRANCH  13  14
ATOM     14  C   UNL A   1      32.788  18.864  24.567  1.00  0.00     0.060 A 
ATOM     15  C   UNL A   1      32.752  18.137  25.756  1.00  0.00     0.026 A 
ATOM     16  N   UNL A   1      33.074  18.255  23.391  1.00  0.00    -0.259 NA
ATOM     17  C   UNL A   1      32.996  16.766  25.751  1.00  0.00     0.004 A 
ATOM     18  C   UNL A   1      33.313  16.920  23.409  1.00  0.00     0.111 A 
ATOM     19  C   UNL A   1      33.278  16.140  24.551  1.00  0.00     0.020 A 
ENDBRANCH  13  14
ENDBRANCH  10  13
ENDBRANCH   8  10
ENDBRANCH   7   8
BRANCH   7  20
ATOM     20  N   UNL A   1      30.909  22.537  26.482  1.00  0.00    -0.347 N 
ATOM     21  H   UNL A   1      30.744  21.555  26.699  1.00  0.00     0.345 HD
ATOM     22  H   UNL A   1      30.775  22.692  25.483  1.00  0.00     0.345 HD
ATOM     23  H   UNL A   1      30.256  23.117  27.007  1.00  0.00     0.345 HD
ENDBRANCH   7  20
ENDBRANCH   6   7
ENDBRANCH   5   6
ENDBRANCH   1   5
BRANCH   3  24
ATOM     24  C   UNL A   1      32.402  27.785  24.872  1.00  0.00     0.117 C 
BRANCH  24  25
ATOM     25  C   UNL A   1      33.583  28.151  25.782  1.00  0.00     0.042 C 
BRANCH  25  26
ATOM     26  C   UNL A   1      33.255  28.409  27.259  1.00  0.00     0.118 C 
BRANCH  26  27
ATOM     27  N   UNL A   1      33.371  29.807  27.605  1.00  0.00    -0.352 N 
ATOM     28  C   UNL A   1      34.421  30.515  28.138  1.00  0.00     0.251 C 
ATOM     29  H   UNL A   1      32.564  30.342  27.430  1.00  0.00     0.163 HD
ATOM     30  O   UNL A   1      34.184  31.656  28.540  1.00  0.00    -0.269 OA
BRANCH  28  31
ATOM     31  C   UNL A   1      35.811  29.982  28.251  1.00  0.00     0.039 A 
ATOM     32  C   UNL A   1      36.231  29.566  29.523  1.00  0.00     0.014 A 
ATOM     33  C   UNL A   1      36.750  30.011  27.214  1.00  0.00     0.014 A 
ATOM     34  C   UNL A   1      37.565  29.219  29.763  1.00  0.00     0.010 A 
ATOM     35  C   UNL A   1      38.084  29.617  27.445  1.00  0.00     0.010 A 
ATOM     36  C   UNL A   1      38.517  29.254  28.732  1.00  0.00    -0.014 A 
BRANCH  36  37
ATOM     37  C   UNL A   1      39.950  28.972  29.052  1.00  0.00     0.031 A 
ATOM     38  C   UNL A   1      40.577  27.643  28.700  1.00  0.00     0.074 A 
ATOM     39  C   UNL A   1      40.727  29.934  29.592  1.00  0.00     0.049 A 
ATOM     40  N   UNL A   1      41.837  27.281  28.756  1.00  0.00    -0.248 NA
ATOM     41  C   UNL A   1      39.673  26.583  28.233  1.00  0.00     0.031 C 
ATOM     42  C   UNL A   1      40.260  31.254  30.014  1.00  0.00     0.029 A 
ATOM     43  N   UNL A   1      42.076  29.957  29.857  1.00  0.00    -0.354 N 
ATOM     44  C   UNL A   1      41.878  25.960  28.323  1.00  0.00     0.074 A 
ATOM     45  C   UNL A   1      40.509  25.568  28.059  1.00  0.00     0.031 C 
ATOM     46  C   UNL A   1      41.308  31.970  30.455  1.00  0.00     0.029 A 
ATOM     47  C   UNL A   1      42.521  31.160  30.357  1.00  0.00     0.049 A 
ATOM     48  H   UNL A   1      42.668  29.186  29.703  1.00  0.00     0.167 HD
ATOM     49  C   UNL A   1      42.952  25.151  28.140  1.00  0.00     0.037 A 
ATOM     50  C   UNL A   1      43.762  31.575  30.682  1.00  0.00     0.037 A 
ATOM     51  C   UNL A   1      44.319  25.532  28.391  1.00  0.00     0.049 A 
ATOM     52  C   UNL A   1      44.942  30.666  30.457  1.00  0.00     0.074 A 
ATOM     53  C   UNL A   1      45.472  24.787  28.197  1.00  0.00     0.029 A 
ATOM     54  N   UNL A   1      44.724  26.759  28.895  1.00  0.00    -0.354 N 
ATOM     55  N   UNL A   1      44.965  29.446  29.977  1.00  0.00    -0.248 NA
ATOM     56  C   UNL A   1      46.269  31.203  30.798  1.00  0.00     0.031 C 
ATOM     57  C   UNL A   1      46.569  25.550  28.617  1.00  0.00     0.029 A 
ATOM     58  C   UNL A   1      46.104  26.787  29.030  1.00  0.00     0.049 A 
ATOM     59  H   UNL A   1      44.120  27.502  29.123  1.00  0.00     0.167 HD
ATOM     60  C   UNL A   1      46.309  29.083  29.925  1.00  0.00     0.074 A 
ATOM     61  C   UNL A   1      47.067  30.215  30.414  1.00  0.00     0.031 C 
ATOM     62  C   UNL A   1      46.861  27.917  29.507  1.00  0.00     0.037 A 
BRANCH  49  63
ATOM     63  C   UNL A   1      42.694  23.757  27.631  1.00  0.00     0.058 A 
ATOM     64  C   UNL A   1      42.600  23.482  26.257  1.00  0.00     0.135 A 
ATOM     65  C   UNL A   1      42.584  22.677  28.522  1.00  0.00     0.135 A 
ATOM     66  F   UNL A   1      42.689  24.477  25.361  1.00  0.00    -0.206 F 
ATOM     67  C   UNL A   1      42.373  22.192  25.786  1.00  0.00     0.059 A 
ATOM     68  C   UNL A   1      42.382  21.375  28.072  1.00  0.00     0.059 A 
ATOM     69  F   UNL A   1      42.673  22.881  29.846  1.00  0.00    -0.206 F 
ATOM     70  C   UNL A   1      42.262  21.145  26.703  1.00  0.00     0.060 A 
BRANCH  70  71
ATOM     71  S   UNL A   1      41.960  19.478  26.077  1.00  0.00     0.124 S 
ATOM     72  O   UNL A   1      42.348  18.663  27.225  1.00  0.00    -0.237 OA
ATOM     73  O   UNL A   1      40.533  19.509  25.775  1.00  0.00    -0.237 OA
ATOM     74  O   UNL A   1      42.841  19.386  24.917  1.00  0.00    -0.744 OA
ENDBRANCH  70  71
ENDBRANCH  49  63
BRANCH  50  75
ATOM     75  C   UNL A   1      43.964  32.948  31.220  1.00  0.00     0.058 A 
ATOM     76  C   UNL A   1      43.952  33.195  32.601  1.00  0.00     0.135 A 
ATOM     77  C   UNL A   1      44.171  34.039  30.362  1.00  0.00     0.135 A 
ATOM     78  F   UNL A   1      43.747  32.185  33.461  1.00  0.00    -0.206 F 
ATOM     79  C   UNL A   1      44.121  34.476  33.114  1.00  0.00     0.059 A 
ATOM     80  C   UNL A   1      44.366  35.326  30.851  1.00  0.00     0.059 A 
ATOM     81  F   UNL A   1      44.203  33.852  29.033  1.00  0.00    -0.206 F 
ATOM     82  C   UNL A   1      44.330  35.537  32.229  1.00  0.00     0.060 A 
BRANCH  82  83
ATOM     83  S   UNL A   1      44.599  37.191  32.904  1.00  0.00     0.124 S 
ATOM     84  O   UNL A   1      44.748  37.983  31.688  1.00  0.00    -0.237 OA
ATOM     85  O   UNL A   1      43.375  37.415  33.667  1.00  0.00    -0.237 OA
ATOM     86  O   UNL A   1      45.808  37.031  33.707  1.00  0.00    -0.744 OA
ENDBRANCH  82  83
ENDBRANCH  50  75
BRANCH  62  87
ATOM     87  C   UNL A   1      48.363  27.819  29.512  1.00  0.00     0.058 A 
ATOM     88  C   UNL A   1      49.136  28.185  28.399  1.00  0.00     0.135 A 
ATOM     89  C   UNL A   1      49.041  27.367  30.657  1.00  0.00     0.135 A 
ATOM     90  F   UNL A   1      48.542  28.621  27.278  1.00  0.00    -0.206 F 
ATOM     91  C   UNL A   1      50.525  28.071  28.407  1.00  0.00     0.059 A 
ATOM     92  C   UNL A   1      50.429  27.270  30.697  1.00  0.00     0.059 A 
ATOM     93  F   UNL A   1      48.352  27.017  31.756  1.00  0.00    -0.206 F 
ATOM     94  C   UNL A   1      51.161  27.606  29.559  1.00  0.00     0.060 A 
BRANCH  94  95
ATOM     95  S   UNL A   1      52.962  27.460  29.561  1.00  0.00     0.124 S 
ATOM     96  O   UNL A   1      53.232  27.175  30.966  1.00  0.00    -0.237 OA
ATOM     97  O   UNL A   1      53.190  26.355  28.635  1.00  0.00    -0.237 OA
ATOM     98  O   UNL A   1      53.408  28.767  29.088  1.00  0.00    -0.744 OA
ENDBRANCH  94  95
ENDBRANCH  62  87
ENDBRANCH  36  37
ENDBRANCH  28  31
ENDBRANCH  26  27
ENDBRANCH  25  26
ENDBRANCH  24  25
ENDBRANCH   3  24
TORSDOF 21
ENDMDL
MODEL 3
REMARK VINA RESULT:      -9.6      1.451      2.477
REMARK SMILES CCN(Cc1ccccn1)C(=O)[C@H]([NH3+])CCC(=O)NCCCNC(=O)c1ccc(-c2c3nc(c(-c4c(F)cc(S(=O)(=O)[O-])cc4F)c4ccc([nH]4)c(-c4c(F)cc(S(=O)(=O)[O-])cc4F)c4nc(c(-c5c(F)cc(S(=O)(=O)[O-])cc5F)c5ccc2[nH]5)C=C4)C=C3)cc1
REMARK SMILES IDX 17 1 18 2 19 3 16 5 15 6 13 7 11 8 12 9 3 10 2 11 1 12 4 13
REMARK SMILES IDX 5 14 6 15 10 16 7 17 9 18 8 19 14 20 20 24 21 25 22 26 23 27
REMARK SMILES IDX 24 28 25 30 26 31 27 32 91 33 28 34 90 35 29 36 30 37 31 38
REMARK SMILES IDX 84 39 32 40 89 41 83 42 85 43 33 44 88 45 82 46 81 47 34 49
REMARK SMILES IDX 68 50 47 51 67 52 48 53 51 54 66 55 86 56 49 57 50 58 65 60
REMARK SMILES IDX 87 61 52 62 35 63 36 64 45 65 37 66 38 67 44 68 46 69 39 70
REMARK SMILES IDX 40 71 41 72 42 73 43 74 69 75 70 76 79 77 71 78 72 79 78 80
REMARK SMILES IDX 80 81 73 82 74 83 75 84 76 85 77 86 53 87 54 88 63 89 55 90
REMARK SMILES IDX 56 91 62 92 64 93 57 94 58 95 59 96 60 97 61 98
REMARK H PARENT 19 4 14 21 14 22 14 23 23 29 85 48 51 59
REMARK Flexibility Score: inf
ROOT
ATOM      1  C   UNL A   1      30.825  28.810  23.790  1.00  0.00     0.220 C 
ATOM      2  O   UNL A   1      30.166  29.064  22.779  1.00  0.00    -0.275 OA
ATOM      3  N   UNL A   1      31.220  29.859  24.561  1.00  0.00    -0.356 N 
ATOM      4  H   UNL A   1      30.962  30.736  24.196  1.00  0.00     0.163 HD
ENDROOT
BRANCH   1   5
ATOM      5  C   UNL A   1      31.211  27.382  24.117  1.00  0.00     0.106 C 
BRANCH   5   6
ATOM      6  C   UNL A   1      32.321  26.859  23.192  1.00  0.00     0.085 C 
BRANCH   6   7
ATOM      7  C   UNL A   1      31.870  25.686  22.318  1.00  0.00     0.271 C 
BRANCH   7   8
ATOM      8  C   UNL A   1      32.876  24.511  22.331  1.00  0.00     0.281 C 
ATOM      9  O   UNL A   1      33.233  24.021  21.253  1.00  0.00    -0.268 OA
BRANCH   8  10
ATOM     10  N   UNL A   1      33.176  23.915  23.553  1.00  0.00    -0.332 N 
BRANCH  10  11
ATOM     11  C   UNL A   1      34.590  23.844  23.923  1.00  0.00     0.116 C 
ATOM     12  C   UNL A   1      34.828  24.585  25.239  1.00  0.00     0.027 C 
ENDBRANCH  10  11
BRANCH  10  13
ATOM     13  C   UNL A   1      32.240  23.170  24.409  1.00  0.00     0.175 C 
BRANCH  13  14
ATOM     14  C   UNL A   1      32.446  21.661  24.441  1.00  0.00     0.060 A 
ATOM     15  C   UNL A   1      32.228  20.874  23.310  1.00  0.00     0.026 A 
ATOM     16  N   UNL A   1      32.927  21.114  25.583  1.00  0.00    -0.259 NA
ATOM     17  C   UNL A   1      32.515  19.513  23.334  1.00  0.00     0.004 A 
ATOM     18  C   UNL A   1      33.194  19.784  25.587  1.00  0.00     0.111 A 
ATOM     19  C   UNL A   1      33.015  18.953  24.495  1.00  0.00     0.020 A 
ENDBRANCH  13  14
ENDBRANCH  10  13
ENDBRANCH   8  10
ENDBRANCH   7   8
BRANCH   7  20
ATOM     20  N   UNL A   1      31.685  26.092  20.904  1.00  0.00    -0.347 N 
ATOM     21  H   UNL A   1      30.822  26.626  20.815  1.00  0.00     0.345 HD
ATOM     22  H   UNL A   1      31.633  25.260  20.317  1.00  0.00     0.345 HD
ATOM     23  H   UNL A   1      32.474  26.667  20.610  1.00  0.00     0.345 HD
ENDBRANCH   7  20
ENDBRANCH   6   7
ENDBRANCH   5   6
ENDBRANCH   1   5
BRANCH   3  24
ATOM     24  C   UNL A   1      31.950  29.941  25.819  1.00  0.00     0.117 C 
BRANCH  24  25
ATOM     25  C   UNL A   1      33.365  29.348  25.781  1.00  0.00     0.042 C 
BRANCH  25  26
ATOM     26  C   UNL A   1      34.022  29.058  27.138  1.00  0.00     0.118 C 
BRANCH  26  27
ATOM     27  N   UNL A   1      34.149  30.251  27.946  1.00  0.00    -0.352 N 
ATOM     28  C   UNL A   1      35.185  30.697  28.729  1.00  0.00     0.251 C 
ATOM     29  H   UNL A   1      33.362  30.841  27.932  1.00  0.00     0.163 HD
ATOM     30  O   UNL A   1      34.951  31.640  29.487  1.00  0.00    -0.269 OA
BRANCH  28  31
ATOM     31  C   UNL A   1      36.557  30.109  28.708  1.00  0.00     0.039 A 
ATOM     32  C   UNL A   1      37.088  29.689  29.936  1.00  0.00     0.014 A 
ATOM     33  C   UNL A   1      37.386  30.090  27.580  1.00  0.00     0.014 A 
ATOM     34  C   UNL A   1      38.425  29.290  30.044  1.00  0.00     0.010 A 
ATOM     35  C   UNL A   1      38.719  29.644  27.680  1.00  0.00     0.010 A 
ATOM     36  C   UNL A   1      39.267  29.276  28.921  1.00  0.00    -0.014 A 
BRANCH  36  37
ATOM     37  C   UNL A   1      40.713  28.938  29.098  1.00  0.00     0.031 A 
ATOM     38  C   UNL A   1      41.248  27.583  28.699  1.00  0.00     0.074 A 
ATOM     39  C   UNL A   1      41.578  29.873  29.545  1.00  0.00     0.049 A 
ATOM     40  N   UNL A   1      42.492  27.171  28.631  1.00  0.00    -0.248 NA
ATOM     41  C   UNL A   1      40.261  26.556  28.338  1.00  0.00     0.031 C 
ATOM     42  C   UNL A   1      41.209  31.214  29.997  1.00  0.00     0.029 A 
ATOM     43  N   UNL A   1      42.947  29.843  29.672  1.00  0.00    -0.354 N 
ATOM     44  C   UNL A   1      42.437  25.846  28.212  1.00  0.00     0.074 A 
ATOM     45  C   UNL A   1      41.034  25.507  28.092  1.00  0.00     0.031 C 
ATOM     46  C   UNL A   1      42.323  31.890  30.321  1.00  0.00     0.029 A 
ATOM     47  C   UNL A   1      43.487  31.031  30.110  1.00  0.00     0.049 A 
ATOM     48  H   UNL A   1      43.489  29.048  29.468  1.00  0.00     0.167 HD
ATOM     49  C   UNL A   1      43.454  24.993  27.930  1.00  0.00     0.037 A 
ATOM     50  C   UNL A   1      44.770  31.398  30.303  1.00  0.00     0.037 A 
ATOM     51  C   UNL A   1      44.854  25.321  28.038  1.00  0.00     0.049 A 
ATOM     52  C   UNL A   1      45.885  30.441  29.971  1.00  0.00     0.074 A 
ATOM     53  C   UNL A   1      45.950  24.528  27.736  1.00  0.00     0.029 A 
ATOM     54  N   UNL A   1      45.355  26.533  28.484  1.00  0.00    -0.354 N 
ATOM     55  N   UNL A   1      45.811  29.217  29.505  1.00  0.00    -0.248 NA
ATOM     56  C   UNL A   1      47.259  30.926  30.169  1.00  0.00     0.031 C 
ATOM     57  C   UNL A   1      47.113  25.249  28.034  1.00  0.00     0.029 A 
ATOM     58  C   UNL A   1      46.742  26.507  28.478  1.00  0.00     0.049 A 
ATOM     59  H   UNL A   1      44.807  27.302  28.763  1.00  0.00     0.167 HD
ATOM     60  C   UNL A   1      47.127  28.800  29.321  1.00  0.00     0.074 A 
ATOM     61  C   UNL A   1      47.975  29.904  29.718  1.00  0.00     0.031 C 
ATOM     62  C   UNL A   1      47.587  27.609  28.862  1.00  0.00     0.037 A 
BRANCH  49  63
ATOM     63  C   UNL A   1      43.091  23.607  27.466  1.00  0.00     0.058 A 
ATOM     64  C   UNL A   1      43.069  23.271  26.103  1.00  0.00     0.135 A 
ATOM     65  C   UNL A   1      42.805  22.591  28.394  1.00  0.00     0.135 A 
ATOM     66  F   UNL A   1      43.326  24.203  25.173  1.00  0.00    -0.206 F 
ATOM     67  C   UNL A   1      42.745  21.987  25.674  1.00  0.00     0.059 A 
ATOM     68  C   UNL A   1      42.503  21.294  27.989  1.00  0.00     0.059 A 
ATOM     69  F   UNL A   1      42.817  22.855  29.710  1.00  0.00    -0.206 F 
ATOM     70  C   UNL A   1      42.460  21.005  26.626  1.00  0.00     0.060 A 
BRANCH  70  71
ATOM     71  S   UNL A   1      42.033  19.347  26.054  1.00  0.00     0.124 S 
ATOM     72  O   UNL A   1      42.430  18.534  27.200  1.00  0.00    -0.237 OA
ATOM     73  O   UNL A   1      40.597  19.453  25.820  1.00  0.00    -0.237 OA
ATOM     74  O   UNL A   1      42.850  19.180  24.855  1.00  0.00    -0.744 OA
ENDBRANCH  70  71
ENDBRANCH  49  63
BRANCH  50  75
ATOM     75  C   UNL A   1      45.080  32.765  30.802  1.00  0.00     0.058 A 
ATOM     76  C   UNL A   1      45.263  33.838  29.916  1.00  0.00     0.135 A 
ATOM     77  C   UNL A   1      45.200  33.024  32.176  1.00  0.00     0.135 A 
ATOM     78  F   UNL A   1      45.168  33.637  28.593  1.00  0.00    -0.206 F 
ATOM     79  C   UNL A   1      45.570  35.115  30.372  1.00  0.00     0.059 A 
ATOM     80  C   UNL A   1      45.483  34.298  32.657  1.00  0.00     0.059 A 
ATOM     81  F   UNL A   1      45.022  32.034  33.065  1.00  0.00    -0.206 F 
ATOM     82  C   UNL A   1      45.677  35.336  31.747  1.00  0.00     0.060 A 
BRANCH  82  83
ATOM     83  S   UNL A   1      46.027  37.008  32.334  1.00  0.00     0.124 S 
ATOM     84  O   UNL A   1      47.274  36.808  33.063  1.00  0.00    -0.237 OA
ATOM     85  O   UNL A   1      46.130  37.757  31.086  1.00  0.00    -0.237 OA
ATOM     86  O   UNL A   1      44.860  37.325  33.151  1.00  0.00    -0.744 OA
ENDBRANCH  82  83
ENDBRANCH  50  75
BRANCH  62  87
ATOM     87  C   UNL A   1      49.077  27.451  28.717  1.00  0.00     0.058 A 
ATOM     88  C   UNL A   1      49.874  26.930  29.748  1.00  0.00     0.135 A 
ATOM     89  C   UNL A   1      49.715  27.809  27.517  1.00  0.00     0.135 A 
ATOM     90  F   UNL A   1      49.318  26.573  30.916  1.00  0.00    -0.206 F 
ATOM     91  C   UNL A   1      51.255  26.807  29.611  1.00  0.00     0.059 A 
ATOM     92  C   UNL A   1      51.090  27.671  27.348  1.00  0.00     0.059 A 
ATOM     93  F   UNL A   1      49.000  28.299  26.491  1.00  0.00    -0.206 F 
ATOM     94  C   UNL A   1      51.854  27.187  28.409  1.00  0.00     0.060 A 
BRANCH  94  95
ATOM     95  S   UNL A   1      53.646  27.025  28.239  1.00  0.00     0.124 S 
ATOM     96  O   UNL A   1      53.967  28.178  27.405  1.00  0.00    -0.237 OA
ATOM     97  O   UNL A   1      54.102  27.097  29.624  1.00  0.00    -0.237 OA
ATOM     98  O   UNL A   1      53.809  25.722  27.600  1.00  0.00    -0.744 OA
ENDBRANCH  94  95
ENDBRANCH  62  87
ENDBRANCH  36  37
ENDBRANCH  28  31
ENDBRANCH  26  27
ENDBRANCH  25  26
ENDBRANCH  24  25
ENDBRANCH   3  24
TORSDOF 21
ENDMDL
