MODEL 1
REMARK VINA RESULT:     -12.5      0.000      0.000
REMARK SMILES Cc1ccc(C)c(N2C(=O)C[C@@H](SCC(=O)NCCCNC(=O)c3ccc(-c4c5nc(c(-c6c(F)cc(S(=O)(=O)[O-])cc6F)c6ccc([nH]6)c(-c6c(F)cc(S(=O)(=O)[O-])cc6F)c6nc(c(-c7c(F)cc(S(=O)(=O)[O-])cc7F)c7ccc4[nH]7)C=C6)C=C5)cc3)C2=O)c1
REMARK SMILES IDX 19 1 18 2 17 3 15 4 16 5 14 7 13 8 12 9 8 10 9 11 90 12
REMARK SMILES IDX 10 13 11 14 91 15 7 16 1 17 2 18 3 19 92 20 4 21 5 22 6 23
REMARK SMILES IDX 20 24 21 25 22 26 23 28 24 29 25 30 89 31 26 32 88 33 27 34
REMARK SMILES IDX 28 35 29 36 82 37 30 38 87 39 81 40 83 41 31 42 86 43 80 44
REMARK SMILES IDX 79 45 32 47 66 48 45 49 65 50 46 51 49 52 64 53 84 54 47 55
REMARK SMILES IDX 48 56 63 58 85 59 50 60 33 61 34 62 43 63 35 64 36 65 42 66
REMARK SMILES IDX 44 67 37 68 38 69 39 70 40 71 41 72 67 73 68 74 77 75 69 76
REMARK SMILES IDX 70 77 76 78 78 79 71 80 72 81 73 82 74 83 75 84 51 85 52 86
REMARK SMILES IDX 61 87 53 88 54 89 60 90 62 91 55 92 56 93 57 94 58 95 59 96
REMARK H PARENT 17 6 21 27 83 46 49 57
REMARK Flexibility Score: inf
ROOT
ATOM      1  C   UNL A   1      39.063  21.447  25.898  1.00  0.00     0.042 C 
ENDROOT
BRANCH   1   2
ATOM      2  C   UNL A   1      38.068  22.616  25.903  1.00  0.00     0.117 C 
BRANCH   2   3
ATOM      3  N   UNL A   1      37.618  23.011  24.574  1.00  0.00    -0.355 N 
ATOM      4  C   UNL A   1      36.579  22.545  23.826  1.00  0.00     0.230 C 
ATOM      5  O   UNL A   1      36.416  22.998  22.692  1.00  0.00    -0.274 OA
ATOM      6  H   UNL A   1      38.148  23.727  24.152  1.00  0.00     0.163 HD
BRANCH   4   7
ATOM      7  C   UNL A   1      35.650  21.481  24.368  1.00  0.00     0.170 C 
BRANCH   7   8
ATOM      8  S   UNL A   1      33.930  22.051  24.506  1.00  0.00    -0.138 SA
BRANCH   8   9
ATOM      9  C   UNL A   1      34.092  23.339  25.820  1.00  0.00     0.146 C 
ATOM     10  N   UNL A   1      32.503  25.040  25.573  1.00  0.00    -0.249 N 
ATOM     11  C   UNL A   1      32.029  24.249  26.588  1.00  0.00     0.235 C 
ATOM     12  C   UNL A   1      33.769  24.670  25.168  1.00  0.00     0.247 C 
ATOM     13  O   UNL A   1      30.942  24.322  27.154  1.00  0.00    -0.274 OA
ATOM     14  C   UNL A   1      33.060  23.214  26.926  1.00  0.00     0.125 C 
ATOM     15  O   UNL A   1      34.518  25.256  24.414  1.00  0.00    -0.273 OA
BRANCH  10  16
ATOM     16  C   UNL A   1      31.792  26.133  25.029  1.00  0.00     0.055 A 
ATOM     17  C   UNL A   1      31.650  29.914  25.588  1.00  0.00     0.044 C 
ATOM     18  C   UNL A   1      31.370  28.544  25.045  1.00  0.00    -0.049 A 
ATOM     19  C   UNL A   1      30.461  28.384  23.998  1.00  0.00     0.004 A 
ATOM     20  C   UNL A   1      32.013  27.414  25.567  1.00  0.00     0.030 A 
ATOM     21  C   UNL A   1      30.207  27.115  23.476  1.00  0.00     0.006 A 
ATOM     22  C   UNL A   1      30.861  25.977  23.982  1.00  0.00    -0.027 A 
ATOM     23  C   UNL A   1      30.447  24.649  23.407  1.00  0.00     0.046 C 
ENDBRANCH  10  16
ENDBRANCH   8   9
ENDBRANCH   7   8
ENDBRANCH   4   7
ENDBRANCH   2   3
ENDBRANCH   1   2
BRANCH   1  24
ATOM     24  C   UNL A   1      40.174  21.573  26.931  1.00  0.00     0.118 C 
BRANCH  24  25
ATOM     25  N   UNL A   1      41.490  21.897  26.354  1.00  0.00    -0.352 N 
ATOM     26  C   UNL A   1      42.135  23.110  26.152  1.00  0.00     0.251 C 
ATOM     27  H   UNL A   1      42.006  21.112  26.059  1.00  0.00     0.163 HD
ATOM     28  O   UNL A   1      43.081  23.166  25.370  1.00  0.00    -0.269 OA
BRANCH  26  29
ATOM     29  C   UNL A   1      41.711  24.323  26.880  1.00  0.00     0.039 A 
ATOM     30  C   UNL A   1      40.650  25.145  26.502  1.00  0.00     0.014 A 
ATOM     31  C   UNL A   1      42.540  24.769  27.888  1.00  0.00     0.014 A 
ATOM     32  C   UNL A   1      40.555  26.410  27.098  1.00  0.00     0.010 A 
ATOM     33  C   UNL A   1      42.133  25.723  28.754  1.00  0.00     0.010 A 
ATOM     34  C   UNL A   1      41.381  26.714  28.188  1.00  0.00    -0.014 A 
BRANCH  34  35
ATOM     35  C   UNL A   1      41.371  27.956  28.921  1.00  0.00     0.031 A 
ATOM     36  C   UNL A   1      42.408  28.889  28.463  1.00  0.00     0.074 A 
ATOM     37  C   UNL A   1      40.366  28.343  29.736  1.00  0.00     0.049 A 
ATOM     38  N   UNL A   1      43.581  29.036  28.974  1.00  0.00    -0.248 NA
ATOM     39  C   UNL A   1      42.230  29.542  27.157  1.00  0.00     0.031 C 
ATOM     40  C   UNL A   1      39.062  27.719  29.988  1.00  0.00     0.029 A 
ATOM     41  N   UNL A   1      40.305  29.471  30.490  1.00  0.00    -0.354 N 
ATOM     42  C   UNL A   1      44.181  30.021  28.208  1.00  0.00     0.074 A 
ATOM     43  C   UNL A   1      43.447  30.060  26.972  1.00  0.00     0.031 C 
ATOM     44  C   UNL A   1      38.280  28.573  30.694  1.00  0.00     0.029 A 
ATOM     45  C   UNL A   1      39.069  29.736  31.067  1.00  0.00     0.049 A 
ATOM     46  H   UNL A   1      41.083  30.060  30.620  1.00  0.00     0.167 HD
ATOM     47  C   UNL A   1      45.022  30.925  28.778  1.00  0.00     0.037 A 
ATOM     48  C   UNL A   1      38.741  30.855  31.765  1.00  0.00     0.037 A 
ATOM     49  C   UNL A   1      45.387  30.511  30.117  1.00  0.00     0.049 A 
ATOM     50  C   UNL A   1      40.023  31.466  32.221  1.00  0.00     0.074 A 
ATOM     51  C   UNL A   1      45.955  29.369  30.652  1.00  0.00     0.029 A 
ATOM     52  N   UNL A   1      44.762  31.142  31.172  1.00  0.00    -0.354 N 
ATOM     53  N   UNL A   1      40.826  30.908  33.089  1.00  0.00    -0.248 NA
ATOM     54  C   UNL A   1      40.646  32.457  31.355  1.00  0.00     0.031 C 
ATOM     55  C   UNL A   1      45.236  29.126  31.860  1.00  0.00     0.029 A 
ATOM     56  C   UNL A   1      44.329  30.171  32.043  1.00  0.00     0.049 A 
ATOM     57  H   UNL A   1      44.649  32.114  31.281  1.00  0.00     0.167 HD
ATOM     58  C   UNL A   1      42.105  31.144  32.601  1.00  0.00     0.074 A 
ATOM     59  C   UNL A   1      41.933  32.174  31.578  1.00  0.00     0.031 C 
ATOM     60  C   UNL A   1      43.136  30.284  32.859  1.00  0.00     0.037 A 
BRANCH  47  61
ATOM     61  C   UNL A   1      45.204  32.340  28.288  1.00  0.00     0.058 A 
ATOM     62  C   UNL A   1      46.501  32.778  27.957  1.00  0.00     0.135 A 
ATOM     63  C   UNL A   1      44.221  33.354  28.361  1.00  0.00     0.135 A 
ATOM     64  F   UNL A   1      47.515  31.902  27.865  1.00  0.00    -0.206 F 
ATOM     65  C   UNL A   1      46.812  34.125  27.785  1.00  0.00     0.059 A 
ATOM     66  C   UNL A   1      44.497  34.694  28.131  1.00  0.00     0.059 A 
ATOM     67  F   UNL A   1      42.964  33.121  28.753  1.00  0.00    -0.206 F 
ATOM     68  C   UNL A   1      45.803  35.077  27.889  1.00  0.00     0.060 A 
BRANCH  68  69
ATOM     69  S   UNL A   1      46.216  36.823  27.771  1.00  0.00     0.124 S 
ATOM     70  O   UNL A   1      47.457  36.773  27.007  1.00  0.00    -0.237 OA
ATOM     71  O   UNL A   1      45.054  37.361  27.072  1.00  0.00    -0.237 OA
ATOM     72  O   UNL A   1      46.347  37.231  29.167  1.00  0.00    -0.744 OA
ENDBRANCH  68  69
ENDBRANCH  47  61
BRANCH  48  73
ATOM     73  C   UNL A   1      37.454  31.603  31.775  1.00  0.00     0.058 A 
ATOM     74  C   UNL A   1      36.767  31.859  32.977  1.00  0.00     0.135 A 
ATOM     75  C   UNL A   1      37.025  32.339  30.651  1.00  0.00     0.135 A 
ATOM     76  F   UNL A   1      37.116  31.219  34.103  1.00  0.00    -0.206 F 
ATOM     77  C   UNL A   1      35.760  32.828  33.074  1.00  0.00     0.059 A 
ATOM     78  C   UNL A   1      36.017  33.303  30.722  1.00  0.00     0.059 A 
ATOM     79  F   UNL A   1      37.641  32.214  29.467  1.00  0.00    -0.206 F 
ATOM     80  C   UNL A   1      35.408  33.563  31.943  1.00  0.00     0.060 A 
BRANCH  80  81
ATOM     81  S   UNL A   1      34.251  34.946  32.101  1.00  0.00     0.124 S 
ATOM     82  O   UNL A   1      35.024  35.898  32.890  1.00  0.00    -0.237 OA
ATOM     83  O   UNL A   1      34.015  35.314  30.709  1.00  0.00    -0.237 OA
ATOM     84  O   UNL A   1      33.105  34.352  32.786  1.00  0.00    -0.744 OA
ENDBRANCH  80  81
ENDBRANCH  48  73
BRANCH  60  85
ATOM     85  C   UNL A   1      42.944  29.234  33.929  1.00  0.00     0.058 A 
ATOM     86  C   UNL A   1      43.103  29.454  35.310  1.00  0.00     0.135 A 
ATOM     87  C   UNL A   1      42.433  27.986  33.543  1.00  0.00     0.135 A 
ATOM     88  F   UNL A   1      43.485  30.650  35.780  1.00  0.00    -0.206 F 
ATOM     89  C   UNL A   1      42.809  28.467  36.256  1.00  0.00     0.059 A 
ATOM     90  C   UNL A   1      42.101  26.999  34.468  1.00  0.00     0.059 A 
ATOM     91  F   UNL A   1      42.200  27.728  32.245  1.00  0.00    -0.206 F 
ATOM     92  C   UNL A   1      42.307  27.240  35.823  1.00  0.00     0.060 A 
BRANCH  92  93
ATOM     93  S   UNL A   1      41.861  25.988  37.047  1.00  0.00     0.124 S 
ATOM     94  O   UNL A   1      42.879  26.186  38.074  1.00  0.00    -0.237 OA
ATOM     95  O   UNL A   1      40.503  26.374  37.418  1.00  0.00    -0.237 OA
ATOM     96  O   UNL A   1      41.961  24.734  36.304  1.00  0.00    -0.744 OA
ENDBRANCH  92  93
ENDBRANCH  60  85
ENDBRANCH  34  35
ENDBRANCH  26  29
ENDBRANCH  24  25
ENDBRANCH   1  24
TORSDOF 16
ENDMDL
MODEL 2
REMARK VINA RESULT:     -12.4      2.903      9.620
REMARK SMILES Cc1ccc(C)c(N2C(=O)C[C@@H](SCC(=O)NCCCNC(=O)c3ccc(-c4c5nc(c(-c6c(F)cc(S(=O)(=O)[O-])cc6F)c6ccc([nH]6)c(-c6c(F)cc(S(=O)(=O)[O-])cc6F)c6nc(c(-c7c(F)cc(S(=O)(=O)[O-])cc7F)c7ccc4[nH]7)C=C6)C=C5)cc3)C2=O)c1
REMARK SMILES IDX 19 1 18 2 17 3 15 4 16 5 14 7 13 8 12 9 8 10 9 11 90 12
REMARK SMILES IDX 10 13 11 14 91 15 7 16 1 17 2 18 3 19 92 20 4 21 5 22 6 23
REMARK SMILES IDX 20 24 21 25 22 26 23 28 24 29 25 30 89 31 26 32 88 33 27 34
REMARK SMILES IDX 28 35 29 36 82 37 30 38 87 39 81 40 83 41 31 42 86 43 80 44
REMARK SMILES IDX 79 45 32 47 66 48 45 49 65 50 46 51 49 52 64 53 84 54 47 55
REMARK SMILES IDX 48 56 63 58 85 59 50 60 33 61 34 62 43 63 35 64 36 65 42 66
REMARK SMILES IDX 44 67 37 68 38 69 39 70 40 71 41 72 67 73 68 74 77 75 69 76
REMARK SMILES IDX 70 77 76 78 78 79 71 80 72 81 73 82 74 83 75 84 51 85 52 86
REMARK SMILES IDX 61 87 53 88 54 89 60 90 62 91 55 92 56 93 57 94 58 95 59 96
REMARK H PARENT 17 6 21 27 83 46 49 57
REMARK Flexibility Score: inf
ROOT
ATOM      1  C   UNL A   1      33.743  28.808  26.157  1.00  0.00     0.042 C 
ENDROOT
BRANCH   1   2
ATOM      2  C   UNL A   1      33.047  29.470  24.960  1.00  0.00     0.117 C 
BRANCH   2   3
ATOM      3  N   UNL A   1      33.757  29.300  23.698  1.00  0.00    -0.355 N 
ATOM      4  C   UNL A   1      33.607  28.352  22.730  1.00  0.00     0.230 C 
ATOM      5  O   UNL A   1      34.364  28.375  21.758  1.00  0.00    -0.274 OA
ATOM      6  H   UNL A   1      34.451  29.975  23.518  1.00  0.00     0.163 HD
BRANCH   4   7
ATOM      7  C   UNL A   1      32.545  27.283  22.849  1.00  0.00     0.170 C 
BRANCH   7   8
ATOM      8  S   UNL A   1      33.116  25.819  23.761  1.00  0.00    -0.138 SA
BRANCH   8   9
ATOM      9  C   UNL A   1      31.904  24.551  23.185  1.00  0.00     0.146 C 
ATOM     10  N   UNL A   1      32.425  22.416  23.991  1.00  0.00    -0.249 N 
ATOM     11  C   UNL A   1      31.394  22.856  24.780  1.00  0.00     0.235 C 
ATOM     12  C   UNL A   1      32.688  23.274  22.944  1.00  0.00     0.247 C 
ATOM     13  O   UNL A   1      30.932  22.320  25.783  1.00  0.00    -0.274 OA
ATOM     14  C   UNL A   1      30.884  24.159  24.239  1.00  0.00     0.125 C 
ATOM     15  O   UNL A   1      33.420  23.097  21.992  1.00  0.00    -0.273 OA
BRANCH  10  16
ATOM     16  C   UNL A   1      33.117  21.202  24.204  1.00  0.00     0.055 A 
ATOM     17  C   UNL A   1      32.569  17.507  23.381  1.00  0.00     0.044 C 
ATOM     18  C   UNL A   1      33.179  18.774  23.904  1.00  0.00    -0.049 A 
ATOM     19  C   UNL A   1      34.421  18.735  24.541  1.00  0.00     0.004 A 
ATOM     20  C   UNL A   1      32.527  20.005  23.760  1.00  0.00     0.030 A 
ATOM     21  C   UNL A   1      35.003  19.911  25.016  1.00  0.00     0.006 A 
ATOM     22  C   UNL A   1      34.364  21.154  24.860  1.00  0.00    -0.027 A 
ATOM     23  C   UNL A   1      35.038  22.344  25.488  1.00  0.00     0.046 C 
ENDBRANCH  10  16
ENDBRANCH   8   9
ENDBRANCH   7   8
ENDBRANCH   4   7
ENDBRANCH   2   3
ENDBRANCH   1   2
BRANCH   1  24
ATOM     24  C   UNL A   1      33.736  29.650  27.425  1.00  0.00     0.118 C 
BRANCH  24  25
ATOM     25  N   UNL A   1      34.077  31.065  27.201  1.00  0.00    -0.352 N 
ATOM     26  C   UNL A   1      35.111  31.854  27.690  1.00  0.00     0.251 C 
ATOM     27  H   UNL A   1      33.461  31.537  26.595  1.00  0.00     0.163 HD
ATOM     28  O   UNL A   1      35.017  33.076  27.626  1.00  0.00    -0.269 OA
BRANCH  26  29
ATOM     29  C   UNL A   1      36.325  31.238  28.264  1.00  0.00     0.039 A 
ATOM     30  C   UNL A   1      37.101  31.807  29.274  1.00  0.00     0.014 A 
ATOM     31  C   UNL A   1      36.821  30.122  27.625  1.00  0.00     0.014 A 
ATOM     32  C   UNL A   1      38.375  31.270  29.503  1.00  0.00     0.010 A 
ATOM     33  C   UNL A   1      37.781  29.361  28.198  1.00  0.00     0.010 A 
ATOM     34  C   UNL A   1      38.732  30.069  28.876  1.00  0.00    -0.014 A 
BRANCH  34  35
ATOM     35  C   UNL A   1      39.989  29.383  29.044  1.00  0.00     0.031 A 
ATOM     36  C   UNL A   1      40.310  29.133  30.455  1.00  0.00     0.074 A 
ATOM     37  C   UNL A   1      40.664  28.786  28.038  1.00  0.00     0.049 A 
ATOM     38  N   UNL A   1      41.045  29.871  31.212  1.00  0.00    -0.248 NA
ATOM     39  C   UNL A   1      39.538  28.107  31.174  1.00  0.00     0.031 C 
ATOM     40  C   UNL A   1      40.282  28.583  26.636  1.00  0.00     0.029 A 
ATOM     41  N   UNL A   1      41.868  28.162  28.110  1.00  0.00    -0.354 N 
ATOM     42  C   UNL A   1      41.051  29.227  32.438  1.00  0.00     0.074 A 
ATOM     43  C   UNL A   1      39.903  28.361  32.433  1.00  0.00     0.031 C 
ATOM     44  C   UNL A   1      41.158  27.731  26.047  1.00  0.00     0.029 A 
ATOM     45  C   UNL A   1      42.236  27.444  26.979  1.00  0.00     0.049 A 
ATOM     46  H   UNL A   1      42.442  28.215  28.909  1.00  0.00     0.167 HD
ATOM     47  C   UNL A   1      42.167  29.230  33.216  1.00  0.00     0.037 A 
ATOM     48  C   UNL A   1      43.335  26.654  26.861  1.00  0.00     0.037 A 
ATOM     49  C   UNL A   1      43.129  30.195  32.728  1.00  0.00     0.049 A 
ATOM     50  C   UNL A   1      44.291  27.091  27.919  1.00  0.00     0.074 A 
ATOM     51  C   UNL A   1      43.085  31.553  32.467  1.00  0.00     0.029 A 
ATOM     52  N   UNL A   1      44.207  29.717  32.014  1.00  0.00    -0.354 N 
ATOM     53  N   UNL A   1      44.876  28.260  27.933  1.00  0.00    -0.248 NA
ATOM     54  C   UNL A   1      44.222  26.422  29.212  1.00  0.00     0.031 C 
ATOM     55  C   UNL A   1      43.810  31.722  31.251  1.00  0.00     0.029 A 
ATOM     56  C   UNL A   1      44.329  30.481  30.878  1.00  0.00     0.049 A 
ATOM     57  H   UNL A   1      44.786  28.963  32.272  1.00  0.00     0.167 HD
ATOM     58  C   UNL A   1      44.854  28.659  29.263  1.00  0.00     0.074 A 
ATOM     59  C   UNL A   1      44.517  27.451  30.013  1.00  0.00     0.031 C 
ATOM     60  C   UNL A   1      44.823  29.981  29.610  1.00  0.00     0.037 A 
BRANCH  47  61
ATOM     61  C   UNL A   1      42.543  28.116  34.162  1.00  0.00     0.058 A 
ATOM     62  C   UNL A   1      42.519  28.371  35.547  1.00  0.00     0.135 A 
ATOM     63  C   UNL A   1      43.156  26.901  33.778  1.00  0.00     0.135 A 
ATOM     64  F   UNL A   1      41.966  29.497  36.025  1.00  0.00    -0.206 F 
ATOM     65  C   UNL A   1      43.123  27.522  36.471  1.00  0.00     0.059 A 
ATOM     66  C   UNL A   1      43.709  26.011  34.688  1.00  0.00     0.059 A 
ATOM     67  F   UNL A   1      43.344  26.553  32.500  1.00  0.00    -0.206 F 
ATOM     68  C   UNL A   1      43.729  26.350  36.028  1.00  0.00     0.060 A 
BRANCH  68  69
ATOM     69  S   UNL A   1      44.599  25.303  37.202  1.00  0.00     0.124 S 
ATOM     70  O   UNL A   1      45.989  25.578  36.857  1.00  0.00    -0.237 OA
ATOM     71  O   UNL A   1      44.138  25.835  38.480  1.00  0.00    -0.237 OA
ATOM     72  O   UNL A   1      44.119  23.963  36.876  1.00  0.00    -0.744 OA
ENDBRANCH  68  69
ENDBRANCH  47  61
BRANCH  48  73
ATOM     73  C   UNL A   1      43.478  25.357  26.145  1.00  0.00     0.058 A 
ATOM     74  C   UNL A   1      44.568  25.112  25.287  1.00  0.00     0.135 A 
ATOM     75  C   UNL A   1      42.719  24.227  26.514  1.00  0.00     0.135 A 
ATOM     76  F   UNL A   1      45.359  26.123  24.896  1.00  0.00    -0.206 F 
ATOM     77  C   UNL A   1      44.920  23.822  24.872  1.00  0.00     0.059 A 
ATOM     78  C   UNL A   1      43.046  22.933  26.105  1.00  0.00     0.059 A 
ATOM     79  F   UNL A   1      41.690  24.335  27.367  1.00  0.00    -0.206 F 
ATOM     80  C   UNL A   1      44.165  22.734  25.306  1.00  0.00     0.060 A 
BRANCH  80  81
ATOM     81  S   UNL A   1      44.725  21.052  24.937  1.00  0.00     0.124 S 
ATOM     82  O   UNL A   1      43.756  20.243  25.667  1.00  0.00    -0.237 OA
ATOM     83  O   UNL A   1      44.629  21.006  23.482  1.00  0.00    -0.237 OA
ATOM     84  O   UNL A   1      46.087  21.025  25.467  1.00  0.00    -0.744 OA
ENDBRANCH  80  81
ENDBRANCH  48  73
BRANCH  60  85
ATOM     85  C   UNL A   1      45.116  31.010  28.542  1.00  0.00     0.058 A 
ATOM     86  C   UNL A   1      44.195  31.450  27.573  1.00  0.00     0.135 A 
ATOM     87  C   UNL A   1      46.344  31.687  28.601  1.00  0.00     0.135 A 
ATOM     88  F   UNL A   1      42.959  30.935  27.512  1.00  0.00    -0.206 F 
ATOM     89  C   UNL A   1      44.498  32.481  26.679  1.00  0.00     0.059 A 
ATOM     90  C   UNL A   1      46.655  32.739  27.742  1.00  0.00     0.059 A 
ATOM     91  F   UNL A   1      47.248  31.360  29.539  1.00  0.00    -0.206 F 
ATOM     92  C   UNL A   1      45.733  33.121  26.772  1.00  0.00     0.060 A 
BRANCH  92  93
ATOM     93  S   UNL A   1      46.099  34.499  25.662  1.00  0.00     0.124 S 
ATOM     94  O   UNL A   1      45.241  34.209  24.519  1.00  0.00    -0.237 OA
ATOM     95  O   UNL A   1      45.719  35.661  26.461  1.00  0.00    -0.237 OA
ATOM     96  O   UNL A   1      47.533  34.367  25.415  1.00  0.00    -0.744 OA
ENDBRANCH  92  93
ENDBRANCH  60  85
ENDBRANCH  34  35
ENDBRANCH  26  29
ENDBRANCH  24  25
ENDBRANCH   1  24
TORSDOF 16
ENDMDL
MODEL 3
REMARK VINA RESULT:     -12.3      2.783      9.606
REMARK SMILES Cc1ccc(C)c(N2C(=O)C[C@@H](SCC(=O)NCCCNC(=O)c3ccc(-c4c5nc(c(-c6c(F)cc(S(=O)(=O)[O-])cc6F)c6ccc([nH]6)c(-c6c(F)cc(S(=O)(=O)[O-])cc6F)c6nc(c(-c7c(F)cc(S(=O)(=O)[O-])cc7F)c7ccc4[nH]7)C=C6)C=C5)cc3)C2=O)c1
REMARK SMILES IDX 19 1 18 2 17 3 15 4 16 5 14 7 13 8 12 9 8 10 9 11 90 12
REMARK SMILES IDX 10 13 11 14 91 15 7 16 1 17 2 18 3 19 92 20 4 21 5 22 6 23
REMARK SMILES IDX 20 24 21 25 22 26 23 28 24 29 25 30 89 31 26 32 88 33 27 34
REMARK SMILES IDX 28 35 29 36 82 37 30 38 87 39 81 40 83 41 31 42 86 43 80 44
REMARK SMILES IDX 79 45 32 47 66 48 45 49 65 50 46 51 49 52 64 53 84 54 47 55
REMARK SMILES IDX 48 56 63 58 85 59 50 60 33 61 34 62 43 63 35 64 36 65 42 66
REMARK SMILES IDX 44 67 37 68 38 69 39 70 40 71 41 72 67 73 68 74 77 75 69 76
REMARK SMILES IDX 70 77 76 78 78 79 71 80 72 81 73 82 74 83 75 84 51 85 52 86
REMARK SMILES IDX 61 87 53 88 54 89 60 90 62 91 55 92 56 93 57 94 58 95 59 96
REMARK H PARENT 17 6 21 27 83 46 49 57
REMARK Flexibility Score: inf
ROOT
ATOM      1  C   UNL A   1      33.295  31.272  27.542  1.00  0.00     0.042 C 
ENDROOT
BRANCH   1   2
ATOM      2  C   UNL A   1      33.809  29.854  27.260  1.00  0.00     0.117 C 
BRANCH   2   3
ATOM      3  N   UNL A   1      32.877  28.802  27.647  1.00  0.00    -0.355 N 
ATOM      4  C   UNL A   1      31.784  28.316  26.993  1.00  0.00     0.230 C 
ATOM      5  O   UNL A   1      31.104  27.448  27.543  1.00  0.00    -0.274 OA
ATOM      6  H   UNL A   1      33.067  28.377  28.515  1.00  0.00     0.163 HD
BRANCH   4   7
ATOM      7  C   UNL A   1      31.401  28.839  25.626  1.00  0.00     0.170 C 
BRANCH   7   8
ATOM      8  S   UNL A   1      31.212  27.519  24.393  1.00  0.00    -0.138 SA
BRANCH   8   9
ATOM      9  C   UNL A   1      32.942  27.376  23.763  1.00  0.00     0.146 C 
ATOM     10  N   UNL A   1      33.615  25.143  23.563  1.00  0.00    -0.249 N 
ATOM     11  C   UNL A   1      33.321  25.546  22.286  1.00  0.00     0.235 C 
ATOM     12  C   UNL A   1      33.566  26.184  24.466  1.00  0.00     0.247 C 
ATOM     13  O   UNL A   1      33.277  24.857  21.270  1.00  0.00    -0.274 OA
ATOM     14  C   UNL A   1      33.027  27.016  22.291  1.00  0.00     0.125 C 
ATOM     15  O   UNL A   1      33.922  26.191  25.626  1.00  0.00    -0.273 OA
BRANCH  10  16
ATOM     16  C   UNL A   1      33.966  23.819  23.910  1.00  0.00     0.055 A 
ATOM     17  C   UNL A   1      37.199  21.826  24.362  1.00  0.00     0.044 C 
ATOM     18  C   UNL A   1      35.743  22.181  24.298  1.00  0.00    -0.049 A 
ATOM     19  C   UNL A   1      34.779  21.224  24.621  1.00  0.00     0.004 A 
ATOM     20  C   UNL A   1      35.328  23.465  23.923  1.00  0.00     0.030 A 
ATOM     21  C   UNL A   1      33.424  21.551  24.580  1.00  0.00     0.006 A 
ATOM     22  C   UNL A   1      32.998  22.843  24.223  1.00  0.00    -0.027 A 
ATOM     23  C   UNL A   1      31.512  23.061  24.124  1.00  0.00     0.046 C 
ENDBRANCH  10  16
ENDBRANCH   8   9
ENDBRANCH   7   8
ENDBRANCH   4   7
ENDBRANCH   2   3
ENDBRANCH   1   2
BRANCH   1  24
ATOM     24  C   UNL A   1      34.392  32.283  27.844  1.00  0.00     0.118 C 
BRANCH  24  25
ATOM     25  N   UNL A   1      34.497  32.640  29.269  1.00  0.00    -0.352 N 
ATOM     26  C   UNL A   1      35.219  32.074  30.312  1.00  0.00     0.251 C 
ATOM     27  H   UNL A   1      33.958  33.422  29.529  1.00  0.00     0.163 HD
ATOM     28  O   UNL A   1      34.910  32.337  31.470  1.00  0.00    -0.269 OA
BRANCH  26  29
ATOM     29  C   UNL A   1      36.363  31.179  30.041  1.00  0.00     0.039 A 
ATOM     30  C   UNL A   1      36.278  29.792  29.935  1.00  0.00     0.014 A 
ATOM     31  C   UNL A   1      37.621  31.743  30.086  1.00  0.00     0.014 A 
ATOM     32  C   UNL A   1      37.469  29.055  29.983  1.00  0.00     0.010 A 
ATOM     33  C   UNL A   1      38.702  31.070  29.634  1.00  0.00     0.010 A 
ATOM     34  C   UNL A   1      38.693  29.734  29.917  1.00  0.00    -0.014 A 
BRANCH  34  35
ATOM     35  C   UNL A   1      39.993  29.110  29.919  1.00  0.00     0.031 A 
ATOM     36  C   UNL A   1      40.481  28.831  31.277  1.00  0.00     0.074 A 
ATOM     37  C   UNL A   1      40.580  28.583  28.824  1.00  0.00     0.049 A 
ATOM     38  N   UNL A   1      41.259  29.582  31.976  1.00  0.00    -0.248 NA
ATOM     39  C   UNL A   1      39.845  27.743  32.036  1.00  0.00     0.031 C 
ATOM     40  C   UNL A   1      40.055  28.406  27.465  1.00  0.00     0.029 A 
ATOM     41  N   UNL A   1      41.815  28.022  28.739  1.00  0.00    -0.354 N 
ATOM     42  C   UNL A   1      41.433  28.899  33.169  1.00  0.00     0.074 A 
ATOM     43  C   UNL A   1      40.335  27.975  33.256  1.00  0.00     0.031 C 
ATOM     44  C   UNL A   1      40.901  27.622  26.751  1.00  0.00     0.029 A 
ATOM     45  C   UNL A   1      42.089  27.362  27.548  1.00  0.00     0.049 A 
ATOM     46  H   UNL A   1      42.470  28.079  29.472  1.00  0.00     0.167 HD
ATOM     47  C   UNL A   1      42.626  28.935  33.819  1.00  0.00     0.037 A 
ATOM     48  C   UNL A   1      43.205  26.636  27.280  1.00  0.00     0.037 A 
ATOM     49  C   UNL A   1      43.480  29.966  33.266  1.00  0.00     0.049 A 
ATOM     50  C   UNL A   1      44.251  27.088  28.244  1.00  0.00     0.074 A 
ATOM     51  C   UNL A   1      43.341  31.328  33.065  1.00  0.00     0.029 A 
ATOM     52  N   UNL A   1      44.494  29.570  32.421  1.00  0.00    -0.354 N 
ATOM     53  N   UNL A   1      44.776  28.285  28.238  1.00  0.00    -0.248 NA
ATOM     54  C   UNL A   1      44.359  26.374  29.509  1.00  0.00     0.031 C 
ATOM     55  C   UNL A   1      43.917  31.575  31.783  1.00  0.00     0.029 A 
ATOM     56  C   UNL A   1      44.451  30.376  31.309  1.00  0.00     0.049 A 
ATOM     57  H   UNL A   1      45.134  28.840  32.585  1.00  0.00     0.167 HD
ATOM     58  C   UNL A   1      44.882  28.639  29.577  1.00  0.00     0.074 A 
ATOM     59  C   UNL A   1      44.690  27.390  30.313  1.00  0.00     0.031 C 
ATOM     60  C   UNL A   1      44.825  29.945  29.976  1.00  0.00     0.037 A 
BRANCH  47  61
ATOM     61  C   UNL A   1      43.160  27.813  34.675  1.00  0.00     0.058 A 
ATOM     62  C   UNL A   1      43.497  28.087  36.015  1.00  0.00     0.135 A 
ATOM     63  C   UNL A   1      43.585  26.555  34.187  1.00  0.00     0.135 A 
ATOM     64  F   UNL A   1      43.148  29.254  36.581  1.00  0.00    -0.206 F 
ATOM     65  C   UNL A   1      44.261  27.214  36.785  1.00  0.00     0.059 A 
ATOM     66  C   UNL A   1      44.293  25.644  34.957  1.00  0.00     0.059 A 
ATOM     67  F   UNL A   1      43.429  26.179  32.913  1.00  0.00    -0.206 F 
ATOM     68  C   UNL A   1      44.667  25.999  36.240  1.00  0.00     0.060 A 
BRANCH  68  69
ATOM     69  S   UNL A   1      45.738  24.915  37.192  1.00  0.00     0.124 S 
ATOM     70  O   UNL A   1      46.762  25.849  37.647  1.00  0.00    -0.237 OA
ATOM     71  O   UNL A   1      44.827  24.413  38.214  1.00  0.00    -0.237 OA
ATOM     72  O   UNL A   1      46.175  23.928  36.208  1.00  0.00    -0.744 OA
ENDBRANCH  68  69
ENDBRANCH  47  61
BRANCH  48  73
ATOM     73  C   UNL A   1      43.332  25.372  26.503  1.00  0.00     0.058 A 
ATOM     74  C   UNL A   1      44.313  25.224  25.503  1.00  0.00     0.135 A 
ATOM     75  C   UNL A   1      42.697  24.186  26.924  1.00  0.00     0.135 A 
ATOM     76  F   UNL A   1      44.983  26.295  25.052  1.00  0.00    -0.206 F 
ATOM     77  C   UNL A   1      44.685  23.972  24.998  1.00  0.00     0.059 A 
ATOM     78  C   UNL A   1      43.045  22.928  26.428  1.00  0.00     0.059 A 
ATOM     79  F   UNL A   1      41.784  24.202  27.906  1.00  0.00    -0.206 F 
ATOM     80  C   UNL A   1      44.060  22.825  25.485  1.00  0.00     0.060 A 
BRANCH  80  81
ATOM     81  S   UNL A   1      44.667  21.195  24.983  1.00  0.00     0.124 S 
ATOM     82  O   UNL A   1      46.039  21.219  25.477  1.00  0.00    -0.237 OA
ATOM     83  O   UNL A   1      43.753  20.296  25.678  1.00  0.00    -0.237 OA
ATOM     84  O   UNL A   1      44.528  21.215  23.529  1.00  0.00    -0.744 OA
ENDBRANCH  80  81
ENDBRANCH  48  73
BRANCH  60  85
ATOM     85  C   UNL A   1      44.947  31.023  28.923  1.00  0.00     0.058 A 
ATOM     86  C   UNL A   1      46.162  31.496  28.393  1.00  0.00     0.135 A 
ATOM     87  C   UNL A   1      43.769  31.492  28.322  1.00  0.00     0.135 A 
ATOM     88  F   UNL A   1      47.337  31.025  28.832  1.00  0.00    -0.206 F 
ATOM     89  C   UNL A   1      46.202  32.422  27.346  1.00  0.00     0.059 A 
ATOM     90  C   UNL A   1      43.784  32.388  27.256  1.00  0.00     0.059 A 
ATOM     91  F   UNL A   1      42.575  31.037  28.738  1.00  0.00    -0.206 F 
ATOM     92  C   UNL A   1      45.005  32.862  26.782  1.00  0.00     0.060 A 
BRANCH  92  93
ATOM     93  S   UNL A   1      45.055  34.005  25.384  1.00  0.00     0.124 S 
ATOM     94  O   UNL A   1      46.478  34.310  25.288  1.00  0.00    -0.237 OA
ATOM     95  O   UNL A   1      44.504  33.202  24.296  1.00  0.00    -0.237 OA
ATOM     96  O   UNL A   1      44.208  35.113  25.818  1.00  0.00    -0.744 OA
ENDBRANCH  92  93
ENDBRANCH  60  85
ENDBRANCH  34  35
ENDBRANCH  26  29
ENDBRANCH  24  25
ENDBRANCH   1  24
TORSDOF 16
ENDMDL
