MODEL 1
REMARK VINA RESULT:     -11.8      0.000      0.000
REMARK SMILES C[C@@H](C(=O)NCCCNC(=O)c1ccc(-c2c3nc(c(-c4c(F)cc(S(=O)(=O)[O-])cc4F)c4ccc([nH]4)c(-c4c(F)cc(S(=O)(=O)[O-])cc4F)c4nc(c(-c5c(F)cc(S(=O)(=O)[O-])cc5F)c5ccc2[nH]5)C=C4)C=C3)cc1)c1cc(C(=O)c2ccccc2)ccc1O
REMARK SMILES IDX 7 1 6 2 5 3 3 4 4 5 2 7 1 8 78 9 79 10 91 11 80 12 90 13
REMARK SMILES IDX 89 14 92 15 81 17 82 18 83 19 84 20 88 21 85 22 87 23 86 24
REMARK SMILES IDX 8 25 9 26 10 27 11 29 12 30 13 31 77 32 14 33 76 34 15 35
REMARK SMILES IDX 16 36 17 37 70 38 18 39 75 40 69 41 71 42 19 43 74 44 68 45
REMARK SMILES IDX 67 46 20 48 54 49 33 50 53 51 34 52 37 53 52 54 72 55 35 56
REMARK SMILES IDX 36 57 51 59 73 60 38 61 21 62 22 63 31 64 23 65 24 66 30 67
REMARK SMILES IDX 32 68 25 69 26 70 27 71 28 72 29 73 55 74 56 75 65 76 57 77
REMARK SMILES IDX 58 78 64 79 66 80 59 81 60 82 61 83 62 84 63 85 39 86 40 87
REMARK SMILES IDX 49 88 41 89 42 90 48 91 50 92 43 93 44 94 45 95 46 96 47 97
REMARK H PARENT 5 6 92 16 9 28 71 47 37 58
REMARK Flexibility Score: inf
ROOT
ATOM      1  C   UNL A   1      33.363  27.540  26.516  1.00  0.00     0.042 C 
ENDROOT
BRANCH   1   2
ATOM      2  C   UNL A   1      31.890  27.899  26.687  1.00  0.00     0.117 C 
BRANCH   2   3
ATOM      3  N   UNL A   1      31.062  26.718  26.822  1.00  0.00    -0.356 N 
ATOM      4  C   UNL A   1      30.222  26.114  25.938  1.00  0.00     0.227 C 
ATOM      5  O   UNL A   1      29.691  25.066  26.323  1.00  0.00    -0.274 OA
ATOM      6  H   UNL A   1      31.116  26.278  27.701  1.00  0.00     0.163 HD
BRANCH   4   7
ATOM      7  C   UNL A   1      30.053  26.644  24.501  1.00  0.00     0.109 C 
ATOM      8  C   UNL A   1      28.602  26.485  24.025  1.00  0.00     0.023 C 
BRANCH   7   9
ATOM      9  C   UNL A   1      31.081  26.027  23.538  1.00  0.00     0.007 A 
ATOM     10  C   UNL A   1      31.822  24.879  23.869  1.00  0.00     0.020 A 
ATOM     11  C   UNL A   1      31.296  26.570  22.260  1.00  0.00     0.119 A 
ATOM     12  C   UNL A   1      32.726  24.298  22.966  1.00  0.00     0.023 A 
ATOM     13  C   UNL A   1      32.171  25.991  21.343  1.00  0.00     0.047 A 
ATOM     14  C   UNL A   1      32.888  24.849  21.693  1.00  0.00     0.016 A 
BRANCH  11  15
ATOM     15  O   UNL A   1      30.689  27.730  21.871  1.00  0.00    -0.508 OA
ATOM     16  H   UNL A   1      30.451  27.857  20.974  1.00  0.00     0.293 HD
ENDBRANCH  11  15
BRANCH  12  17
ATOM     17  C   UNL A   1      33.433  23.061  23.392  1.00  0.00     0.193 C 
ATOM     18  O   UNL A   1      32.935  21.964  23.154  1.00  0.00    -0.289 OA
BRANCH  17  19
ATOM     19  C   UNL A   1      34.743  23.114  24.073  1.00  0.00     0.022 A 
ATOM     20  C   UNL A   1      34.769  23.472  25.425  1.00  0.00     0.012 A 
ATOM     21  C   UNL A   1      35.937  22.855  23.390  1.00  0.00     0.012 A 
ATOM     22  C   UNL A   1      35.984  23.531  26.105  1.00  0.00     0.001 A 
ATOM     23  C   UNL A   1      37.151  22.919  24.074  1.00  0.00     0.001 A 
ATOM     24  C   UNL A   1      37.173  23.250  25.431  1.00  0.00     0.000 A 
ENDBRANCH  17  19
ENDBRANCH  12  17
ENDBRANCH   7   9
ENDBRANCH   4   7
ENDBRANCH   2   3
ENDBRANCH   1   2
BRANCH   1  25
ATOM     25  C   UNL A   1      34.204  28.632  25.864  1.00  0.00     0.118 C 
BRANCH  25  26
ATOM     26  N   UNL A   1      33.869  29.958  26.353  1.00  0.00    -0.352 N 
ATOM     27  C   UNL A   1      34.443  30.693  27.358  1.00  0.00     0.251 C 
ATOM     28  H   UNL A   1      33.116  30.394  25.894  1.00  0.00     0.163 HD
ATOM     29  O   UNL A   1      33.880  31.718  27.740  1.00  0.00    -0.269 OA
BRANCH  27  30
ATOM     30  C   UNL A   1      35.714  30.268  27.986  1.00  0.00     0.039 A 
ATOM     31  C   UNL A   1      35.668  29.671  29.249  1.00  0.00     0.014 A 
ATOM     32  C   UNL A   1      36.950  30.505  27.375  1.00  0.00     0.014 A 
ATOM     33  C   UNL A   1      36.852  29.295  29.887  1.00  0.00     0.010 A 
ATOM     34  C   UNL A   1      38.126  30.059  27.977  1.00  0.00     0.010 A 
ATOM     35  C   UNL A   1      38.091  29.476  29.252  1.00  0.00    -0.014 A 
BRANCH  35  36
ATOM     36  C   UNL A   1      39.359  29.118  29.939  1.00  0.00     0.031 A 
ATOM     37  C   UNL A   1      39.782  29.865  31.176  1.00  0.00     0.074 A 
ATOM     38  C   UNL A   1      40.143  28.144  29.437  1.00  0.00     0.049 A 
ATOM     39  N   UNL A   1      40.861  29.721  31.902  1.00  0.00    -0.248 NA
ATOM     40  C   UNL A   1      38.886  30.936  31.642  1.00  0.00     0.031 C 
ATOM     41  C   UNL A   1      39.872  27.385  28.214  1.00  0.00     0.029 A 
ATOM     42  N   UNL A   1      41.331  27.631  29.889  1.00  0.00    -0.354 N 
ATOM     43  C   UNL A   1      40.780  30.686  32.899  1.00  0.00     0.074 A 
ATOM     44  C   UNL A   1      39.578  31.451  32.648  1.00  0.00     0.031 C 
ATOM     45  C   UNL A   1      40.856  26.491  28.025  1.00  0.00     0.029 A 
ATOM     46  C   UNL A   1      41.837  26.627  29.097  1.00  0.00     0.049 A 
ATOM     47  H   UNL A   1      41.780  27.951  30.705  1.00  0.00     0.167 HD
ATOM     48  C   UNL A   1      41.611  30.898  33.948  1.00  0.00     0.037 A 
ATOM     49  C   UNL A   1      42.961  25.896  29.224  1.00  0.00     0.037 A 
ATOM     50  C   UNL A   1      42.792  30.119  34.209  1.00  0.00     0.049 A 
ATOM     51  C   UNL A   1      43.850  26.119  30.418  1.00  0.00     0.074 A 
ATOM     52  C   UNL A   1      43.687  30.231  35.258  1.00  0.00     0.029 A 
ATOM     53  N   UNL A   1      43.240  29.074  33.413  1.00  0.00    -0.354 N 
ATOM     54  N   UNL A   1      43.731  27.004  31.379  1.00  0.00    -0.248 NA
ATOM     55  C   UNL A   1      45.010  25.230  30.557  1.00  0.00     0.031 C 
ATOM     56  C   UNL A   1      44.689  29.268  35.084  1.00  0.00     0.029 A 
ATOM     57  C   UNL A   1      44.396  28.531  33.947  1.00  0.00     0.049 A 
ATOM     58  H   UNL A   1      42.800  28.764  32.589  1.00  0.00     0.167 HD
ATOM     59  C   UNL A   1      44.786  26.762  32.251  1.00  0.00     0.074 A 
ATOM     60  C   UNL A   1      45.525  25.639  31.708  1.00  0.00     0.031 C 
ATOM     61  C   UNL A   1      45.113  27.407  33.399  1.00  0.00     0.037 A 
BRANCH  48  62
ATOM     62  C   UNL A   1      41.257  32.016  34.892  1.00  0.00     0.058 A 
ATOM     63  C   UNL A   1      40.401  31.808  35.986  1.00  0.00     0.135 A 
ATOM     64  C   UNL A   1      41.774  33.307  34.704  1.00  0.00     0.135 A 
ATOM     65  F   UNL A   1      39.864  30.597  36.204  1.00  0.00    -0.206 F 
ATOM     66  C   UNL A   1      40.035  32.849  36.833  1.00  0.00     0.059 A 
ATOM     67  C   UNL A   1      41.445  34.358  35.557  1.00  0.00     0.059 A 
ATOM     68  F   UNL A   1      42.599  33.563  33.676  1.00  0.00    -0.206 F 
ATOM     69  C   UNL A   1      40.557  34.123  36.606  1.00  0.00     0.060 A 
BRANCH  69  70
ATOM     70  S   UNL A   1      40.055  35.469  37.699  1.00  0.00     0.124 S 
ATOM     71  O   UNL A   1      39.871  36.561  36.747  1.00  0.00    -0.237 OA
ATOM     72  O   UNL A   1      38.835  34.945  38.304  1.00  0.00    -0.237 OA
ATOM     73  O   UNL A   1      41.190  35.612  38.606  1.00  0.00    -0.744 OA
ENDBRANCH  69  70
ENDBRANCH  48  62
BRANCH  49  74
ATOM     74  C   UNL A   1      43.280  24.856  28.212  1.00  0.00     0.058 A 
ATOM     75  C   UNL A   1      42.890  23.522  28.396  1.00  0.00     0.135 A 
ATOM     76  C   UNL A   1      43.949  25.184  27.022  1.00  0.00     0.135 A 
ATOM     77  F   UNL A   1      42.250  23.161  29.519  1.00  0.00    -0.206 F 
ATOM     78  C   UNL A   1      43.160  22.545  27.445  1.00  0.00     0.059 A 
ATOM     79  C   UNL A   1      44.212  24.229  26.045  1.00  0.00     0.059 A 
ATOM     80  F   UNL A   1      44.326  26.450  26.790  1.00  0.00    -0.206 F 
ATOM     81  C   UNL A   1      43.819  22.909  26.269  1.00  0.00     0.060 A 
BRANCH  81  82
ATOM     82  S   UNL A   1      44.106  21.648  25.009  1.00  0.00     0.124 S 
ATOM     83  O   UNL A   1      43.057  20.683  25.315  1.00  0.00    -0.237 OA
ATOM     84  O   UNL A   1      43.938  22.405  23.772  1.00  0.00    -0.237 OA
ATOM     85  O   UNL A   1      45.471  21.206  25.282  1.00  0.00    -0.744 OA
ENDBRANCH  81  82
ENDBRANCH  49  74
BRANCH  61  86
ATOM     86  C   UNL A   1      46.296  26.888  34.167  1.00  0.00     0.058 A 
ATOM     87  C   UNL A   1      46.166  25.878  35.133  1.00  0.00     0.135 A 
ATOM     88  C   UNL A   1      47.583  27.389  33.909  1.00  0.00     0.135 A 
ATOM     89  F   UNL A   1      44.958  25.368  35.420  1.00  0.00    -0.206 F 
ATOM     90  C   UNL A   1      47.267  25.404  35.839  1.00  0.00     0.059 A 
ATOM     91  C   UNL A   1      48.700  26.911  34.585  1.00  0.00     0.059 A 
ATOM     92  F   UNL A   1      47.762  28.347  32.987  1.00  0.00    -0.206 F 
ATOM     93  C   UNL A   1      48.529  25.930  35.561  1.00  0.00     0.060 A 
BRANCH  93  94
ATOM     94  S   UNL A   1      49.954  25.299  36.474  1.00  0.00     0.124 S 
ATOM     95  O   UNL A   1      50.816  24.839  35.391  1.00  0.00    -0.237 OA
ATOM     96  O   UNL A   1      50.416  26.483  37.192  1.00  0.00    -0.237 OA
ATOM     97  O   UNL A   1      49.381  24.251  37.312  1.00  0.00    -0.744 OA
ENDBRANCH  93  94
ENDBRANCH  61  86
ENDBRANCH  35  36
ENDBRANCH  27  30
ENDBRANCH  25  26
ENDBRANCH   1  25
TORSDOF 17
ENDMDL
MODEL 2
REMARK VINA RESULT:     -11.8      3.300      9.525
REMARK SMILES C[C@@H](C(=O)NCCCNC(=O)c1ccc(-c2c3nc(c(-c4c(F)cc(S(=O)(=O)[O-])cc4F)c4ccc([nH]4)c(-c4c(F)cc(S(=O)(=O)[O-])cc4F)c4nc(c(-c5c(F)cc(S(=O)(=O)[O-])cc5F)c5ccc2[nH]5)C=C4)C=C3)cc1)c1cc(C(=O)c2ccccc2)ccc1O
REMARK SMILES IDX 7 1 6 2 5 3 3 4 4 5 2 7 1 8 78 9 79 10 91 11 80 12 90 13
REMARK SMILES IDX 89 14 92 15 81 17 82 18 83 19 84 20 88 21 85 22 87 23 86 24
REMARK SMILES IDX 8 25 9 26 10 27 11 29 12 30 13 31 77 32 14 33 76 34 15 35
REMARK SMILES IDX 16 36 17 37 70 38 18 39 75 40 69 41 71 42 19 43 74 44 68 45
REMARK SMILES IDX 67 46 20 48 54 49 33 50 53 51 34 52 37 53 52 54 72 55 35 56
REMARK SMILES IDX 36 57 51 59 73 60 38 61 21 62 22 63 31 64 23 65 24 66 30 67
REMARK SMILES IDX 32 68 25 69 26 70 27 71 28 72 29 73 55 74 56 75 65 76 57 77
REMARK SMILES IDX 58 78 64 79 66 80 59 81 60 82 61 83 62 84 63 85 39 86 40 87
REMARK SMILES IDX 49 88 41 89 42 90 48 91 50 92 43 93 44 94 45 95 46 96 47 97
REMARK H PARENT 5 6 92 16 9 28 71 47 37 58
REMARK Flexibility Score: inf
ROOT
ATOM      1  C   UNL A   1      38.824  22.757  26.592  1.00  0.00     0.042 C 
ENDROOT
BRANCH   1   2
ATOM      2  C   UNL A   1      37.793  23.748  26.059  1.00  0.00     0.117 C 
BRANCH   2   3
ATOM      3  N   UNL A   1      37.551  23.560  24.642  1.00  0.00    -0.356 N 
ATOM      4  C   UNL A   1      36.404  23.286  23.964  1.00  0.00     0.227 C 
ATOM      5  O   UNL A   1      36.498  23.244  22.732  1.00  0.00    -0.274 OA
ATOM      6  H   UNL A   1      38.351  23.644  24.075  1.00  0.00     0.163 HD
BRANCH   4   7
ATOM      7  C   UNL A   1      35.050  23.167  24.691  1.00  0.00     0.109 C 
ATOM      8  C   UNL A   1      34.345  21.853  24.326  1.00  0.00     0.023 C 
BRANCH   7   9
ATOM      9  C   UNL A   1      34.171  24.410  24.474  1.00  0.00     0.007 A 
ATOM     10  C   UNL A   1      33.724  25.206  25.545  1.00  0.00     0.020 A 
ATOM     11  C   UNL A   1      33.806  24.827  23.184  1.00  0.00     0.119 A 
ATOM     12  C   UNL A   1      32.959  26.363  25.334  1.00  0.00     0.023 A 
ATOM     13  C   UNL A   1      33.068  25.986  22.956  1.00  0.00     0.047 A 
ATOM     14  C   UNL A   1      32.644  26.762  24.033  1.00  0.00     0.016 A 
BRANCH  11  15
ATOM     15  O   UNL A   1      34.119  24.080  22.083  1.00  0.00    -0.508 OA
ATOM     16  H   UNL A   1      34.490  23.225  22.187  1.00  0.00     0.293 HD
ENDBRANCH  11  15
BRANCH  12  17
ATOM     17  C   UNL A   1      32.567  27.162  26.525  1.00  0.00     0.193 C 
ATOM     18  O   UNL A   1      31.694  26.740  27.279  1.00  0.00    -0.289 OA
BRANCH  17  19
ATOM     19  C   UNL A   1      33.226  28.445  26.849  1.00  0.00     0.022 A 
ATOM     20  C   UNL A   1      32.422  29.583  26.975  1.00  0.00     0.012 A 
ATOM     21  C   UNL A   1      34.614  28.543  26.989  1.00  0.00     0.012 A 
ATOM     22  C   UNL A   1      33.003  30.813  27.282  1.00  0.00     0.001 A 
ATOM     23  C   UNL A   1      35.191  29.777  27.292  1.00  0.00     0.001 A 
ATOM     24  C   UNL A   1      34.386  30.907  27.445  1.00  0.00     0.000 A 
ENDBRANCH  17  19
ENDBRANCH  12  17
ENDBRANCH   7   9
ENDBRANCH   4   7
ENDBRANCH   2   3
ENDBRANCH   1   2
BRANCH   1  25
ATOM     25  C   UNL A   1      40.089  23.405  27.144  1.00  0.00     0.118 C 
BRANCH  25  26
ATOM     26  N   UNL A   1      40.838  24.119  26.127  1.00  0.00    -0.352 N 
ATOM     27  C   UNL A   1      41.232  25.432  26.087  1.00  0.00     0.251 C 
ATOM     28  H   UNL A   1      41.103  23.580  25.347  1.00  0.00     0.163 HD
ATOM     29  O   UNL A   1      41.693  25.883  25.039  1.00  0.00    -0.269 OA
BRANCH  27  30
ATOM     30  C   UNL A   1      41.103  26.305  27.275  1.00  0.00     0.039 A 
ATOM     31  C   UNL A   1      39.999  26.132  28.114  1.00  0.00     0.014 A 
ATOM     32  C   UNL A   1      42.020  27.329  27.537  1.00  0.00     0.014 A 
ATOM     33  C   UNL A   1      39.825  26.965  29.221  1.00  0.00     0.010 A 
ATOM     34  C   UNL A   1      41.889  28.109  28.685  1.00  0.00     0.010 A 
ATOM     35  C   UNL A   1      40.774  27.955  29.522  1.00  0.00    -0.014 A 
BRANCH  35  36
ATOM     36  C   UNL A   1      40.579  28.874  30.673  1.00  0.00     0.031 A 
ATOM     37  C   UNL A   1      41.420  28.717  31.912  1.00  0.00     0.074 A 
ATOM     38  C   UNL A   1      39.628  29.827  30.619  1.00  0.00     0.049 A 
ATOM     39  N   UNL A   1      41.385  29.398  33.029  1.00  0.00    -0.248 NA
ATOM     40  C   UNL A   1      42.415  27.632  31.906  1.00  0.00     0.031 C 
ATOM     41  C   UNL A   1      38.711  30.044  29.498  1.00  0.00     0.029 A 
ATOM     42  N   UNL A   1      39.271  30.787  31.531  1.00  0.00    -0.354 N 
ATOM     43  C   UNL A   1      42.339  28.819  33.858  1.00  0.00     0.074 A 
ATOM     44  C   UNL A   1      42.892  27.691  33.140  1.00  0.00     0.031 C 
ATOM     45  C   UNL A   1      37.910  31.084  29.781  1.00  0.00     0.029 A 
ATOM     46  C   UNL A   1      38.240  31.592  31.110  1.00  0.00     0.049 A 
ATOM     47  H   UNL A   1      39.713  30.890  32.405  1.00  0.00     0.167 HD
ATOM     48  C   UNL A   1      42.742  29.207  35.092  1.00  0.00     0.037 A 
ATOM     49  C   UNL A   1      37.632  32.626  31.723  1.00  0.00     0.037 A 
ATOM     50  C   UNL A   1      42.207  30.344  35.793  1.00  0.00     0.049 A 
ATOM     51  C   UNL A   1      38.123  33.068  33.075  1.00  0.00     0.074 A 
ATOM     52  C   UNL A   1      42.566  30.841  37.034  1.00  0.00     0.029 A 
ATOM     53  N   UNL A   1      41.201  31.168  35.308  1.00  0.00    -0.354 N 
ATOM     54  N   UNL A   1      39.061  32.538  33.824  1.00  0.00    -0.248 NA
ATOM     55  C   UNL A   1      37.490  34.259  33.655  1.00  0.00     0.031 C 
ATOM     56  C   UNL A   1      41.760  31.953  37.309  1.00  0.00     0.029 A 
ATOM     57  C   UNL A   1      40.927  32.171  36.223  1.00  0.00     0.049 A 
ATOM     58  H   UNL A   1      40.749  31.056  34.441  1.00  0.00     0.167 HD
ATOM     59  C   UNL A   1      39.148  33.346  34.951  1.00  0.00     0.074 A 
ATOM     60  C   UNL A   1      38.176  34.408  34.779  1.00  0.00     0.031 C 
ATOM     61  C   UNL A   1      39.962  33.225  36.030  1.00  0.00     0.037 A 
BRANCH  48  62
ATOM     62  C   UNL A   1      43.823  28.392  35.751  1.00  0.00     0.058 A 
ATOM     63  C   UNL A   1      45.184  28.658  35.524  1.00  0.00     0.135 A 
ATOM     64  C   UNL A   1      43.500  27.334  36.615  1.00  0.00     0.135 A 
ATOM     65  F   UNL A   1      45.549  29.648  34.694  1.00  0.00    -0.206 F 
ATOM     66  C   UNL A   1      46.184  27.878  36.095  1.00  0.00     0.059 A 
ATOM     67  C   UNL A   1      44.486  26.558  37.221  1.00  0.00     0.059 A 
ATOM     68  F   UNL A   1      42.216  27.036  36.870  1.00  0.00    -0.206 F 
ATOM     69  C   UNL A   1      45.825  26.825  36.936  1.00  0.00     0.060 A 
BRANCH  69  70
ATOM     70  S   UNL A   1      47.132  25.806  37.651  1.00  0.00     0.124 S 
ATOM     71  O   UNL A   1      46.436  24.538  37.847  1.00  0.00    -0.237 OA
ATOM     72  O   UNL A   1      48.147  25.815  36.602  1.00  0.00    -0.237 OA
ATOM     73  O   UNL A   1      47.491  26.521  38.872  1.00  0.00    -0.744 OA
ENDBRANCH  69  70
ENDBRANCH  48  62
BRANCH  49  74
ATOM     74  C   UNL A   1      36.523  33.339  31.037  1.00  0.00     0.058 A 
ATOM     75  C   UNL A   1      36.768  34.167  29.932  1.00  0.00     0.135 A 
ATOM     76  C   UNL A   1      35.192  33.177  31.451  1.00  0.00     0.135 A 
ATOM     77  F   UNL A   1      38.025  34.354  29.501  1.00  0.00    -0.206 F 
ATOM     78  C   UNL A   1      35.736  34.819  29.266  1.00  0.00     0.059 A 
ATOM     79  C   UNL A   1      34.140  33.801  30.788  1.00  0.00     0.059 A 
ATOM     80  F   UNL A   1      34.904  32.381  32.492  1.00  0.00    -0.206 F 
ATOM     81  C   UNL A   1      34.423  34.627  29.700  1.00  0.00     0.060 A 
BRANCH  81  82
ATOM     82  S   UNL A   1      33.083  35.423  28.789  1.00  0.00     0.124 S 
ATOM     83  O   UNL A   1      32.251  35.931  29.874  1.00  0.00    -0.237 OA
ATOM     84  O   UNL A   1      33.797  36.428  28.008  1.00  0.00    -0.237 OA
ATOM     85  O   UNL A   1      32.510  34.329  28.011  1.00  0.00    -0.744 OA
ENDBRANCH  81  82
ENDBRANCH  49  74
BRANCH  61  86
ATOM     86  C   UNL A   1      39.866  34.288  37.089  1.00  0.00     0.058 A 
ATOM     87  C   UNL A   1      40.654  35.449  37.045  1.00  0.00     0.135 A 
ATOM     88  C   UNL A   1      38.947  34.155  38.143  1.00  0.00     0.135 A 
ATOM     89  F   UNL A   1      41.549  35.622  36.060  1.00  0.00    -0.206 F 
ATOM     90  C   UNL A   1      40.557  36.427  38.029  1.00  0.00     0.059 A 
ATOM     91  C   UNL A   1      38.817  35.133  39.123  1.00  0.00     0.059 A 
ATOM     92  F   UNL A   1      38.163  33.070  38.223  1.00  0.00    -0.206 F 
ATOM     93  C   UNL A   1      39.638  36.258  39.067  1.00  0.00     0.060 A 
BRANCH  93  94
ATOM     94  S   UNL A   1      39.512  37.540  40.333  1.00  0.00     0.124 S 
ATOM     95  O   UNL A   1      40.779  38.243  40.165  1.00  0.00    -0.237 OA
ATOM     96  O   UNL A   1      38.320  38.274  39.919  1.00  0.00    -0.237 OA
ATOM     97  O   UNL A   1      39.372  36.779  41.571  1.00  0.00    -0.744 OA
ENDBRANCH  93  94
ENDBRANCH  61  86
ENDBRANCH  35  36
ENDBRANCH  27  30
ENDBRANCH  25  26
ENDBRANCH   1  25
TORSDOF 17
ENDMDL
MODEL 3
REMARK VINA RESULT:     -11.7      1.292      2.377
REMARK SMILES C[C@@H](C(=O)NCCCNC(=O)c1ccc(-c2c3nc(c(-c4c(F)cc(S(=O)(=O)[O-])cc4F)c4ccc([nH]4)c(-c4c(F)cc(S(=O)(=O)[O-])cc4F)c4nc(c(-c5c(F)cc(S(=O)(=O)[O-])cc5F)c5ccc2[nH]5)C=C4)C=C3)cc1)c1cc(C(=O)c2ccccc2)ccc1O
REMARK SMILES IDX 7 1 6 2 5 3 3 4 4 5 2 7 1 8 78 9 79 10 91 11 80 12 90 13
REMARK SMILES IDX 89 14 92 15 81 17 82 18 83 19 84 20 88 21 85 22 87 23 86 24
REMARK SMILES IDX 8 25 9 26 10 27 11 29 12 30 13 31 77 32 14 33 76 34 15 35
REMARK SMILES IDX 16 36 17 37 70 38 18 39 75 40 69 41 71 42 19 43 74 44 68 45
REMARK SMILES IDX 67 46 20 48 54 49 33 50 53 51 34 52 37 53 52 54 72 55 35 56
REMARK SMILES IDX 36 57 51 59 73 60 38 61 21 62 22 63 31 64 23 65 24 66 30 67
REMARK SMILES IDX 32 68 25 69 26 70 27 71 28 72 29 73 55 74 56 75 65 76 57 77
REMARK SMILES IDX 58 78 64 79 66 80 59 81 60 82 61 83 62 84 63 85 39 86 40 87
REMARK SMILES IDX 49 88 41 89 42 90 48 91 50 92 43 93 44 94 45 95 46 96 47 97
REMARK H PARENT 5 6 92 16 9 28 71 47 37 58
REMARK Flexibility Score: inf
ROOT
ATOM      1  C   UNL A   1      33.169  27.830  26.935  1.00  0.00     0.042 C 
ENDROOT
BRANCH   1   2
ATOM      2  C   UNL A   1      32.325  26.944  26.022  1.00  0.00     0.117 C 
BRANCH   2   3
ATOM      3  N   UNL A   1      31.751  25.826  26.742  1.00  0.00    -0.356 N 
ATOM      4  C   UNL A   1      31.493  24.550  26.346  1.00  0.00     0.227 C 
ATOM      5  O   UNL A   1      31.051  23.790  27.215  1.00  0.00    -0.274 OA
ATOM      6  H   UNL A   1      31.506  26.022  27.676  1.00  0.00     0.163 HD
BRANCH   4   7
ATOM      7  C   UNL A   1      31.857  24.060  24.931  1.00  0.00     0.109 C 
ATOM      8  C   UNL A   1      30.595  23.704  24.132  1.00  0.00     0.023 C 
BRANCH   7   9
ATOM      9  C   UNL A   1      32.896  22.927  24.965  1.00  0.00     0.007 A 
ATOM     10  C   UNL A   1      34.232  23.125  24.574  1.00  0.00     0.020 A 
ATOM     11  C   UNL A   1      32.558  21.644  25.428  1.00  0.00     0.119 A 
ATOM     12  C   UNL A   1      35.184  22.096  24.651  1.00  0.00     0.023 A 
ATOM     13  C   UNL A   1      33.496  20.619  25.534  1.00  0.00     0.047 A 
ATOM     14  C   UNL A   1      34.815  20.844  25.148  1.00  0.00     0.016 A 
BRANCH  11  15
ATOM     15  O   UNL A   1      31.270  21.325  25.754  1.00  0.00    -0.508 OA
ATOM     16  H   UNL A   1      30.557  21.741  25.309  1.00  0.00     0.293 HD
ENDBRANCH  11  15
BRANCH  12  17
ATOM     17  C   UNL A   1      36.581  22.413  24.254  1.00  0.00     0.193 C 
ATOM     18  O   UNL A   1      36.878  22.460  23.063  1.00  0.00    -0.289 OA
BRANCH  17  19
ATOM     19  C   UNL A   1      37.625  22.705  25.258  1.00  0.00     0.022 A 
ATOM     20  C   UNL A   1      38.538  21.693  25.573  1.00  0.00     0.012 A 
ATOM     21  C   UNL A   1      37.688  23.940  25.913  1.00  0.00     0.012 A 
ATOM     22  C   UNL A   1      39.539  21.928  26.513  1.00  0.00     0.001 A 
ATOM     23  C   UNL A   1      38.691  24.169  26.856  1.00  0.00     0.001 A 
ATOM     24  C   UNL A   1      39.618  23.167  27.150  1.00  0.00     0.000 A 
ENDBRANCH  17  19
ENDBRANCH  12  17
ENDBRANCH   7   9
ENDBRANCH   4   7
ENDBRANCH   2   3
ENDBRANCH   1   2
BRANCH   1  25
ATOM     25  C   UNL A   1      34.076  28.808  26.196  1.00  0.00     0.118 C 
BRANCH  25  26
ATOM     26  N   UNL A   1      33.850  30.185  26.593  1.00  0.00    -0.352 N 
ATOM     27  C   UNL A   1      34.516  30.954  27.514  1.00  0.00     0.251 C 
ATOM     28  H   UNL A   1      33.106  30.636  26.132  1.00  0.00     0.163 HD
ATOM     29  O   UNL A   1      34.038  32.040  27.838  1.00  0.00    -0.269 OA
BRANCH  27  30
ATOM     30  C   UNL A   1      35.784  30.492  28.121  1.00  0.00     0.039 A 
ATOM     31  C   UNL A   1      35.725  29.699  29.270  1.00  0.00     0.014 A 
ATOM     32  C   UNL A   1      37.027  30.880  27.609  1.00  0.00     0.014 A 
ATOM     33  C   UNL A   1      36.903  29.280  29.891  1.00  0.00     0.010 A 
ATOM     34  C   UNL A   1      38.202  30.396  28.183  1.00  0.00     0.010 A 
ATOM     35  C   UNL A   1      38.153  29.617  29.347  1.00  0.00    -0.014 A 
BRANCH  35  36
ATOM     36  C   UNL A   1      39.412  29.211  30.022  1.00  0.00     0.031 A 
ATOM     37  C   UNL A   1      39.850  29.911  31.282  1.00  0.00     0.074 A 
ATOM     38  C   UNL A   1      40.176  28.237  29.491  1.00  0.00     0.049 A 
ATOM     39  N   UNL A   1      40.925  29.723  32.004  1.00  0.00    -0.248 NA
ATOM     40  C   UNL A   1      38.977  30.986  31.781  1.00  0.00     0.031 C 
ATOM     41  C   UNL A   1      39.890  27.521  28.246  1.00  0.00     0.029 A 
ATOM     42  N   UNL A   1      41.353  27.685  29.927  1.00  0.00    -0.354 N 
ATOM     43  C   UNL A   1      40.864  30.658  33.030  1.00  0.00     0.074 A 
ATOM     44  C   UNL A   1      39.678  31.455  32.802  1.00  0.00     0.031 C 
ATOM     45  C   UNL A   1      40.855  26.613  28.029  1.00  0.00     0.029 A 
ATOM     46  C   UNL A   1      41.838  26.696  29.105  1.00  0.00     0.049 A 
ATOM     47  H   UNL A   1      41.808  27.971  30.753  1.00  0.00     0.167 HD
ATOM     48  C   UNL A   1      41.698  30.820  34.084  1.00  0.00     0.037 A 
ATOM     49  C   UNL A   1      42.947  25.939  29.209  1.00  0.00     0.037 A 
ATOM     50  C   UNL A   1      42.863  30.009  34.321  1.00  0.00     0.049 A 
ATOM     51  C   UNL A   1      43.839  26.106  30.409  1.00  0.00     0.074 A 
ATOM     52  C   UNL A   1      43.760  30.070  35.373  1.00  0.00     0.029 A 
ATOM     53  N   UNL A   1      43.290  28.980  33.493  1.00  0.00    -0.354 N 
ATOM     54  N   UNL A   1      43.739  26.964  31.397  1.00  0.00    -0.248 NA
ATOM     55  C   UNL A   1      44.981  25.189  30.521  1.00  0.00     0.031 C 
ATOM     56  C   UNL A   1      44.742  29.092  35.170  1.00  0.00     0.029 A 
ATOM     57  C   UNL A   1      44.434  28.397  34.011  1.00  0.00     0.049 A 
ATOM     58  H   UNL A   1      42.843  28.704  32.660  1.00  0.00     0.167 HD
ATOM     59  C   UNL A   1      44.788  26.673  32.261  1.00  0.00     0.074 A 
ATOM     60  C   UNL A   1      45.504  25.551  31.684  1.00  0.00     0.031 C 
ATOM     61  C   UNL A   1      45.128  27.275  33.428  1.00  0.00     0.037 A 
BRANCH  48  62
ATOM     62  C   UNL A   1      41.367  31.916  35.062  1.00  0.00     0.058 A 
ATOM     63  C   UNL A   1      41.979  33.178  34.984  1.00  0.00     0.135 A 
ATOM     64  C   UNL A   1      40.432  31.706  36.087  1.00  0.00     0.135 A 
ATOM     65  F   UNL A   1      42.893  33.429  34.033  1.00  0.00    -0.206 F 
ATOM     66  C   UNL A   1      41.710  34.177  35.913  1.00  0.00     0.059 A 
ATOM     67  C   UNL A   1      40.125  32.702  37.012  1.00  0.00     0.059 A 
ATOM     68  F   UNL A   1      39.815  30.520  36.208  1.00  0.00    -0.206 F 
ATOM     69  C   UNL A   1      40.786  33.927  36.929  1.00  0.00     0.060 A 
BRANCH  69  70
ATOM     70  S   UNL A   1      40.464  35.224  38.142  1.00  0.00     0.124 S 
ATOM     71  O   UNL A   1      39.050  35.003  38.433  1.00  0.00    -0.237 OA
ATOM     72  O   UNL A   1      41.391  34.886  39.218  1.00  0.00    -0.237 OA
ATOM     73  O   UNL A   1      40.772  36.452  37.417  1.00  0.00    -0.744 OA
ENDBRANCH  69  70
ENDBRANCH  48  62
BRANCH  49  74
ATOM     74  C   UNL A   1      43.245  24.923  28.165  1.00  0.00     0.058 A 
ATOM     75  C   UNL A   1      43.896  25.278  26.975  1.00  0.00     0.135 A 
ATOM     76  C   UNL A   1      42.917  23.572  28.355  1.00  0.00     0.135 A 
ATOM     77  F   UNL A   1      44.227  26.559  26.749  1.00  0.00    -0.206 F 
ATOM     78  C   UNL A   1      44.203  24.333  26.003  1.00  0.00     0.059 A 
ATOM     79  C   UNL A   1      43.234  22.604  27.407  1.00  0.00     0.059 A 
ATOM     80  F   UNL A   1      42.311  23.179  29.485  1.00  0.00    -0.206 F 
ATOM     81  C   UNL A   1      43.870  22.996  26.229  1.00  0.00     0.060 A 
BRANCH  81  82
ATOM     82  S   UNL A   1      44.333  21.766  24.991  1.00  0.00     0.124 S 
ATOM     83  O   UNL A   1      45.716  21.484  25.359  1.00  0.00    -0.237 OA
ATOM     84  O   UNL A   1      43.373  20.696  25.247  1.00  0.00    -0.237 OA
ATOM     85  O   UNL A   1      44.147  22.474  23.729  1.00  0.00    -0.744 OA
ENDBRANCH  81  82
ENDBRANCH  49  74
BRANCH  61  86
ATOM     86  C   UNL A   1      46.299  26.709  34.180  1.00  0.00     0.058 A 
ATOM     87  C   UNL A   1      46.145  25.685  35.128  1.00  0.00     0.135 A 
ATOM     88  C   UNL A   1      47.598  27.177  33.924  1.00  0.00     0.135 A 
ATOM     89  F   UNL A   1      44.924  25.205  35.412  1.00  0.00    -0.206 F 
ATOM     90  C   UNL A   1      47.235  25.167  35.819  1.00  0.00     0.059 A 
ATOM     91  C   UNL A   1      48.705  26.655  34.585  1.00  0.00     0.059 A 
ATOM     92  F   UNL A   1      47.800  28.146  33.018  1.00  0.00    -0.206 F 
ATOM     93  C   UNL A   1      48.511  25.661  35.543  1.00  0.00     0.060 A 
BRANCH  93  94
ATOM     94  S   UNL A   1      49.922  24.973  36.437  1.00  0.00     0.124 S 
ATOM     95  O   UNL A   1      50.561  24.170  35.401  1.00  0.00    -0.237 OA
ATOM     96  O   UNL A   1      50.648  26.171  36.848  1.00  0.00    -0.237 OA
ATOM     97  O   UNL A   1      49.300  24.222  37.523  1.00  0.00    -0.744 OA
ENDBRANCH  93  94
ENDBRANCH  61  86
ENDBRANCH  35  36
ENDBRANCH  27  30
ENDBRANCH  25  26
ENDBRANCH   1  25
TORSDOF 17
ENDMDL
