MODEL 1
REMARK VINA RESULT:     -13.9      0.000      0.000
REMARK SMILES Cc1ccc(C(=O)NCCCNC(=O)c2ccc(-c3c4nc(c(-c5c(F)cc(S(=O)(=O)[O-])cc5F)c5ccc([nH]5)c(-c5c(F)cc(S(=O)(=O)[O-])cc5F)c5nc(c(-c6c(F)cc(S(=O)(=O)[O-])cc6F)c6ccc3[nH]6)C=C5)C=C4)cc2)cc1NC(=O)C(=O)NC[C@@H](c1ccccc1)[NH+]1CC[NH+](C)CC1
REMARK SMILES IDX 9 1 8 2 6 3 7 4 5 6 1 7 2 8 3 9 82 10 4 11 81 12 83 13 84 14
REMARK SMILES IDX 85 16 86 17 87 18 88 19 89 21 90 22 97 23 98 24 103 25 99 27
REMARK SMILES IDX 102 28 100 29 101 30 91 32 92 33 96 34 93 35 95 36 94 37
REMARK SMILES IDX 10 38 11 39 12 40 13 41 14 43 15 44 16 45 80 46 17 47 79 48
REMARK SMILES IDX 18 49 19 50 20 51 73 52 21 53 78 54 72 55 74 56 22 57 77 58
REMARK SMILES IDX 71 59 70 60 23 62 57 63 36 64 56 65 37 66 40 67 55 68 75 69
REMARK SMILES IDX 38 70 39 71 54 73 76 74 41 75 24 76 25 77 34 78 26 79 27 80
REMARK SMILES IDX 33 81 35 82 28 83 29 84 30 85 31 86 32 87 58 88 59 89 68 90
REMARK SMILES IDX 60 91 61 92 67 93 69 94 62 95 63 96 64 97 65 98 66 99 42 100
REMARK SMILES IDX 43 101 52 102 44 103 45 104 51 105 53 106 46 107 47 108
REMARK SMILES IDX 48 109 49 110 50 111
REMARK H PARENT 8 5 83 15 88 20 97 26 100 31 12 42 74 61 40 72
REMARK Flexibility Score: inf
ROOT
ATOM      1  C   UNL A   1      34.682  22.171  24.275  1.00  0.00     0.118 C 
ENDROOT
BRANCH   1   2
ATOM      2  N   UNL A   1      33.996  20.898  24.633  1.00  0.00    -0.352 N 
ATOM      3  C   UNL A   1      32.637  20.697  24.857  1.00  0.00     0.251 C 
ATOM      4  O   UNL A   1      32.172  19.577  25.057  1.00  0.00    -0.269 OA
ATOM      5  H   UNL A   1      34.573  20.104  24.722  1.00  0.00     0.163 HD
BRANCH   3   6
ATOM      6  C   UNL A   1      31.751  21.890  25.000  1.00  0.00     0.041 A 
ATOM      7  C   UNL A   1      30.239  25.867  25.427  1.00  0.00     0.046 C 
ATOM      8  C   UNL A   1      30.794  24.488  25.198  1.00  0.00    -0.027 A 
ATOM      9  C   UNL A   1      31.088  23.740  26.363  1.00  0.00     0.006 A 
ATOM     10  C   UNL A   1      30.967  23.909  23.916  1.00  0.00     0.045 A 
ATOM     11  C   UNL A   1      31.632  22.467  26.264  1.00  0.00     0.014 A 
ATOM     12  C   UNL A   1      31.240  22.555  23.874  1.00  0.00     0.040 A 
BRANCH  10  13
ATOM     13  N   UNL A   1      30.922  24.729  22.762  1.00  0.00    -0.318 N 
ATOM     14  C   UNL A   1      31.693  25.696  22.131  1.00  0.00     0.313 C 
ATOM     15  H   UNL A   1      30.094  24.564  22.255  1.00  0.00     0.170 HD
ATOM     16  O   UNL A   1      31.235  26.192  21.096  1.00  0.00    -0.263 OA
BRANCH  14  17
ATOM     17  C   UNL A   1      33.037  26.256  22.596  1.00  0.00     0.309 C 
ATOM     18  O   UNL A   1      34.043  26.074  21.925  1.00  0.00    -0.264 OA
ATOM     19  N   UNL A   1      33.013  27.073  23.731  1.00  0.00    -0.341 N 
ATOM     20  H   UNL A   1      32.955  26.657  24.621  1.00  0.00     0.164 HD
BRANCH  19  21
ATOM     21  C   UNL A   1      33.072  28.541  23.627  1.00  0.00     0.186 C 
BRANCH  21  22
ATOM     22  C   UNL A   1      32.114  29.339  24.621  1.00  0.00     0.235 C 
BRANCH  22  23
ATOM     23  N   UNL A   1      32.056  28.977  26.056  1.00  0.00    -0.318 N 
ATOM     24  C   UNL A   1      31.800  30.088  26.976  1.00  0.00     0.325 C 
ATOM     25  C   UNL A   1      33.131  28.136  26.586  1.00  0.00     0.325 C 
ATOM     26  H   UNL A   1      31.227  28.383  26.030  1.00  0.00     0.349 HD
ATOM     27  C   UNL A   1      33.056  30.885  27.388  1.00  0.00     0.324 C 
ATOM     28  C   UNL A   1      34.427  28.894  26.907  1.00  0.00     0.324 C 
ATOM     29  N   UNL A   1      34.238  30.080  27.763  1.00  0.00    -0.328 N 
ATOM     30  C   UNL A   1      35.440  30.914  27.715  1.00  0.00     0.333 C 
ATOM     31  H   UNL A   1      34.075  29.740  28.710  1.00  0.00     0.348 HD
ENDBRANCH  22  23
BRANCH  22  32
ATOM     32  C   UNL A   1      30.689  29.553  24.070  1.00  0.00     0.011 A 
ATOM     33  C   UNL A   1      30.091  30.824  24.198  1.00  0.00     0.010 A 
ATOM     34  C   UNL A   1      29.956  28.549  23.418  1.00  0.00     0.010 A 
ATOM     35  C   UNL A   1      28.837  31.095  23.642  1.00  0.00     0.001 A 
ATOM     36  C   UNL A   1      28.711  28.828  22.843  1.00  0.00     0.001 A 
ATOM     37  C   UNL A   1      28.157  30.102  22.945  1.00  0.00     0.000 A 
ENDBRANCH  22  32
ENDBRANCH  21  22
ENDBRANCH  19  21
ENDBRANCH  14  17
ENDBRANCH  10  13
ENDBRANCH   3   6
ENDBRANCH   1   2
BRANCH   1  38
ATOM     38  C   UNL A   1      36.220  22.218  24.032  1.00  0.00     0.042 C 
BRANCH  38  39
ATOM     39  C   UNL A   1      37.313  21.791  25.172  1.00  0.00     0.118 C 
BRANCH  39  40
ATOM     40  N   UNL A   1      38.202  22.663  26.304  1.00  0.00    -0.352 N 
ATOM     41  C   UNL A   1      39.481  23.389  26.630  1.00  0.00     0.251 C 
ATOM     42  H   UNL A   1      37.637  22.726  27.108  1.00  0.00     0.163 HD
ATOM     43  O   UNL A   1      39.285  24.617  26.759  1.00  0.00    -0.269 OA
BRANCH  41  44
ATOM     44  C   UNL A   1      41.079  23.032  26.826  1.00  0.00     0.039 A 
ATOM     45  C   UNL A   1      41.624  22.731  28.105  1.00  0.00     0.014 A 
ATOM     46  C   UNL A   1      42.089  23.106  25.892  1.00  0.00     0.014 A 
ATOM     47  C   UNL A   1      42.829  23.390  28.522  1.00  0.00     0.010 A 
ATOM     48  C   UNL A   1      43.293  23.761  26.277  1.00  0.00     0.010 A 
ATOM     49  C   UNL A   1      43.528  24.162  27.604  1.00  0.00    -0.014 A 
BRANCH  49  50
ATOM     50  C   UNL A   1      44.364  25.382  27.968  1.00  0.00     0.031 A 
ATOM     51  C   UNL A   1      45.750  25.196  28.350  1.00  0.00     0.074 A 
ATOM     52  C   UNL A   1      44.090  26.725  27.882  1.00  0.00     0.049 A 
ATOM     53  N   UNL A   1      46.224  25.566  29.492  1.00  0.00    -0.248 NA
ATOM     54  C   UNL A   1      46.718  24.643  27.420  1.00  0.00     0.031 C 
ATOM     55  C   UNL A   1      44.886  27.951  28.113  1.00  0.00     0.029 A 
ATOM     56  N   UNL A   1      42.934  27.324  27.428  1.00  0.00    -0.354 N 
ATOM     57  C   UNL A   1      47.586  25.563  29.329  1.00  0.00     0.074 A 
ATOM     58  C   UNL A   1      47.840  24.793  28.127  1.00  0.00     0.031 C 
ATOM     59  C   UNL A   1      44.059  29.021  28.213  1.00  0.00     0.029 A 
ATOM     60  C   UNL A   1      42.707  28.539  28.057  1.00  0.00     0.049 A 
ATOM     61  H   UNL A   1      42.344  26.937  26.742  1.00  0.00     0.167 HD
ATOM     62  C   UNL A   1      48.376  26.436  30.019  1.00  0.00     0.037 A 
ATOM     63  C   UNL A   1      41.610  28.636  28.867  1.00  0.00     0.037 A 
ATOM     64  C   UNL A   1      47.578  27.516  30.618  1.00  0.00     0.049 A 
ATOM     65  C   UNL A   1      42.037  28.720  30.295  1.00  0.00     0.074 A 
ATOM     66  C   UNL A   1      47.415  28.845  30.247  1.00  0.00     0.029 A 
ATOM     67  N   UNL A   1      46.565  27.250  31.535  1.00  0.00    -0.354 N 
ATOM     68  N   UNL A   1      43.277  28.566  30.651  1.00  0.00    -0.248 NA
ATOM     69  C   UNL A   1      41.161  28.957  31.434  1.00  0.00     0.031 C 
ATOM     70  C   UNL A   1      46.275  29.359  30.909  1.00  0.00     0.029 A 
ATOM     71  C   UNL A   1      45.743  28.353  31.697  1.00  0.00     0.049 A 
ATOM     72  H   UNL A   1      46.449  26.393  32.006  1.00  0.00     0.167 HD
ATOM     73  C   UNL A   1      43.388  28.587  32.001  1.00  0.00     0.074 A 
ATOM     74  C   UNL A   1      42.042  28.892  32.452  1.00  0.00     0.031 C 
ATOM     75  C   UNL A   1      44.587  28.318  32.591  1.00  0.00     0.037 A 
BRANCH  62  76
ATOM     76  C   UNL A   1      49.876  26.508  29.824  1.00  0.00     0.058 A 
ATOM     77  C   UNL A   1      50.448  27.137  28.701  1.00  0.00     0.135 A 
ATOM     78  C   UNL A   1      50.812  26.012  30.759  1.00  0.00     0.135 A 
ATOM     79  F   UNL A   1      49.701  27.784  27.797  1.00  0.00    -0.206 F 
ATOM     80  C   UNL A   1      51.823  27.169  28.468  1.00  0.00     0.059 A 
ATOM     81  C   UNL A   1      52.187  25.971  30.518  1.00  0.00     0.059 A 
ATOM     82  F   UNL A   1      50.431  25.604  31.979  1.00  0.00    -0.206 F 
ATOM     83  C   UNL A   1      52.686  26.560  29.368  1.00  0.00     0.060 A 
BRANCH  83  84
ATOM     84  S   UNL A   1      54.457  26.632  29.057  1.00  0.00     0.124 S 
ATOM     85  O   UNL A   1      54.730  28.063  29.137  1.00  0.00    -0.237 OA
ATOM     86  O   UNL A   1      54.987  25.822  30.151  1.00  0.00    -0.237 OA
ATOM     87  O   UNL A   1      54.596  26.047  27.726  1.00  0.00    -0.744 OA
ENDBRANCH  83  84
ENDBRANCH  62  76
BRANCH  63  88
ATOM     88  C   UNL A   1      40.370  27.917  28.336  1.00  0.00     0.058 A 
ATOM     89  C   UNL A   1      39.967  26.890  29.202  1.00  0.00     0.135 A 
ATOM     90  C   UNL A   1      39.303  28.713  27.981  1.00  0.00     0.135 A 
ATOM     91  F   UNL A   1      40.607  25.716  29.145  1.00  0.00    -0.206 F 
ATOM     92  C   UNL A   1      39.031  27.128  30.238  1.00  0.00     0.059 A 
ATOM     93  C   UNL A   1      38.210  28.806  28.868  1.00  0.00     0.059 A 
ATOM     94  F   UNL A   1      39.352  29.501  26.891  1.00  0.00    -0.206 F 
ATOM     95  C   UNL A   1      38.212  28.250  30.161  1.00  0.00     0.060 A 
BRANCH  95  96
ATOM     96  S   UNL A   1      37.510  29.253  31.879  1.00  0.00     0.124 S 
ATOM     97  O   UNL A   1      38.330  30.436  32.102  1.00  0.00    -0.237 OA
ATOM     98  O   UNL A   1      36.200  29.774  31.504  1.00  0.00    -0.237 OA
ATOM     99  O   UNL A   1      37.555  28.325  32.962  1.00  0.00    -0.744 OA
ENDBRANCH  95  96
ENDBRANCH  63  88
BRANCH  75 100
ATOM    100  C   UNL A   1      44.794  28.110  34.062  1.00  0.00     0.058 A 
ATOM    101  C   UNL A   1      44.915  29.152  34.995  1.00  0.00     0.135 A 
ATOM    102  C   UNL A   1      44.780  26.801  34.596  1.00  0.00     0.135 A 
ATOM    103  F   UNL A   1      44.797  30.437  34.636  1.00  0.00    -0.206 F 
ATOM    104  C   UNL A   1      45.129  28.910  36.349  1.00  0.00     0.059 A 
ATOM    105  C   UNL A   1      44.919  26.541  35.953  1.00  0.00     0.059 A 
ATOM    106  F   UNL A   1      44.628  25.720  33.816  1.00  0.00    -0.206 F 
ATOM    107  C   UNL A   1      45.139  27.601  36.816  1.00  0.00     0.060 A 
BRANCH 107 108
ATOM    108  S   UNL A   1      45.421  27.290  38.563  1.00  0.00     0.124 S 
ATOM    109  O   UNL A   1      44.761  28.441  39.170  1.00  0.00    -0.237 OA
ATOM    110  O   UNL A   1      44.761  26.003  38.769  1.00  0.00    -0.237 OA
ATOM    111  O   UNL A   1      46.876  27.265  38.672  1.00  0.00    -0.744 OA
ENDBRANCH 107 108
ENDBRANCH  75 100
ENDBRANCH  49  50
ENDBRANCH  41  44
ENDBRANCH  39  40
ENDBRANCH  38  39
ENDBRANCH   1  38
TORSDOF 19
ENDMDL
MODEL 2
REMARK VINA RESULT:     -12.9      2.775      5.120
REMARK SMILES Cc1ccc(C(=O)NCCCNC(=O)c2ccc(-c3c4nc(c(-c5c(F)cc(S(=O)(=O)[O-])cc5F)c5ccc([nH]5)c(-c5c(F)cc(S(=O)(=O)[O-])cc5F)c5nc(c(-c6c(F)cc(S(=O)(=O)[O-])cc6F)c6ccc3[nH]6)C=C5)C=C4)cc2)cc1NC(=O)C(=O)NC[C@@H](c1ccccc1)[NH+]1CC[NH+](C)CC1
REMARK SMILES IDX 9 1 8 2 6 3 7 4 5 6 1 7 2 8 3 9 82 10 4 11 81 12 83 13 84 14
REMARK SMILES IDX 85 16 86 17 87 18 88 19 89 21 90 22 97 23 98 24 103 25 99 27
REMARK SMILES IDX 102 28 100 29 101 30 91 32 92 33 96 34 93 35 95 36 94 37
REMARK SMILES IDX 10 38 11 39 12 40 13 41 14 43 15 44 16 45 80 46 17 47 79 48
REMARK SMILES IDX 18 49 19 50 20 51 73 52 21 53 78 54 72 55 74 56 22 57 77 58
REMARK SMILES IDX 71 59 70 60 23 62 57 63 36 64 56 65 37 66 40 67 55 68 75 69
REMARK SMILES IDX 38 70 39 71 54 73 76 74 41 75 24 76 25 77 34 78 26 79 27 80
REMARK SMILES IDX 33 81 35 82 28 83 29 84 30 85 31 86 32 87 58 88 59 89 68 90
REMARK SMILES IDX 60 91 61 92 67 93 69 94 62 95 63 96 64 97 65 98 66 99 42 100
REMARK SMILES IDX 43 101 52 102 44 103 45 104 51 105 53 106 46 107 47 108
REMARK SMILES IDX 48 109 49 110 50 111
REMARK H PARENT 8 5 83 15 88 20 97 26 100 31 12 42 74 61 40 72
REMARK Flexibility Score: inf
ROOT
ATOM      1  C   UNL A   1      35.499  22.943  25.743  1.00  0.00     0.118 C 
ENDROOT
BRANCH   1   2
ATOM      2  N   UNL A   1      35.132  21.540  25.399  1.00  0.00    -0.352 N 
ATOM      3  C   UNL A   1      33.893  21.063  24.982  1.00  0.00     0.251 C 
ATOM      4  O   UNL A   1      33.731  19.895  24.636  1.00  0.00    -0.269 OA
ATOM      5  H   UNL A   1      35.851  20.872  25.477  1.00  0.00     0.163 HD
BRANCH   3   6
ATOM      6  C   UNL A   1      32.704  21.959  25.097  1.00  0.00     0.041 A 
ATOM      7  C   UNL A   1      30.127  25.347  25.510  1.00  0.00     0.046 C 
ATOM      8  C   UNL A   1      31.054  24.183  25.287  1.00  0.00    -0.027 A 
ATOM      9  C   UNL A   1      31.488  23.508  26.454  1.00  0.00     0.006 A 
ATOM     10  C   UNL A   1      31.444  23.716  24.007  1.00  0.00     0.045 A 
ATOM     11  C   UNL A   1      32.368  22.439  26.363  1.00  0.00     0.014 A 
ATOM     12  C   UNL A   1      32.084  22.493  23.956  1.00  0.00     0.040 A 
BRANCH  10  13
ATOM     13  N   UNL A   1      31.228  24.529  22.867  1.00  0.00    -0.318 N 
ATOM     14  C   UNL A   1      31.851  25.565  22.184  1.00  0.00     0.313 C 
ATOM     15  H   UNL A   1      30.381  24.287  22.428  1.00  0.00     0.170 HD
ATOM     16  O   UNL A   1      31.266  26.015  21.193  1.00  0.00    -0.263 OA
BRANCH  14  17
ATOM     17  C   UNL A   1      33.171  26.248  22.542  1.00  0.00     0.309 C 
ATOM     18  O   UNL A   1      34.133  26.156  21.793  1.00  0.00    -0.264 OA
ATOM     19  N   UNL A   1      33.162  27.064  23.678  1.00  0.00    -0.341 N 
ATOM     20  H   UNL A   1      33.212  26.648  24.569  1.00  0.00     0.164 HD
BRANCH  19  21
ATOM     21  C   UNL A   1      33.076  28.530  23.574  1.00  0.00     0.186 C 
BRANCH  21  22
ATOM     22  C   UNL A   1      32.070  29.235  24.591  1.00  0.00     0.235 C 
BRANCH  22  23
ATOM     23  N   UNL A   1      32.041  28.830  26.016  1.00  0.00    -0.318 N 
ATOM     24  C   UNL A   1      31.751  29.903  26.969  1.00  0.00     0.325 C 
ATOM     25  C   UNL A   1      33.154  28.017  26.511  1.00  0.00     0.325 C 
ATOM     26  H   UNL A   1      31.236  28.205  25.980  1.00  0.00     0.349 HD
ATOM     27  C   UNL A   1      32.979  30.738  27.393  1.00  0.00     0.324 C 
ATOM     28  C   UNL A   1      34.422  28.816  26.842  1.00  0.00     0.324 C 
ATOM     29  N   UNL A   1      34.196  29.969  27.733  1.00  0.00    -0.328 N 
ATOM     30  C   UNL A   1      35.364  30.851  27.698  1.00  0.00     0.333 C 
ATOM     31  H   UNL A   1      34.056  29.596  28.671  1.00  0.00     0.348 HD
ENDBRANCH  22  23
BRANCH  22  32
ATOM     32  C   UNL A   1      30.632  29.367  24.048  1.00  0.00     0.011 A 
ATOM     33  C   UNL A   1      30.026  30.640  24.021  1.00  0.00     0.010 A 
ATOM     34  C   UNL A   1      29.893  28.282  23.550  1.00  0.00     0.010 A 
ATOM     35  C   UNL A   1      28.760  30.830  23.461  1.00  0.00     0.001 A 
ATOM     36  C   UNL A   1      28.634  28.477  22.971  1.00  0.00     0.001 A 
ATOM     37  C   UNL A   1      28.073  29.750  22.917  1.00  0.00     0.000 A 
ENDBRANCH  22  32
ENDBRANCH  21  22
ENDBRANCH  19  21
ENDBRANCH  14  17
ENDBRANCH  10  13
ENDBRANCH   3   6
ENDBRANCH   1   2
BRANCH   1  38
ATOM     38  C   UNL A   1      36.932  23.491  25.472  1.00  0.00     0.042 C 
BRANCH  38  39
ATOM     39  C   UNL A   1      38.279  22.804  26.098  1.00  0.00     0.118 C 
BRANCH  39  40
ATOM     40  N   UNL A   1      39.300  23.215  27.370  1.00  0.00    -0.352 N 
ATOM     41  C   UNL A   1      40.676  23.648  27.807  1.00  0.00     0.251 C 
ATOM     42  H   UNL A   1      38.761  23.138  28.191  1.00  0.00     0.163 HD
ATOM     43  O   UNL A   1      40.661  24.812  28.262  1.00  0.00    -0.269 OA
BRANCH  41  44
ATOM     44  C   UNL A   1      42.207  23.039  27.820  1.00  0.00     0.039 A 
ATOM     45  C   UNL A   1      42.901  22.790  29.036  1.00  0.00     0.014 A 
ATOM     46  C   UNL A   1      43.050  22.829  26.750  1.00  0.00     0.014 A 
ATOM     47  C   UNL A   1      44.246  23.268  29.183  1.00  0.00     0.010 A 
ATOM     48  C   UNL A   1      44.388  23.300  26.865  1.00  0.00     0.010 A 
ATOM     49  C   UNL A   1      44.898  23.797  28.077  1.00  0.00    -0.014 A 
BRANCH  49  50
ATOM     50  C   UNL A   1      45.964  24.884  28.148  1.00  0.00     0.031 A 
ATOM     51  C   UNL A   1      47.125  24.786  27.286  1.00  0.00     0.074 A 
ATOM     52  C   UNL A   1      45.990  26.083  28.816  1.00  0.00     0.049 A 
ATOM     53  N   UNL A   1      48.334  24.733  27.733  1.00  0.00    -0.248 NA
ATOM     54  C   UNL A   1      46.993  24.820  25.840  1.00  0.00     0.031 C 
ATOM     55  C   UNL A   1      46.935  27.222  28.842  1.00  0.00     0.029 A 
ATOM     56  N   UNL A   1      45.014  26.620  29.629  1.00  0.00    -0.354 N 
ATOM     57  C   UNL A   1      49.127  25.016  26.649  1.00  0.00     0.074 A 
ATOM     58  C   UNL A   1      48.279  24.850  25.485  1.00  0.00     0.031 C 
ATOM     59  C   UNL A   1      46.671  28.011  29.912  1.00  0.00     0.029 A 
ATOM     60  C   UNL A   1      45.558  27.422  30.620  1.00  0.00     0.049 A 
ATOM     61  H   UNL A   1      44.050  26.453  29.518  1.00  0.00     0.167 HD
ATOM     62  C   UNL A   1      50.324  25.650  26.804  1.00  0.00     0.037 A 
ATOM     63  C   UNL A   1      45.427  27.005  31.915  1.00  0.00     0.037 A 
ATOM     64  C   UNL A   1      50.440  26.252  28.141  1.00  0.00     0.049 A 
ATOM     65  C   UNL A   1      46.752  26.572  32.449  1.00  0.00     0.074 A 
ATOM     66  C   UNL A   1      50.333  27.572  28.561  1.00  0.00     0.029 A 
ATOM     67  N   UNL A   1      50.367  25.478  29.296  1.00  0.00    -0.354 N 
ATOM     68  N   UNL A   1      47.803  26.489  31.691  1.00  0.00    -0.248 NA
ATOM     69  C   UNL A   1      47.031  26.183  33.824  1.00  0.00     0.031 C 
ATOM     70  C   UNL A   1      50.150  27.583  29.964  1.00  0.00     0.029 A 
ATOM     71  C   UNL A   1      50.157  26.273  30.411  1.00  0.00     0.049 A 
ATOM     72  H   UNL A   1      50.453  24.497  29.317  1.00  0.00     0.167 HD
ATOM     73  C   UNL A   1      48.849  25.980  32.386  1.00  0.00     0.074 A 
ATOM     74  C   UNL A   1      48.335  25.855  33.737  1.00  0.00     0.031 C 
ATOM     75  C   UNL A   1      50.018  25.693  31.746  1.00  0.00     0.037 A 
BRANCH  62  76
ATOM     76  C   UNL A   1      51.201  26.037  25.631  1.00  0.00     0.058 A 
ATOM     77  C   UNL A   1      50.872  27.111  24.782  1.00  0.00     0.135 A 
ATOM     78  C   UNL A   1      52.426  25.402  25.327  1.00  0.00     0.135 A 
ATOM     79  F   UNL A   1      49.820  27.904  25.022  1.00  0.00    -0.206 F 
ATOM     80  C   UNL A   1      51.630  27.453  23.663  1.00  0.00     0.059 A 
ATOM     81  C   UNL A   1      53.168  25.680  24.177  1.00  0.00     0.059 A 
ATOM     82  F   UNL A   1      52.989  24.527  26.175  1.00  0.00    -0.206 F 
ATOM     83  C   UNL A   1      52.763  26.716  23.350  1.00  0.00     0.060 A 
BRANCH  83  84
ATOM     84  S   UNL A   1      53.738  27.188  21.912  1.00  0.00     0.124 S 
ATOM     85  O   UNL A   1      53.539  28.633  21.861  1.00  0.00    -0.237 OA
ATOM     86  O   UNL A   1      55.075  26.745  22.297  1.00  0.00    -0.237 OA
ATOM     87  O   UNL A   1      53.124  26.437  20.821  1.00  0.00    -0.744 OA
ENDBRANCH  83  84
ENDBRANCH  62  76
BRANCH  63  88
ATOM     88  C   UNL A   1      44.073  26.372  32.237  1.00  0.00     0.058 A 
ATOM     89  C   UNL A   1      44.223  25.218  33.019  1.00  0.00     0.135 A 
ATOM     90  C   UNL A   1      43.114  27.207  32.767  1.00  0.00     0.135 A 
ATOM     91  F   UNL A   1      44.555  24.071  32.412  1.00  0.00    -0.206 F 
ATOM     92  C   UNL A   1      44.206  25.281  34.434  1.00  0.00     0.059 A 
ATOM     93  C   UNL A   1      42.868  27.151  34.156  1.00  0.00     0.059 A 
ATOM     94  F   UNL A   1      42.527  28.160  32.020  1.00  0.00    -0.206 F 
ATOM     95  C   UNL A   1      43.647  26.396  35.051  1.00  0.00     0.060 A 
BRANCH  95  96
ATOM     96  S   UNL A   1      44.322  27.106  36.918  1.00  0.00     0.124 S 
ATOM     97  O   UNL A   1      44.550  25.969  37.801  1.00  0.00    -0.237 OA
ATOM     98  O   UNL A   1      45.652  27.646  36.660  1.00  0.00    -0.237 OA
ATOM     99  O   UNL A   1      43.336  28.012  37.412  1.00  0.00    -0.744 OA
ENDBRANCH  95  96
ENDBRANCH  63  88
BRANCH  75 100
ATOM    100  C   UNL A   1      51.168  24.944  32.351  1.00  0.00     0.058 A 
ATOM    101  C   UNL A   1      52.465  25.465  32.483  1.00  0.00     0.135 A 
ATOM    102  C   UNL A   1      50.955  23.668  32.919  1.00  0.00     0.135 A 
ATOM    103  F   UNL A   1      52.761  26.720  32.118  1.00  0.00    -0.206 F 
ATOM    104  C   UNL A   1      53.507  24.724  33.032  1.00  0.00     0.059 A 
ATOM    105  C   UNL A   1      51.964  22.941  33.536  1.00  0.00     0.059 A 
ATOM    106  F   UNL A   1      49.751  23.075  32.898  1.00  0.00    -0.206 F 
ATOM    107  C   UNL A   1      53.249  23.459  33.546  1.00  0.00     0.060 A 
BRANCH 107 108
ATOM    108  S   UNL A   1      54.596  22.500  34.249  1.00  0.00     0.124 S 
ATOM    109  O   UNL A   1      54.173  21.139  33.935  1.00  0.00    -0.237 OA
ATOM    110  O   UNL A   1      55.756  22.987  33.508  1.00  0.00    -0.237 OA
ATOM    111  O   UNL A   1      54.567  22.862  35.662  1.00  0.00    -0.744 OA
ENDBRANCH 107 108
ENDBRANCH  75 100
ENDBRANCH  49  50
ENDBRANCH  41  44
ENDBRANCH  39  40
ENDBRANCH  38  39
ENDBRANCH   1  38
TORSDOF 19
ENDMDL
MODEL 3
REMARK VINA RESULT:     -12.8      2.096      3.456
REMARK SMILES Cc1ccc(C(=O)NCCCNC(=O)c2ccc(-c3c4nc(c(-c5c(F)cc(S(=O)(=O)[O-])cc5F)c5ccc([nH]5)c(-c5c(F)cc(S(=O)(=O)[O-])cc5F)c5nc(c(-c6c(F)cc(S(=O)(=O)[O-])cc6F)c6ccc3[nH]6)C=C5)C=C4)cc2)cc1NC(=O)C(=O)NC[C@@H](c1ccccc1)[NH+]1CC[NH+](C)CC1
REMARK SMILES IDX 9 1 8 2 6 3 7 4 5 6 1 7 2 8 3 9 82 10 4 11 81 12 83 13 84 14
REMARK SMILES IDX 85 16 86 17 87 18 88 19 89 21 90 22 97 23 98 24 103 25 99 27
REMARK SMILES IDX 102 28 100 29 101 30 91 32 92 33 96 34 93 35 95 36 94 37
REMARK SMILES IDX 10 38 11 39 12 40 13 41 14 43 15 44 16 45 80 46 17 47 79 48
REMARK SMILES IDX 18 49 19 50 20 51 73 52 21 53 78 54 72 55 74 56 22 57 77 58
REMARK SMILES IDX 71 59 70 60 23 62 57 63 36 64 56 65 37 66 40 67 55 68 75 69
REMARK SMILES IDX 38 70 39 71 54 73 76 74 41 75 24 76 25 77 34 78 26 79 27 80
REMARK SMILES IDX 33 81 35 82 28 83 29 84 30 85 31 86 32 87 58 88 59 89 68 90
REMARK SMILES IDX 60 91 61 92 67 93 69 94 62 95 63 96 64 97 65 98 66 99 42 100
REMARK SMILES IDX 43 101 52 102 44 103 45 104 51 105 53 106 46 107 47 108
REMARK SMILES IDX 48 109 49 110 50 111
REMARK H PARENT 8 5 83 15 88 20 97 26 100 31 12 42 74 61 40 72
REMARK Flexibility Score: inf
ROOT
ATOM      1  C   UNL A   1      37.219  23.748  26.016  1.00  0.00     0.118 C 
ENDROOT
BRANCH   1   2
ATOM      2  N   UNL A   1      37.093  22.265  25.943  1.00  0.00    -0.352 N 
ATOM      3  C   UNL A   1      36.119  21.525  25.278  1.00  0.00     0.251 C 
ATOM      4  O   UNL A   1      36.170  20.300  25.211  1.00  0.00    -0.269 OA
ATOM      5  H   UNL A   1      37.781  21.747  26.422  1.00  0.00     0.163 HD
BRANCH   3   6
ATOM      6  C   UNL A   1      34.910  22.234  24.763  1.00  0.00     0.041 A 
ATOM      7  C   UNL A   1      31.026  23.176  23.242  1.00  0.00     0.046 C 
ATOM      8  C   UNL A   1      32.356  22.825  23.851  1.00  0.00    -0.027 A 
ATOM      9  C   UNL A   1      33.400  22.548  22.935  1.00  0.00     0.006 A 
ATOM     10  C   UNL A   1      32.611  22.822  25.246  1.00  0.00     0.045 A 
ATOM     11  C   UNL A   1      34.660  22.185  23.392  1.00  0.00     0.014 A 
ATOM     12  C   UNL A   1      33.933  22.733  25.639  1.00  0.00     0.040 A 
BRANCH  10  13
ATOM     13  N   UNL A   1      31.528  22.842  26.158  1.00  0.00    -0.318 N 
ATOM     14  C   UNL A   1      30.533  23.710  26.587  1.00  0.00     0.313 C 
ATOM     15  H   UNL A   1      31.460  21.980  26.629  1.00  0.00     0.170 HD
ATOM     16  O   UNL A   1      29.769  23.298  27.466  1.00  0.00    -0.263 OA
BRANCH  14  17
ATOM     17  C   UNL A   1      30.297  25.148  26.124  1.00  0.00     0.309 C 
ATOM     18  O   UNL A   1      29.501  25.861  26.718  1.00  0.00    -0.264 OA
ATOM     19  N   UNL A   1      31.122  25.615  25.095  1.00  0.00    -0.341 N 
ATOM     20  H   UNL A   1      30.925  25.354  24.166  1.00  0.00     0.164 HD
BRANCH  19  21
ATOM     21  C   UNL A   1      32.278  26.485  25.368  1.00  0.00     0.186 C 
BRANCH  21  22
ATOM     22  C   UNL A   1      31.990  28.052  25.301  1.00  0.00     0.235 C 
BRANCH  22  23
ATOM     23  N   UNL A   1      31.835  28.730  23.994  1.00  0.00    -0.318 N 
ATOM     24  C   UNL A   1      30.730  28.247  23.162  1.00  0.00     0.325 C 
ATOM     25  C   UNL A   1      33.035  28.897  23.172  1.00  0.00     0.325 C 
ATOM     26  H   UNL A   1      31.599  29.662  24.333  1.00  0.00     0.349 HD
ATOM     27  C   UNL A   1      31.064  27.008  22.304  1.00  0.00     0.324 C 
ATOM     28  C   UNL A   1      33.445  27.642  22.388  1.00  0.00     0.324 C 
ATOM     29  N   UNL A   1      32.358  27.047  21.589  1.00  0.00    -0.328 N 
ATOM     30  C   UNL A   1      32.737  25.693  21.180  1.00  0.00     0.333 C 
ATOM     31  H   UNL A   1      32.227  27.644  20.774  1.00  0.00     0.348 HD
ENDBRANCH  22  23
BRANCH  22  32
ATOM     32  C   UNL A   1      32.898  28.888  26.228  1.00  0.00     0.011 A 
ATOM     33  C   UNL A   1      34.163  28.378  26.586  1.00  0.00     0.010 A 
ATOM     34  C   UNL A   1      32.542  30.155  26.718  1.00  0.00     0.010 A 
ATOM     35  C   UNL A   1      35.058  29.130  27.352  1.00  0.00     0.001 A 
ATOM     36  C   UNL A   1      33.447  30.915  27.466  1.00  0.00     0.001 A 
ATOM     37  C   UNL A   1      34.708  30.408  27.774  1.00  0.00     0.000 A 
ENDBRANCH  22  32
ENDBRANCH  21  22
ENDBRANCH  19  21
ENDBRANCH  14  17
ENDBRANCH  10  13
ENDBRANCH   3   6
ENDBRANCH   1   2
BRANCH   1  38
ATOM     38  C   UNL A   1      38.498  24.421  26.598  1.00  0.00     0.042 C 
BRANCH  38  39
ATOM     39  C   UNL A   1      39.783  23.566  27.141  1.00  0.00     0.118 C 
BRANCH  39  40
ATOM     40  N   UNL A   1      40.872  22.520  26.398  1.00  0.00    -0.352 N 
ATOM     41  C   UNL A   1      42.309  22.120  26.189  1.00  0.00     0.251 C 
ATOM     42  H   UNL A   1      40.330  21.893  25.866  1.00  0.00     0.163 HD
ATOM     43  O   UNL A   1      42.550  21.008  26.706  1.00  0.00    -0.269 OA
BRANCH  41  44
ATOM     44  C   UNL A   1      43.671  22.749  25.505  1.00  0.00     0.039 A 
ATOM     45  C   UNL A   1      44.964  22.249  25.822  1.00  0.00     0.014 A 
ATOM     46  C   UNL A   1      43.784  23.863  24.702  1.00  0.00     0.014 A 
ATOM     47  C   UNL A   1      46.007  23.175  26.161  1.00  0.00     0.010 A 
ATOM     48  C   UNL A   1      44.806  24.802  25.020  1.00  0.00     0.010 A 
ATOM     49  C   UNL A   1      45.781  24.534  25.996  1.00  0.00    -0.014 A 
BRANCH  49  50
ATOM     50  C   UNL A   1      46.421  25.621  26.851  1.00  0.00     0.031 A 
ATOM     51  C   UNL A   1      47.742  25.394  27.403  1.00  0.00     0.074 A 
ATOM     52  C   UNL A   1      46.028  26.909  27.120  1.00  0.00     0.049 A 
ATOM     53  N   UNL A   1      47.991  25.414  28.669  1.00  0.00    -0.248 NA
ATOM     54  C   UNL A   1      48.895  25.205  26.541  1.00  0.00     0.031 C 
ATOM     55  C   UNL A   1      46.649  28.041  27.845  1.00  0.00     0.029 A 
ATOM     56  N   UNL A   1      44.903  27.562  26.665  1.00  0.00    -0.354 N 
ATOM     57  C   UNL A   1      49.355  25.528  28.761  1.00  0.00     0.074 A 
ATOM     58  C   UNL A   1      49.871  25.183  27.450  1.00  0.00     0.031 C 
ATOM     59  C   UNL A   1      45.712  28.984  28.108  1.00  0.00     0.029 A 
ATOM     60  C   UNL A   1      44.457  28.509  27.574  1.00  0.00     0.049 A 
ATOM     61  H   UNL A   1      44.469  27.378  25.800  1.00  0.00     0.167 HD
ATOM     62  C   UNL A   1      49.934  26.181  29.810  1.00  0.00     0.037 A 
ATOM     63  C   UNL A   1      43.243  28.296  28.166  1.00  0.00     0.037 A 
ATOM     64  C   UNL A   1      48.947  26.982  30.549  1.00  0.00     0.049 A 
ATOM     65  C   UNL A   1      43.430  27.952  29.607  1.00  0.00     0.074 A 
ATOM     66  C   UNL A   1      48.709  28.350  30.566  1.00  0.00     0.029 A 
ATOM     67  N   UNL A   1      47.836  26.395  31.147  1.00  0.00    -0.354 N 
ATOM     68  N   UNL A   1      44.609  27.757  30.118  1.00  0.00    -0.248 NA
ATOM     69  C   UNL A   1      42.368  27.781  30.587  1.00  0.00     0.031 C 
ATOM     70  C   UNL A   1      47.433  28.577  31.135  1.00  0.00     0.029 A 
ATOM     71  C   UNL A   1      46.890  27.351  31.479  1.00  0.00     0.049 A 
ATOM     72  H   UNL A   1      47.735  25.429  31.313  1.00  0.00     0.167 HD
ATOM     73  C   UNL A   1      44.505  27.363  31.410  1.00  0.00     0.074 A 
ATOM     74  C   UNL A   1      43.081  27.446  31.681  1.00  0.00     0.031 C 
ATOM     75  C   UNL A   1      45.618  26.983  32.099  1.00  0.00     0.037 A 
BRANCH  62  76
ATOM     76  C   UNL A   1      51.432  26.384  29.918  1.00  0.00     0.058 A 
ATOM     77  C   UNL A   1      52.128  27.248  29.050  1.00  0.00     0.135 A 
ATOM     78  C   UNL A   1      52.233  25.782  30.913  1.00  0.00     0.135 A 
ATOM     79  F   UNL A   1      51.490  28.004  28.146  1.00  0.00    -0.206 F 
ATOM     80  C   UNL A   1      53.512  27.411  29.091  1.00  0.00     0.059 A 
ATOM     81  C   UNL A   1      53.626  25.875  30.935  1.00  0.00     0.059 A 
ATOM     82  F   UNL A   1      51.686  25.129  31.950  1.00  0.00    -0.206 F 
ATOM     83  C   UNL A   1      54.259  26.700  30.020  1.00  0.00     0.060 A 
BRANCH  83  84
ATOM     84  S   UNL A   1      56.042  26.941  30.068  1.00  0.00     0.124 S 
ATOM     85  O   UNL A   1      56.269  27.819  28.924  1.00  0.00    -0.237 OA
ATOM     86  O   UNL A   1      56.227  27.551  31.382  1.00  0.00    -0.237 OA
ATOM     87  O   UNL A   1      56.575  25.589  29.929  1.00  0.00    -0.744 OA
ENDBRANCH  83  84
ENDBRANCH  62  76
BRANCH  63  88
ATOM     88  C   UNL A   1      42.181  27.717  27.231  1.00  0.00     0.058 A 
ATOM     89  C   UNL A   1      41.346  26.814  27.905  1.00  0.00     0.135 A 
ATOM     90  C   UNL A   1      41.443  28.624  26.502  1.00  0.00     0.135 A 
ATOM     91  F   UNL A   1      41.781  25.562  28.099  1.00  0.00    -0.206 F 
ATOM     92  C   UNL A   1      40.150  27.244  28.529  1.00  0.00     0.059 A 
ATOM     93  C   UNL A   1      40.132  28.923  26.932  1.00  0.00     0.059 A 
ATOM     94  F   UNL A   1      41.995  29.324  25.494  1.00  0.00    -0.206 F 
ATOM     95  C   UNL A   1      39.590  28.459  28.144  1.00  0.00     0.060 A 
BRANCH  95  96
ATOM     96  S   UNL A   1      38.480  29.659  29.478  1.00  0.00     0.124 S 
ATOM     97  O   UNL A   1      37.373  28.875  30.008  1.00  0.00    -0.237 OA
ATOM     98  O   UNL A   1      39.362  29.873  30.619  1.00  0.00    -0.237 OA
ATOM     99  O   UNL A   1      38.056  30.815  28.758  1.00  0.00    -0.744 OA
ENDBRANCH  95  96
ENDBRANCH  63  88
BRANCH  75 100
ATOM    100  C   UNL A   1      45.613  26.339  33.453  1.00  0.00     0.058 A 
ATOM    101  C   UNL A   1      45.816  27.034  34.656  1.00  0.00     0.135 A 
ATOM    102  C   UNL A   1      45.296  24.967  33.578  1.00  0.00     0.135 A 
ATOM    103  F   UNL A   1      45.979  28.363  34.683  1.00  0.00    -0.206 F 
ATOM    104  C   UNL A   1      45.825  26.389  35.889  1.00  0.00     0.059 A 
ATOM    105  C   UNL A   1      45.228  24.320  34.805  1.00  0.00     0.059 A 
ATOM    106  F   UNL A   1      45.039  24.200  32.508  1.00  0.00    -0.206 F 
ATOM    107  C   UNL A   1      45.540  25.030  35.952  1.00  0.00     0.060 A 
BRANCH 107 108
ATOM    108  S   UNL A   1      45.557  24.197  37.544  1.00  0.00     0.124 S 
ATOM    109  O   UNL A   1      45.401  22.803  37.140  1.00  0.00    -0.237 OA
ATOM    110  O   UNL A   1      46.868  24.556  38.079  1.00  0.00    -0.237 OA
ATOM    111  O   UNL A   1      44.420  24.784  38.245  1.00  0.00    -0.744 OA
ENDBRANCH 107 108
ENDBRANCH  75 100
ENDBRANCH  49  50
ENDBRANCH  41  44
ENDBRANCH  39  40
ENDBRANCH  38  39
ENDBRANCH   1  38
TORSDOF 19
ENDMDL
