MODEL 1
REMARK VINA RESULT:     -12.8      0.000      0.000
REMARK SMILES Cc1nc(N2CCCC[C@H]2C(=O)NCCCNC(=O)c2ccc(-c3c4nc(c(-c5c(F)cc(S(=O)(=O)[O-])cc5F)c5ccc([nH]5)c(-c5c(F)cc(S(=O)(=O)[O-])cc5F)c5nc(c(-c6c(F)cc(S(=O)(=O)[O-])cc6F)c6ccc3[nH]6)C=C5)C=C4)cc2)c2oc3ccccc3c2n1
REMARK SMILES IDX 16 1 15 2 14 3 13 4 11 5 12 6 10 8 5 9 6 10 7 11 9 12 8 13
REMARK SMILES IDX 4 14 1 15 2 16 3 17 95 18 94 19 86 20 93 21 87 22 88 23
REMARK SMILES IDX 92 24 89 25 91 26 90 27 17 28 18 29 19 31 20 32 21 33 85 34
REMARK SMILES IDX 22 35 84 36 23 37 24 38 25 39 78 40 26 41 83 42 77 43 79 44
REMARK SMILES IDX 27 45 82 46 76 47 75 48 28 50 62 51 41 52 61 53 42 54 45 55
REMARK SMILES IDX 60 56 80 57 43 58 44 59 59 61 81 62 46 63 29 64 30 65 39 66
REMARK SMILES IDX 31 67 32 68 38 69 40 70 33 71 34 72 35 73 36 74 37 75 63 76
REMARK SMILES IDX 64 77 73 78 65 79 66 80 72 81 74 82 67 83 68 84 69 85 70 86
REMARK SMILES IDX 71 87 47 88 48 89 57 90 49 91 50 92 56 93 58 94 51 95 52 96
REMARK SMILES IDX 53 97 54 98 55 99
REMARK H PARENT 13 7 17 30 79 49 45 60
REMARK Flexibility Score: inf
ROOT
ATOM      1  C   UNL A   1      38.904  23.731  26.921  1.00  0.00     0.118 C 
ENDROOT
BRANCH   1   2
ATOM      2  C   UNL A   1      37.714  23.843  25.973  1.00  0.00     0.042 C 
BRANCH   2   3
ATOM      3  C   UNL A   1      37.512  22.601  25.110  1.00  0.00     0.117 C 
BRANCH   3   4
ATOM      4  N   UNL A   1      36.584  22.887  24.030  1.00  0.00    -0.354 N 
ATOM      5  C   UNL A   1      35.257  22.657  23.902  1.00  0.00     0.242 C 
ATOM      6  O   UNL A   1      34.768  22.948  22.804  1.00  0.00    -0.273 OA
ATOM      7  H   UNL A   1      36.994  23.327  23.251  1.00  0.00     0.163 HD
BRANCH   5   8
ATOM      8  C   UNL A   1      34.424  22.118  25.077  1.00  0.00     0.173 C 
ATOM      9  N   UNL A   1      32.998  22.135  24.735  1.00  0.00    -0.341 N 
ATOM     10  C   UNL A   1      32.527  21.252  23.678  1.00  0.00     0.119 C 
ATOM     11  C   UNL A   1      32.887  19.809  24.012  1.00  0.00     0.022 C 
ATOM     12  C   UNL A   1      34.824  20.670  25.412  1.00  0.00     0.035 C 
ATOM     13  C   UNL A   1      34.364  19.645  24.369  1.00  0.00     0.004 C 
BRANCH   9  14
ATOM     14  C   UNL A   1      32.141  22.970  25.406  1.00  0.00     0.176 A 
ATOM     15  C   UNL A   1      29.080  22.699  27.462  1.00  0.00     0.090 C 
ATOM     16  C   UNL A   1      30.219  23.323  26.711  1.00  0.00     0.128 A 
ATOM     17  N   UNL A   1      31.031  22.483  26.019  1.00  0.00    -0.212 NA
ATOM     18  N   UNL A   1      30.360  24.659  26.843  1.00  0.00    -0.229 NA
ATOM     19  C   UNL A   1      31.431  25.151  26.179  1.00  0.00     0.123 A 
ATOM     20  C   UNL A   1      32.317  24.347  25.488  1.00  0.00     0.196 A 
ATOM     21  C   UNL A   1      31.890  26.486  26.011  1.00  0.00     0.047 A 
ATOM     22  O   UNL A   1      33.294  25.097  24.904  1.00  0.00    -0.450 OA
ATOM     23  C   UNL A   1      33.026  26.392  25.212  1.00  0.00     0.137 A 
ATOM     24  C   UNL A   1      31.471  27.764  26.424  1.00  0.00     0.014 A 
ATOM     25  C   UNL A   1      33.779  27.482  24.784  1.00  0.00     0.048 A 
ATOM     26  C   UNL A   1      32.209  28.883  26.008  1.00  0.00     0.001 A 
ATOM     27  C   UNL A   1      33.342  28.742  25.200  1.00  0.00     0.004 A 
ENDBRANCH   9  14
ENDBRANCH   5   8
ENDBRANCH   3   4
ENDBRANCH   2   3
ENDBRANCH   1   2
BRANCH   1  28
ATOM     28  N   UNL A   1      39.494  22.394  26.968  1.00  0.00    -0.352 N 
ATOM     29  C   UNL A   1      40.807  22.056  27.179  1.00  0.00     0.251 C 
ATOM     30  H   UNL A   1      38.872  21.643  26.832  1.00  0.00     0.163 HD
ATOM     31  O   UNL A   1      41.180  20.898  27.188  1.00  0.00    -0.269 OA
BRANCH  29  32
ATOM     32  C   UNL A   1      41.765  23.166  27.348  1.00  0.00     0.039 A 
ATOM     33  C   UNL A   1      41.940  23.729  28.620  1.00  0.00     0.014 A 
ATOM     34  C   UNL A   1      42.282  23.773  26.202  1.00  0.00     0.014 A 
ATOM     35  C   UNL A   1      42.478  25.003  28.717  1.00  0.00     0.010 A 
ATOM     36  C   UNL A   1      42.869  25.027  26.314  1.00  0.00     0.010 A 
ATOM     37  C   UNL A   1      42.900  25.670  27.559  1.00  0.00    -0.014 A 
BRANCH  37  38
ATOM     38  C   UNL A   1      43.331  27.065  27.704  1.00  0.00     0.031 A 
ATOM     39  C   UNL A   1      42.231  28.062  27.701  1.00  0.00     0.074 A 
ATOM     40  C   UNL A   1      44.465  27.392  28.358  1.00  0.00     0.049 A 
ATOM     41  N   UNL A   1      41.513  28.297  28.757  1.00  0.00    -0.248 NA
ATOM     42  C   UNL A   1      41.716  28.666  26.476  1.00  0.00     0.031 C 
ATOM     43  C   UNL A   1      45.093  26.570  29.405  1.00  0.00     0.029 A 
ATOM     44  N   UNL A   1      45.150  28.580  28.408  1.00  0.00    -0.354 N 
ATOM     45  C   UNL A   1      40.414  29.018  28.342  1.00  0.00     0.074 A 
ATOM     46  C   UNL A   1      40.588  29.241  26.922  1.00  0.00     0.031 C 
ATOM     47  C   UNL A   1      45.927  27.351  30.123  1.00  0.00     0.029 A 
ATOM     48  C   UNL A   1      46.032  28.653  29.479  1.00  0.00     0.049 A 
ATOM     49  H   UNL A   1      45.030  29.304  27.752  1.00  0.00     0.167 HD
ATOM     50  C   UNL A   1      39.406  29.371  29.180  1.00  0.00     0.037 A 
ATOM     51  C   UNL A   1      46.443  29.796  30.090  1.00  0.00     0.037 A 
ATOM     52  C   UNL A   1      39.576  29.002  30.553  1.00  0.00     0.049 A 
ATOM     53  C   UNL A   1      45.164  30.240  30.758  1.00  0.00     0.074 A 
ATOM     54  C   UNL A   1      39.220  27.944  31.361  1.00  0.00     0.029 A 
ATOM     55  N   UNL A   1      40.351  29.812  31.350  1.00  0.00    -0.354 N 
ATOM     56  N   UNL A   1      44.695  29.778  31.888  1.00  0.00    -0.248 NA
ATOM     57  C   UNL A   1      44.185  30.979  29.955  1.00  0.00     0.031 C 
ATOM     58  C   UNL A   1      40.148  27.959  32.447  1.00  0.00     0.029 A 
ATOM     59  C   UNL A   1      41.050  28.992  32.202  1.00  0.00     0.049 A 
ATOM     60  H   UNL A   1      40.397  30.795  31.315  1.00  0.00     0.167 HD
ATOM     61  C   UNL A   1      43.307  29.918  31.800  1.00  0.00     0.074 A 
ATOM     62  C   UNL A   1      43.064  30.695  30.603  1.00  0.00     0.031 C 
ATOM     63  C   UNL A   1      42.425  29.237  32.586  1.00  0.00     0.037 A 
BRANCH  50  64
ATOM     64  C   UNL A   1      38.247  30.179  28.769  1.00  0.00     0.058 A 
ATOM     65  C   UNL A   1      38.238  31.546  29.072  1.00  0.00     0.135 A 
ATOM     66  C   UNL A   1      37.087  29.599  28.244  1.00  0.00     0.135 A 
ATOM     67  F   UNL A   1      39.338  32.130  29.575  1.00  0.00    -0.206 F 
ATOM     68  C   UNL A   1      37.093  32.312  28.913  1.00  0.00     0.059 A 
ATOM     69  C   UNL A   1      35.926  30.348  28.072  1.00  0.00     0.059 A 
ATOM     70  F   UNL A   1      37.059  28.292  27.939  1.00  0.00    -0.206 F 
ATOM     71  C   UNL A   1      35.935  31.697  28.433  1.00  0.00     0.060 A 
BRANCH  71  72
ATOM     72  S   UNL A   1      34.430  32.688  28.343  1.00  0.00     0.124 S 
ATOM     73  O   UNL A   1      33.529  31.796  27.621  1.00  0.00    -0.237 OA
ATOM     74  O   UNL A   1      34.122  32.898  29.753  1.00  0.00    -0.237 OA
ATOM     75  O   UNL A   1      34.851  33.880  27.612  1.00  0.00    -0.744 OA
ENDBRANCH  71  72
ENDBRANCH  50  64
BRANCH  51  76
ATOM     76  C   UNL A   1      47.287  30.661  29.201  1.00  0.00     0.058 A 
ATOM     77  C   UNL A   1      48.607  30.945  29.622  1.00  0.00     0.135 A 
ATOM     78  C   UNL A   1      46.911  31.191  27.959  1.00  0.00     0.135 A 
ATOM     79  F   UNL A   1      49.014  30.597  30.855  1.00  0.00    -0.206 F 
ATOM     80  C   UNL A   1      49.543  31.554  28.794  1.00  0.00     0.059 A 
ATOM     81  C   UNL A   1      47.838  31.787  27.099  1.00  0.00     0.059 A 
ATOM     82  F   UNL A   1      45.645  31.122  27.529  1.00  0.00    -0.206 F 
ATOM     83  C   UNL A   1      49.160  31.927  27.511  1.00  0.00     0.060 A 
BRANCH  83  84
ATOM     84  S   UNL A   1      50.431  32.528  26.380  1.00  0.00     0.124 S 
ATOM     85  O   UNL A   1      50.905  31.290  25.771  1.00  0.00    -0.237 OA
ATOM     86  O   UNL A   1      49.659  33.411  25.509  1.00  0.00    -0.237 OA
ATOM     87  O   UNL A   1      51.378  33.200  27.263  1.00  0.00    -0.744 OA
ENDBRANCH  83  84
ENDBRANCH  51  76
BRANCH  63  88
ATOM     88  C   UNL A   1      43.005  28.518  33.757  1.00  0.00     0.058 A 
ATOM     89  C   UNL A   1      42.991  29.118  35.024  1.00  0.00     0.135 A 
ATOM     90  C   UNL A   1      43.497  27.207  33.659  1.00  0.00     0.135 A 
ATOM     91  F   UNL A   1      42.521  30.368  35.176  1.00  0.00    -0.206 F 
ATOM     92  C   UNL A   1      43.410  28.430  36.159  1.00  0.00     0.059 A 
ATOM     93  C   UNL A   1      43.901  26.493  34.783  1.00  0.00     0.059 A 
ATOM     94  F   UNL A   1      43.552  26.583  32.469  1.00  0.00    -0.206 F 
ATOM     95  C   UNL A   1      43.847  27.112  36.031  1.00  0.00     0.060 A 
BRANCH  95  96
ATOM     96  S   UNL A   1      44.260  26.187  37.526  1.00  0.00     0.124 S 
ATOM     97  O   UNL A   1      43.369  25.035  37.426  1.00  0.00    -0.237 OA
ATOM     98  O   UNL A   1      45.681  25.906  37.341  1.00  0.00    -0.237 OA
ATOM     99  O   UNL A   1      43.953  27.124  38.603  1.00  0.00    -0.744 OA
ENDBRANCH  95  96
ENDBRANCH  63  88
ENDBRANCH  37  38
ENDBRANCH  29  32
ENDBRANCH   1  28
TORSDOF 14
ENDMDL
MODEL 2
REMARK VINA RESULT:     -12.7      1.390      2.046
REMARK SMILES Cc1nc(N2CCCC[C@H]2C(=O)NCCCNC(=O)c2ccc(-c3c4nc(c(-c5c(F)cc(S(=O)(=O)[O-])cc5F)c5ccc([nH]5)c(-c5c(F)cc(S(=O)(=O)[O-])cc5F)c5nc(c(-c6c(F)cc(S(=O)(=O)[O-])cc6F)c6ccc3[nH]6)C=C5)C=C4)cc2)c2oc3ccccc3c2n1
REMARK SMILES IDX 16 1 15 2 14 3 13 4 11 5 12 6 10 8 5 9 6 10 7 11 9 12 8 13
REMARK SMILES IDX 4 14 1 15 2 16 3 17 95 18 94 19 86 20 93 21 87 22 88 23
REMARK SMILES IDX 92 24 89 25 91 26 90 27 17 28 18 29 19 31 20 32 21 33 85 34
REMARK SMILES IDX 22 35 84 36 23 37 24 38 25 39 78 40 26 41 83 42 77 43 79 44
REMARK SMILES IDX 27 45 82 46 76 47 75 48 28 50 62 51 41 52 61 53 42 54 45 55
REMARK SMILES IDX 60 56 80 57 43 58 44 59 59 61 81 62 46 63 29 64 30 65 39 66
REMARK SMILES IDX 31 67 32 68 38 69 40 70 33 71 34 72 35 73 36 74 37 75 63 76
REMARK SMILES IDX 64 77 73 78 65 79 66 80 72 81 74 82 67 83 68 84 69 85 70 86
REMARK SMILES IDX 71 87 47 88 48 89 57 90 49 91 50 92 56 93 58 94 51 95 52 96
REMARK SMILES IDX 53 97 54 98 55 99
REMARK H PARENT 13 7 17 30 79 49 45 60
REMARK Flexibility Score: inf
ROOT
ATOM      1  C   UNL A   1      38.755  21.810  26.082  1.00  0.00     0.118 C 
ENDROOT
BRANCH   1   2
ATOM      2  C   UNL A   1      37.953  20.879  25.179  1.00  0.00     0.042 C 
BRANCH   2   3
ATOM      3  C   UNL A   1      37.035  21.621  24.212  1.00  0.00     0.117 C 
BRANCH   3   4
ATOM      4  N   UNL A   1      35.703  21.042  24.242  1.00  0.00    -0.354 N 
ATOM      5  C   UNL A   1      34.546  21.477  24.793  1.00  0.00     0.242 C 
ATOM      6  O   UNL A   1      33.590  20.698  24.714  1.00  0.00    -0.273 OA
ATOM      7  H   UNL A   1      35.628  20.178  23.777  1.00  0.00     0.163 HD
BRANCH   5   8
ATOM      8  C   UNL A   1      34.441  22.875  25.425  1.00  0.00     0.173 C 
ATOM      9  N   UNL A   1      33.090  23.413  25.237  1.00  0.00    -0.341 N 
ATOM     10  C   UNL A   1      31.981  22.757  25.913  1.00  0.00     0.119 C 
ATOM     11  C   UNL A   1      32.240  22.721  27.415  1.00  0.00     0.022 C 
ATOM     12  C   UNL A   1      34.733  22.816  26.936  1.00  0.00     0.035 C 
ATOM     13  C   UNL A   1      33.617  22.155  27.754  1.00  0.00     0.004 C 
BRANCH   9  14
ATOM     14  C   UNL A   1      32.893  24.512  24.439  1.00  0.00     0.176 A 
ATOM     15  C   UNL A   1      32.803  25.316  20.831  1.00  0.00     0.090 C 
ATOM     16  C   UNL A   1      32.773  25.516  22.318  1.00  0.00     0.128 A 
ATOM     17  N   UNL A   1      33.011  24.424  23.089  1.00  0.00    -0.212 NA
ATOM     18  N   UNL A   1      32.452  26.755  22.747  1.00  0.00    -0.229 NA
ATOM     19  C   UNL A   1      32.398  26.857  24.095  1.00  0.00     0.123 A 
ATOM     20  C   UNL A   1      32.594  25.777  24.934  1.00  0.00     0.196 A 
ATOM     21  C   UNL A   1      32.164  27.978  24.937  1.00  0.00     0.047 A 
ATOM     22  O   UNL A   1      32.495  26.157  26.239  1.00  0.00    -0.450 OA
ATOM     23  C   UNL A   1      32.247  27.492  26.237  1.00  0.00     0.137 A 
ATOM     24  C   UNL A   1      31.909  29.349  24.753  1.00  0.00     0.014 A 
ATOM     25  C   UNL A   1      32.101  28.274  27.381  1.00  0.00     0.048 A 
ATOM     26  C   UNL A   1      31.758  30.164  25.886  1.00  0.00     0.001 A 
ATOM     27  C   UNL A   1      31.855  29.634  27.176  1.00  0.00     0.004 A 
ENDBRANCH   9  14
ENDBRANCH   5   8
ENDBRANCH   3   4
ENDBRANCH   2   3
ENDBRANCH   1   2
BRANCH   1  28
ATOM     28  N   UNL A   1      39.945  21.188  26.659  1.00  0.00    -0.352 N 
ATOM     29  C   UNL A   1      41.069  21.804  27.151  1.00  0.00     0.251 C 
ATOM     30  H   UNL A   1      39.940  20.204  26.702  1.00  0.00     0.163 HD
ATOM     31  O   UNL A   1      42.005  21.171  27.602  1.00  0.00    -0.269 OA
BRANCH  29  32
ATOM     32  C   UNL A   1      41.116  23.277  27.064  1.00  0.00     0.039 A 
ATOM     33  C   UNL A   1      41.948  23.879  26.111  1.00  0.00     0.014 A 
ATOM     34  C   UNL A   1      40.518  24.017  28.085  1.00  0.00     0.014 A 
ATOM     35  C   UNL A   1      42.328  25.200  26.296  1.00  0.00     0.010 A 
ATOM     36  C   UNL A   1      40.861  25.355  28.233  1.00  0.00     0.010 A 
ATOM     37  C   UNL A   1      41.820  25.923  27.383  1.00  0.00    -0.014 A 
BRANCH  37  38
ATOM     38  C   UNL A   1      42.360  27.269  27.609  1.00  0.00     0.031 A 
ATOM     39  C   UNL A   1      41.345  28.351  27.644  1.00  0.00     0.074 A 
ATOM     40  C   UNL A   1      43.504  27.466  28.297  1.00  0.00     0.049 A 
ATOM     41  N   UNL A   1      40.628  28.588  28.701  1.00  0.00    -0.248 NA
ATOM     42  C   UNL A   1      40.904  29.059  26.446  1.00  0.00     0.031 C 
ATOM     43  C   UNL A   1      44.043  26.542  29.307  1.00  0.00     0.029 A 
ATOM     44  N   UNL A   1      44.282  28.590  28.420  1.00  0.00    -0.354 N 
ATOM     45  C   UNL A   1      39.599  29.418  28.310  1.00  0.00     0.074 A 
ATOM     46  C   UNL A   1      39.818  29.700  26.906  1.00  0.00     0.031 C 
ATOM     47  C   UNL A   1      44.924  27.213  30.078  1.00  0.00     0.029 A 
ATOM     48  C   UNL A   1      45.146  28.534  29.507  1.00  0.00     0.049 A 
ATOM     49  H   UNL A   1      44.234  29.355  27.803  1.00  0.00     0.167 HD
ATOM     50  C   UNL A   1      38.608  29.808  29.150  1.00  0.00     0.037 A 
ATOM     51  C   UNL A   1      45.637  29.607  30.185  1.00  0.00     0.037 A 
ATOM     52  C   UNL A   1      38.720  29.354  30.504  1.00  0.00     0.049 A 
ATOM     53  C   UNL A   1      44.386  30.117  30.856  1.00  0.00     0.074 A 
ATOM     54  C   UNL A   1      38.265  28.288  31.248  1.00  0.00     0.029 A 
ATOM     55  N   UNL A   1      39.544  30.055  31.354  1.00  0.00    -0.354 N 
ATOM     56  N   UNL A   1      43.859  29.637  31.953  1.00  0.00    -0.248 NA
ATOM     57  C   UNL A   1      43.486  30.975  30.080  1.00  0.00     0.031 C 
ATOM     58  C   UNL A   1      39.171  28.169  32.347  1.00  0.00     0.029 A 
ATOM     59  C   UNL A   1      40.158  29.137  32.171  1.00  0.00     0.049 A 
ATOM     60  H   UNL A   1      39.669  31.032  31.374  1.00  0.00     0.167 HD
ATOM     61  C   UNL A   1      42.489  29.895  31.853  1.00  0.00     0.074 A 
ATOM     62  C   UNL A   1      42.333  30.750  30.696  1.00  0.00     0.031 C 
ATOM     63  C   UNL A   1      41.541  29.248  32.588  1.00  0.00     0.037 A 
BRANCH  50  64
ATOM     64  C   UNL A   1      37.526  30.728  28.766  1.00  0.00     0.058 A 
ATOM     65  C   UNL A   1      37.709  32.102  28.964  1.00  0.00     0.135 A 
ATOM     66  C   UNL A   1      36.264  30.268  28.376  1.00  0.00     0.135 A 
ATOM     67  F   UNL A   1      38.912  32.573  29.337  1.00  0.00    -0.206 F 
ATOM     68  C   UNL A   1      36.658  32.996  28.832  1.00  0.00     0.059 A 
ATOM     69  C   UNL A   1      35.193  31.147  28.234  1.00  0.00     0.059 A 
ATOM     70  F   UNL A   1      36.051  28.958  28.175  1.00  0.00    -0.206 F 
ATOM     71  C   UNL A   1      35.397  32.504  28.490  1.00  0.00     0.060 A 
BRANCH  71  72
ATOM     72  S   UNL A   1      34.022  33.672  28.436  1.00  0.00     0.124 S 
ATOM     73  O   UNL A   1      34.645  34.837  27.818  1.00  0.00    -0.237 OA
ATOM     74  O   UNL A   1      33.052  32.958  27.614  1.00  0.00    -0.237 OA
ATOM     75  O   UNL A   1      33.655  33.828  29.841  1.00  0.00    -0.744 OA
ENDBRANCH  71  72
ENDBRANCH  50  64
BRANCH  51  76
ATOM     76  C   UNL A   1      46.565  30.445  29.356  1.00  0.00     0.058 A 
ATOM     77  C   UNL A   1      47.763  30.892  29.961  1.00  0.00     0.135 A 
ATOM     78  C   UNL A   1      46.385  30.802  28.013  1.00  0.00     0.135 A 
ATOM     79  F   UNL A   1      47.963  30.716  31.278  1.00  0.00    -0.206 F 
ATOM     80  C   UNL A   1      48.789  31.492  29.239  1.00  0.00     0.059 A 
ATOM     81  C   UNL A   1      47.408  31.385  27.259  1.00  0.00     0.059 A 
ATOM     82  F   UNL A   1      45.226  30.572  27.383  1.00  0.00    -0.206 F 
ATOM     83  C   UNL A   1      48.620  31.689  27.873  1.00  0.00     0.060 A 
BRANCH  83  84
ATOM     84  S   UNL A   1      50.029  32.279  26.914  1.00  0.00     0.124 S 
ATOM     85  O   UNL A   1      50.991  32.607  27.961  1.00  0.00    -0.237 OA
ATOM     86  O   UNL A   1      50.347  31.107  26.102  1.00  0.00    -0.237 OA
ATOM     87  O   UNL A   1      49.484  33.415  26.178  1.00  0.00    -0.744 OA
ENDBRANCH  83  84
ENDBRANCH  51  76
BRANCH  63  88
ATOM     88  C   UNL A   1      42.038  28.423  33.727  1.00  0.00     0.058 A 
ATOM     89  C   UNL A   1      41.898  28.889  35.042  1.00  0.00     0.135 A 
ATOM     90  C   UNL A   1      42.573  27.139  33.540  1.00  0.00     0.135 A 
ATOM     91  F   UNL A   1      41.382  30.107  35.277  1.00  0.00    -0.206 F 
ATOM     92  C   UNL A   1      42.238  28.096  36.134  1.00  0.00     0.059 A 
ATOM     93  C   UNL A   1      42.899  26.321  34.618  1.00  0.00     0.059 A 
ATOM     94  F   UNL A   1      42.748  26.642  32.304  1.00  0.00    -0.206 F 
ATOM     95  C   UNL A   1      42.721  26.807  35.913  1.00  0.00     0.060 A 
BRANCH  95  96
ATOM     96  S   UNL A   1      43.030  25.740  37.337  1.00  0.00     0.124 S 
ATOM     97  O   UNL A   1      41.745  25.067  37.497  1.00  0.00    -0.237 OA
ATOM     98  O   UNL A   1      44.130  24.901  36.869  1.00  0.00    -0.237 OA
ATOM     99  O   UNL A   1      43.381  26.680  38.397  1.00  0.00    -0.744 OA
ENDBRANCH  95  96
ENDBRANCH  63  88
ENDBRANCH  37  38
ENDBRANCH  29  32
ENDBRANCH   1  28
TORSDOF 14
ENDMDL
MODEL 3
REMARK VINA RESULT:     -12.5      1.807      2.630
REMARK SMILES Cc1nc(N2CCCC[C@H]2C(=O)NCCCNC(=O)c2ccc(-c3c4nc(c(-c5c(F)cc(S(=O)(=O)[O-])cc5F)c5ccc([nH]5)c(-c5c(F)cc(S(=O)(=O)[O-])cc5F)c5nc(c(-c6c(F)cc(S(=O)(=O)[O-])cc6F)c6ccc3[nH]6)C=C5)C=C4)cc2)c2oc3ccccc3c2n1
REMARK SMILES IDX 16 1 15 2 14 3 13 4 11 5 12 6 10 8 5 9 6 10 7 11 9 12 8 13
REMARK SMILES IDX 4 14 1 15 2 16 3 17 95 18 94 19 86 20 93 21 87 22 88 23
REMARK SMILES IDX 92 24 89 25 91 26 90 27 17 28 18 29 19 31 20 32 21 33 85 34
REMARK SMILES IDX 22 35 84 36 23 37 24 38 25 39 78 40 26 41 83 42 77 43 79 44
REMARK SMILES IDX 27 45 82 46 76 47 75 48 28 50 62 51 41 52 61 53 42 54 45 55
REMARK SMILES IDX 60 56 80 57 43 58 44 59 59 61 81 62 46 63 29 64 30 65 39 66
REMARK SMILES IDX 31 67 32 68 38 69 40 70 33 71 34 72 35 73 36 74 37 75 63 76
REMARK SMILES IDX 64 77 73 78 65 79 66 80 72 81 74 82 67 83 68 84 69 85 70 86
REMARK SMILES IDX 71 87 47 88 48 89 57 90 49 91 50 92 56 93 58 94 51 95 52 96
REMARK SMILES IDX 53 97 54 98 55 99
REMARK H PARENT 13 7 17 30 79 49 45 60
REMARK Flexibility Score: inf
ROOT
ATOM      1  C   UNL A   1      38.200  23.896  25.888  1.00  0.00     0.118 C 
ENDROOT
BRANCH   1   2
ATOM      2  C   UNL A   1      36.681  23.956  25.766  1.00  0.00     0.042 C 
BRANCH   2   3
ATOM      3  C   UNL A   1      36.022  22.580  25.752  1.00  0.00     0.117 C 
BRANCH   3   4
ATOM      4  N   UNL A   1      35.230  22.415  24.546  1.00  0.00    -0.354 N 
ATOM      5  C   UNL A   1      34.067  22.982  24.151  1.00  0.00     0.242 C 
ATOM      6  O   UNL A   1      33.601  22.560  23.087  1.00  0.00    -0.273 OA
ATOM      7  H   UNL A   1      35.608  21.777  23.899  1.00  0.00     0.163 HD
BRANCH   5   8
ATOM      8  C   UNL A   1      33.415  24.112  24.964  1.00  0.00     0.173 C 
ATOM      9  N   UNL A   1      32.181  24.559  24.308  1.00  0.00    -0.341 N 
ATOM     10  C   UNL A   1      31.059  23.635  24.235  1.00  0.00     0.119 C 
ATOM     11  C   UNL A   1      30.676  23.175  25.636  1.00  0.00     0.022 C 
ATOM     12  C   UNL A   1      33.061  23.632  26.383  1.00  0.00     0.035 C 
ATOM     13  C   UNL A   1      31.876  22.660  26.428  1.00  0.00     0.004 C 
BRANCH   9  14
ATOM     14  C   UNL A   1      32.103  25.824  23.782  1.00  0.00     0.176 A 
ATOM     15  C   UNL A   1      34.388  28.373  22.383  1.00  0.00     0.090 C 
ATOM     16  C   UNL A   1      33.118  27.735  22.867  1.00  0.00     0.128 A 
ATOM     17  N   UNL A   1      33.224  26.501  23.422  1.00  0.00    -0.212 NA
ATOM     18  N   UNL A   1      31.981  28.429  22.647  1.00  0.00    -0.229 NA
ATOM     19  C   UNL A   1      30.870  27.780  23.064  1.00  0.00     0.123 A 
ATOM     20  C   UNL A   1      30.905  26.508  23.604  1.00  0.00     0.196 A 
ATOM     21  C   UNL A   1      29.506  28.181  23.078  1.00  0.00     0.047 A 
ATOM     22  O   UNL A   1      29.652  26.096  23.948  1.00  0.00    -0.450 OA
ATOM     23  C   UNL A   1      28.810  27.116  23.640  1.00  0.00     0.137 A 
ATOM     24  C   UNL A   1      28.780  29.324  22.697  1.00  0.00     0.014 A 
ATOM     25  C   UNL A   1      27.435  27.103  23.861  1.00  0.00     0.048 A 
ATOM     26  C   UNL A   1      27.393  29.343  22.908  1.00  0.00     0.001 A 
ATOM     27  C   UNL A   1      26.734  28.251  23.482  1.00  0.00     0.004 A 
ENDBRANCH   9  14
ENDBRANCH   5   8
ENDBRANCH   3   4
ENDBRANCH   2   3
ENDBRANCH   1   2
BRANCH   1  28
ATOM     28  N   UNL A   1      38.728  22.536  25.985  1.00  0.00    -0.352 N 
ATOM     29  C   UNL A   1      39.911  22.125  26.547  1.00  0.00     0.251 C 
ATOM     30  H   UNL A   1      38.164  21.826  25.600  1.00  0.00     0.163 HD
ATOM     31  O   UNL A   1      40.246  20.956  26.559  1.00  0.00    -0.269 OA
BRANCH  29  32
ATOM     32  C   UNL A   1      40.789  23.175  27.098  1.00  0.00     0.039 A 
ATOM     33  C   UNL A   1      40.306  24.004  28.119  1.00  0.00     0.014 A 
ATOM     34  C   UNL A   1      41.977  23.463  26.423  1.00  0.00     0.014 A 
ATOM     35  C   UNL A   1      40.924  25.226  28.337  1.00  0.00     0.010 A 
ATOM     36  C   UNL A   1      42.623  24.665  26.685  1.00  0.00     0.010 A 
ATOM     37  C   UNL A   1      42.055  25.576  27.587  1.00  0.00    -0.014 A 
BRANCH  37  38
ATOM     38  C   UNL A   1      42.586  26.933  27.760  1.00  0.00     0.031 A 
ATOM     39  C   UNL A   1      41.564  28.009  27.739  1.00  0.00     0.074 A 
ATOM     40  C   UNL A   1      43.722  27.167  28.451  1.00  0.00     0.049 A 
ATOM     41  N   UNL A   1      40.835  28.287  28.777  1.00  0.00    -0.248 NA
ATOM     42  C   UNL A   1      41.130  28.662  26.507  1.00  0.00     0.031 C 
ATOM     43  C   UNL A   1      44.255  26.291  29.505  1.00  0.00     0.029 A 
ATOM     44  N   UNL A   1      44.492  28.300  28.533  1.00  0.00    -0.354 N 
ATOM     45  C   UNL A   1      39.805  29.093  28.340  1.00  0.00     0.074 A 
ATOM     46  C   UNL A   1      40.036  29.316  26.928  1.00  0.00     0.031 C 
ATOM     47  C   UNL A   1      45.125  26.999  30.254  1.00  0.00     0.029 A 
ATOM     48  C   UNL A   1      45.345  28.296  29.630  1.00  0.00     0.049 A 
ATOM     49  H   UNL A   1      44.445  29.037  27.883  1.00  0.00     0.167 HD
ATOM     50  C   UNL A   1      38.803  29.512  29.153  1.00  0.00     0.037 A 
ATOM     51  C   UNL A   1      45.822  29.400  30.265  1.00  0.00     0.037 A 
ATOM     52  C   UNL A   1      38.904  29.118  30.526  1.00  0.00     0.049 A 
ATOM     53  C   UNL A   1      44.562  29.931  30.902  1.00  0.00     0.074 A 
ATOM     54  C   UNL A   1      38.447  28.082  31.311  1.00  0.00     0.029 A 
ATOM     55  N   UNL A   1      39.715  29.860  31.354  1.00  0.00    -0.354 N 
ATOM     56  N   UNL A   1      44.026  29.495  32.013  1.00  0.00    -0.248 NA
ATOM     57  C   UNL A   1      43.664  30.749  30.081  1.00  0.00     0.031 C 
ATOM     58  C   UNL A   1      39.343  28.017  32.423  1.00  0.00     0.029 A 
ATOM     59  C   UNL A   1      40.326  28.982  32.215  1.00  0.00     0.049 A 
ATOM     60  H   UNL A   1      39.835  30.838  31.332  1.00  0.00     0.167 HD
ATOM     61  C   UNL A   1      42.656  29.740  31.888  1.00  0.00     0.074 A 
ATOM     62  C   UNL A   1      42.507  30.544  30.694  1.00  0.00     0.031 C 
ATOM     63  C   UNL A   1      41.704  29.119  32.641  1.00  0.00     0.037 A 
BRANCH  50  64
ATOM     64  C   UNL A   1      37.720  30.408  28.719  1.00  0.00     0.058 A 
ATOM     65  C   UNL A   1      37.822  31.776  29.004  1.00  0.00     0.135 A 
ATOM     66  C   UNL A   1      36.520  29.921  28.190  1.00  0.00     0.135 A 
ATOM     67  F   UNL A   1      38.964  32.272  29.511  1.00  0.00    -0.206 F 
ATOM     68  C   UNL A   1      36.748  32.632  28.823  1.00  0.00     0.059 A 
ATOM     69  C   UNL A   1      35.428  30.762  27.996  1.00  0.00     0.059 A 
ATOM     70  F   UNL A   1      36.385  28.617  27.902  1.00  0.00    -0.206 F 
ATOM     71  C   UNL A   1      35.546  32.110  28.340  1.00  0.00     0.060 A 
BRANCH  71  72
ATOM     72  S   UNL A   1      34.131  33.223  28.220  1.00  0.00     0.124 S 
ATOM     73  O   UNL A   1      34.676  34.314  27.419  1.00  0.00    -0.237 OA
ATOM     74  O   UNL A   1      33.141  32.381  27.557  1.00  0.00    -0.237 OA
ATOM     75  O   UNL A   1      33.839  33.552  29.612  1.00  0.00    -0.744 OA
ENDBRANCH  71  72
ENDBRANCH  50  64
BRANCH  51  76
ATOM     76  C   UNL A   1      46.754  30.207  29.410  1.00  0.00     0.058 A 
ATOM     77  C   UNL A   1      48.034  30.504  29.933  1.00  0.00     0.135 A 
ATOM     78  C   UNL A   1      46.498  30.671  28.112  1.00  0.00     0.135 A 
ATOM     79  F   UNL A   1      48.325  30.220  31.215  1.00  0.00    -0.206 F 
ATOM     80  C   UNL A   1      49.049  31.058  29.161  1.00  0.00     0.059 A 
ATOM     81  C   UNL A   1      47.506  31.211  27.309  1.00  0.00     0.059 A 
ATOM     82  F   UNL A   1      45.275  30.588  27.575  1.00  0.00    -0.206 F 
ATOM     83  C   UNL A   1      48.788  31.363  27.831  1.00  0.00     0.060 A 
BRANCH  83  84
ATOM     84  S   UNL A   1      50.162  31.890  26.788  1.00  0.00     0.124 S 
ATOM     85  O   UNL A   1      49.555  32.962  26.006  1.00  0.00    -0.237 OA
ATOM     86  O   UNL A   1      51.146  32.308  27.784  1.00  0.00    -0.237 OA
ATOM     87  O   UNL A   1      50.505  30.682  26.045  1.00  0.00    -0.744 OA
ENDBRANCH  83  84
ENDBRANCH  51  76
BRANCH  63  88
ATOM     88  C   UNL A   1      42.194  28.347  33.820  1.00  0.00     0.058 A 
ATOM     89  C   UNL A   1      42.799  27.096  33.634  1.00  0.00     0.135 A 
ATOM     90  C   UNL A   1      42.149  28.867  35.122  1.00  0.00     0.135 A 
ATOM     91  F   UNL A   1      42.877  26.557  32.405  1.00  0.00    -0.206 F 
ATOM     92  C   UNL A   1      43.376  26.403  34.694  1.00  0.00     0.059 A 
ATOM     93  C   UNL A   1      42.738  28.201  36.194  1.00  0.00     0.059 A 
ATOM     94  F   UNL A   1      41.568  30.053  35.368  1.00  0.00    -0.206 F 
ATOM     95  C   UNL A   1      43.356  26.972  35.968  1.00  0.00     0.060 A 
BRANCH  95  96
ATOM     96  S   UNL A   1      44.225  26.128  37.307  1.00  0.00     0.124 S 
ATOM     97  O   UNL A   1      44.148  24.733  36.888  1.00  0.00    -0.237 OA
ATOM     98  O   UNL A   1      45.553  26.733  37.250  1.00  0.00    -0.237 OA
ATOM     99  O   UNL A   1      43.443  26.471  38.491  1.00  0.00    -0.744 OA
ENDBRANCH  95  96
ENDBRANCH  63  88
ENDBRANCH  37  38
ENDBRANCH  29  32
ENDBRANCH   1  28
TORSDOF 14
ENDMDL
