MODEL 1
REMARK VINA RESULT:     -11.5      0.000      0.000
REMARK SMILES Cc1ccc([C@@H](C)[N@@H+]2CCO[C@H](CC(=O)NCCCNC(=O)c3ccc(-c4c5nc(c(-c6c(F)cc(S(=O)(=O)[O-])cc6F)c6ccc([nH]6)c(-c6c(F)cc(S(=O)(=O)[O-])cc6F)c6nc(c(-c7c(F)cc(S(=O)(=O)[O-])cc7F)c7ccc4[nH]7)C=C6)C=C5)cc3)C2)o1
REMARK SMILES IDX 18 1 17 2 16 3 14 4 15 5 13 7 12 8 8 9 9 10 89 11 10 13
REMARK SMILES IDX 11 14 6 15 7 16 5 17 1 18 2 19 3 20 90 21 4 22 19 23 20 24
REMARK SMILES IDX 21 25 22 27 23 28 24 29 88 30 25 31 87 32 26 33 27 34 28 35
REMARK SMILES IDX 81 36 29 37 86 38 80 39 82 40 30 41 85 42 79 43 78 44 31 46
REMARK SMILES IDX 65 47 44 48 64 49 45 50 48 51 63 52 83 53 46 54 47 55 62 57
REMARK SMILES IDX 84 58 49 59 32 60 33 61 42 62 34 63 35 64 41 65 43 66 36 67
REMARK SMILES IDX 37 68 38 69 39 70 40 71 66 72 67 73 76 74 68 75 69 76 75 77
REMARK SMILES IDX 77 78 70 79 71 80 72 81 73 82 74 83 50 84 51 85 60 86 52 87
REMARK SMILES IDX 53 88 59 89 61 90 54 91 55 92 56 93 57 94 58 95
REMARK H PARENT 16 6 8 12 20 26 82 45 48 56
REMARK Flexibility Score: inf
ROOT
ATOM      1  C   UNL A   1      32.591  27.743  26.828  1.00  0.00     0.042 C 
ENDROOT
BRANCH   1   2
ATOM      2  C   UNL A   1      32.267  26.557  25.933  1.00  0.00     0.117 C 
BRANCH   2   3
ATOM      3  N   UNL A   1      31.325  25.673  26.582  1.00  0.00    -0.356 N 
ATOM      4  C   UNL A   1      31.443  24.326  26.765  1.00  0.00     0.222 C 
ATOM      5  O   UNL A   1      30.470  23.706  27.200  1.00  0.00    -0.275 OA
ATOM      6  H   UNL A   1      30.505  26.091  26.933  1.00  0.00     0.163 HD
BRANCH   4   7
ATOM      7  C   UNL A   1      32.788  23.655  26.602  1.00  0.00     0.138 C 
BRANCH   7   8
ATOM      8  C   UNL A   1      32.908  22.136  26.478  1.00  0.00     0.182 C 
ATOM      9  N   UNL A   1      35.287  21.492  25.716  1.00  0.00    -0.322 N 
ATOM     10  C   UNL A   1      34.671  20.631  24.718  1.00  0.00     0.291 C 
ATOM     11  C   UNL A   1      34.358  21.697  26.828  1.00  0.00     0.295 C 
ATOM     12  H   UNL A   1      36.073  21.019  26.161  1.00  0.00     0.348 HD
ATOM     13  C   UNL A   1      33.316  21.147  24.260  1.00  0.00     0.222 C 
ATOM     14  O   UNL A   1      32.396  21.534  25.285  1.00  0.00    -0.366 OA
BRANCH   9  15
ATOM     15  C   UNL A   1      36.204  22.543  25.244  1.00  0.00     0.248 C 
ATOM     16  C   UNL A   1      36.284  22.552  23.712  1.00  0.00     0.084 C 
BRANCH  15  17
ATOM     17  C   UNL A   1      37.585  22.656  25.844  1.00  0.00     0.161 A 
ATOM     18  C   UNL A   1      40.499  20.739  26.671  1.00  0.00     0.087 C 
ATOM     19  C   UNL A   1      39.570  21.860  26.409  1.00  0.00     0.101 A 
ATOM     20  C   UNL A   1      39.612  23.212  26.664  1.00  0.00     0.046 A 
ATOM     21  O   UNL A   1      38.371  21.534  25.849  1.00  0.00    -0.460 OA
ATOM     22  C   UNL A   1      38.338  23.725  26.303  1.00  0.00     0.052 A 
ENDBRANCH  15  17
ENDBRANCH   9  15
ENDBRANCH   7   8
ENDBRANCH   4   7
ENDBRANCH   2   3
ENDBRANCH   1   2
BRANCH   1  23
ATOM     23  C   UNL A   1      33.811  28.488  26.340  1.00  0.00     0.118 C 
BRANCH  23  24
ATOM     24  N   UNL A   1      33.695  29.923  26.581  1.00  0.00    -0.352 N 
ATOM     25  C   UNL A   1      34.481  30.719  27.387  1.00  0.00     0.251 C 
ATOM     26  H   UNL A   1      32.962  30.380  26.108  1.00  0.00     0.163 HD
ATOM     27  O   UNL A   1      34.133  31.859  27.657  1.00  0.00    -0.269 OA
BRANCH  25  28
ATOM     28  C   UNL A   1      35.733  30.153  27.946  1.00  0.00     0.039 A 
ATOM     29  C   UNL A   1      36.921  30.251  27.220  1.00  0.00     0.014 A 
ATOM     30  C   UNL A   1      35.735  29.585  29.221  1.00  0.00     0.014 A 
ATOM     31  C   UNL A   1      38.122  29.844  27.811  1.00  0.00     0.010 A 
ATOM     32  C   UNL A   1      36.938  29.314  29.852  1.00  0.00     0.010 A 
ATOM     33  C   UNL A   1      38.146  29.412  29.148  1.00  0.00    -0.014 A 
BRANCH  33  34
ATOM     34  C   UNL A   1      39.406  29.022  29.832  1.00  0.00     0.031 A 
ATOM     35  C   UNL A   1      39.861  29.787  31.049  1.00  0.00     0.074 A 
ATOM     36  C   UNL A   1      40.187  28.055  29.311  1.00  0.00     0.049 A 
ATOM     37  N   UNL A   1      40.974  29.681  31.727  1.00  0.00    -0.248 NA
ATOM     38  C   UNL A   1      38.966  30.851  31.536  1.00  0.00     0.031 C 
ATOM     39  C   UNL A   1      39.902  27.298  28.090  1.00  0.00     0.029 A 
ATOM     40  N   UNL A   1      41.394  27.556  29.736  1.00  0.00    -0.354 N 
ATOM     41  C   UNL A   1      40.928  30.685  32.687  1.00  0.00     0.074 A 
ATOM     42  C   UNL A   1      39.713  31.433  32.459  1.00  0.00     0.031 C 
ATOM     43  C   UNL A   1      40.890  26.414  27.880  1.00  0.00     0.029 A 
ATOM     44  C   UNL A   1      41.896  26.564  28.927  1.00  0.00     0.049 A 
ATOM     45  H   UNL A   1      41.855  27.877  30.544  1.00  0.00     0.167 HD
ATOM     46  C   UNL A   1      41.800  30.942  33.691  1.00  0.00     0.037 A 
ATOM     47  C   UNL A   1      43.039  25.857  29.017  1.00  0.00     0.037 A 
ATOM     48  C   UNL A   1      42.980  30.159  33.941  1.00  0.00     0.049 A 
ATOM     49  C   UNL A   1      43.967  26.113  30.172  1.00  0.00     0.074 A 
ATOM     50  C   UNL A   1      43.882  30.269  34.984  1.00  0.00     0.029 A 
ATOM     51  N   UNL A   1      43.422  29.118  33.136  1.00  0.00    -0.354 N 
ATOM     52  N   UNL A   1      43.866  27.008  31.126  1.00  0.00    -0.248 NA
ATOM     53  C   UNL A   1      45.156  25.256  30.272  1.00  0.00     0.031 C 
ATOM     54  C   UNL A   1      44.892  29.321  34.788  1.00  0.00     0.029 A 
ATOM     55  C   UNL A   1      44.594  28.587  33.648  1.00  0.00     0.049 A 
ATOM     56  H   UNL A   1      42.968  28.803  32.322  1.00  0.00     0.167 HD
ATOM     57  C   UNL A   1      44.967  26.811  31.952  1.00  0.00     0.074 A 
ATOM     58  C   UNL A   1      45.713  25.702  31.391  1.00  0.00     0.031 C 
ATOM     59  C   UNL A   1      45.325  27.484  33.074  1.00  0.00     0.037 A 
BRANCH  46  60
ATOM     60  C   UNL A   1      41.497  32.116  34.584  1.00  0.00     0.058 A 
ATOM     61  C   UNL A   1      40.617  32.011  35.675  1.00  0.00     0.135 A 
ATOM     62  C   UNL A   1      42.075  33.371  34.332  1.00  0.00     0.135 A 
ATOM     63  F   UNL A   1      40.024  30.839  35.956  1.00  0.00    -0.206 F 
ATOM     64  C   UNL A   1      40.274  33.118  36.444  1.00  0.00     0.059 A 
ATOM     65  C   UNL A   1      41.773  34.485  35.111  1.00  0.00     0.059 A 
ATOM     66  F   UNL A   1      42.927  33.530  33.308  1.00  0.00    -0.206 F 
ATOM     67  C   UNL A   1      40.850  34.353  36.148  1.00  0.00     0.060 A 
BRANCH  67  68
ATOM     68  S   UNL A   1      40.364  35.789  37.128  1.00  0.00     0.124 S 
ATOM     69  O   UNL A   1      39.412  35.194  38.061  1.00  0.00    -0.237 OA
ATOM     70  O   UNL A   1      41.634  36.218  37.707  1.00  0.00    -0.237 OA
ATOM     71  O   UNL A   1      39.792  36.697  36.138  1.00  0.00    -0.744 OA
ENDBRANCH  67  68
ENDBRANCH  46  60
BRANCH  47  72
ATOM     72  C   UNL A   1      43.332  24.811  28.001  1.00  0.00     0.058 A 
ATOM     73  C   UNL A   1      44.007  25.130  26.814  1.00  0.00     0.135 A 
ATOM     74  C   UNL A   1      43.008  23.464  28.228  1.00  0.00     0.135 A 
ATOM     75  F   UNL A   1      44.332  26.405  26.549  1.00  0.00    -0.206 F 
ATOM     76  C   UNL A   1      44.357  24.152  25.889  1.00  0.00     0.059 A 
ATOM     77  C   UNL A   1      43.367  22.465  27.328  1.00  0.00     0.059 A 
ATOM     78  F   UNL A   1      42.377  23.106  29.357  1.00  0.00    -0.206 F 
ATOM     79  C   UNL A   1      44.043  22.819  26.161  1.00  0.00     0.060 A 
BRANCH  79  80
ATOM     80  S   UNL A   1      44.591  21.547  25.000  1.00  0.00     0.124 S 
ATOM     81  O   UNL A   1      44.452  22.234  23.722  1.00  0.00    -0.237 OA
ATOM     82  O   UNL A   1      45.959  21.298  25.445  1.00  0.00    -0.237 OA
ATOM     83  O   UNL A   1      43.655  20.452  25.235  1.00  0.00    -0.744 OA
ENDBRANCH  79  80
ENDBRANCH  47  72
BRANCH  59  84
ATOM     84  C   UNL A   1      46.566  27.027  33.789  1.00  0.00     0.058 A 
ATOM     85  C   UNL A   1      46.527  26.021  34.766  1.00  0.00     0.135 A 
ATOM     86  C   UNL A   1      47.818  27.564  33.448  1.00  0.00     0.135 A 
ATOM     87  F   UNL A   1      45.355  25.477  35.131  1.00  0.00    -0.206 F 
ATOM     88  C   UNL A   1      47.684  25.579  35.397  1.00  0.00     0.059 A 
ATOM     89  C   UNL A   1      48.991  27.118  34.048  1.00  0.00     0.059 A 
ATOM     90  F   UNL A   1      47.912  28.521  32.511  1.00  0.00    -0.206 F 
ATOM     91  C   UNL A   1      48.912  26.132  35.030  1.00  0.00     0.060 A 
BRANCH  91  92
ATOM     92  S   UNL A   1      50.411  25.527  35.834  1.00  0.00     0.124 S 
ATOM     93  O   UNL A   1      51.161  25.000  34.698  1.00  0.00    -0.237 OA
ATOM     94  O   UNL A   1      50.952  26.740  36.442  1.00  0.00    -0.237 OA
ATOM     95  O   UNL A   1      49.914  24.529  36.776  1.00  0.00    -0.744 OA
ENDBRANCH  91  92
ENDBRANCH  59  84
ENDBRANCH  33  34
ENDBRANCH  25  28
ENDBRANCH  23  24
ENDBRANCH   1  23
TORSDOF 16
ENDMDL
MODEL 2
REMARK VINA RESULT:     -11.4      3.643      7.219
REMARK SMILES Cc1ccc([C@@H](C)[N@@H+]2CCO[C@H](CC(=O)NCCCNC(=O)c3ccc(-c4c5nc(c(-c6c(F)cc(S(=O)(=O)[O-])cc6F)c6ccc([nH]6)c(-c6c(F)cc(S(=O)(=O)[O-])cc6F)c6nc(c(-c7c(F)cc(S(=O)(=O)[O-])cc7F)c7ccc4[nH]7)C=C6)C=C5)cc3)C2)o1
REMARK SMILES IDX 18 1 17 2 16 3 14 4 15 5 13 7 12 8 8 9 9 10 89 11 10 13
REMARK SMILES IDX 11 14 6 15 7 16 5 17 1 18 2 19 3 20 90 21 4 22 19 23 20 24
REMARK SMILES IDX 21 25 22 27 23 28 24 29 88 30 25 31 87 32 26 33 27 34 28 35
REMARK SMILES IDX 81 36 29 37 86 38 80 39 82 40 30 41 85 42 79 43 78 44 31 46
REMARK SMILES IDX 65 47 44 48 64 49 45 50 48 51 63 52 83 53 46 54 47 55 62 57
REMARK SMILES IDX 84 58 49 59 32 60 33 61 42 62 34 63 35 64 41 65 43 66 36 67
REMARK SMILES IDX 37 68 38 69 39 70 40 71 66 72 67 73 76 74 68 75 69 76 75 77
REMARK SMILES IDX 77 78 70 79 71 80 72 81 73 82 74 83 50 84 51 85 60 86 52 87
REMARK SMILES IDX 53 88 59 89 61 90 54 91 55 92 56 93 57 94 58 95
REMARK H PARENT 16 6 8 12 20 26 82 45 48 56
REMARK Flexibility Score: inf
ROOT
ATOM      1  C   UNL A   1      33.642  33.765  28.177  1.00  0.00     0.042 C 
ENDROOT
BRANCH   1   2
ATOM      2  C   UNL A   1      34.255  34.989  28.838  1.00  0.00     0.117 C 
BRANCH   2   3
ATOM      3  N   UNL A   1      33.229  35.807  29.444  1.00  0.00    -0.356 N 
ATOM      4  C   UNL A   1      32.999  35.997  30.775  1.00  0.00     0.222 C 
ATOM      5  O   UNL A   1      31.980  36.605  31.114  1.00  0.00    -0.275 OA
ATOM      6  H   UNL A   1      32.627  36.281  28.825  1.00  0.00     0.163 HD
BRANCH   4   7
ATOM      7  C   UNL A   1      34.059  35.626  31.787  1.00  0.00     0.138 C 
BRANCH   7   8
ATOM      8  C   UNL A   1      33.963  34.336  32.601  1.00  0.00     0.182 C 
ATOM      9  N   UNL A   1      36.288  33.681  33.507  1.00  0.00    -0.322 N 
ATOM     10  C   UNL A   1      36.036  32.335  33.014  1.00  0.00     0.291 C 
ATOM     11  C   UNL A   1      35.015  34.362  33.747  1.00  0.00     0.295 C 
ATOM     12  H   UNL A   1      36.706  33.649  34.436  1.00  0.00     0.348 HD
ATOM     13  C   UNL A   1      35.128  32.322  31.793  1.00  0.00     0.222 C 
ATOM     14  O   UNL A   1      33.932  33.103  31.876  1.00  0.00    -0.366 OA
BRANCH   9  15
ATOM     15  C   UNL A   1      37.482  34.383  33.007  1.00  0.00     0.248 C 
ATOM     16  C   UNL A   1      37.805  33.958  31.569  1.00  0.00     0.084 C 
BRANCH  15  17
ATOM     17  C   UNL A   1      38.739  34.409  33.844  1.00  0.00     0.161 A 
ATOM     18  C   UNL A   1      40.428  36.283  36.392  1.00  0.00     0.087 C 
ATOM     19  C   UNL A   1      40.037  35.217  35.444  1.00  0.00     0.101 A 
ATOM     20  C   UNL A   1      40.647  34.066  34.999  1.00  0.00     0.046 A 
ATOM     21  O   UNL A   1      38.849  35.388  34.796  1.00  0.00    -0.460 OA
ATOM     22  C   UNL A   1      39.816  33.546  33.970  1.00  0.00     0.052 A 
ENDBRANCH  15  17
ENDBRANCH   9  15
ENDBRANCH   7   8
ENDBRANCH   4   7
ENDBRANCH   2   3
ENDBRANCH   1   2
BRANCH   1  23
ATOM     23  C   UNL A   1      34.618  32.613  28.131  1.00  0.00     0.118 C 
BRANCH  23  24
ATOM     24  N   UNL A   1      33.933  31.338  27.933  1.00  0.00    -0.352 N 
ATOM     25  C   UNL A   1      34.483  30.074  27.880  1.00  0.00     0.251 C 
ATOM     26  H   UNL A   1      32.956  31.388  27.821  1.00  0.00     0.163 HD
ATOM     27  O   UNL A   1      33.815  29.127  27.494  1.00  0.00    -0.269 OA
BRANCH  25  28
ATOM     28  C   UNL A   1      35.904  29.898  28.265  1.00  0.00     0.039 A 
ATOM     29  C   UNL A   1      36.224  29.465  29.553  1.00  0.00     0.014 A 
ATOM     30  C   UNL A   1      36.913  30.099  27.322  1.00  0.00     0.014 A 
ATOM     31  C   UNL A   1      37.554  29.164  29.865  1.00  0.00     0.010 A 
ATOM     32  C   UNL A   1      38.204  29.670  27.592  1.00  0.00     0.010 A 
ATOM     33  C   UNL A   1      38.548  29.223  28.875  1.00  0.00    -0.014 A 
BRANCH  33  34
ATOM     34  C   UNL A   1      39.963  28.861  29.149  1.00  0.00     0.031 A 
ATOM     35  C   UNL A   1      40.889  29.883  29.757  1.00  0.00     0.074 A 
ATOM     36  C   UNL A   1      40.440  27.661  28.765  1.00  0.00     0.049 A 
ATOM     37  N   UNL A   1      42.176  29.809  29.976  1.00  0.00    -0.248 NA
ATOM     38  C   UNL A   1      40.297  31.182  30.118  1.00  0.00     0.031 C 
ATOM     39  C   UNL A   1      39.669  26.616  28.088  1.00  0.00     0.029 A 
ATOM     40  N   UNL A   1      41.699  27.124  28.873  1.00  0.00    -0.354 N 
ATOM     41  C   UNL A   1      42.549  31.058  30.459  1.00  0.00     0.074 A 
ATOM     42  C   UNL A   1      41.368  31.891  30.434  1.00  0.00     0.031 C 
ATOM     43  C   UNL A   1      40.461  25.555  27.867  1.00  0.00     0.029 A 
ATOM     44  C   UNL A   1      41.806  25.856  28.351  1.00  0.00     0.049 A 
ATOM     45  H   UNL A   1      42.454  27.601  29.286  1.00  0.00     0.167 HD
ATOM     46  C   UNL A   1      43.756  31.468  30.916  1.00  0.00     0.037 A 
ATOM     47  C   UNL A   1      42.867  25.031  28.269  1.00  0.00     0.037 A 
ATOM     48  C   UNL A   1      44.912  30.615  30.986  1.00  0.00     0.049 A 
ATOM     49  C   UNL A   1      44.186  25.477  28.836  1.00  0.00     0.074 A 
ATOM     50  C   UNL A   1      46.158  30.895  31.518  1.00  0.00     0.029 A 
ATOM     51  N   UNL A   1      44.964  29.314  30.506  1.00  0.00    -0.354 N 
ATOM     52  N   UNL A   1      44.502  26.632  29.373  1.00  0.00    -0.248 NA
ATOM     53  C   UNL A   1      45.288  24.507  28.799  1.00  0.00     0.031 C 
ATOM     54  C   UNL A   1      46.975  29.776  31.324  1.00  0.00     0.029 A 
ATOM     55  C   UNL A   1      46.225  28.781  30.714  1.00  0.00     0.049 A 
ATOM     56  H   UNL A   1      44.213  28.838  30.082  1.00  0.00     0.167 HD
ATOM     57  C   UNL A   1      45.834  26.522  29.756  1.00  0.00     0.074 A 
ATOM     58  C   UNL A   1      46.258  25.182  29.401  1.00  0.00     0.031 C 
ATOM     59  C   UNL A   1      46.630  27.445  30.352  1.00  0.00     0.037 A 
BRANCH  46  60
ATOM     60  C   UNL A   1      43.872  32.898  31.374  1.00  0.00     0.058 A 
ATOM     61  C   UNL A   1      44.264  33.927  30.501  1.00  0.00     0.135 A 
ATOM     62  C   UNL A   1      43.610  33.241  32.710  1.00  0.00     0.135 A 
ATOM     63  F   UNL A   1      44.540  33.656  29.215  1.00  0.00    -0.206 F 
ATOM     64  C   UNL A   1      44.452  35.230  30.949  1.00  0.00     0.059 A 
ATOM     65  C   UNL A   1      43.758  34.546  33.172  1.00  0.00     0.059 A 
ATOM     66  F   UNL A   1      43.226  32.301  33.588  1.00  0.00    -0.206 F 
ATOM     67  C   UNL A   1      44.206  35.528  32.289  1.00  0.00     0.060 A 
BRANCH  67  68
ATOM     68  S   UNL A   1      44.494  37.214  32.866  1.00  0.00     0.124 S 
ATOM     69  O   UNL A   1      44.960  37.862  31.644  1.00  0.00    -0.237 OA
ATOM     70  O   UNL A   1      43.171  37.617  33.332  1.00  0.00    -0.237 OA
ATOM     71  O   UNL A   1      45.499  37.047  33.912  1.00  0.00    -0.744 OA
ENDBRANCH  67  68
ENDBRANCH  46  60
BRANCH  47  72
ATOM     72  C   UNL A   1      42.698  23.682  27.663  1.00  0.00     0.058 A 
ATOM     73  C   UNL A   1      42.864  23.487  26.285  1.00  0.00     0.135 A 
ATOM     74  C   UNL A   1      42.438  22.554  28.458  1.00  0.00     0.135 A 
ATOM     75  F   UNL A   1      43.107  24.535  25.483  1.00  0.00    -0.206 F 
ATOM     76  C   UNL A   1      42.785  22.221  25.713  1.00  0.00     0.059 A 
ATOM     77  C   UNL A   1      42.375  21.275  27.912  1.00  0.00     0.059 A 
ATOM     78  F   UNL A   1      42.287  22.688  29.784  1.00  0.00    -0.206 F 
ATOM     79  C   UNL A   1      42.552  21.119  26.538  1.00  0.00     0.060 A 
BRANCH  79  80
ATOM     80  S   UNL A   1      42.551  19.470  25.799  1.00  0.00     0.124 S 
ATOM     81  O   UNL A   1      42.924  18.637  26.936  1.00  0.00    -0.237 OA
ATOM     82  O   UNL A   1      41.172  19.342  25.339  1.00  0.00    -0.237 OA
ATOM     83  O   UNL A   1      43.549  19.577  24.739  1.00  0.00    -0.744 OA
ENDBRANCH  79  80
ENDBRANCH  47  72
BRANCH  59  84
ATOM     84  C   UNL A   1      48.038  27.034  30.681  1.00  0.00     0.058 A 
ATOM     85  C   UNL A   1      49.117  27.355  29.843  1.00  0.00     0.135 A 
ATOM     86  C   UNL A   1      48.317  26.359  31.880  1.00  0.00     0.135 A 
ATOM     87  F   UNL A   1      48.903  27.996  28.682  1.00  0.00    -0.206 F 
ATOM     88  C   UNL A   1      50.421  27.002  30.172  1.00  0.00     0.059 A 
ATOM     89  C   UNL A   1      49.617  26.020  32.242  1.00  0.00     0.059 A 
ATOM     90  F   UNL A   1      47.323  26.038  32.724  1.00  0.00    -0.206 F 
ATOM     91  C   UNL A   1      50.661  26.336  31.374  1.00  0.00     0.060 A 
BRANCH  91  92
ATOM     92  S   UNL A   1      52.362  25.911  31.806  1.00  0.00     0.124 S 
ATOM     93  O   UNL A   1      53.038  26.068  30.522  1.00  0.00    -0.237 OA
ATOM     94  O   UNL A   1      52.687  26.910  32.820  1.00  0.00    -0.237 OA
ATOM     95  O   UNL A   1      52.256  24.540  32.297  1.00  0.00    -0.744 OA
ENDBRANCH  91  92
ENDBRANCH  59  84
ENDBRANCH  33  34
ENDBRANCH  25  28
ENDBRANCH  23  24
ENDBRANCH   1  23
TORSDOF 16
ENDMDL
MODEL 3
REMARK VINA RESULT:     -11.3      3.944     10.680
REMARK SMILES Cc1ccc([C@@H](C)[N@@H+]2CCO[C@H](CC(=O)NCCCNC(=O)c3ccc(-c4c5nc(c(-c6c(F)cc(S(=O)(=O)[O-])cc6F)c6ccc([nH]6)c(-c6c(F)cc(S(=O)(=O)[O-])cc6F)c6nc(c(-c7c(F)cc(S(=O)(=O)[O-])cc7F)c7ccc4[nH]7)C=C6)C=C5)cc3)C2)o1
REMARK SMILES IDX 18 1 17 2 16 3 14 4 15 5 13 7 12 8 8 9 9 10 89 11 10 13
REMARK SMILES IDX 11 14 6 15 7 16 5 17 1 18 2 19 3 20 90 21 4 22 19 23 20 24
REMARK SMILES IDX 21 25 22 27 23 28 24 29 88 30 25 31 87 32 26 33 27 34 28 35
REMARK SMILES IDX 81 36 29 37 86 38 80 39 82 40 30 41 85 42 79 43 78 44 31 46
REMARK SMILES IDX 65 47 44 48 64 49 45 50 48 51 63 52 83 53 46 54 47 55 62 57
REMARK SMILES IDX 84 58 49 59 32 60 33 61 42 62 34 63 35 64 41 65 43 66 36 67
REMARK SMILES IDX 37 68 38 69 39 70 40 71 66 72 67 73 76 74 68 75 69 76 75 77
REMARK SMILES IDX 77 78 70 79 71 80 72 81 73 82 74 83 50 84 51 85 60 86 52 87
REMARK SMILES IDX 53 88 59 89 61 90 54 91 55 92 56 93 57 94 58 95
REMARK H PARENT 16 6 8 12 20 26 82 45 48 56
REMARK Flexibility Score: inf
ROOT
ATOM      1  C   UNL A   1      33.755  33.366  28.415  1.00  0.00     0.042 C 
ENDROOT
BRANCH   1   2
ATOM      2  C   UNL A   1      34.263  34.697  28.944  1.00  0.00     0.117 C 
BRANCH   2   3
ATOM      3  N   UNL A   1      33.164  35.512  29.409  1.00  0.00    -0.356 N 
ATOM      4  C   UNL A   1      32.900  35.894  30.692  1.00  0.00     0.222 C 
ATOM      5  O   UNL A   1      31.830  36.459  30.928  1.00  0.00    -0.275 OA
ATOM      6  H   UNL A   1      32.533  35.827  28.722  1.00  0.00     0.163 HD
BRANCH   4   7
ATOM      7  C   UNL A   1      33.974  35.782  31.751  1.00  0.00     0.138 C 
BRANCH   7   8
ATOM      8  C   UNL A   1      33.932  34.682  32.811  1.00  0.00     0.182 C 
ATOM      9  N   UNL A   1      36.329  33.971  33.448  1.00  0.00    -0.322 N 
ATOM     10  C   UNL A   1      35.900  32.590  33.281  1.00  0.00     0.291 C 
ATOM     11  C   UNL A   1      35.169  34.812  33.746  1.00  0.00     0.295 C 
ATOM     12  H   UNL A   1      36.901  34.069  34.287  1.00  0.00     0.348 HD
ATOM     13  C   UNL A   1      34.794  32.445  32.247  1.00  0.00     0.222 C 
ATOM     14  O   UNL A   1      33.688  33.347  32.361  1.00  0.00    -0.366 OA
BRANCH   9  15
ATOM     15  C   UNL A   1      37.463  34.442  32.635  1.00  0.00     0.248 C 
ATOM     16  C   UNL A   1      37.581  33.629  31.339  1.00  0.00     0.084 C 
BRANCH  15  17
ATOM     17  C   UNL A   1      38.820  34.616  33.273  1.00  0.00     0.161 A 
ATOM     18  C   UNL A   1      40.500  36.221  36.004  1.00  0.00     0.087 C 
ATOM     19  C   UNL A   1      40.187  35.346  34.853  1.00  0.00     0.101 A 
ATOM     20  C   UNL A   1      40.946  34.550  34.026  1.00  0.00     0.046 A 
ATOM     21  O   UNL A   1      38.887  35.330  34.440  1.00  0.00    -0.460 OA
ATOM     22  C   UNL A   1      40.071  34.081  33.010  1.00  0.00     0.052 A 
ENDBRANCH  15  17
ENDBRANCH   9  15
ENDBRANCH   7   8
ENDBRANCH   4   7
ENDBRANCH   2   3
ENDBRANCH   1   2
BRANCH   1  23
ATOM     23  C   UNL A   1      34.693  32.235  28.767  1.00  0.00     0.118 C 
BRANCH  23  24
ATOM     24  N   UNL A   1      34.146  30.941  28.370  1.00  0.00    -0.352 N 
ATOM     25  C   UNL A   1      34.831  29.785  28.059  1.00  0.00     0.251 C 
ATOM     26  H   UNL A   1      33.165  30.887  28.316  1.00  0.00     0.163 HD
ATOM     27  O   UNL A   1      34.251  28.844  27.538  1.00  0.00    -0.269 OA
BRANCH  25  28
ATOM     28  C   UNL A   1      36.287  29.721  28.337  1.00  0.00     0.039 A 
ATOM     29  C   UNL A   1      36.735  29.297  29.589  1.00  0.00     0.014 A 
ATOM     30  C   UNL A   1      37.204  30.020  27.329  1.00  0.00     0.014 A 
ATOM     31  C   UNL A   1      38.104  29.104  29.799  1.00  0.00     0.010 A 
ATOM     32  C   UNL A   1      38.541  29.695  27.495  1.00  0.00     0.010 A 
ATOM     33  C   UNL A   1      39.014  29.259  28.741  1.00  0.00    -0.014 A 
BRANCH  33  34
ATOM     34  C   UNL A   1      40.470  29.012  28.904  1.00  0.00     0.031 A 
ATOM     35  C   UNL A   1      41.050  27.681  28.501  1.00  0.00     0.074 A 
ATOM     36  C   UNL A   1      41.250  29.935  29.502  1.00  0.00     0.049 A 
ATOM     37  N   UNL A   1      42.265  27.223  28.657  1.00  0.00    -0.248 NA
ATOM     38  C   UNL A   1      40.125  26.714  27.885  1.00  0.00     0.031 C 
ATOM     39  C   UNL A   1      40.794  31.228  30.017  1.00  0.00     0.029 A 
ATOM     40  N   UNL A   1      42.591  29.917  29.795  1.00  0.00    -0.354 N 
ATOM     41  C   UNL A   1      42.236  25.911  28.200  1.00  0.00     0.074 A 
ATOM     42  C   UNL A   1      40.871  25.623  27.826  1.00  0.00     0.031 C 
ATOM     43  C   UNL A   1      41.841  31.890  30.536  1.00  0.00     0.029 A 
ATOM     44  C   UNL A   1      43.034  31.055  30.425  1.00  0.00     0.049 A 
ATOM     45  H   UNL A   1      43.180  29.160  29.572  1.00  0.00     0.167 HD
ATOM     46  C   UNL A   1      43.259  25.033  28.069  1.00  0.00     0.037 A 
ATOM     47  C   UNL A   1      44.262  31.389  30.868  1.00  0.00     0.037 A 
ATOM     48  C   UNL A   1      44.625  25.347  28.394  1.00  0.00     0.049 A 
ATOM     49  C   UNL A   1      45.400  30.428  30.660  1.00  0.00     0.074 A 
ATOM     50  C   UNL A   1      45.754  24.570  28.213  1.00  0.00     0.029 A 
ATOM     51  N   UNL A   1      45.045  26.537  28.972  1.00  0.00    -0.354 N 
ATOM     52  N   UNL A   1      45.374  29.223  30.142  1.00  0.00    -0.248 NA
ATOM     53  C   UNL A   1      46.733  30.876  31.081  1.00  0.00     0.031 C 
ATOM     54  C   UNL A   1      46.853  25.274  28.717  1.00  0.00     0.029 A 
ATOM     55  C   UNL A   1      46.415  26.511  29.169  1.00  0.00     0.049 A 
ATOM     56  H   UNL A   1      44.456  27.290  29.205  1.00  0.00     0.167 HD
ATOM     57  C   UNL A   1      46.690  28.774  30.157  1.00  0.00     0.074 A 
ATOM     58  C   UNL A   1      47.487  29.844  30.723  1.00  0.00     0.031 C 
ATOM     59  C   UNL A   1      47.192  27.585  29.737  1.00  0.00     0.037 A 
BRANCH  46  60
ATOM     60  C   UNL A   1      42.927  23.660  27.549  1.00  0.00     0.058 A 
ATOM     61  C   UNL A   1      42.481  22.632  28.397  1.00  0.00     0.135 A 
ATOM     62  C   UNL A   1      43.081  23.358  26.185  1.00  0.00     0.135 A 
ATOM     63  F   UNL A   1      42.329  22.859  29.713  1.00  0.00    -0.206 F 
ATOM     64  C   UNL A   1      42.259  21.343  27.927  1.00  0.00     0.059 A 
ATOM     65  C   UNL A   1      42.830  22.082  25.686  1.00  0.00     0.059 A 
ATOM     66  F   UNL A   1      43.498  24.300  25.327  1.00  0.00    -0.206 F 
ATOM     67  C   UNL A   1      42.445  21.075  26.570  1.00  0.00     0.060 A 
BRANCH  67  68
ATOM     68  S   UNL A   1      42.194  19.388  25.981  1.00  0.00     0.124 S 
ATOM     69  O   UNL A   1      42.650  18.609  27.128  1.00  0.00    -0.237 OA
ATOM     70  O   UNL A   1      40.757  19.356  25.725  1.00  0.00    -0.237 OA
ATOM     71  O   UNL A   1      43.040  19.314  24.794  1.00  0.00    -0.744 OA
ENDBRANCH  67  68
ENDBRANCH  46  60
BRANCH  47  72
ATOM     72  C   UNL A   1      44.472  32.715  31.508  1.00  0.00     0.058 A 
ATOM     73  C   UNL A   1      44.743  33.852  30.734  1.00  0.00     0.135 A 
ATOM     74  C   UNL A   1      44.333  32.885  32.895  1.00  0.00     0.135 A 
ATOM     75  F   UNL A   1      44.891  33.740  29.406  1.00  0.00    -0.206 F 
ATOM     76  C   UNL A   1      44.865  35.113  31.310  1.00  0.00     0.059 A 
ATOM     77  C   UNL A   1      44.430  34.139  33.491  1.00  0.00     0.059 A 
ATOM     78  F   UNL A   1      44.057  31.829  33.676  1.00  0.00    -0.206 F 
ATOM     79  C   UNL A   1      44.695  35.248  32.689  1.00  0.00     0.060 A 
BRANCH  79  80
ATOM     80  S   UNL A   1      44.756  36.904  33.410  1.00  0.00     0.124 S 
ATOM     81  O   UNL A   1      43.366  37.107  33.800  1.00  0.00    -0.237 OA
ATOM     82  O   UNL A   1      45.706  36.725  34.504  1.00  0.00    -0.237 OA
ATOM     83  O   UNL A   1      45.231  37.733  32.307  1.00  0.00    -0.744 OA
ENDBRANCH  79  80
ENDBRANCH  47  72
BRANCH  59  84
ATOM     84  C   UNL A   1      48.677  27.384  29.849  1.00  0.00     0.058 A 
ATOM     85  C   UNL A   1      49.258  26.782  30.977  1.00  0.00     0.135 A 
ATOM     86  C   UNL A   1      49.524  27.746  28.789  1.00  0.00     0.135 A 
ATOM     87  F   UNL A   1      48.492  26.422  32.020  1.00  0.00    -0.206 F 
ATOM     88  C   UNL A   1      50.629  26.567  31.059  1.00  0.00     0.059 A 
ATOM     89  C   UNL A   1      50.895  27.515  28.839  1.00  0.00     0.059 A 
ATOM     90  F   UNL A   1      49.019  28.314  27.683  1.00  0.00    -0.206 F 
ATOM     91  C   UNL A   1      51.439  26.935  29.984  1.00  0.00     0.060 A 
BRANCH  91  92
ATOM     92  S   UNL A   1      53.214  26.622  30.088  1.00  0.00     0.124 S 
ATOM     93  O   UNL A   1      53.739  27.970  30.285  1.00  0.00    -0.237 OA
ATOM     94  O   UNL A   1      53.308  25.731  31.241  1.00  0.00    -0.237 OA
ATOM     95  O   UNL A   1      53.528  26.007  28.802  1.00  0.00    -0.744 OA
ENDBRANCH  91  92
ENDBRANCH  59  84
ENDBRANCH  33  34
ENDBRANCH  25  28
ENDBRANCH  23  24
ENDBRANCH   1  23
TORSDOF 16
ENDMDL
