MODEL 1
REMARK VINA RESULT:     -12.4      0.000      0.000
REMARK SMILES Cc1cc2c(c(C)c1Br)C=C(C(=O)NCCCNC(=O)c1ccc(-c3c4nc(c(-c5c(F)cc(S(=O)(=O)[O-])cc5F)c5ccc([nH]5)c(-c5c(F)cc(S(=O)(=O)[O-])cc5F)c5nc(c(-c6c(F)cc(S(=O)(=O)[O-])cc6F)c6ccc3[nH]6)C=C5)C=C4)cc1)[C@@H](C(F)(F)F)O2
REMARK SMILES IDX 17 1 16 2 15 3 14 4 12 5 13 6 11 8 1 9 2 10 3 11 8 12 4 13
REMARK SMILES IDX 6 14 9 15 5 16 92 17 7 18 10 19 87 20 88 21 89 22 90 23
REMARK SMILES IDX 91 24 18 25 19 26 20 28 21 29 22 30 86 31 23 32 85 33 24 34
REMARK SMILES IDX 25 35 26 36 79 37 27 38 84 39 78 40 80 41 28 42 83 43 77 44
REMARK SMILES IDX 76 45 29 47 63 48 42 49 62 50 43 51 46 52 61 53 81 54 44 55
REMARK SMILES IDX 45 56 60 58 82 59 47 60 30 61 31 62 40 63 32 64 33 65 39 66
REMARK SMILES IDX 41 67 34 68 35 69 36 70 37 71 38 72 64 73 65 74 74 75 66 76
REMARK SMILES IDX 67 77 73 78 75 79 68 80 69 81 70 82 71 83 72 84 48 85 49 86
REMARK SMILES IDX 58 87 50 88 51 89 57 90 59 91 52 92 53 93 54 94 55 95 56 96
REMARK H PARENT 14 7 18 27 80 46 46 57
REMARK Flexibility Score: inf
ROOT
ATOM      1  C   UNL A   1      37.937  24.201  26.494  1.00  0.00     0.118 C 
ENDROOT
BRANCH   1   2
ATOM      2  C   UNL A   1      37.065  23.730  25.338  1.00  0.00     0.042 C 
BRANCH   2   3
ATOM      3  C   UNL A   1      35.677  24.353  25.372  1.00  0.00     0.118 C 
BRANCH   3   4
ATOM      4  N   UNL A   1      35.002  24.252  24.085  1.00  0.00    -0.352 N 
ATOM      5  C   UNL A   1      34.037  24.920  23.413  1.00  0.00     0.251 C 
ATOM      6  O   UNL A   1      33.775  24.476  22.291  1.00  0.00    -0.270 OA
ATOM      7  H   UNL A   1      35.341  23.489  23.562  1.00  0.00     0.163 HD
BRANCH   5   8
ATOM      8  C   UNL A   1      33.306  26.115  23.925  1.00  0.00     0.067 C 
ATOM      9  C   UNL A   1      31.282  31.725  26.525  1.00  0.00     0.046 C 
ATOM     10  C   UNL A   1      32.051  30.500  26.110  1.00  0.00    -0.033 A 
ATOM     11  C   UNL A   1      31.457  29.642  25.181  1.00  0.00     0.051 A 
ATOM     12  C   UNL A   1      33.330  30.179  26.614  1.00  0.00     0.024 A 
ATOM     13  C   UNL A   1      32.114  28.494  24.758  1.00  0.00     0.128 A 
ATOM     14  C   UNL A   1      34.017  29.016  26.179  1.00  0.00    -0.026 A 
ATOM     15  Br  UNL A   1      34.116  31.362  27.898  1.00  0.00    -0.050 Br
ATOM     16  C   UNL A   1      33.390  28.171  25.228  1.00  0.00     0.021 A 
ATOM     17  O   UNL A   1      31.442  27.752  23.830  1.00  0.00    -0.475 OA
ATOM     18  C   UNL A   1      35.394  28.649  26.684  1.00  0.00     0.046 C 
ATOM     19  C   UNL A   1      34.030  26.977  24.663  1.00  0.00     0.026 C 
ATOM     20  C   UNL A   1      31.850  26.371  23.686  1.00  0.00     0.314 C 
BRANCH  20  21
ATOM     21  C   UNL A   1      30.943  25.475  24.550  1.00  0.00     0.429 C 
ATOM     22  F   UNL A   1      30.848  24.232  24.013  1.00  0.00    -0.167 F 
ATOM     23  F   UNL A   1      31.415  25.310  25.809  1.00  0.00    -0.167 F 
ATOM     24  F   UNL A   1      29.687  25.961  24.668  1.00  0.00    -0.167 F 
ENDBRANCH  20  21
ENDBRANCH   5   8
ENDBRANCH   3   4
ENDBRANCH   2   3
ENDBRANCH   1   2
BRANCH   1  25
ATOM     25  N   UNL A   1      39.358  24.019  26.209  1.00  0.00    -0.352 N 
ATOM     26  C   UNL A   1      40.435  24.795  26.554  1.00  0.00     0.251 C 
ATOM     27  H   UNL A   1      39.576  23.212  25.689  1.00  0.00     0.163 HD
ATOM     28  O   UNL A   1      41.509  24.634  25.975  1.00  0.00    -0.269 OA
BRANCH  26  29
ATOM     29  C   UNL A   1      40.304  25.815  27.610  1.00  0.00     0.039 A 
ATOM     30  C   UNL A   1      39.408  25.608  28.661  1.00  0.00     0.014 A 
ATOM     31  C   UNL A   1      41.052  26.993  27.546  1.00  0.00     0.014 A 
ATOM     32  C   UNL A   1      39.313  26.557  29.680  1.00  0.00     0.010 A 
ATOM     33  C   UNL A   1      41.033  27.885  28.609  1.00  0.00     0.010 A 
ATOM     34  C   UNL A   1      40.150  27.685  29.678  1.00  0.00    -0.014 A 
BRANCH  34  35
ATOM     35  C   UNL A   1      40.096  28.690  30.767  1.00  0.00     0.031 A 
ATOM     36  C   UNL A   1      40.992  28.539  31.967  1.00  0.00     0.074 A 
ATOM     37  C   UNL A   1      39.202  29.698  30.699  1.00  0.00     0.049 A 
ATOM     38  N   UNL A   1      41.047  29.269  33.050  1.00  0.00    -0.248 NA
ATOM     39  C   UNL A   1      41.929  27.401  31.965  1.00  0.00     0.031 C 
ATOM     40  C   UNL A   1      38.246  29.910  29.609  1.00  0.00     0.029 A 
ATOM     41  N   UNL A   1      38.947  30.728  31.567  1.00  0.00    -0.354 N 
ATOM     42  C   UNL A   1      42.010  28.674  33.857  1.00  0.00     0.074 A 
ATOM     43  C   UNL A   1      42.470  27.489  33.170  1.00  0.00     0.031 C 
ATOM     44  C   UNL A   1      37.533  31.019  29.859  1.00  0.00     0.029 A 
ATOM     45  C   UNL A   1      37.949  31.576  31.142  1.00  0.00     0.049 A 
ATOM     46  H   UNL A   1      39.432  30.852  32.415  1.00  0.00     0.167 HD
ATOM     47  C   UNL A   1      42.491  29.099  35.047  1.00  0.00     0.037 A 
ATOM     48  C   UNL A   1      37.427  32.672  31.725  1.00  0.00     0.037 A 
ATOM     49  C   UNL A   1      42.058  30.305  35.699  1.00  0.00     0.049 A 
ATOM     50  C   UNL A   1      37.983  33.124  33.050  1.00  0.00     0.074 A 
ATOM     51  C   UNL A   1      42.530  30.861  36.875  1.00  0.00     0.029 A 
ATOM     52  N   UNL A   1      41.058  31.143  35.230  1.00  0.00    -0.354 N 
ATOM     53  N   UNL A   1      38.941  32.586  33.766  1.00  0.00    -0.248 NA
ATOM     54  C   UNL A   1      37.392  34.331  33.644  1.00  0.00     0.031 C 
ATOM     55  C   UNL A   1      41.783  32.011  37.141  1.00  0.00     0.029 A 
ATOM     56  C   UNL A   1      40.880  32.200  36.106  1.00  0.00     0.049 A 
ATOM     57  H   UNL A   1      40.549  31.006  34.399  1.00  0.00     0.167 HD
ATOM     58  C   UNL A   1      39.082  33.400  34.884  1.00  0.00     0.074 A 
ATOM     59  C   UNL A   1      38.122  34.475  34.742  1.00  0.00     0.031 C 
ATOM     60  C   UNL A   1      39.925  33.266  35.938  1.00  0.00     0.037 A 
BRANCH  47  61
ATOM     61  C   UNL A   1      43.561  28.279  35.713  1.00  0.00     0.058 A 
ATOM     62  C   UNL A   1      43.242  27.268  36.633  1.00  0.00     0.135 A 
ATOM     63  C   UNL A   1      44.911  28.449  35.368  1.00  0.00     0.135 A 
ATOM     64  F   UNL A   1      41.968  27.077  37.014  1.00  0.00    -0.206 F 
ATOM     65  C   UNL A   1      44.224  26.459  37.193  1.00  0.00     0.059 A 
ATOM     66  C   UNL A   1      45.908  27.632  35.896  1.00  0.00     0.059 A 
ATOM     67  F   UNL A   1      45.271  29.406  34.498  1.00  0.00    -0.206 F 
ATOM     68  C   UNL A   1      45.553  26.642  36.810  1.00  0.00     0.060 A 
BRANCH  68  69
ATOM     69  S   UNL A   1      46.805  25.546  37.510  1.00  0.00     0.124 S 
ATOM     70  O   UNL A   1      46.321  24.237  37.084  1.00  0.00    -0.237 OA
ATOM     71  O   UNL A   1      48.023  26.014  36.860  1.00  0.00    -0.237 OA
ATOM     72  O   UNL A   1      46.722  25.807  38.944  1.00  0.00    -0.744 OA
ENDBRANCH  68  69
ENDBRANCH  47  61
BRANCH  48  73
ATOM     73  C   UNL A   1      36.338  33.428  31.050  1.00  0.00     0.058 A 
ATOM     74  C   UNL A   1      35.023  33.391  31.539  1.00  0.00     0.135 A 
ATOM     75  C   UNL A   1      36.588  34.213  29.914  1.00  0.00     0.135 A 
ATOM     76  F   UNL A   1      34.731  32.653  32.621  1.00  0.00    -0.206 F 
ATOM     77  C   UNL A   1      33.993  34.091  30.919  1.00  0.00     0.059 A 
ATOM     78  C   UNL A   1      35.581  34.942  29.290  1.00  0.00     0.059 A 
ATOM     79  F   UNL A   1      37.831  34.297  29.415  1.00  0.00    -0.206 F 
ATOM     80  C   UNL A   1      34.283  34.866  29.794  1.00  0.00     0.060 A 
BRANCH  80  81
ATOM     81  S   UNL A   1      32.945  35.800  29.021  1.00  0.00     0.124 S 
ATOM     82  O   UNL A   1      33.679  36.872  28.357  1.00  0.00    -0.237 OA
ATOM     83  O   UNL A   1      32.342  34.800  28.146  1.00  0.00    -0.237 OA
ATOM     84  O   UNL A   1      32.121  36.208  30.154  1.00  0.00    -0.744 OA
ENDBRANCH  80  81
ENDBRANCH  48  73
BRANCH  60  85
ATOM     85  C   UNL A   1      39.868  34.312  37.015  1.00  0.00     0.058 A 
ATOM     86  C   UNL A   1      40.501  35.554  36.862  1.00  0.00     0.135 A 
ATOM     87  C   UNL A   1      39.091  34.104  38.166  1.00  0.00     0.135 A 
ATOM     88  F   UNL A   1      41.258  35.799  35.782  1.00  0.00    -0.206 F 
ATOM     89  C   UNL A   1      40.371  36.554  37.820  1.00  0.00     0.059 A 
ATOM     90  C   UNL A   1      38.924  35.100  39.122  1.00  0.00     0.059 A 
ATOM     91  F   UNL A   1      38.456  32.935  38.352  1.00  0.00    -0.206 F 
ATOM     92  C   UNL A   1      39.573  36.321  38.942  1.00  0.00     0.060 A 
BRANCH  92  93
ATOM     93  S   UNL A   1      39.367  37.652  40.142  1.00  0.00     0.124 S 
ATOM     94  O   UNL A   1      38.282  38.424  39.544  1.00  0.00    -0.237 OA
ATOM     95  O   UNL A   1      39.029  36.922  41.361  1.00  0.00    -0.237 OA
ATOM     96  O   UNL A   1      40.672  38.307  40.152  1.00  0.00    -0.744 OA
ENDBRANCH  92  93
ENDBRANCH  60  85
ENDBRANCH  34  35
ENDBRANCH  26  29
ENDBRANCH   1  25
TORSDOF 14
ENDMDL
MODEL 2
REMARK VINA RESULT:     -12.3      4.910      6.054
REMARK SMILES Cc1cc2c(c(C)c1Br)C=C(C(=O)NCCCNC(=O)c1ccc(-c3c4nc(c(-c5c(F)cc(S(=O)(=O)[O-])cc5F)c5ccc([nH]5)c(-c5c(F)cc(S(=O)(=O)[O-])cc5F)c5nc(c(-c6c(F)cc(S(=O)(=O)[O-])cc6F)c6ccc3[nH]6)C=C5)C=C4)cc1)[C@@H](C(F)(F)F)O2
REMARK SMILES IDX 17 1 16 2 15 3 14 4 12 5 13 6 11 8 1 9 2 10 3 11 8 12 4 13
REMARK SMILES IDX 6 14 9 15 5 16 92 17 7 18 10 19 87 20 88 21 89 22 90 23
REMARK SMILES IDX 91 24 18 25 19 26 20 28 21 29 22 30 86 31 23 32 85 33 24 34
REMARK SMILES IDX 25 35 26 36 79 37 27 38 84 39 78 40 80 41 28 42 83 43 77 44
REMARK SMILES IDX 76 45 29 47 63 48 42 49 62 50 43 51 46 52 61 53 81 54 44 55
REMARK SMILES IDX 45 56 60 58 82 59 47 60 30 61 31 62 40 63 32 64 33 65 39 66
REMARK SMILES IDX 41 67 34 68 35 69 36 70 37 71 38 72 64 73 65 74 74 75 66 76
REMARK SMILES IDX 67 77 73 78 75 79 68 80 69 81 70 82 71 83 72 84 48 85 49 86
REMARK SMILES IDX 58 87 50 88 51 89 57 90 59 91 52 92 53 93 54 94 55 95 56 96
REMARK H PARENT 14 7 18 27 80 46 46 57
REMARK Flexibility Score: inf
ROOT
ATOM      1  C   UNL A   1      36.098  23.639  26.017  1.00  0.00     0.118 C 
ENDROOT
BRANCH   1   2
ATOM      2  C   UNL A   1      34.830  23.255  26.767  1.00  0.00     0.042 C 
BRANCH   2   3
ATOM      3  C   UNL A   1      33.579  23.458  25.925  1.00  0.00     0.118 C 
BRANCH   3   4
ATOM      4  N   UNL A   1      33.898  23.870  24.565  1.00  0.00    -0.352 N 
ATOM      5  C   UNL A   1      33.730  24.969  23.793  1.00  0.00     0.251 C 
ATOM      6  O   UNL A   1      34.192  24.884  22.651  1.00  0.00    -0.270 OA
ATOM      7  H   UNL A   1      34.364  23.155  24.074  1.00  0.00     0.163 HD
BRANCH   5   8
ATOM      8  C   UNL A   1      33.053  26.225  24.226  1.00  0.00     0.067 C 
ATOM      9  C   UNL A   1      31.270  32.052  26.507  1.00  0.00     0.046 C 
ATOM     10  C   UNL A   1      31.981  30.768  26.173  1.00  0.00    -0.033 A 
ATOM     11  C   UNL A   1      31.371  29.904  25.261  1.00  0.00     0.051 A 
ATOM     12  C   UNL A   1      33.221  30.397  26.738  1.00  0.00     0.024 A 
ATOM     13  C   UNL A   1      31.973  28.703  24.911  1.00  0.00     0.128 A 
ATOM     14  C   UNL A   1      33.854  29.179  26.379  1.00  0.00    -0.026 A 
ATOM     15  Br  UNL A   1      34.030  31.591  27.998  1.00  0.00    -0.050 Br
ATOM     16  C   UNL A   1      33.211  28.330  25.442  1.00  0.00     0.021 A 
ATOM     17  O   UNL A   1      31.292  27.959  23.992  1.00  0.00    -0.475 OA
ATOM     18  C   UNL A   1      35.189  28.758  26.949  1.00  0.00     0.046 C 
ATOM     19  C   UNL A   1      33.800  27.077  24.953  1.00  0.00     0.026 C 
ATOM     20  C   UNL A   1      31.623  26.552  23.922  1.00  0.00     0.314 C 
BRANCH  20  21
ATOM     21  C   UNL A   1      30.636  25.748  24.790  1.00  0.00     0.429 C 
ATOM     22  F   UNL A   1      30.527  24.476  24.334  1.00  0.00    -0.167 F 
ATOM     23  F   UNL A   1      31.030  25.657  26.083  1.00  0.00    -0.167 F 
ATOM     24  F   UNL A   1      29.394  26.283  24.800  1.00  0.00    -0.167 F 
ENDBRANCH  20  21
ENDBRANCH   5   8
ENDBRANCH   3   4
ENDBRANCH   2   3
ENDBRANCH   1   2
BRANCH   1  25
ATOM     25  N   UNL A   1      37.129  22.609  26.133  1.00  0.00    -0.352 N 
ATOM     26  C   UNL A   1      38.483  22.730  26.305  1.00  0.00     0.251 C 
ATOM     27  H   UNL A   1      36.797  21.684  26.079  1.00  0.00     0.163 HD
ATOM     28  O   UNL A   1      39.212  21.763  26.085  1.00  0.00    -0.269 OA
BRANCH  26  29
ATOM     29  C   UNL A   1      39.061  24.012  26.748  1.00  0.00     0.039 A 
ATOM     30  C   UNL A   1      38.915  24.410  28.079  1.00  0.00     0.014 A 
ATOM     31  C   UNL A   1      39.729  24.835  25.838  1.00  0.00     0.014 A 
ATOM     32  C   UNL A   1      39.495  25.605  28.507  1.00  0.00     0.010 A 
ATOM     33  C   UNL A   1      40.392  25.968  26.286  1.00  0.00     0.010 A 
ATOM     34  C   UNL A   1      40.267  26.375  27.621  1.00  0.00    -0.014 A 
BRANCH  34  35
ATOM     35  C   UNL A   1      40.925  27.630  28.058  1.00  0.00     0.031 A 
ATOM     36  C   UNL A   1      42.422  27.758  27.966  1.00  0.00     0.074 A 
ATOM     37  C   UNL A   1      40.181  28.621  28.589  1.00  0.00     0.049 A 
ATOM     38  N   UNL A   1      43.189  28.741  28.358  1.00  0.00    -0.248 NA
ATOM     39  C   UNL A   1      43.158  26.621  27.384  1.00  0.00     0.031 C 
ATOM     40  C   UNL A   1      38.729  28.583  28.777  1.00  0.00     0.029 A 
ATOM     41  N   UNL A   1      40.544  29.852  29.073  1.00  0.00    -0.354 N 
ATOM     42  C   UNL A   1      44.490  28.337  28.082  1.00  0.00     0.074 A 
ATOM     43  C   UNL A   1      44.417  26.996  27.549  1.00  0.00     0.031 C 
ATOM     44  C   UNL A   1      38.323  29.748  29.307  1.00  0.00     0.029 A 
ATOM     45  C   UNL A   1      39.485  30.601  29.533  1.00  0.00     0.049 A 
ATOM     46  H   UNL A   1      41.476  30.171  29.091  1.00  0.00     0.167 HD
ATOM     47  C   UNL A   1      45.638  29.036  28.229  1.00  0.00     0.037 A 
ATOM     48  C   UNL A   1      39.457  31.832  30.079  1.00  0.00     0.037 A 
ATOM     49  C   UNL A   1      45.695  30.387  28.718  1.00  0.00     0.049 A 
ATOM     50  C   UNL A   1      40.751  32.589  30.229  1.00  0.00     0.074 A 
ATOM     51  C   UNL A   1      46.800  31.208  28.842  1.00  0.00     0.029 A 
ATOM     52  N   UNL A   1      44.600  31.115  29.158  1.00  0.00    -0.354 N 
ATOM     53  N   UNL A   1      41.965  32.215  29.900  1.00  0.00    -0.248 NA
ATOM     54  C   UNL A   1      40.673  33.932  30.819  1.00  0.00     0.031 C 
ATOM     55  C   UNL A   1      46.381  32.419  29.400  1.00  0.00     0.029 A 
ATOM     56  C   UNL A   1      45.007  32.370  29.577  1.00  0.00     0.049 A 
ATOM     57  H   UNL A   1      43.671  30.788  29.171  1.00  0.00     0.167 HD
ATOM     58  C   UNL A   1      42.791  33.285  30.225  1.00  0.00     0.074 A 
ATOM     59  C   UNL A   1      41.938  34.325  30.759  1.00  0.00     0.031 C 
ATOM     60  C   UNL A   1      44.137  33.394  30.096  1.00  0.00     0.037 A 
BRANCH  47  61
ATOM     61  C   UNL A   1      46.928  28.372  27.831  1.00  0.00     0.058 A 
ATOM     62  C   UNL A   1      47.634  27.550  28.723  1.00  0.00     0.135 A 
ATOM     63  C   UNL A   1      47.421  28.494  26.523  1.00  0.00     0.135 A 
ATOM     64  F   UNL A   1      47.218  27.415  29.993  1.00  0.00    -0.206 F 
ATOM     65  C   UNL A   1      48.785  26.876  28.334  1.00  0.00     0.059 A 
ATOM     66  C   UNL A   1      48.556  27.807  26.103  1.00  0.00     0.059 A 
ATOM     67  F   UNL A   1      46.787  29.275  25.632  1.00  0.00    -0.206 F 
ATOM     68  C   UNL A   1      49.233  27.003  27.018  1.00  0.00     0.060 A 
BRANCH  68  69
ATOM     69  S   UNL A   1      50.702  26.079  26.520  1.00  0.00     0.124 S 
ATOM     70  O   UNL A   1      51.771  26.962  26.976  1.00  0.00    -0.237 OA
ATOM     71  O   UNL A   1      50.549  24.833  27.264  1.00  0.00    -0.237 OA
ATOM     72  O   UNL A   1      50.559  25.965  25.072  1.00  0.00    -0.744 OA
ENDBRANCH  68  69
ENDBRANCH  47  61
BRANCH  48  73
ATOM     73  C   UNL A   1      38.163  32.431  30.500  1.00  0.00     0.058 A 
ATOM     74  C   UNL A   1      37.659  32.227  31.793  1.00  0.00     0.135 A 
ATOM     75  C   UNL A   1      37.410  33.231  29.627  1.00  0.00     0.135 A 
ATOM     76  F   UNL A   1      38.339  31.467  32.666  1.00  0.00    -0.206 F 
ATOM     77  C   UNL A   1      36.449  32.779  32.202  1.00  0.00     0.059 A 
ATOM     78  C   UNL A   1      36.209  33.815  30.019  1.00  0.00     0.059 A 
ATOM     79  F   UNL A   1      37.854  33.473  28.383  1.00  0.00    -0.206 F 
ATOM     80  C   UNL A   1      35.732  33.575  31.306  1.00  0.00     0.060 A 
BRANCH  80  81
ATOM     81  S   UNL A   1      34.182  34.318  31.861  1.00  0.00     0.124 S 
ATOM     82  O   UNL A   1      33.662  33.285  32.750  1.00  0.00    -0.237 OA
ATOM     83  O   UNL A   1      34.645  35.543  32.505  1.00  0.00    -0.237 OA
ATOM     84  O   UNL A   1      33.440  34.514  30.620  1.00  0.00    -0.744 OA
ENDBRANCH  80  81
ENDBRANCH  48  73
BRANCH  60  85
ATOM     85  C   UNL A   1      44.777  34.685  30.523  1.00  0.00     0.058 A 
ATOM     86  C   UNL A   1      44.879  35.775  29.646  1.00  0.00     0.135 A 
ATOM     87  C   UNL A   1      45.199  34.864  31.850  1.00  0.00     0.135 A 
ATOM     88  F   UNL A   1      44.493  35.653  28.367  1.00  0.00    -0.206 F 
ATOM     89  C   UNL A   1      45.387  36.999  30.069  1.00  0.00     0.059 A 
ATOM     90  C   UNL A   1      45.685  36.087  32.301  1.00  0.00     0.059 A 
ATOM     91  F   UNL A   1      45.111  33.854  32.731  1.00  0.00    -0.206 F 
ATOM     92  C   UNL A   1      45.779  37.147  31.401  1.00  0.00     0.060 A 
BRANCH  92  93
ATOM     93  S   UNL A   1      46.379  38.759  31.946  1.00  0.00     0.124 S 
ATOM     94  O   UNL A   1      45.269  39.629  31.569  1.00  0.00    -0.237 OA
ATOM     95  O   UNL A   1      46.565  38.553  33.379  1.00  0.00    -0.237 OA
ATOM     96  O   UNL A   1      47.608  38.943  31.180  1.00  0.00    -0.744 OA
ENDBRANCH  92  93
ENDBRANCH  60  85
ENDBRANCH  34  35
ENDBRANCH  26  29
ENDBRANCH   1  25
TORSDOF 14
ENDMDL
MODEL 3
REMARK VINA RESULT:     -12.3      1.856      2.592
REMARK SMILES Cc1cc2c(c(C)c1Br)C=C(C(=O)NCCCNC(=O)c1ccc(-c3c4nc(c(-c5c(F)cc(S(=O)(=O)[O-])cc5F)c5ccc([nH]5)c(-c5c(F)cc(S(=O)(=O)[O-])cc5F)c5nc(c(-c6c(F)cc(S(=O)(=O)[O-])cc6F)c6ccc3[nH]6)C=C5)C=C4)cc1)[C@@H](C(F)(F)F)O2
REMARK SMILES IDX 17 1 16 2 15 3 14 4 12 5 13 6 11 8 1 9 2 10 3 11 8 12 4 13
REMARK SMILES IDX 6 14 9 15 5 16 92 17 7 18 10 19 87 20 88 21 89 22 90 23
REMARK SMILES IDX 91 24 18 25 19 26 20 28 21 29 22 30 86 31 23 32 85 33 24 34
REMARK SMILES IDX 25 35 26 36 79 37 27 38 84 39 78 40 80 41 28 42 83 43 77 44
REMARK SMILES IDX 76 45 29 47 63 48 42 49 62 50 43 51 46 52 61 53 81 54 44 55
REMARK SMILES IDX 45 56 60 58 82 59 47 60 30 61 31 62 40 63 32 64 33 65 39 66
REMARK SMILES IDX 41 67 34 68 35 69 36 70 37 71 38 72 64 73 65 74 74 75 66 76
REMARK SMILES IDX 67 77 73 78 75 79 68 80 69 81 70 82 71 83 72 84 48 85 49 86
REMARK SMILES IDX 58 87 50 88 51 89 57 90 59 91 52 92 53 93 54 94 55 95 56 96
REMARK H PARENT 14 7 18 27 80 46 46 57
REMARK Flexibility Score: inf
ROOT
ATOM      1  C   UNL A   1      40.375  23.044  27.101  1.00  0.00     0.118 C 
ENDROOT
BRANCH   1   2
ATOM      2  C   UNL A   1      39.316  22.211  26.392  1.00  0.00     0.042 C 
BRANCH   2   3
ATOM      3  C   UNL A   1      38.073  23.023  26.059  1.00  0.00     0.118 C 
BRANCH   3   4
ATOM      4  N   UNL A   1      37.766  22.991  24.636  1.00  0.00    -0.352 N 
ATOM      5  C   UNL A   1      36.668  23.091  23.853  1.00  0.00     0.251 C 
ATOM      6  O   UNL A   1      36.880  23.021  22.638  1.00  0.00    -0.270 OA
ATOM      7  H   UNL A   1      38.580  22.860  24.097  1.00  0.00     0.163 HD
BRANCH   5   8
ATOM      8  C   UNL A   1      35.274  23.280  24.351  1.00  0.00     0.067 C 
ATOM      9  C   UNL A   1      29.479  25.355  26.457  1.00  0.00     0.046 C 
ATOM     10  C   UNL A   1      30.919  25.214  26.044  1.00  0.00    -0.033 A 
ATOM     11  C   UNL A   1      31.321  23.998  25.488  1.00  0.00     0.051 A 
ATOM     12  C   UNL A   1      31.874  26.243  26.195  1.00  0.00     0.024 A 
ATOM     13  C   UNL A   1      32.637  23.803  25.088  1.00  0.00     0.128 A 
ATOM     14  C   UNL A   1      33.218  26.062  25.778  1.00  0.00    -0.026 A 
ATOM     15  Br  UNL A   1      31.303  27.897  26.974  1.00  0.00    -0.050 Br
ATOM     16  C   UNL A   1      33.591  24.817  25.208  1.00  0.00     0.021 A 
ATOM     17  O   UNL A   1      32.899  22.582  24.537  1.00  0.00    -0.475 OA
ATOM     18  C   UNL A   1      34.263  27.146  25.907  1.00  0.00     0.046 C 
ATOM     19  C   UNL A   1      34.935  24.539  24.688  1.00  0.00     0.026 C 
ATOM     20  C   UNL A   1      34.286  22.167  24.512  1.00  0.00     0.314 C 
BRANCH  20  21
ATOM     21  C   UNL A   1      34.581  21.288  25.742  1.00  0.00     0.429 C 
ATOM     22  F   UNL A   1      35.627  20.460  25.497  1.00  0.00    -0.167 F 
ATOM     23  F   UNL A   1      34.918  22.013  26.835  1.00  0.00    -0.167 F 
ATOM     24  F   UNL A   1      33.529  20.516  26.098  1.00  0.00    -0.167 F 
ENDBRANCH  20  21
ENDBRANCH   5   8
ENDBRANCH   3   4
ENDBRANCH   2   3
ENDBRANCH   1   2
BRANCH   1  25
ATOM     25  N   UNL A   1      41.300  23.663  26.154  1.00  0.00    -0.352 N 
ATOM     26  C   UNL A   1      41.692  24.970  26.027  1.00  0.00     0.251 C 
ATOM     27  H   UNL A   1      41.706  23.043  25.506  1.00  0.00     0.163 HD
ATOM     28  O   UNL A   1      42.244  25.341  24.992  1.00  0.00    -0.269 OA
BRANCH  26  29
ATOM     29  C   UNL A   1      41.449  25.925  27.125  1.00  0.00     0.039 A 
ATOM     30  C   UNL A   1      40.408  25.690  28.025  1.00  0.00     0.014 A 
ATOM     31  C   UNL A   1      42.240  27.070  27.248  1.00  0.00     0.014 A 
ATOM     32  C   UNL A   1      40.204  26.574  29.086  1.00  0.00     0.010 A 
ATOM     33  C   UNL A   1      42.103  27.890  28.359  1.00  0.00     0.010 A 
ATOM     34  C   UNL A   1      41.072  27.662  29.279  1.00  0.00    -0.014 A 
BRANCH  34  35
ATOM     35  C   UNL A   1      40.901  28.595  30.418  1.00  0.00     0.031 A 
ATOM     36  C   UNL A   1      41.767  28.448  31.640  1.00  0.00     0.074 A 
ATOM     37  C   UNL A   1      39.930  29.530  30.373  1.00  0.00     0.049 A 
ATOM     38  N   UNL A   1      41.728  29.116  32.762  1.00  0.00    -0.248 NA
ATOM     39  C   UNL A   1      42.795  27.391  31.610  1.00  0.00     0.031 C 
ATOM     40  C   UNL A   1      38.996  29.727  29.262  1.00  0.00     0.029 A 
ATOM     41  N   UNL A   1      39.563  30.486  31.285  1.00  0.00    -0.354 N 
ATOM     42  C   UNL A   1      42.710  28.556  33.571  1.00  0.00     0.074 A 
ATOM     43  C   UNL A   1      43.288  27.453  32.838  1.00  0.00     0.031 C 
ATOM     44  C   UNL A   1      38.186  30.759  29.545  1.00  0.00     0.029 A 
ATOM     45  C   UNL A   1      38.513  31.273  30.871  1.00  0.00     0.049 A 
ATOM     46  H   UNL A   1      40.009  30.599  32.156  1.00  0.00     0.167 HD
ATOM     47  C   UNL A   1      43.116  28.949  34.799  1.00  0.00     0.037 A 
ATOM     48  C   UNL A   1      37.885  32.289  31.493  1.00  0.00     0.037 A 
ATOM     49  C   UNL A   1      42.565  30.077  35.499  1.00  0.00     0.049 A 
ATOM     50  C   UNL A   1      38.359  32.708  32.860  1.00  0.00     0.074 A 
ATOM     51  C   UNL A   1      42.952  30.601  36.720  1.00  0.00     0.029 A 
ATOM     52  N   UNL A   1      41.515  30.858  35.040  1.00  0.00    -0.354 N 
ATOM     53  N   UNL A   1      39.335  32.208  33.580  1.00  0.00    -0.248 NA
ATOM     54  C   UNL A   1      37.652  33.827  33.497  1.00  0.00     0.031 C 
ATOM     55  C   UNL A   1      42.105  31.671  37.021  1.00  0.00     0.029 A 
ATOM     56  C   UNL A   1      41.223  31.845  35.965  1.00  0.00     0.049 A 
ATOM     57  H   UNL A   1      41.046  30.728  34.184  1.00  0.00     0.167 HD
ATOM     58  C   UNL A   1      39.372  32.965  34.746  1.00  0.00     0.074 A 
ATOM     59  C   UNL A   1      38.333  33.966  34.627  1.00  0.00     0.031 C 
ATOM     60  C   UNL A   1      40.190  32.839  35.820  1.00  0.00     0.037 A 
BRANCH  47  61
ATOM     61  C   UNL A   1      44.228  28.180  35.458  1.00  0.00     0.058 A 
ATOM     62  C   UNL A   1      45.574  28.528  35.263  1.00  0.00     0.135 A 
ATOM     63  C   UNL A   1      43.943  27.139  36.354  1.00  0.00     0.135 A 
ATOM     64  F   UNL A   1      45.904  29.503  34.401  1.00  0.00    -0.206 F 
ATOM     65  C   UNL A   1      46.598  27.866  35.931  1.00  0.00     0.059 A 
ATOM     66  C   UNL A   1      44.950  26.481  37.054  1.00  0.00     0.059 A 
ATOM     67  F   UNL A   1      42.672  26.762  36.570  1.00  0.00    -0.206 F 
ATOM     68  C   UNL A   1      46.276  26.850  36.832  1.00  0.00     0.060 A 
BRANCH  68  69
ATOM     69  S   UNL A   1      47.619  26.039  37.725  1.00  0.00     0.124 S 
ATOM     70  O   UNL A   1      46.954  25.654  38.966  1.00  0.00    -0.237 OA
ATOM     71  O   UNL A   1      47.969  24.944  36.827  1.00  0.00    -0.237 OA
ATOM     72  O   UNL A   1      48.625  27.088  37.854  1.00  0.00    -0.744 OA
ENDBRANCH  68  69
ENDBRANCH  47  61
BRANCH  48  73
ATOM     73  C   UNL A   1      36.759  32.993  30.821  1.00  0.00     0.058 A 
ATOM     74  C   UNL A   1      35.432  32.778  31.222  1.00  0.00     0.135 A 
ATOM     75  C   UNL A   1      36.986  33.902  29.777  1.00  0.00     0.135 A 
ATOM     76  F   UNL A   1      35.162  31.915  32.213  1.00  0.00    -0.206 F 
ATOM     77  C   UNL A   1      34.368  33.427  30.602  1.00  0.00     0.059 A 
ATOM     78  C   UNL A   1      35.942  34.583  29.158  1.00  0.00     0.059 A 
ATOM     79  F   UNL A   1      38.238  34.158  29.366  1.00  0.00    -0.206 F 
ATOM     80  C   UNL A   1      34.635  34.330  29.571  1.00  0.00     0.060 A 
BRANCH  80  81
ATOM     81  S   UNL A   1      33.248  35.195  28.801  1.00  0.00     0.124 S 
ATOM     82  O   UNL A   1      32.478  35.614  29.967  1.00  0.00    -0.237 OA
ATOM     83  O   UNL A   1      33.924  36.258  28.065  1.00  0.00    -0.237 OA
ATOM     84  O   UNL A   1      32.629  34.165  27.973  1.00  0.00    -0.744 OA
ENDBRANCH  80  81
ENDBRANCH  48  73
BRANCH  60  85
ATOM     85  C   UNL A   1      40.013  33.813  36.951  1.00  0.00     0.058 A 
ATOM     86  C   UNL A   1      40.624  35.076  36.930  1.00  0.00     0.135 A 
ATOM     87  C   UNL A   1      39.144  33.518  38.014  1.00  0.00     0.135 A 
ATOM     88  F   UNL A   1      41.465  35.404  35.938  1.00  0.00    -0.206 F 
ATOM     89  C   UNL A   1      40.386  36.011  37.931  1.00  0.00     0.059 A 
ATOM     90  C   UNL A   1      38.870  34.448  39.011  1.00  0.00     0.059 A 
ATOM     91  F   UNL A   1      38.526  32.327  38.072  1.00  0.00    -0.206 F 
ATOM     92  C   UNL A   1      39.500  35.691  38.963  1.00  0.00     0.060 A 
BRANCH  92  93
ATOM     93  S   UNL A   1      39.157  36.939  40.219  1.00  0.00     0.124 S 
ATOM     94  O   UNL A   1      38.258  36.217  41.114  1.00  0.00    -0.237 OA
ATOM     95  O   UNL A   1      40.488  37.221  40.749  1.00  0.00    -0.237 OA
ATOM     96  O   UNL A   1      38.546  38.028  39.462  1.00  0.00    -0.744 OA
ENDBRANCH  92  93
ENDBRANCH  60  85
ENDBRANCH  34  35
ENDBRANCH  26  29
ENDBRANCH   1  25
TORSDOF 14
ENDMDL
