MODEL 1
REMARK VINA RESULT:     -11.7      0.000      0.000
REMARK SMILES C[C@@H]1CCN(c2cncc(C(=O)NCCCNC(=O)c3ccc(-c4c5nc(c(-c6c(F)cc(S(=O)(=O)[O-])cc6F)c6ccc([nH]6)c(-c6c(F)cc(S(=O)(=O)[O-])cc6F)c6nc(c(-c7c(F)cc(S(=O)(=O)[O-])cc7F)c7ccc4[nH]7)C=C6)C=C5)cc3)n2)[C@H](C)C1
REMARK SMILES IDX 16 1 15 2 14 3 13 4 11 5 12 6 10 8 6 9 7 10 86 11 8 12 9 13
REMARK SMILES IDX 5 14 1 15 2 16 3 17 89 18 4 19 87 20 88 21 17 22 18 23 19 25
REMARK SMILES IDX 20 26 21 27 85 28 22 29 84 30 23 31 24 32 25 33 78 34 26 35
REMARK SMILES IDX 83 36 77 37 79 38 27 39 82 40 76 41 75 42 28 44 62 45 41 46
REMARK SMILES IDX 61 47 42 48 45 49 60 50 80 51 43 52 44 53 59 55 81 56 46 57
REMARK SMILES IDX 29 58 30 59 39 60 31 61 32 62 38 63 40 64 33 65 34 66 35 67
REMARK SMILES IDX 36 68 37 69 63 70 64 71 73 72 65 73 66 74 72 75 74 76 67 77
REMARK SMILES IDX 68 78 69 79 70 80 71 81 47 82 48 83 57 84 49 85 50 86 56 87
REMARK SMILES IDX 58 88 51 89 52 90 53 91 54 92 55 93
REMARK H PARENT 13 7 17 24 79 43 45 54
REMARK Flexibility Score: inf
ROOT
ATOM      1  C   UNL A   1      33.609  28.462  27.252  1.00  0.00     0.118 C 
ENDROOT
BRANCH   1   2
ATOM      2  C   UNL A   1      33.907  28.244  25.771  1.00  0.00     0.042 C 
BRANCH   2   3
ATOM      3  C   UNL A   1      32.660  27.930  24.950  1.00  0.00     0.118 C 
BRANCH   3   4
ATOM      4  N   UNL A   1      31.587  27.387  25.766  1.00  0.00    -0.351 N 
ATOM      5  C   UNL A   1      31.121  26.100  25.915  1.00  0.00     0.271 C 
ATOM      6  O   UNL A   1      30.185  25.926  26.699  1.00  0.00    -0.267 OA
ATOM      7  H   UNL A   1      31.110  28.056  26.307  1.00  0.00     0.163 HD
BRANCH   5   8
ATOM      8  C   UNL A   1      31.684  24.928  25.184  1.00  0.00     0.148 A 
ATOM      9  C   UNL A   1      33.401  23.425  24.783  1.00  0.00     0.148 A 
ATOM     10  C   UNL A   1      32.608  22.869  23.771  1.00  0.00     0.157 A 
ATOM     11  N   UNL A   1      32.913  24.455  25.506  1.00  0.00    -0.222 NA
ATOM     12  N   UNL A   1      31.360  23.295  23.449  1.00  0.00    -0.258 NA
ATOM     13  C   UNL A   1      30.922  24.348  24.178  1.00  0.00     0.145 A 
BRANCH   9  14
ATOM     14  N   UNL A   1      34.653  22.940  25.090  1.00  0.00    -0.353 N 
ATOM     15  C   UNL A   1      38.218  21.922  25.777  1.00  0.00     0.008 C 
ATOM     16  C   UNL A   1      37.532  22.998  24.933  1.00  0.00    -0.011 C 
ATOM     17  C   UNL A   1      36.733  23.984  25.802  1.00  0.00     0.025 C 
ATOM     18  C   UNL A   1      36.655  22.417  23.807  1.00  0.00     0.028 C 
ATOM     19  C   UNL A   1      35.389  23.415  26.253  1.00  0.00     0.118 C 
ATOM     20  C   UNL A   1      35.261  21.919  24.237  1.00  0.00     0.081 C 
ATOM     21  C   UNL A   1      35.291  20.548  24.907  1.00  0.00     0.031 C 
ENDBRANCH   9  14
ENDBRANCH   5   8
ENDBRANCH   3   4
ENDBRANCH   2   3
ENDBRANCH   1   2
BRANCH   1  22
ATOM     22  N   UNL A   1      33.587  29.877  27.611  1.00  0.00    -0.352 N 
ATOM     23  C   UNL A   1      34.528  30.645  28.249  1.00  0.00     0.251 C 
ATOM     24  H   UNL A   1      32.768  30.358  27.353  1.00  0.00     0.163 HD
ATOM     25  O   UNL A   1      34.224  31.764  28.660  1.00  0.00    -0.269 OA
BRANCH  23  26
ATOM     26  C   UNL A   1      35.896  30.129  28.449  1.00  0.00     0.039 A 
ATOM     27  C   UNL A   1      36.787  30.115  27.371  1.00  0.00     0.014 A 
ATOM     28  C   UNL A   1      36.295  29.643  29.696  1.00  0.00     0.014 A 
ATOM     29  C   UNL A   1      38.103  29.685  27.566  1.00  0.00     0.010 A 
ATOM     30  C   UNL A   1      37.623  29.289  29.906  1.00  0.00     0.010 A 
ATOM     31  C   UNL A   1      38.541  29.308  28.844  1.00  0.00    -0.014 A 
BRANCH  31  32
ATOM     32  C   UNL A   1      39.951  28.928  29.116  1.00  0.00     0.031 A 
ATOM     33  C   UNL A   1      40.927  29.979  29.576  1.00  0.00     0.074 A 
ATOM     34  C   UNL A   1      40.375  27.678  28.838  1.00  0.00     0.049 A 
ATOM     35  N   UNL A   1      42.226  29.905  29.686  1.00  0.00    -0.248 NA
ATOM     36  C   UNL A   1      40.369  31.297  29.926  1.00  0.00     0.031 C 
ATOM     37  C   UNL A   1      39.529  26.585  28.351  1.00  0.00     0.029 A 
ATOM     38  N   UNL A   1      41.631  27.124  28.888  1.00  0.00    -0.354 N 
ATOM     39  C   UNL A   1      42.646  31.170  30.081  1.00  0.00     0.074 A 
ATOM     40  C   UNL A   1      41.466  32.002  30.166  1.00  0.00     0.031 C 
ATOM     41  C   UNL A   1      40.289  25.498  28.141  1.00  0.00     0.029 A 
ATOM     42  C   UNL A   1      41.682  25.828  28.427  1.00  0.00     0.049 A 
ATOM     43  H   UNL A   1      42.420  27.609  29.223  1.00  0.00     0.167 HD
ATOM     44  C   UNL A   1      43.901  31.593  30.354  1.00  0.00     0.037 A 
ATOM     45  C   UNL A   1      42.734  25.009  28.223  1.00  0.00     0.037 A 
ATOM     46  C   UNL A   1      45.060  30.742  30.314  1.00  0.00     0.049 A 
ATOM     47  C   UNL A   1      44.121  25.506  28.546  1.00  0.00     0.074 A 
ATOM     48  C   UNL A   1      46.363  31.054  30.662  1.00  0.00     0.029 A 
ATOM     49  N   UNL A   1      45.061  29.419  29.900  1.00  0.00    -0.354 N 
ATOM     50  N   UNL A   1      44.489  26.684  28.991  1.00  0.00    -0.248 NA
ATOM     51  C   UNL A   1      45.234  24.569  28.341  1.00  0.00     0.031 C 
ATOM     52  C   UNL A   1      47.161  29.937  30.404  1.00  0.00     0.029 A 
ATOM     53  C   UNL A   1      46.345  28.910  29.958  1.00  0.00     0.049 A 
ATOM     54  H   UNL A   1      44.265  28.917  29.608  1.00  0.00     0.167 HD
ATOM     55  C   UNL A   1      45.868  26.612  29.161  1.00  0.00     0.074 A 
ATOM     56  C   UNL A   1      46.270  25.279  28.770  1.00  0.00     0.031 C 
ATOM     57  C   UNL A   1      46.722  27.565  29.605  1.00  0.00     0.037 A 
BRANCH  44  58
ATOM     58  C   UNL A   1      44.109  33.035  30.726  1.00  0.00     0.058 A 
ATOM     59  C   UNL A   1      44.362  34.019  29.759  1.00  0.00     0.135 A 
ATOM     60  C   UNL A   1      43.947  33.450  32.058  1.00  0.00     0.135 A 
ATOM     61  F   UNL A   1      44.542  33.676  28.474  1.00  0.00    -0.206 F 
ATOM     62  C   UNL A   1      44.446  35.365  30.099  1.00  0.00     0.059 A 
ATOM     63  C   UNL A   1      44.001  34.793  32.417  1.00  0.00     0.059 A 
ATOM     64  F   UNL A   1      43.709  32.547  33.023  1.00  0.00    -0.206 F 
ATOM     65  C   UNL A   1      44.252  35.743  31.430  1.00  0.00     0.060 A 
BRANCH  65  66
ATOM     66  S   UNL A   1      44.304  37.500  31.841  1.00  0.00     0.124 S 
ATOM     67  O   UNL A   1      45.725  37.695  32.108  1.00  0.00    -0.237 OA
ATOM     68  O   UNL A   1      43.797  38.118  30.621  1.00  0.00    -0.237 OA
ATOM     69  O   UNL A   1      43.428  37.604  33.004  1.00  0.00    -0.744 OA
ENDBRANCH  65  66
ENDBRANCH  44  58
BRANCH  45  70
ATOM     70  C   UNL A   1      42.531  23.643  27.668  1.00  0.00     0.058 A 
ATOM     71  C   UNL A   1      42.391  22.529  28.511  1.00  0.00     0.135 A 
ATOM     72  C   UNL A   1      42.503  23.417  26.282  1.00  0.00     0.135 A 
ATOM     73  F   UNL A   1      42.413  22.689  29.842  1.00  0.00    -0.206 F 
ATOM     74  C   UNL A   1      42.274  21.239  28.003  1.00  0.00     0.059 A 
ATOM     75  C   UNL A   1      42.354  22.141  25.750  1.00  0.00     0.059 A 
ATOM     76  F   UNL A   1      42.610  24.448  25.430  1.00  0.00    -0.206 F 
ATOM     77  C   UNL A   1      42.262  21.054  26.619  1.00  0.00     0.060 A 
BRANCH  77  78
ATOM     78  S   UNL A   1      42.109  19.376  25.968  1.00  0.00     0.124 S 
ATOM     79  O   UNL A   1      40.673  19.282  25.736  1.00  0.00    -0.237 OA
ATOM     80  O   UNL A   1      42.948  19.432  24.775  1.00  0.00    -0.237 OA
ATOM     81  O   UNL A   1      42.630  18.548  27.052  1.00  0.00    -0.744 OA
ENDBRANCH  77  78
ENDBRANCH  45  70
BRANCH  57  82
ATOM     82  C   UNL A   1      48.170  27.198  29.770  1.00  0.00     0.058 A 
ATOM     83  C   UNL A   1      49.136  27.533  28.811  1.00  0.00     0.135 A 
ATOM     84  C   UNL A   1      48.609  26.609  30.969  1.00  0.00     0.135 A 
ATOM     85  F   UNL A   1      48.767  28.089  27.646  1.00  0.00    -0.206 F 
ATOM     86  C   UNL A   1      50.489  27.300  29.035  1.00  0.00     0.059 A 
ATOM     87  C   UNL A   1      49.958  26.394  31.226  1.00  0.00     0.059 A 
ATOM     88  F   UNL A   1      47.723  26.276  31.922  1.00  0.00    -0.206 F 
ATOM     89  C   UNL A   1      50.892  26.744  30.251  1.00  0.00     0.060 A 
BRANCH  89  90
ATOM     90  S   UNL A   1      52.658  26.533  30.565  1.00  0.00     0.124 S 
ATOM     91  O   UNL A   1      52.656  25.448  31.540  1.00  0.00    -0.237 OA
ATOM     92  O   UNL A   1      53.170  26.195  29.241  1.00  0.00    -0.237 OA
ATOM     93  O   UNL A   1      53.071  27.836  31.076  1.00  0.00    -0.744 OA
ENDBRANCH  89  90
ENDBRANCH  57  82
ENDBRANCH  31  32
ENDBRANCH  23  26
ENDBRANCH   1  22
TORSDOF 14
ENDMDL
MODEL 2
REMARK VINA RESULT:     -11.6      3.115      5.947
REMARK SMILES C[C@@H]1CCN(c2cncc(C(=O)NCCCNC(=O)c3ccc(-c4c5nc(c(-c6c(F)cc(S(=O)(=O)[O-])cc6F)c6ccc([nH]6)c(-c6c(F)cc(S(=O)(=O)[O-])cc6F)c6nc(c(-c7c(F)cc(S(=O)(=O)[O-])cc7F)c7ccc4[nH]7)C=C6)C=C5)cc3)n2)[C@H](C)C1
REMARK SMILES IDX 16 1 15 2 14 3 13 4 11 5 12 6 10 8 6 9 7 10 86 11 8 12 9 13
REMARK SMILES IDX 5 14 1 15 2 16 3 17 89 18 4 19 87 20 88 21 17 22 18 23 19 25
REMARK SMILES IDX 20 26 21 27 85 28 22 29 84 30 23 31 24 32 25 33 78 34 26 35
REMARK SMILES IDX 83 36 77 37 79 38 27 39 82 40 76 41 75 42 28 44 62 45 41 46
REMARK SMILES IDX 61 47 42 48 45 49 60 50 80 51 43 52 44 53 59 55 81 56 46 57
REMARK SMILES IDX 29 58 30 59 39 60 31 61 32 62 38 63 40 64 33 65 34 66 35 67
REMARK SMILES IDX 36 68 37 69 63 70 64 71 73 72 65 73 66 74 72 75 74 76 67 77
REMARK SMILES IDX 68 78 69 79 70 80 71 81 47 82 48 83 57 84 49 85 50 86 56 87
REMARK SMILES IDX 58 88 51 89 52 90 53 91 54 92 55 93
REMARK H PARENT 13 7 17 24 79 43 45 54
REMARK Flexibility Score: inf
ROOT
ATOM      1  C   UNL A   1      34.758  32.327  28.895  1.00  0.00     0.118 C 
ENDROOT
BRANCH   1   2
ATOM      2  C   UNL A   1      34.545  33.491  27.931  1.00  0.00     0.042 C 
BRANCH   2   3
ATOM      3  C   UNL A   1      33.136  34.072  27.997  1.00  0.00     0.118 C 
BRANCH   3   4
ATOM      4  N   UNL A   1      33.143  35.508  28.223  1.00  0.00    -0.351 N 
ATOM      5  C   UNL A   1      33.307  36.246  29.374  1.00  0.00     0.271 C 
ATOM      6  O   UNL A   1      33.278  37.474  29.266  1.00  0.00    -0.267 OA
ATOM      7  H   UNL A   1      33.006  36.048  27.412  1.00  0.00     0.163 HD
BRANCH   5   8
ATOM      8  C   UNL A   1      33.516  35.640  30.721  1.00  0.00     0.148 A 
ATOM      9  C   UNL A   1      34.818  34.464  32.234  1.00  0.00     0.148 A 
ATOM     10  C   UNL A   1      33.748  34.542  33.135  1.00  0.00     0.157 A 
ATOM     11  N   UNL A   1      34.695  35.042  31.021  1.00  0.00    -0.222 NA
ATOM     12  N   UNL A   1      32.569  35.164  32.879  1.00  0.00    -0.258 NA
ATOM     13  C   UNL A   1      32.478  35.704  31.642  1.00  0.00     0.145 A 
BRANCH   9  14
ATOM     14  N   UNL A   1      36.005  33.842  32.550  1.00  0.00    -0.353 N 
ATOM     15  C   UNL A   1      39.193  31.913  33.128  1.00  0.00     0.008 C 
ATOM     16  C   UNL A   1      37.933  31.714  32.284  1.00  0.00    -0.011 C 
ATOM     17  C   UNL A   1      37.772  32.818  31.226  1.00  0.00     0.025 C 
ATOM     18  C   UNL A   1      36.654  31.568  33.131  1.00  0.00     0.028 C 
ATOM     19  C   UNL A   1      37.229  34.120  31.812  1.00  0.00     0.118 C 
ATOM     20  C   UNL A   1      36.047  32.885  33.655  1.00  0.00     0.081 C 
ATOM     21  C   UNL A   1      36.779  33.441  34.875  1.00  0.00     0.031 C 
ENDBRANCH   9  14
ENDBRANCH   5   8
ENDBRANCH   3   4
ENDBRANCH   2   3
ENDBRANCH   1   2
BRANCH   1  22
ATOM     22  N   UNL A   1      34.201  31.077  28.385  1.00  0.00    -0.352 N 
ATOM     23  C   UNL A   1      34.827  29.921  27.995  1.00  0.00     0.251 C 
ATOM     24  H   UNL A   1      33.220  31.061  28.310  1.00  0.00     0.163 HD
ATOM     25  O   UNL A   1      34.194  29.063  27.381  1.00  0.00    -0.269 OA
BRANCH  23  26
ATOM     26  C   UNL A   1      36.255  29.709  28.304  1.00  0.00     0.039 A 
ATOM     27  C   UNL A   1      36.625  29.318  29.595  1.00  0.00     0.014 A 
ATOM     28  C   UNL A   1      37.230  29.910  27.325  1.00  0.00     0.014 A 
ATOM     29  C   UNL A   1      37.968  29.056  29.880  1.00  0.00     0.010 A 
ATOM     30  C   UNL A   1      38.553  29.576  27.589  1.00  0.00     0.010 A 
ATOM     31  C   UNL A   1      38.936  29.143  28.869  1.00  0.00    -0.014 A 
BRANCH  31  32
ATOM     32  C   UNL A   1      40.360  28.790  29.103  1.00  0.00     0.031 A 
ATOM     33  C   UNL A   1      41.330  29.862  29.523  1.00  0.00     0.074 A 
ATOM     34  C   UNL A   1      40.796  27.544  28.826  1.00  0.00     0.049 A 
ATOM     35  N   UNL A   1      42.633  29.811  29.597  1.00  0.00    -0.248 NA
ATOM     36  C   UNL A   1      40.761  31.175  29.876  1.00  0.00     0.031 C 
ATOM     37  C   UNL A   1      39.955  26.432  28.376  1.00  0.00     0.029 A 
ATOM     38  N   UNL A   1      42.062  27.011  28.846  1.00  0.00    -0.354 N 
ATOM     39  C   UNL A   1      43.042  31.087  29.966  1.00  0.00     0.074 A 
ATOM     40  C   UNL A   1      41.852  31.900  30.076  1.00  0.00     0.031 C 
ATOM     41  C   UNL A   1      40.727  25.355  28.156  1.00  0.00     0.029 A 
ATOM     42  C   UNL A   1      42.122  25.711  28.398  1.00  0.00     0.049 A 
ATOM     43  H   UNL A   1      42.852  27.513  29.153  1.00  0.00     0.167 HD
ATOM     44  C   UNL A   1      44.298  31.533  30.198  1.00  0.00     0.037 A 
ATOM     45  C   UNL A   1      43.180  24.908  28.172  1.00  0.00     0.037 A 
ATOM     46  C   UNL A   1      45.469  30.701  30.133  1.00  0.00     0.049 A 
ATOM     47  C   UNL A   1      44.568  25.431  28.449  1.00  0.00     0.074 A 
ATOM     48  C   UNL A   1      46.776  31.038  30.440  1.00  0.00     0.029 A 
ATOM     49  N   UNL A   1      45.480  29.374  29.734  1.00  0.00    -0.354 N 
ATOM     50  N   UNL A   1      44.929  26.620  28.871  1.00  0.00    -0.248 NA
ATOM     51  C   UNL A   1      45.690  24.510  28.223  1.00  0.00     0.031 C 
ATOM     52  C   UNL A   1      47.586  29.932  30.170  1.00  0.00     0.029 A 
ATOM     53  C   UNL A   1      46.774  28.887  29.760  1.00  0.00     0.049 A 
ATOM     54  H   UNL A   1      44.685  28.856  29.470  1.00  0.00     0.167 HD
ATOM     55  C   UNL A   1      46.313  26.573  29.001  1.00  0.00     0.074 A 
ATOM     56  C   UNL A   1      46.726  25.242  28.613  1.00  0.00     0.031 C 
ATOM     57  C   UNL A   1      47.163  27.544  29.410  1.00  0.00     0.037 A 
BRANCH  44  58
ATOM     58  C   UNL A   1      44.493  32.982  30.548  1.00  0.00     0.058 A 
ATOM     59  C   UNL A   1      44.571  33.419  31.879  1.00  0.00     0.135 A 
ATOM     60  C   UNL A   1      44.710  33.929  29.533  1.00  0.00     0.135 A 
ATOM     61  F   UNL A   1      44.354  32.560  32.887  1.00  0.00    -0.206 F 
ATOM     62  C   UNL A   1      44.858  34.743  32.192  1.00  0.00     0.059 A 
ATOM     63  C   UNL A   1      45.025  35.252  29.823  1.00  0.00     0.059 A 
ATOM     64  F   UNL A   1      44.641  33.564  28.243  1.00  0.00    -0.206 F 
ATOM     65  C   UNL A   1      45.096  35.650  31.157  1.00  0.00     0.060 A 
BRANCH  65  66
ATOM     66  S   UNL A   1      45.529  37.349  31.585  1.00  0.00     0.124 S 
ATOM     67  O   UNL A   1      46.224  37.786  30.377  1.00  0.00    -0.237 OA
ATOM     68  O   UNL A   1      44.222  37.953  31.817  1.00  0.00    -0.237 OA
ATOM     69  O   UNL A   1      46.368  37.199  32.770  1.00  0.00    -0.744 OA
ENDBRANCH  65  66
ENDBRANCH  44  58
BRANCH  45  70
ATOM     70  C   UNL A   1      42.985  23.532  27.638  1.00  0.00     0.058 A 
ATOM     71  C   UNL A   1      43.047  23.272  26.260  1.00  0.00     0.135 A 
ATOM     72  C   UNL A   1      42.702  22.453  28.492  1.00  0.00     0.135 A 
ATOM     73  F   UNL A   1      43.312  24.267  25.401  1.00  0.00    -0.206 F 
ATOM     74  C   UNL A   1      42.794  22.005  25.744  1.00  0.00     0.059 A 
ATOM     75  C   UNL A   1      42.477  21.171  28.002  1.00  0.00     0.059 A 
ATOM     76  F   UNL A   1      42.651  22.640  29.819  1.00  0.00    -0.206 F 
ATOM     77  C   UNL A   1      42.505  20.960  26.625  1.00  0.00     0.060 A 
BRANCH  77  78
ATOM     78  S   UNL A   1      42.178  19.318  25.946  1.00  0.00     0.124 S 
ATOM     79  O   UNL A   1      42.982  19.340  24.730  1.00  0.00    -0.237 OA
ATOM     80  O   UNL A   1      42.654  18.445  27.013  1.00  0.00    -0.237 OA
ATOM     81  O   UNL A   1      40.732  19.320  25.746  1.00  0.00    -0.744 OA
ENDBRANCH  77  78
ENDBRANCH  45  70
BRANCH  57  82
ATOM     82  C   UNL A   1      48.622  27.203  29.537  1.00  0.00     0.058 A 
ATOM     83  C   UNL A   1      49.520  27.368  28.473  1.00  0.00     0.135 A 
ATOM     84  C   UNL A   1      49.143  26.821  30.785  1.00  0.00     0.135 A 
ATOM     85  F   UNL A   1      49.070  27.724  27.259  1.00  0.00    -0.206 F 
ATOM     86  C   UNL A   1      50.886  27.170  28.641  1.00  0.00     0.059 A 
ATOM     87  C   UNL A   1      50.508  26.645  30.984  1.00  0.00     0.059 A 
ATOM     88  F   UNL A   1      48.326  26.657  31.837  1.00  0.00    -0.206 F 
ATOM     89  C   UNL A   1      51.373  26.823  29.904  1.00  0.00     0.060 A 
BRANCH  89  90
ATOM     90  S   UNL A   1      53.156  26.659  30.129  1.00  0.00     0.124 S 
ATOM     91  O   UNL A   1      53.231  25.583  31.111  1.00  0.00    -0.237 OA
ATOM     92  O   UNL A   1      53.610  26.322  28.784  1.00  0.00    -0.237 OA
ATOM     93  O   UNL A   1      53.562  27.976  30.609  1.00  0.00    -0.744 OA
ENDBRANCH  89  90
ENDBRANCH  57  82
ENDBRANCH  31  32
ENDBRANCH  23  26
ENDBRANCH   1  22
TORSDOF 14
ENDMDL
MODEL 3
REMARK VINA RESULT:     -11.4      5.855     11.781
REMARK SMILES C[C@@H]1CCN(c2cncc(C(=O)NCCCNC(=O)c3ccc(-c4c5nc(c(-c6c(F)cc(S(=O)(=O)[O-])cc6F)c6ccc([nH]6)c(-c6c(F)cc(S(=O)(=O)[O-])cc6F)c6nc(c(-c7c(F)cc(S(=O)(=O)[O-])cc7F)c7ccc4[nH]7)C=C6)C=C5)cc3)n2)[C@H](C)C1
REMARK SMILES IDX 16 1 15 2 14 3 13 4 11 5 12 6 10 8 6 9 7 10 86 11 8 12 9 13
REMARK SMILES IDX 5 14 1 15 2 16 3 17 89 18 4 19 87 20 88 21 17 22 18 23 19 25
REMARK SMILES IDX 20 26 21 27 85 28 22 29 84 30 23 31 24 32 25 33 78 34 26 35
REMARK SMILES IDX 83 36 77 37 79 38 27 39 82 40 76 41 75 42 28 44 62 45 41 46
REMARK SMILES IDX 61 47 42 48 45 49 60 50 80 51 43 52 44 53 59 55 81 56 46 57
REMARK SMILES IDX 29 58 30 59 39 60 31 61 32 62 38 63 40 64 33 65 34 66 35 67
REMARK SMILES IDX 36 68 37 69 63 70 64 71 73 72 65 73 66 74 72 75 74 76 67 77
REMARK SMILES IDX 68 78 69 79 70 80 71 81 47 82 48 83 57 84 49 85 50 86 56 87
REMARK SMILES IDX 58 88 51 89 52 90 53 91 54 92 55 93
REMARK H PARENT 13 7 17 24 79 43 45 54
REMARK Flexibility Score: inf
ROOT
ATOM      1  C   UNL A   1      41.130  22.699  28.087  1.00  0.00     0.118 C 
ENDROOT
BRANCH   1   2
ATOM      2  C   UNL A   1      41.287  21.194  27.885  1.00  0.00     0.042 C 
BRANCH   2   3
ATOM      3  C   UNL A   1      41.149  20.768  26.427  1.00  0.00     0.118 C 
BRANCH   3   4
ATOM      4  N   UNL A   1      41.455  19.360  26.235  1.00  0.00    -0.351 N 
ATOM      5  C   UNL A   1      42.606  18.729  25.822  1.00  0.00     0.271 C 
ATOM      6  O   UNL A   1      42.583  17.497  25.758  1.00  0.00    -0.267 OA
ATOM      7  H   UNL A   1      40.708  18.751  26.435  1.00  0.00     0.163 HD
BRANCH   5   8
ATOM      8  C   UNL A   1      43.858  19.451  25.453  1.00  0.00     0.148 A 
ATOM      9  C   UNL A   1      45.153  21.372  25.418  1.00  0.00     0.148 A 
ATOM     10  C   UNL A   1      46.107  20.653  24.686  1.00  0.00     0.157 A 
ATOM     11  N   UNL A   1      44.026  20.746  25.818  1.00  0.00    -0.222 NA
ATOM     12  N   UNL A   1      45.985  19.347  24.337  1.00  0.00    -0.258 NA
ATOM     13  C   UNL A   1      44.828  18.767  24.733  1.00  0.00     0.145 A 
BRANCH   9  14
ATOM     14  N   UNL A   1      45.334  22.691  25.770  1.00  0.00    -0.353 N 
ATOM     15  C   UNL A   1      45.465  26.315  26.806  1.00  0.00     0.008 C 
ATOM     16  C   UNL A   1      44.358  25.311  26.477  1.00  0.00    -0.011 C 
ATOM     17  C   UNL A   1      44.343  24.131  27.463  1.00  0.00     0.025 C 
ATOM     18  C   UNL A   1      44.406  24.813  25.020  1.00  0.00     0.028 C 
ATOM     19  C   UNL A   1      45.429  23.100  27.164  1.00  0.00     0.118 C 
ATOM     20  C   UNL A   1      45.441  23.709  24.725  1.00  0.00     0.081 C 
ATOM     21  C   UNL A   1      46.864  24.242  24.579  1.00  0.00     0.031 C 
ENDBRANCH   9  14
ENDBRANCH   5   8
ENDBRANCH   3   4
ENDBRANCH   2   3
ENDBRANCH   1   2
BRANCH   1  22
ATOM     22  N   UNL A   1      40.648  23.372  26.883  1.00  0.00    -0.352 N 
ATOM     23  C   UNL A   1      40.141  24.636  26.716  1.00  0.00     0.251 C 
ATOM     24  H   UNL A   1      40.695  22.833  26.061  1.00  0.00     0.163 HD
ATOM     25  O   UNL A   1      39.580  24.932  25.662  1.00  0.00    -0.269 OA
BRANCH  23  26
ATOM     26  C   UNL A   1      40.262  25.633  27.797  1.00  0.00     0.039 A 
ATOM     27  C   UNL A   1      41.365  26.493  27.815  1.00  0.00     0.014 A 
ATOM     28  C   UNL A   1      39.295  25.710  28.802  1.00  0.00     0.014 A 
ATOM     29  C   UNL A   1      41.457  27.481  28.800  1.00  0.00     0.010 A 
ATOM     30  C   UNL A   1      39.349  26.740  29.734  1.00  0.00     0.010 A 
ATOM     31  C   UNL A   1      40.429  27.637  29.741  1.00  0.00    -0.014 A 
BRANCH  31  32
ATOM     32  C   UNL A   1      40.441  28.728  30.751  1.00  0.00     0.031 A 
ATOM     33  C   UNL A   1      41.328  28.607  31.962  1.00  0.00     0.074 A 
ATOM     34  C   UNL A   1      39.576  29.755  30.638  1.00  0.00     0.049 A 
ATOM     35  N   UNL A   1      41.352  29.341  33.042  1.00  0.00    -0.248 NA
ATOM     36  C   UNL A   1      42.294  27.494  31.971  1.00  0.00     0.031 C 
ATOM     37  C   UNL A   1      38.640  29.959  29.529  1.00  0.00     0.029 A 
ATOM     38  N   UNL A   1      39.313  30.806  31.485  1.00  0.00    -0.354 N 
ATOM     39  C   UNL A   1      42.303  28.761  33.873  1.00  0.00     0.074 A 
ATOM     40  C   UNL A   1      42.817  27.598  33.185  1.00  0.00     0.031 C 
ATOM     41  C   UNL A   1      37.905  31.057  29.766  1.00  0.00     0.029 A 
ATOM     42  C   UNL A   1      38.276  31.608  31.065  1.00  0.00     0.049 A 
ATOM     43  H   UNL A   1      39.820  30.968  32.313  1.00  0.00     0.167 HD
ATOM     44  C   UNL A   1      42.713  29.170  35.095  1.00  0.00     0.037 A 
ATOM     45  C   UNL A   1      37.669  32.647  31.673  1.00  0.00     0.037 A 
ATOM     46  C   UNL A   1      42.230  30.357  35.748  1.00  0.00     0.049 A 
ATOM     47  C   UNL A   1      38.155  33.084  33.033  1.00  0.00     0.074 A 
ATOM     48  C   UNL A   1      42.649  30.905  36.948  1.00  0.00     0.029 A 
ATOM     49  N   UNL A   1      41.222  31.176  35.263  1.00  0.00    -0.354 N 
ATOM     50  N   UNL A   1      39.108  32.568  33.770  1.00  0.00    -0.248 NA
ATOM     51  C   UNL A   1      37.487  34.243  33.643  1.00  0.00     0.031 C 
ATOM     52  C   UNL A   1      41.856  32.023  37.216  1.00  0.00     0.029 A 
ATOM     53  C   UNL A   1      40.988  32.209  36.152  1.00  0.00     0.049 A 
ATOM     54  H   UNL A   1      40.744  31.042  34.412  1.00  0.00     0.167 HD
ATOM     55  C   UNL A   1      39.182  33.365  34.908  1.00  0.00     0.074 A 
ATOM     56  C   UNL A   1      38.178  34.396  34.765  1.00  0.00     0.031 C 
ATOM     57  C   UNL A   1      40.012  33.253  35.973  1.00  0.00     0.037 A 
BRANCH  44  58
ATOM     58  C   UNL A   1      43.736  28.343  35.824  1.00  0.00     0.058 A 
ATOM     59  C   UNL A   1      45.112  28.583  35.692  1.00  0.00     0.135 A 
ATOM     60  C   UNL A   1      43.326  27.368  36.749  1.00  0.00     0.135 A 
ATOM     61  F   UNL A   1      45.560  29.491  34.811  1.00  0.00    -0.206 F 
ATOM     62  C   UNL A   1      46.046  27.886  36.452  1.00  0.00     0.059 A 
ATOM     63  C   UNL A   1      44.240  26.678  37.537  1.00  0.00     0.059 A 
ATOM     64  F   UNL A   1      42.021  27.097  36.909  1.00  0.00    -0.206 F 
ATOM     65  C   UNL A   1      45.599  26.943  37.380  1.00  0.00     0.060 A 
BRANCH  65  66
ATOM     66  S   UNL A   1      46.822  26.094  38.401  1.00  0.00     0.124 S 
ATOM     67  O   UNL A   1      47.932  25.946  37.463  1.00  0.00    -0.237 OA
ATOM     68  O   UNL A   1      47.033  27.045  39.487  1.00  0.00    -0.237 OA
ATOM     69  O   UNL A   1      46.151  24.854  38.777  1.00  0.00    -0.744 OA
ENDBRANCH  65  66
ENDBRANCH  44  58
BRANCH  45  70
ATOM     70  C   UNL A   1      36.522  33.338  31.022  1.00  0.00     0.058 A 
ATOM     71  C   UNL A   1      36.712  34.163  29.903  1.00  0.00     0.135 A 
ATOM     72  C   UNL A   1      35.217  33.212  31.523  1.00  0.00     0.135 A 
ATOM     73  F   UNL A   1      37.940  34.320  29.385  1.00  0.00    -0.206 F 
ATOM     74  C   UNL A   1      35.660  34.871  29.330  1.00  0.00     0.059 A 
ATOM     75  C   UNL A   1      34.143  33.884  30.949  1.00  0.00     0.059 A 
ATOM     76  F   UNL A   1      34.974  32.420  32.578  1.00  0.00    -0.206 F 
ATOM     77  C   UNL A   1      34.377  34.728  29.865  1.00  0.00     0.060 A 
BRANCH  77  78
ATOM     78  S   UNL A   1      33.017  35.651  29.116  1.00  0.00     0.124 S 
ATOM     79  O   UNL A   1      32.424  34.642  28.246  1.00  0.00    -0.237 OA
ATOM     80  O   UNL A   1      32.227  36.034  30.282  1.00  0.00    -0.237 OA
ATOM     81  O   UNL A   1      33.693  36.752  28.437  1.00  0.00    -0.744 OA
ENDBRANCH  77  78
ENDBRANCH  45  70
BRANCH  57  82
ATOM     82  C   UNL A   1      39.936  34.305  37.044  1.00  0.00     0.058 A 
ATOM     83  C   UNL A   1      40.533  35.565  36.893  1.00  0.00     0.135 A 
ATOM     84  C   UNL A   1      39.147  34.083  38.186  1.00  0.00     0.135 A 
ATOM     85  F   UNL A   1      41.303  35.823  35.824  1.00  0.00    -0.206 F 
ATOM     86  C   UNL A   1      40.348  36.571  37.835  1.00  0.00     0.059 A 
ATOM     87  C   UNL A   1      38.925  35.084  39.126  1.00  0.00     0.059 A 
ATOM     88  F   UNL A   1      38.548  32.897  38.373  1.00  0.00    -0.206 F 
ATOM     89  C   UNL A   1      39.530  36.326  38.941  1.00  0.00     0.060 A 
BRANCH  89  90
ATOM     90  S   UNL A   1      39.225  37.670  40.107  1.00  0.00     0.124 S 
ATOM     91  O   UNL A   1      38.876  36.935  41.318  1.00  0.00    -0.237 OA
ATOM     92  O   UNL A   1      40.512  38.358  40.132  1.00  0.00    -0.237 OA
ATOM     93  O   UNL A   1      38.133  38.416  39.489  1.00  0.00    -0.744 OA
ENDBRANCH  89  90
ENDBRANCH  57  82
ENDBRANCH  31  32
ENDBRANCH  23  26
ENDBRANCH   1  22
TORSDOF 14
ENDMDL
