MODEL 1
REMARK VINA RESULT:     -11.7      0.000      0.000
REMARK SMILES CC[NH2+][C@@]1(C(=O)NCCCNC(=O)c2ccc(-c3c4nc(c(-c5c(F)cc(S(=O)(=O)[O-])cc5F)c5ccc([nH]5)c(-c5c(F)cc(S(=O)(=O)[O-])cc5F)c5nc(c(-c6c(F)cc(S(=O)(=O)[O-])cc6F)c6ccc3[nH]6)C=C5)C=C4)cc2)CCC[C@H]1CC[N@H+]1C[C@H](C)CC[C@@H]1C
REMARK SMILES IDX 9 1 8 2 7 3 5 4 6 5 4 7 80 8 83 9 81 10 82 11 3 12 2 15 1 16
REMARK SMILES IDX 84 17 85 18 86 19 87 20 92 21 88 23 91 24 93 25 90 26 89 27
REMARK SMILES IDX 10 28 11 29 12 30 13 32 14 33 15 34 79 35 16 36 78 37 17 38
REMARK SMILES IDX 18 39 19 40 72 41 20 42 77 43 71 44 73 45 21 46 76 47 70 48
REMARK SMILES IDX 69 49 22 51 56 52 35 53 55 54 36 55 39 56 54 57 74 58 37 59
REMARK SMILES IDX 38 60 53 62 75 63 40 64 23 65 24 66 33 67 25 68 26 69 32 70
REMARK SMILES IDX 34 71 27 72 28 73 29 74 30 75 31 76 57 77 58 78 67 79 59 80
REMARK SMILES IDX 60 81 66 82 68 83 61 84 62 85 63 86 64 87 65 88 41 89 42 90
REMARK SMILES IDX 51 91 43 92 44 93 50 94 52 95 45 96 46 97 47 98 48 99 49 100
REMARK H PARENT 7 6 3 13 3 14 86 22 11 31 73 50 39 61
REMARK Flexibility Score: inf
ROOT
ATOM      1  C   UNL A   1      39.538  22.070  26.431  1.00  0.00     0.042 C 
ENDROOT
BRANCH   1   2
ATOM      2  C   UNL A   1      38.188  22.329  25.782  1.00  0.00     0.118 C 
BRANCH   2   3
ATOM      3  N   UNL A   1      37.520  21.121  25.352  1.00  0.00    -0.351 N 
ATOM      4  C   UNL A   1      36.230  20.741  25.171  1.00  0.00     0.281 C 
ATOM      5  O   UNL A   1      36.160  19.579  24.749  1.00  0.00    -0.268 OA
ATOM      6  H   UNL A   1      38.156  20.400  25.138  1.00  0.00     0.163 HD
BRANCH   4   7
ATOM      7  C   UNL A   1      34.947  21.661  25.411  1.00  0.00     0.178 C 
ATOM      8  C   UNL A   1      33.655  20.831  25.263  1.00  0.00     0.079 C 
ATOM      9  C   UNL A   1      34.828  22.823  24.350  1.00  0.00     0.066 C 
ATOM     10  C   UNL A   1      33.110  21.077  23.873  1.00  0.00     0.008 C 
ATOM     11  C   UNL A   1      33.580  22.471  23.489  1.00  0.00     0.011 C 
BRANCH   7  12
ATOM     12  N   UNL A   1      34.948  22.247  26.779  1.00  0.00    -0.334 N 
ATOM     13  H   UNL A   1      35.891  22.133  27.151  1.00  0.00     0.347 HD
ATOM     14  H   UNL A   1      34.623  23.203  26.631  1.00  0.00     0.347 HD
BRANCH  12  15
ATOM     15  C   UNL A   1      34.029  21.723  27.784  1.00  0.00     0.257 C 
ATOM     16  C   UNL A   1      32.765  22.578  27.787  1.00  0.00     0.071 C 
ENDBRANCH  12  15
ENDBRANCH   7  12
BRANCH   9  17
ATOM     17  C   UNL A   1      34.667  24.314  24.785  1.00  0.00     0.072 C 
BRANCH  17  18
ATOM     18  C   UNL A   1      33.346  24.903  25.321  1.00  0.00     0.263 C 
BRANCH  18  19
ATOM     19  N   UNL A   1      32.579  25.976  24.677  1.00  0.00    -0.333 N 
ATOM     20  C   UNL A   1      31.693  26.630  25.661  1.00  0.00     0.265 C 
ATOM     21  C   UNL A   1      33.266  26.926  23.801  1.00  0.00     0.180 C 
ATOM     22  H   UNL A   1      32.037  25.474  23.974  1.00  0.00     0.348 HD
ATOM     23  C   UNL A   1      32.427  27.679  26.515  1.00  0.00     0.041 C 
ATOM     24  C   UNL A   1      33.935  28.086  24.550  1.00  0.00     0.065 C 
ATOM     25  C   UNL A   1      32.271  27.472  22.760  1.00  0.00     0.075 C 
ATOM     26  C   UNL A   1      33.047  28.741  25.603  1.00  0.00     0.015 C 
ATOM     27  C   UNL A   1      31.513  28.301  27.571  1.00  0.00     0.013 C 
ENDBRANCH  18  19
ENDBRANCH  17  18
ENDBRANCH   9  17
ENDBRANCH   4   7
ENDBRANCH   2   3
ENDBRANCH   1   2
BRANCH   1  28
ATOM     28  C   UNL A   1      40.180  23.302  27.049  1.00  0.00     0.118 C 
BRANCH  28  29
ATOM     29  N   UNL A   1      41.018  24.026  26.103  1.00  0.00    -0.352 N 
ATOM     30  C   UNL A   1      41.406  25.343  26.071  1.00  0.00     0.251 C 
ATOM     31  H   UNL A   1      41.366  23.480  25.362  1.00  0.00     0.163 HD
ATOM     32  O   UNL A   1      41.900  25.792  25.039  1.00  0.00    -0.269 OA
BRANCH  30  33
ATOM     33  C   UNL A   1      41.237  26.217  27.253  1.00  0.00     0.039 A 
ATOM     34  C   UNL A   1      40.189  25.960  28.145  1.00  0.00     0.014 A 
ATOM     35  C   UNL A   1      42.058  27.327  27.453  1.00  0.00     0.014 A 
ATOM     36  C   UNL A   1      39.994  26.797  29.246  1.00  0.00     0.010 A 
ATOM     37  C   UNL A   1      41.935  28.089  28.609  1.00  0.00     0.010 A 
ATOM     38  C   UNL A   1      40.877  27.859  29.497  1.00  0.00    -0.014 A 
BRANCH  38  39
ATOM     39  C   UNL A   1      40.668  28.794  30.631  1.00  0.00     0.031 A 
ATOM     40  C   UNL A   1      41.517  28.662  31.871  1.00  0.00     0.074 A 
ATOM     41  C   UNL A   1      39.690  29.718  30.569  1.00  0.00     0.049 A 
ATOM     42  N   UNL A   1      41.451  29.330  32.994  1.00  0.00    -0.248 NA
ATOM     43  C   UNL A   1      42.550  27.612  31.864  1.00  0.00     0.031 C 
ATOM     44  C   UNL A   1      38.766  29.901  29.447  1.00  0.00     0.029 A 
ATOM     45  N   UNL A   1      39.307  30.677  31.472  1.00  0.00    -0.354 N 
ATOM     46  C   UNL A   1      42.411  28.765  33.828  1.00  0.00     0.074 A 
ATOM     47  C   UNL A   1      42.997  27.657  33.109  1.00  0.00     0.031 C 
ATOM     48  C   UNL A   1      37.945  30.930  29.715  1.00  0.00     0.029 A 
ATOM     49  C   UNL A   1      38.263  31.459  31.037  1.00  0.00     0.049 A 
ATOM     50  H   UNL A   1      39.739  30.793  32.348  1.00  0.00     0.167 HD
ATOM     51  C   UNL A   1      42.796  29.156  35.066  1.00  0.00     0.037 A 
ATOM     52  C   UNL A   1      37.640  32.491  31.638  1.00  0.00     0.037 A 
ATOM     53  C   UNL A   1      42.242  30.292  35.752  1.00  0.00     0.049 A 
ATOM     54  C   UNL A   1      38.118  32.939  32.993  1.00  0.00     0.074 A 
ATOM     55  C   UNL A   1      42.595  30.813  36.984  1.00  0.00     0.029 A 
ATOM     56  N   UNL A   1      41.224  31.093  35.254  1.00  0.00    -0.354 N 
ATOM     57  N   UNL A   1      39.063  32.426  33.745  1.00  0.00    -0.248 NA
ATOM     58  C   UNL A   1      37.459  34.116  33.573  1.00  0.00     0.031 C 
ATOM     59  C   UNL A   1      41.768  31.911  37.245  1.00  0.00     0.029 A 
ATOM     60  C   UNL A   1      40.935  32.102  36.154  1.00  0.00     0.049 A 
ATOM     61  H   UNL A   1      40.775  30.962  34.389  1.00  0.00     0.167 HD
ATOM     62  C   UNL A   1      39.138  33.241  34.869  1.00  0.00     0.074 A 
ATOM     63  C   UNL A   1      38.146  34.283  34.694  1.00  0.00     0.031 C 
ATOM     64  C   UNL A   1      39.954  33.140  35.948  1.00  0.00     0.037 A 
BRANCH  51  65
ATOM     65  C   UNL A   1      43.877  28.357  35.744  1.00  0.00     0.058 A 
ATOM     66  C   UNL A   1      45.240  28.630  35.534  1.00  0.00     0.135 A 
ATOM     67  C   UNL A   1      43.551  27.314  36.626  1.00  0.00     0.135 A 
ATOM     68  F   UNL A   1      45.612  29.603  34.687  1.00  0.00    -0.206 F 
ATOM     69  C   UNL A   1      46.237  27.876  36.144  1.00  0.00     0.059 A 
ATOM     70  C   UNL A   1      44.533  26.567  37.272  1.00  0.00     0.059 A 
ATOM     71  F   UNL A   1      42.266  27.007  36.864  1.00  0.00    -0.206 F 
ATOM     72  C   UNL A   1      45.873  26.845  37.011  1.00  0.00     0.060 A 
BRANCH  72  73
ATOM     73  S   UNL A   1      47.181  25.878  37.796  1.00  0.00     0.124 S 
ATOM     74  O   UNL A   1      48.251  26.865  37.895  1.00  0.00    -0.237 OA
ATOM     75  O   UNL A   1      46.564  25.483  39.058  1.00  0.00    -0.237 OA
ATOM     76  O   UNL A   1      47.414  24.792  36.849  1.00  0.00    -0.744 OA
ENDBRANCH  72  73
ENDBRANCH  51  65
BRANCH  52  77
ATOM     77  C   UNL A   1      36.536  33.202  30.939  1.00  0.00     0.058 A 
ATOM     78  C   UNL A   1      36.795  34.017  29.826  1.00  0.00     0.135 A 
ATOM     79  C   UNL A   1      35.203  33.070  31.355  1.00  0.00     0.135 A 
ATOM     80  F   UNL A   1      38.054  34.177  29.391  1.00  0.00    -0.206 F 
ATOM     81  C   UNL A   1      35.775  34.693  29.163  1.00  0.00     0.059 A 
ATOM     82  C   UNL A   1      34.162  33.714  30.692  1.00  0.00     0.059 A 
ATOM     83  F   UNL A   1      34.899  32.284  32.400  1.00  0.00    -0.206 F 
ATOM     84  C   UNL A   1      34.461  34.533  29.604  1.00  0.00     0.060 A 
BRANCH  84  85
ATOM     85  S   UNL A   1      33.139  35.379  28.708  1.00  0.00     0.124 S 
ATOM     86  O   UNL A   1      32.570  34.288  27.926  1.00  0.00    -0.237 OA
ATOM     87  O   UNL A   1      32.309  35.889  29.795  1.00  0.00    -0.237 OA
ATOM     88  O   UNL A   1      33.853  36.399  27.944  1.00  0.00    -0.744 OA
ENDBRANCH  84  85
ENDBRANCH  52  77
BRANCH  64  89
ATOM     89  C   UNL A   1      39.848  34.214  36.994  1.00  0.00     0.058 A 
ATOM     90  C   UNL A   1      39.023  34.077  38.120  1.00  0.00     0.135 A 
ATOM     91  C   UNL A   1      40.616  35.385  36.879  1.00  0.00     0.135 A 
ATOM     92  F   UNL A   1      38.268  32.978  38.274  1.00  0.00    -0.206 F 
ATOM     93  C   UNL A   1      38.933  35.079  39.079  1.00  0.00     0.059 A 
ATOM     94  C   UNL A   1      40.564  36.388  37.841  1.00  0.00     0.059 A 
ATOM     95  F   UNL A   1      41.433  35.559  35.829  1.00  0.00    -0.206 F 
ATOM     96  C   UNL A   1      39.706  36.234  38.928  1.00  0.00     0.060 A 
BRANCH  96  97
ATOM     97  S   UNL A   1      39.590  37.524  40.185  1.00  0.00     0.124 S 
ATOM     98  O   UNL A   1      39.135  36.764  41.345  1.00  0.00    -0.237 OA
ATOM     99  O   UNL A   1      40.962  38.021  40.251  1.00  0.00    -0.237 OA
ATOM    100  O   UNL A   1      38.618  38.457  39.624  1.00  0.00    -0.744 OA
ENDBRANCH  96  97
ENDBRANCH  64  89
ENDBRANCH  38  39
ENDBRANCH  30  33
ENDBRANCH  28  29
ENDBRANCH   1  28
TORSDOF 18
ENDMDL
MODEL 2
REMARK VINA RESULT:     -11.6      6.298      9.096
REMARK SMILES CC[NH2+][C@@]1(C(=O)NCCCNC(=O)c2ccc(-c3c4nc(c(-c5c(F)cc(S(=O)(=O)[O-])cc5F)c5ccc([nH]5)c(-c5c(F)cc(S(=O)(=O)[O-])cc5F)c5nc(c(-c6c(F)cc(S(=O)(=O)[O-])cc6F)c6ccc3[nH]6)C=C5)C=C4)cc2)CCC[C@H]1CC[N@H+]1C[C@H](C)CC[C@@H]1C
REMARK SMILES IDX 9 1 8 2 7 3 5 4 6 5 4 7 80 8 83 9 81 10 82 11 3 12 2 15 1 16
REMARK SMILES IDX 84 17 85 18 86 19 87 20 92 21 88 23 91 24 93 25 90 26 89 27
REMARK SMILES IDX 10 28 11 29 12 30 13 32 14 33 15 34 79 35 16 36 78 37 17 38
REMARK SMILES IDX 18 39 19 40 72 41 20 42 77 43 71 44 73 45 21 46 76 47 70 48
REMARK SMILES IDX 69 49 22 51 56 52 35 53 55 54 36 55 39 56 54 57 74 58 37 59
REMARK SMILES IDX 38 60 53 62 75 63 40 64 23 65 24 66 33 67 25 68 26 69 32 70
REMARK SMILES IDX 34 71 27 72 28 73 29 74 30 75 31 76 57 77 58 78 67 79 59 80
REMARK SMILES IDX 60 81 66 82 68 83 61 84 62 85 63 86 64 87 65 88 41 89 42 90
REMARK SMILES IDX 51 91 43 92 44 93 50 94 52 95 45 96 46 97 47 98 48 99 49 100
REMARK H PARENT 7 6 3 13 3 14 86 22 11 31 73 50 39 61
REMARK Flexibility Score: inf
ROOT
ATOM      1  C   UNL A   1      38.498  19.675  24.943  1.00  0.00     0.042 C 
ENDROOT
BRANCH   1   2
ATOM      2  C   UNL A   1      37.132  20.337  25.036  1.00  0.00     0.118 C 
BRANCH   2   3
ATOM      3  N   UNL A   1      37.018  21.526  24.222  1.00  0.00    -0.351 N 
ATOM      4  C   UNL A   1      36.037  22.426  23.955  1.00  0.00     0.281 C 
ATOM      5  O   UNL A   1      36.441  23.317  23.195  1.00  0.00    -0.268 OA
ATOM      6  H   UNL A   1      37.856  21.734  23.747  1.00  0.00     0.163 HD
BRANCH   4   7
ATOM      7  C   UNL A   1      34.561  22.400  24.563  1.00  0.00     0.178 C 
ATOM      8  C   UNL A   1      34.300  23.673  25.393  1.00  0.00     0.079 C 
ATOM      9  C   UNL A   1      34.336  21.194  25.555  1.00  0.00     0.066 C 
ATOM     10  C   UNL A   1      34.505  23.321  26.850  1.00  0.00     0.008 C 
ATOM     11  C   UNL A   1      34.180  21.839  26.963  1.00  0.00     0.011 C 
BRANCH   7  12
ATOM     12  N   UNL A   1      33.532  22.346  23.490  1.00  0.00    -0.334 N 
ATOM     13  H   UNL A   1      34.030  22.232  22.606  1.00  0.00     0.347 HD
ATOM     14  H   UNL A   1      32.922  21.581  23.778  1.00  0.00     0.347 HD
BRANCH  12  15
ATOM     15  C   UNL A   1      32.617  23.470  23.318  1.00  0.00     0.257 C 
ATOM     16  C   UNL A   1      31.200  23.001  23.635  1.00  0.00     0.071 C 
ENDBRANCH  12  15
ENDBRANCH   7  12
BRANCH   9  17
ATOM     17  C   UNL A   1      33.142  20.203  25.382  1.00  0.00     0.072 C 
BRANCH  17  18
ATOM     18  C   UNL A   1      33.043  18.855  26.123  1.00  0.00     0.263 C 
BRANCH  18  19
ATOM     19  N   UNL A   1      32.661  17.580  25.506  1.00  0.00    -0.333 N 
ATOM     20  C   UNL A   1      32.056  17.816  24.179  1.00  0.00     0.265 C 
ATOM     21  C   UNL A   1      33.606  16.462  25.516  1.00  0.00     0.180 C 
ATOM     22  H   UNL A   1      31.971  17.210  26.160  1.00  0.00     0.348 HD
ATOM     23  C   UNL A   1      33.111  18.024  23.077  1.00  0.00     0.041 C 
ATOM     24  C   UNL A   1      34.633  16.511  24.377  1.00  0.00     0.065 C 
ATOM     25  C   UNL A   1      32.829  15.135  25.471  1.00  0.00     0.075 C 
ATOM     26  C   UNL A   1      34.029  16.802  23.007  1.00  0.00     0.015 C 
ATOM     27  C   UNL A   1      32.471  18.332  21.722  1.00  0.00     0.013 C 
ENDBRANCH  18  19
ENDBRANCH  17  18
ENDBRANCH   9  17
ENDBRANCH   4   7
ENDBRANCH   2   3
ENDBRANCH   1   2
BRANCH   1  28
ATOM     28  C   UNL A   1      39.491  20.142  25.996  1.00  0.00     0.118 C 
BRANCH  28  29
ATOM     29  N   UNL A   1      40.612  19.225  26.148  1.00  0.00    -0.352 N 
ATOM     30  C   UNL A   1      41.963  19.460  26.215  1.00  0.00     0.251 C 
ATOM     31  H   UNL A   1      40.360  18.276  26.215  1.00  0.00     0.163 HD
ATOM     32  O   UNL A   1      42.738  18.517  26.082  1.00  0.00    -0.269 OA
BRANCH  30  33
ATOM     33  C   UNL A   1      42.489  20.825  26.442  1.00  0.00     0.039 A 
ATOM     34  C   UNL A   1      42.678  21.272  27.754  1.00  0.00     0.014 A 
ATOM     35  C   UNL A   1      42.730  21.692  25.375  1.00  0.00     0.014 A 
ATOM     36  C   UNL A   1      43.140  22.570  27.986  1.00  0.00     0.010 A 
ATOM     37  C   UNL A   1      43.298  22.940  25.603  1.00  0.00     0.010 A 
ATOM     38  C   UNL A   1      43.470  23.409  26.911  1.00  0.00    -0.014 A 
BRANCH  38  39
ATOM     39  C   UNL A   1      43.917  24.809  27.125  1.00  0.00     0.031 A 
ATOM     40  C   UNL A   1      45.365  25.171  26.905  1.00  0.00     0.074 A 
ATOM     41  C   UNL A   1      43.041  25.735  27.562  1.00  0.00     0.049 A 
ATOM     42  N   UNL A   1      45.971  26.313  27.100  1.00  0.00    -0.248 NA
ATOM     43  C   UNL A   1      46.259  24.093  26.446  1.00  0.00     0.031 C 
ATOM     44  C   UNL A   1      41.629  25.490  27.867  1.00  0.00     0.029 A 
ATOM     45  N   UNL A   1      43.211  27.069  27.830  1.00  0.00    -0.354 N 
ATOM     46  C   UNL A   1      47.313  26.084  26.812  1.00  0.00     0.074 A 
ATOM     47  C   UNL A   1      47.445  24.679  26.498  1.00  0.00     0.031 C 
ATOM     48  C   UNL A   1      41.056  26.642  28.250  1.00  0.00     0.029 A 
ATOM     49  C   UNL A   1      42.061  27.699  28.246  1.00  0.00     0.049 A 
ATOM     50  H   UNL A   1      44.074  27.532  27.734  1.00  0.00     0.167 HD
ATOM     51  C   UNL A   1      48.338  26.969  26.776  1.00  0.00     0.037 A 
ATOM     52  C   UNL A   1      41.846  28.986  28.579  1.00  0.00     0.037 A 
ATOM     53  C   UNL A   1      48.186  28.374  27.041  1.00  0.00     0.049 A 
ATOM     54  C   UNL A   1      42.988  29.961  28.485  1.00  0.00     0.074 A 
ATOM     55  C   UNL A   1      49.142  29.373  26.979  1.00  0.00     0.029 A 
ATOM     56  N   UNL A   1      46.993  28.983  27.405  1.00  0.00    -0.354 N 
ATOM     57  N   UNL A   1      44.239  29.738  28.160  1.00  0.00    -0.248 NA
ATOM     58  C   UNL A   1      42.686  31.367  28.784  1.00  0.00     0.031 C 
ATOM     59  C   UNL A   1      48.534  30.581  27.336  1.00  0.00     0.029 A 
ATOM     60  C   UNL A   1      47.189  30.342  27.573  1.00  0.00     0.049 A 
ATOM     61  H   UNL A   1      46.135  28.517  27.525  1.00  0.00     0.167 HD
ATOM     62  C   UNL A   1      44.865  30.979  28.178  1.00  0.00     0.074 A 
ATOM     63  C   UNL A   1      43.851  31.950  28.540  1.00  0.00     0.031 C 
ATOM     64  C   UNL A   1      46.159  31.291  27.916  1.00  0.00     0.037 A 
BRANCH  51  65
ATOM     65  C   UNL A   1      49.703  26.441  26.423  1.00  0.00     0.058 A 
ATOM     66  C   UNL A   1      50.191  26.476  25.106  1.00  0.00     0.135 A 
ATOM     67  C   UNL A   1      50.543  25.907  27.414  1.00  0.00     0.135 A 
ATOM     68  F   UNL A   1      49.425  26.958  24.114  1.00  0.00    -0.206 F 
ATOM     69  C   UNL A   1      51.443  25.968  24.777  1.00  0.00     0.059 A 
ATOM     70  C   UNL A   1      51.813  25.422  27.113  1.00  0.00     0.059 A 
ATOM     71  F   UNL A   1      50.130  25.847  28.690  1.00  0.00    -0.206 F 
ATOM     72  C   UNL A   1      52.247  25.440  25.789  1.00  0.00     0.060 A 
BRANCH  72  73
ATOM     73  S   UNL A   1      53.870  24.787  25.346  1.00  0.00     0.124 S 
ATOM     74  O   UNL A   1      54.610  24.983  26.589  1.00  0.00    -0.237 OA
ATOM     75  O   UNL A   1      53.568  23.402  25.002  1.00  0.00    -0.237 OA
ATOM     76  O   UNL A   1      54.283  25.632  24.230  1.00  0.00    -0.744 OA
ENDBRANCH  72  73
ENDBRANCH  51  65
BRANCH  52  77
ATOM     77  C   UNL A   1      40.485  29.433  28.979  1.00  0.00     0.058 A 
ATOM     78  C   UNL A   1      39.465  29.577  28.025  1.00  0.00     0.135 A 
ATOM     79  C   UNL A   1      40.169  29.708  30.318  1.00  0.00     0.135 A 
ATOM     80  F   UNL A   1      39.717  29.327  26.732  1.00  0.00    -0.206 F 
ATOM     81  C   UNL A   1      38.187  29.997  28.381  1.00  0.00     0.059 A 
ATOM     82  C   UNL A   1      38.892  30.105  30.703  1.00  0.00     0.059 A 
ATOM     83  F   UNL A   1      41.103  29.564  31.272  1.00  0.00    -0.206 F 
ATOM     84  C   UNL A   1      37.911  30.258  29.724  1.00  0.00     0.060 A 
BRANCH  84  85
ATOM     85  S   UNL A   1      36.236  30.760  30.181  1.00  0.00     0.124 S 
ATOM     86  O   UNL A   1      35.527  30.601  28.917  1.00  0.00    -0.237 OA
ATOM     87  O   UNL A   1      35.903  29.799  31.227  1.00  0.00    -0.237 OA
ATOM     88  O   UNL A   1      36.412  32.136  30.638  1.00  0.00    -0.744 OA
ENDBRANCH  84  85
ENDBRANCH  52  77
BRANCH  64  89
ATOM     89  C   UNL A   1      46.537  32.745  27.956  1.00  0.00     0.058 A 
ATOM     90  C   UNL A   1      46.296  33.606  26.875  1.00  0.00     0.135 A 
ATOM     91  C   UNL A   1      47.121  33.289  29.113  1.00  0.00     0.135 A 
ATOM     92  F   UNL A   1      45.743  33.134  25.746  1.00  0.00    -0.206 F 
ATOM     93  C   UNL A   1      46.652  34.949  26.925  1.00  0.00     0.059 A 
ATOM     94  C   UNL A   1      47.458  34.635  29.195  1.00  0.00     0.059 A 
ATOM     95  F   UNL A   1      47.359  32.511  30.181  1.00  0.00    -0.206 F 
ATOM     96  C   UNL A   1      47.237  35.453  28.089  1.00  0.00     0.060 A 
BRANCH  96  97
ATOM     97  S   UNL A   1      47.687  37.200  28.147  1.00  0.00     0.124 S 
ATOM     98  O   UNL A   1      48.883  37.223  27.313  1.00  0.00    -0.237 OA
ATOM     99  O   UNL A   1      46.506  37.847  27.580  1.00  0.00    -0.237 OA
ATOM    100  O   UNL A   1      47.907  37.447  29.569  1.00  0.00    -0.744 OA
ENDBRANCH  96  97
ENDBRANCH  64  89
ENDBRANCH  38  39
ENDBRANCH  30  33
ENDBRANCH  28  29
ENDBRANCH   1  28
TORSDOF 18
ENDMDL
MODEL 3
REMARK VINA RESULT:     -11.6      6.137      8.456
REMARK SMILES CC[NH2+][C@@]1(C(=O)NCCCNC(=O)c2ccc(-c3c4nc(c(-c5c(F)cc(S(=O)(=O)[O-])cc5F)c5ccc([nH]5)c(-c5c(F)cc(S(=O)(=O)[O-])cc5F)c5nc(c(-c6c(F)cc(S(=O)(=O)[O-])cc6F)c6ccc3[nH]6)C=C5)C=C4)cc2)CCC[C@H]1CC[N@H+]1C[C@H](C)CC[C@@H]1C
REMARK SMILES IDX 9 1 8 2 7 3 5 4 6 5 4 7 80 8 83 9 81 10 82 11 3 12 2 15 1 16
REMARK SMILES IDX 84 17 85 18 86 19 87 20 92 21 88 23 91 24 93 25 90 26 89 27
REMARK SMILES IDX 10 28 11 29 12 30 13 32 14 33 15 34 79 35 16 36 78 37 17 38
REMARK SMILES IDX 18 39 19 40 72 41 20 42 77 43 71 44 73 45 21 46 76 47 70 48
REMARK SMILES IDX 69 49 22 51 56 52 35 53 55 54 36 55 39 56 54 57 74 58 37 59
REMARK SMILES IDX 38 60 53 62 75 63 40 64 23 65 24 66 33 67 25 68 26 69 32 70
REMARK SMILES IDX 34 71 27 72 28 73 29 74 30 75 31 76 57 77 58 78 67 79 59 80
REMARK SMILES IDX 60 81 66 82 68 83 61 84 62 85 63 86 64 87 65 88 41 89 42 90
REMARK SMILES IDX 51 91 43 92 44 93 50 94 52 95 45 96 46 97 47 98 48 99 49 100
REMARK H PARENT 7 6 3 13 3 14 86 22 11 31 73 50 39 61
REMARK Flexibility Score: inf
ROOT
ATOM      1  C   UNL A   1      38.142  19.706  25.044  1.00  0.00     0.042 C 
ENDROOT
BRANCH   1   2
ATOM      2  C   UNL A   1      36.925  20.613  24.954  1.00  0.00     0.118 C 
BRANCH   2   3
ATOM      3  N   UNL A   1      35.673  19.893  24.992  1.00  0.00    -0.351 N 
ATOM      4  C   UNL A   1      34.361  20.237  25.054  1.00  0.00     0.281 C 
ATOM      5  O   UNL A   1      33.633  19.234  25.034  1.00  0.00    -0.268 OA
ATOM      6  H   UNL A   1      35.803  18.918  24.968  1.00  0.00     0.163 HD
BRANCH   4   7
ATOM      7  C   UNL A   1      33.791  21.728  25.093  1.00  0.00     0.178 C 
ATOM      8  C   UNL A   1      34.868  22.701  25.614  1.00  0.00     0.079 C 
ATOM      9  C   UNL A   1      32.568  21.883  26.078  1.00  0.00     0.066 C 
ATOM     10  C   UNL A   1      34.589  22.953  27.079  1.00  0.00     0.008 C 
ATOM     11  C   UNL A   1      33.088  22.769  27.247  1.00  0.00     0.011 C 
BRANCH   7  12
ATOM     12  N   UNL A   1      33.387  22.191  23.738  1.00  0.00    -0.334 N 
ATOM     13  H   UNL A   1      33.259  21.356  23.164  1.00  0.00     0.347 HD
ATOM     14  H   UNL A   1      32.560  22.760  23.914  1.00  0.00     0.347 HD
BRANCH  12  15
ATOM     15  C   UNL A   1      34.268  23.085  22.993  1.00  0.00     0.257 C 
ATOM     16  C   UNL A   1      33.644  23.365  21.629  1.00  0.00     0.071 C 
ENDBRANCH  12  15
ENDBRANCH   7  12
BRANCH   9  17
ATOM     17  C   UNL A   1      31.215  22.507  25.611  1.00  0.00     0.072 C 
BRANCH  17  18
ATOM     18  C   UNL A   1      30.531  23.686  26.332  1.00  0.00     0.263 C 
BRANCH  18  19
ATOM     19  N   UNL A   1      30.297  25.011  25.747  1.00  0.00    -0.333 N 
ATOM     20  C   UNL A   1      31.341  25.957  26.192  1.00  0.00     0.265 C 
ATOM     21  C   UNL A   1      29.989  25.125  24.321  1.00  0.00     0.180 C 
ATOM     22  H   UNL A   1      29.386  25.268  26.127  1.00  0.00     0.348 HD
ATOM     23  C   UNL A   1      32.639  25.834  25.374  1.00  0.00     0.041 C 
ATOM     24  C   UNL A   1      31.230  25.133  23.419  1.00  0.00     0.065 C 
ATOM     25  C   UNL A   1      29.151  26.393  24.079  1.00  0.00     0.075 C 
ATOM     26  C   UNL A   1      32.337  26.070  23.892  1.00  0.00     0.015 C 
ATOM     27  C   UNL A   1      33.732  26.772  25.887  1.00  0.00     0.013 C 
ENDBRANCH  18  19
ENDBRANCH  17  18
ENDBRANCH   9  17
ENDBRANCH   4   7
ENDBRANCH   2   3
ENDBRANCH   1   2
BRANCH   1  28
ATOM     28  C   UNL A   1      39.310  20.303  25.813  1.00  0.00     0.118 C 
BRANCH  28  29
ATOM     29  N   UNL A   1      40.397  19.352  26.000  1.00  0.00    -0.352 N 
ATOM     30  C   UNL A   1      41.750  19.547  26.133  1.00  0.00     0.251 C 
ATOM     31  H   UNL A   1      40.115  18.410  26.038  1.00  0.00     0.163 HD
ATOM     32  O   UNL A   1      42.503  18.583  26.019  1.00  0.00    -0.269 OA
BRANCH  30  33
ATOM     33  C   UNL A   1      42.302  20.892  26.408  1.00  0.00     0.039 A 
ATOM     34  C   UNL A   1      42.550  21.268  27.733  1.00  0.00     0.014 A 
ATOM     35  C   UNL A   1      42.512  21.810  25.378  1.00  0.00     0.014 A 
ATOM     36  C   UNL A   1      43.038  22.546  28.012  1.00  0.00     0.010 A 
ATOM     37  C   UNL A   1      43.106  23.038  25.647  1.00  0.00     0.010 A 
ATOM     38  C   UNL A   1      43.337  23.437  26.970  1.00  0.00    -0.014 A 
BRANCH  38  39
ATOM     39  C   UNL A   1      43.810  24.818  27.237  1.00  0.00     0.031 A 
ATOM     40  C   UNL A   1      45.265  25.161  27.027  1.00  0.00     0.074 A 
ATOM     41  C   UNL A   1      42.954  25.742  27.713  1.00  0.00     0.049 A 
ATOM     42  N   UNL A   1      45.893  26.283  27.264  1.00  0.00    -0.248 NA
ATOM     43  C   UNL A   1      46.137  24.086  26.523  1.00  0.00     0.031 C 
ATOM     44  C   UNL A   1      41.538  25.512  28.013  1.00  0.00     0.029 A 
ATOM     45  N   UNL A   1      43.149  27.061  28.032  1.00  0.00    -0.354 N 
ATOM     46  C   UNL A   1      47.229  26.040  26.963  1.00  0.00     0.074 A 
ATOM     47  C   UNL A   1      47.334  24.647  26.594  1.00  0.00     0.031 C 
ATOM     48  C   UNL A   1      40.987  26.659  28.442  1.00  0.00     0.029 A 
ATOM     49  C   UNL A   1      42.013  27.696  28.476  1.00  0.00     0.049 A 
ATOM     50  H   UNL A   1      44.020  27.511  27.952  1.00  0.00     0.167 HD
ATOM     51  C   UNL A   1      48.271  26.906  26.959  1.00  0.00     0.037 A 
ATOM     52  C   UNL A   1      41.823  28.973  28.861  1.00  0.00     0.037 A 
ATOM     53  C   UNL A   1      48.147  28.303  27.280  1.00  0.00     0.049 A 
ATOM     54  C   UNL A   1      42.983  29.930  28.801  1.00  0.00     0.074 A 
ATOM     55  C   UNL A   1      49.121  29.284  27.254  1.00  0.00     0.029 A 
ATOM     56  N   UNL A   1      46.966  28.919  27.671  1.00  0.00    -0.354 N 
ATOM     57  N   UNL A   1      44.229  29.696  28.464  1.00  0.00    -0.248 NA
ATOM     58  C   UNL A   1      42.708  31.328  29.156  1.00  0.00     0.031 C 
ATOM     59  C   UNL A   1      48.536  30.489  27.660  1.00  0.00     0.029 A 
ATOM     60  C   UNL A   1      47.188  30.267  27.891  1.00  0.00     0.049 A 
ATOM     61  H   UNL A   1      46.100  28.465  27.775  1.00  0.00     0.167 HD
ATOM     62  C   UNL A   1      44.878  30.923  28.529  1.00  0.00     0.074 A 
ATOM     63  C   UNL A   1      43.884  31.897  28.931  1.00  0.00     0.031 C 
ATOM     64  C   UNL A   1      46.177  31.221  28.275  1.00  0.00     0.037 A 
BRANCH  51  65
ATOM     65  C   UNL A   1      49.624  26.367  26.582  1.00  0.00     0.058 A 
ATOM     66  C   UNL A   1      50.526  25.889  27.548  1.00  0.00     0.135 A 
ATOM     67  C   UNL A   1      50.024  26.312  25.236  1.00  0.00     0.135 A 
ATOM     68  F   UNL A   1      50.206  25.933  28.852  1.00  0.00    -0.206 F 
ATOM     69  C   UNL A   1      51.784  25.412  27.199  1.00  0.00     0.059 A 
ATOM     70  C   UNL A   1      51.267  25.808  24.861  1.00  0.00     0.059 A 
ATOM     71  F   UNL A   1      49.205  26.756  24.269  1.00  0.00    -0.206 F 
ATOM     72  C   UNL A   1      52.147  25.377  25.852  1.00  0.00     0.060 A 
BRANCH  72  73
ATOM     73  S   UNL A   1      53.784  24.752  25.416  1.00  0.00     0.124 S 
ATOM     74  O   UNL A   1      54.154  25.647  24.324  1.00  0.00    -0.237 OA
ATOM     75  O   UNL A   1      54.528  24.929  26.659  1.00  0.00    -0.237 OA
ATOM     76  O   UNL A   1      53.527  23.367  25.033  1.00  0.00    -0.744 OA
ENDBRANCH  72  73
ENDBRANCH  51  65
BRANCH  52  77
ATOM     77  C   UNL A   1      40.471  29.429  29.282  1.00  0.00     0.058 A 
ATOM     78  C   UNL A   1      40.169  29.631  30.638  1.00  0.00     0.135 A 
ATOM     79  C   UNL A   1      39.462  29.689  28.342  1.00  0.00     0.135 A 
ATOM     80  F   UNL A   1      41.100  29.395  31.574  1.00  0.00    -0.206 F 
ATOM     81  C   UNL A   1      38.909  30.054  31.049  1.00  0.00     0.059 A 
ATOM     82  C   UNL A   1      38.202  30.138  28.728  1.00  0.00     0.059 A 
ATOM     83  F   UNL A   1      39.706  29.534  27.032  1.00  0.00    -0.206 F 
ATOM     84  C   UNL A   1      37.932  30.306  30.085  1.00  0.00     0.060 A 
BRANCH  84  85
ATOM     85  S   UNL A   1      36.313  30.898  30.628  1.00  0.00     0.124 S 
ATOM     86  O   UNL A   1      36.575  32.316  30.840  1.00  0.00    -0.237 OA
ATOM     87  O   UNL A   1      35.467  30.567  29.486  1.00  0.00    -0.237 OA
ATOM     88  O   UNL A   1      36.057  30.114  31.834  1.00  0.00    -0.744 OA
ENDBRANCH  84  85
ENDBRANCH  52  77
BRANCH  64  89
ATOM     89  C   UNL A   1      46.583  32.664  28.370  1.00  0.00     0.058 A 
ATOM     90  C   UNL A   1      47.126  33.208  29.544  1.00  0.00     0.135 A 
ATOM     91  C   UNL A   1      46.457  33.506  27.252  1.00  0.00     0.135 A 
ATOM     92  F   UNL A   1      47.264  32.446  30.640  1.00  0.00    -0.206 F 
ATOM     93  C   UNL A   1      47.496  34.546  29.619  1.00  0.00     0.059 A 
ATOM     94  C   UNL A   1      46.848  34.839  27.296  1.00  0.00     0.059 A 
ATOM     95  F   UNL A   1      45.957  33.031  26.100  1.00  0.00    -0.206 F 
ATOM     96  C   UNL A   1      47.350  35.355  28.489  1.00  0.00     0.060 A 
BRANCH  96  97
ATOM     97  S   UNL A   1      47.844  37.088  28.594  1.00  0.00     0.124 S 
ATOM     98  O   UNL A   1      48.404  37.313  27.266  1.00  0.00    -0.237 OA
ATOM     99  O   UNL A   1      46.577  37.759  28.870  1.00  0.00    -0.237 OA
ATOM    100  O   UNL A   1      48.805  37.101  29.692  1.00  0.00    -0.744 OA
ENDBRANCH  96  97
ENDBRANCH  64  89
ENDBRANCH  38  39
ENDBRANCH  30  33
ENDBRANCH  28  29
ENDBRANCH   1  28
TORSDOF 18
ENDMDL
