MODEL 1
REMARK VINA RESULT:     -12.2      0.000      0.000
REMARK SMILES CCN(Cc1ccccn1)c1nc(C)cc(C)c1C(=O)NCCCNC(=O)c1ccc(-c2c3nc(c(-c4c(F)cc(S(=O)(=O)[O-])cc4F)c4ccc([nH]4)c(-c4c(F)cc(S(=O)(=O)[O-])cc4F)c4nc(c(-c5c(F)cc(S(=O)(=O)[O-])cc5F)c5ccc2[nH]5)C=C4)C=C3)cc1
REMARK SMILES IDX 23 1 22 2 21 3 19 4 20 5 18 7 11 8 12 9 13 10 16 11 14 12
REMARK SMILES IDX 15 13 17 14 3 15 2 16 1 17 4 18 5 19 6 20 10 21 7 22 9 23
REMARK SMILES IDX 8 24 24 25 25 26 26 27 27 29 28 30 29 31 93 32 30 33 92 34
REMARK SMILES IDX 31 35 32 36 33 37 86 38 34 39 91 40 85 41 87 42 35 43 90 44
REMARK SMILES IDX 84 45 83 46 36 48 70 49 49 50 69 51 50 52 53 53 68 54 88 55
REMARK SMILES IDX 51 56 52 57 67 59 89 60 54 61 37 62 38 63 47 64 39 65 40 66
REMARK SMILES IDX 46 67 48 68 41 69 42 70 43 71 44 72 45 73 71 74 72 75 81 76
REMARK SMILES IDX 73 77 74 78 80 79 82 80 75 81 76 82 77 83 78 84 79 85 55 86
REMARK SMILES IDX 56 87 65 88 57 89 58 90 64 91 66 92 59 93 60 94 61 95 62 96
REMARK SMILES IDX 63 97
REMARK H PARENT 21 6 25 28 87 47 53 58
REMARK Flexibility Score: inf
ROOT
ATOM      1  C   UNL A   1      37.618  23.011  25.888  1.00  0.00     0.042 C 
ENDROOT
BRANCH   1   2
ATOM      2  C   UNL A   1      36.975  23.381  24.561  1.00  0.00     0.118 C 
BRANCH   2   3
ATOM      3  N   UNL A   1      35.713  22.697  24.386  1.00  0.00    -0.352 N 
ATOM      4  C   UNL A   1      34.661  23.317  23.752  1.00  0.00     0.255 C 
ATOM      5  O   UNL A   1      34.579  23.283  22.528  1.00  0.00    -0.269 OA
ATOM      6  H   UNL A   1      35.606  21.778  24.723  1.00  0.00     0.163 HD
BRANCH   4   7
ATOM      7  C   UNL A   1      33.585  23.915  24.584  1.00  0.00     0.085 A 
ATOM      8  C   UNL A   1      32.757  23.026  25.294  1.00  0.00     0.142 A 
ATOM      9  N   UNL A   1      31.551  23.444  25.739  1.00  0.00    -0.235 NA
ATOM     10  C   UNL A   1      31.176  24.729  25.631  1.00  0.00     0.040 A 
ATOM     11  C   UNL A   1      33.208  25.279  24.497  1.00  0.00    -0.033 A 
ATOM     12  C   UNL A   1      29.823  25.075  26.163  1.00  0.00     0.067 C 
ATOM     13  C   UNL A   1      31.995  25.678  25.067  1.00  0.00     0.028 A 
ATOM     14  C   UNL A   1      33.985  26.352  23.799  1.00  0.00     0.045 C 
BRANCH   8  15
ATOM     15  N   UNL A   1      33.117  21.713  25.616  1.00  0.00    -0.350 N 
BRANCH  15  16
ATOM     16  C   UNL A   1      33.383  21.418  27.025  1.00  0.00     0.115 C 
ATOM     17  C   UNL A   1      34.270  22.478  27.665  1.00  0.00     0.027 C 
ENDBRANCH  15  16
BRANCH  15  18
ATOM     18  C   UNL A   1      32.459  20.650  24.840  1.00  0.00     0.174 C 
BRANCH  18  19
ATOM     19  C   UNL A   1      32.975  19.208  24.975  1.00  0.00     0.060 A 
ATOM     20  C   UNL A   1      34.243  18.922  24.461  1.00  0.00     0.026 A 
ATOM     21  N   UNL A   1      32.196  18.229  25.503  1.00  0.00    -0.259 NA
ATOM     22  C   UNL A   1      34.658  17.596  24.365  1.00  0.00     0.004 A 
ATOM     23  C   UNL A   1      32.588  16.949  25.330  1.00  0.00     0.111 A 
ATOM     24  C   UNL A   1      33.796  16.585  24.764  1.00  0.00     0.020 A 
ENDBRANCH  18  19
ENDBRANCH  15  18
ENDBRANCH   8  15
ENDBRANCH   4   7
ENDBRANCH   2   3
ENDBRANCH   1   2
BRANCH   1  25
ATOM     25  C   UNL A   1      38.406  24.167  26.479  1.00  0.00     0.118 C 
BRANCH  25  26
ATOM     26  N   UNL A   1      39.815  24.092  26.109  1.00  0.00    -0.352 N 
ATOM     27  C   UNL A   1      40.870  24.900  26.440  1.00  0.00     0.251 C 
ATOM     28  H   UNL A   1      40.047  23.333  25.525  1.00  0.00     0.163 HD
ATOM     29  O   UNL A   1      41.914  24.814  25.801  1.00  0.00    -0.269 OA
BRANCH  27  30
ATOM     30  C   UNL A   1      40.755  25.866  27.552  1.00  0.00     0.039 A 
ATOM     31  C   UNL A   1      41.672  26.916  27.631  1.00  0.00     0.014 A 
ATOM     32  C   UNL A   1      39.778  25.712  28.539  1.00  0.00     0.014 A 
ATOM     33  C   UNL A   1      41.581  27.832  28.678  1.00  0.00     0.010 A 
ATOM     34  C   UNL A   1      39.618  26.686  29.513  1.00  0.00     0.010 A 
ATOM     35  C   UNL A   1      40.535  27.741  29.611  1.00  0.00    -0.014 A 
BRANCH  35  36
ATOM     36  C   UNL A   1      40.402  28.717  30.717  1.00  0.00     0.031 A 
ATOM     37  C   UNL A   1      41.279  28.595  31.934  1.00  0.00     0.074 A 
ATOM     38  C   UNL A   1      39.454  29.671  30.644  1.00  0.00     0.049 A 
ATOM     39  N   UNL A   1      41.279  29.313  33.027  1.00  0.00    -0.248 NA
ATOM     40  C   UNL A   1      42.260  27.497  31.944  1.00  0.00     0.031 C 
ATOM     41  C   UNL A   1      38.503  29.837  29.541  1.00  0.00     0.029 A 
ATOM     42  N   UNL A   1      39.130  30.678  31.514  1.00  0.00    -0.354 N 
ATOM     43  C   UNL A   1      42.239  28.743  33.855  1.00  0.00     0.074 A 
ATOM     44  C   UNL A   1      42.755  27.580  33.169  1.00  0.00     0.031 C 
ATOM     45  C   UNL A   1      37.729  30.906  29.785  1.00  0.00     0.029 A 
ATOM     46  C   UNL A   1      38.103  31.478  31.073  1.00  0.00     0.049 A 
ATOM     47  H   UNL A   1      39.590  30.816  32.374  1.00  0.00     0.167 HD
ATOM     48  C   UNL A   1      42.673  29.169  35.065  1.00  0.00     0.037 A 
ATOM     49  C   UNL A   1      37.532  32.555  31.645  1.00  0.00     0.037 A 
ATOM     50  C   UNL A   1      42.180  30.353  35.716  1.00  0.00     0.049 A 
ATOM     51  C   UNL A   1      38.060  33.033  32.969  1.00  0.00     0.074 A 
ATOM     52  C   UNL A   1      42.591  30.917  36.910  1.00  0.00     0.029 A 
ATOM     53  N   UNL A   1      41.165  31.161  35.221  1.00  0.00    -0.354 N 
ATOM     54  N   UNL A   1      39.013  32.520  33.711  1.00  0.00    -0.248 NA
ATOM     55  C   UNL A   1      37.444  34.242  33.529  1.00  0.00     0.031 C 
ATOM     56  C   UNL A   1      41.802  32.045  37.155  1.00  0.00     0.029 A 
ATOM     57  C   UNL A   1      40.930  32.212  36.090  1.00  0.00     0.049 A 
ATOM     58  H   UNL A   1      40.685  31.010  34.375  1.00  0.00     0.167 HD
ATOM     59  C   UNL A   1      39.128  33.357  34.814  1.00  0.00     0.074 A 
ATOM     60  C   UNL A   1      38.160  34.419  34.631  1.00  0.00     0.031 C 
ATOM     61  C   UNL A   1      39.959  33.258  35.883  1.00  0.00     0.037 A 
BRANCH  48  62
ATOM     62  C   UNL A   1      43.743  28.360  35.747  1.00  0.00     0.058 A 
ATOM     63  C   UNL A   1      45.109  28.605  35.525  1.00  0.00     0.135 A 
ATOM     64  C   UNL A   1      43.403  27.337  36.648  1.00  0.00     0.135 A 
ATOM     65  F   UNL A   1      45.493  29.558  34.659  1.00  0.00    -0.206 F 
ATOM     66  C   UNL A   1      46.097  27.847  36.144  1.00  0.00     0.059 A 
ATOM     67  C   UNL A   1      44.376  26.586  37.303  1.00  0.00     0.059 A 
ATOM     68  F   UNL A   1      42.114  27.057  36.896  1.00  0.00    -0.206 F 
ATOM     69  C   UNL A   1      45.720  26.838  37.032  1.00  0.00     0.060 A 
BRANCH  69  70
ATOM     70  S   UNL A   1      47.014  25.867  37.832  1.00  0.00     0.124 S 
ATOM     71  O   UNL A   1      48.208  26.346  37.141  1.00  0.00    -0.237 OA
ATOM     72  O   UNL A   1      46.887  26.269  39.230  1.00  0.00    -0.237 OA
ATOM     73  O   UNL A   1      46.631  24.488  37.543  1.00  0.00    -0.744 OA
ENDBRANCH  69  70
ENDBRANCH  48  62
BRANCH  49  74
ATOM     74  C   UNL A   1      36.433  33.272  30.947  1.00  0.00     0.058 A 
ATOM     75  C   UNL A   1      35.115  33.210  31.423  1.00  0.00     0.135 A 
ATOM     76  C   UNL A   1      36.679  34.051  29.805  1.00  0.00     0.135 A 
ATOM     77  F   UNL A   1      34.831  32.478  32.511  1.00  0.00    -0.206 F 
ATOM     78  C   UNL A   1      34.076  33.879  30.785  1.00  0.00     0.059 A 
ATOM     79  C   UNL A   1      35.661  34.749  29.164  1.00  0.00     0.059 A 
ATOM     80  F   UNL A   1      37.926  34.162  29.322  1.00  0.00    -0.206 F 
ATOM     81  C   UNL A   1      34.360  34.647  29.655  1.00  0.00     0.060 A 
BRANCH  81  82
ATOM     82  S   UNL A   1      33.012  35.549  28.861  1.00  0.00     0.124 S 
ATOM     83  O   UNL A   1      33.738  36.589  28.141  1.00  0.00    -0.237 OA
ATOM     84  O   UNL A   1      32.392  34.515  28.037  1.00  0.00    -0.237 OA
ATOM     85  O   UNL A   1      32.206  36.007  29.988  1.00  0.00    -0.744 OA
ENDBRANCH  81  82
ENDBRANCH  49  74
BRANCH  61  86
ATOM     86  C   UNL A   1      39.870  34.344  36.917  1.00  0.00     0.058 A 
ATOM     87  C   UNL A   1      39.011  34.241  38.022  1.00  0.00     0.135 A 
ATOM     88  C   UNL A   1      40.675  35.490  36.813  1.00  0.00     0.135 A 
ATOM     89  F   UNL A   1      38.219  33.167  38.165  1.00  0.00    -0.206 F 
ATOM     90  C   UNL A   1      38.927  35.254  38.970  1.00  0.00     0.059 A 
ATOM     91  C   UNL A   1      40.628  36.502  37.765  1.00  0.00     0.059 A 
ATOM     92  F   UNL A   1      41.522  35.630  35.782  1.00  0.00    -0.206 F 
ATOM     93  C   UNL A   1      39.736  36.382  38.831  1.00  0.00     0.060 A 
BRANCH  93  94
ATOM     94  S   UNL A   1      39.624  37.688  40.073  1.00  0.00     0.124 S 
ATOM     95  O   UNL A   1      38.438  38.413  39.627  1.00  0.00    -0.237 OA
ATOM     96  O   UNL A   1      39.475  36.930  41.311  1.00  0.00    -0.237 OA
ATOM     97  O   UNL A   1      40.888  38.401  39.929  1.00  0.00    -0.744 OA
ENDBRANCH  93  94
ENDBRANCH  61  86
ENDBRANCH  35  36
ENDBRANCH  27  30
ENDBRANCH  25  26
ENDBRANCH   1  25
TORSDOF 17
ENDMDL
MODEL 2
REMARK VINA RESULT:     -12.1      1.208      3.642
REMARK SMILES CCN(Cc1ccccn1)c1nc(C)cc(C)c1C(=O)NCCCNC(=O)c1ccc(-c2c3nc(c(-c4c(F)cc(S(=O)(=O)[O-])cc4F)c4ccc([nH]4)c(-c4c(F)cc(S(=O)(=O)[O-])cc4F)c4nc(c(-c5c(F)cc(S(=O)(=O)[O-])cc5F)c5ccc2[nH]5)C=C4)C=C3)cc1
REMARK SMILES IDX 23 1 22 2 21 3 19 4 20 5 18 7 11 8 12 9 13 10 16 11 14 12
REMARK SMILES IDX 15 13 17 14 3 15 2 16 1 17 4 18 5 19 6 20 10 21 7 22 9 23
REMARK SMILES IDX 8 24 24 25 25 26 26 27 27 29 28 30 29 31 93 32 30 33 92 34
REMARK SMILES IDX 31 35 32 36 33 37 86 38 34 39 91 40 85 41 87 42 35 43 90 44
REMARK SMILES IDX 84 45 83 46 36 48 70 49 49 50 69 51 50 52 53 53 68 54 88 55
REMARK SMILES IDX 51 56 52 57 67 59 89 60 54 61 37 62 38 63 47 64 39 65 40 66
REMARK SMILES IDX 46 67 48 68 41 69 42 70 43 71 44 72 45 73 71 74 72 75 81 76
REMARK SMILES IDX 73 77 74 78 80 79 82 80 75 81 76 82 77 83 78 84 79 85 55 86
REMARK SMILES IDX 56 87 65 88 57 89 58 90 64 91 66 92 59 93 60 94 61 95 62 96
REMARK SMILES IDX 63 97
REMARK H PARENT 21 6 25 28 87 47 53 58
REMARK Flexibility Score: inf
ROOT
ATOM      1  C   UNL A   1      37.803  23.161  25.731  1.00  0.00     0.042 C 
ENDROOT
BRANCH   1   2
ATOM      2  C   UNL A   1      36.491  23.725  25.208  1.00  0.00     0.118 C 
BRANCH   2   3
ATOM      3  N   UNL A   1      35.685  22.689  24.601  1.00  0.00    -0.352 N 
ATOM      4  C   UNL A   1      34.627  23.013  23.784  1.00  0.00     0.255 C 
ATOM      5  O   UNL A   1      34.821  23.230  22.591  1.00  0.00    -0.269 OA
ATOM      6  H   UNL A   1      35.895  21.743  24.775  1.00  0.00     0.163 HD
BRANCH   4   7
ATOM      7  C   UNL A   1      33.254  22.974  24.350  1.00  0.00     0.085 A 
ATOM      8  C   UNL A   1      32.761  24.166  24.911  1.00  0.00     0.142 A 
ATOM      9  N   UNL A   1      31.721  24.120  25.774  1.00  0.00    -0.235 NA
ATOM     10  C   UNL A   1      31.063  22.974  26.011  1.00  0.00     0.040 A 
ATOM     11  C   UNL A   1      32.543  21.768  24.571  1.00  0.00    -0.033 A 
ATOM     12  C   UNL A   1      29.926  23.046  26.979  1.00  0.00     0.067 C 
ATOM     13  C   UNL A   1      31.410  21.797  25.391  1.00  0.00     0.028 A 
ATOM     14  C   UNL A   1      32.922  20.425  24.031  1.00  0.00     0.045 C 
BRANCH   8  15
ATOM     15  N   UNL A   1      33.256  25.437  24.604  1.00  0.00    -0.350 N 
BRANCH  15  16
ATOM     16  C   UNL A   1      32.475  26.254  23.672  1.00  0.00     0.115 C 
ATOM     17  C   UNL A   1      33.272  26.600  22.422  1.00  0.00     0.027 C 
ENDBRANCH  15  16
BRANCH  15  18
ATOM     18  C   UNL A   1      33.925  26.157  25.699  1.00  0.00     0.174 C 
BRANCH  18  19
ATOM     19  C   UNL A   1      33.353  27.510  26.154  1.00  0.00     0.060 A 
ATOM     20  C   UNL A   1      32.281  27.493  27.051  1.00  0.00     0.026 A 
ATOM     21  N   UNL A   1      33.820  28.679  25.643  1.00  0.00    -0.259 NA
ATOM     22  C   UNL A   1      31.595  28.675  27.319  1.00  0.00     0.004 A 
ATOM     23  C   UNL A   1      33.094  29.796  25.858  1.00  0.00     0.111 A 
ATOM     24  C   UNL A   1      31.979  29.843  26.675  1.00  0.00     0.020 A 
ENDBRANCH  18  19
ENDBRANCH  15  18
ENDBRANCH   8  15
ENDBRANCH   4   7
ENDBRANCH   2   3
ENDBRANCH   1   2
BRANCH   1  25
ATOM     25  C   UNL A   1      38.598  24.199  26.503  1.00  0.00     0.118 C 
BRANCH  25  26
ATOM     26  N   UNL A   1      40.004  24.187  26.114  1.00  0.00    -0.352 N 
ATOM     27  C   UNL A   1      41.025  25.048  26.422  1.00  0.00     0.251 C 
ATOM     28  H   UNL A   1      40.264  23.434  25.534  1.00  0.00     0.163 HD
ATOM     29  O   UNL A   1      42.062  25.003  25.769  1.00  0.00    -0.269 OA
BRANCH  27  30
ATOM     30  C   UNL A   1      40.879  26.017  27.526  1.00  0.00     0.039 A 
ATOM     31  C   UNL A   1      39.846  25.838  28.449  1.00  0.00     0.014 A 
ATOM     32  C   UNL A   1      41.725  27.124  27.628  1.00  0.00     0.014 A 
ATOM     33  C   UNL A   1      39.690  26.749  29.494  1.00  0.00     0.010 A 
ATOM     34  C   UNL A   1      41.641  27.963  28.730  1.00  0.00     0.010 A 
ATOM     35  C   UNL A   1      40.605  27.801  29.658  1.00  0.00    -0.014 A 
BRANCH  35  36
ATOM     36  C   UNL A   1      40.476  28.766  30.775  1.00  0.00     0.031 A 
ATOM     37  C   UNL A   1      41.358  28.632  31.988  1.00  0.00     0.074 A 
ATOM     38  C   UNL A   1      39.526  29.719  30.717  1.00  0.00     0.049 A 
ATOM     39  N   UNL A   1      41.362  29.339  33.088  1.00  0.00    -0.248 NA
ATOM     40  C   UNL A   1      42.341  27.535  31.981  1.00  0.00     0.031 C 
ATOM     41  C   UNL A   1      38.570  29.896  29.620  1.00  0.00     0.029 A 
ATOM     42  N   UNL A   1      39.204  30.717  31.599  1.00  0.00    -0.354 N 
ATOM     43  C   UNL A   1      42.326  28.761  33.905  1.00  0.00     0.074 A 
ATOM     44  C   UNL A   1      42.841  27.606  33.205  1.00  0.00     0.031 C 
ATOM     45  C   UNL A   1      37.795  30.961  29.878  1.00  0.00     0.029 A 
ATOM     46  C   UNL A   1      38.175  31.520  31.171  1.00  0.00     0.049 A 
ATOM     47  H   UNL A   1      39.668  30.846  32.458  1.00  0.00     0.167 HD
ATOM     48  C   UNL A   1      42.766  29.175  35.118  1.00  0.00     0.037 A 
ATOM     49  C   UNL A   1      37.605  32.590  31.757  1.00  0.00     0.037 A 
ATOM     50  C   UNL A   1      42.274  30.352  35.784  1.00  0.00     0.049 A 
ATOM     51  C   UNL A   1      38.138  33.055  33.083  1.00  0.00     0.074 A 
ATOM     52  C   UNL A   1      42.690  30.903  36.982  1.00  0.00     0.029 A 
ATOM     53  N   UNL A   1      41.256  31.163  35.302  1.00  0.00    -0.354 N 
ATOM     54  N   UNL A   1      39.095  32.535  33.816  1.00  0.00    -0.248 NA
ATOM     55  C   UNL A   1      37.523  34.257  33.659  1.00  0.00     0.031 C 
ATOM     56  C   UNL A   1      41.900  32.028  37.242  1.00  0.00     0.029 A 
ATOM     57  C   UNL A   1      41.023  32.205  36.183  1.00  0.00     0.049 A 
ATOM     58  H   UNL A   1      40.772  31.020  34.456  1.00  0.00     0.167 HD
ATOM     59  C   UNL A   1      39.214  33.361  34.927  1.00  0.00     0.074 A 
ATOM     60  C   UNL A   1      38.243  34.423  34.759  1.00  0.00     0.031 C 
ATOM     61  C   UNL A   1      40.049  33.251  35.991  1.00  0.00     0.037 A 
BRANCH  48  62
ATOM     62  C   UNL A   1      43.840  28.360  35.786  1.00  0.00     0.058 A 
ATOM     63  C   UNL A   1      43.529  27.320  36.680  1.00  0.00     0.135 A 
ATOM     64  C   UNL A   1      45.196  28.607  35.520  1.00  0.00     0.135 A 
ATOM     65  F   UNL A   1      42.250  27.052  36.986  1.00  0.00    -0.206 F 
ATOM     66  C   UNL A   1      44.523  26.577  37.309  1.00  0.00     0.059 A 
ATOM     67  C   UNL A   1      46.207  27.856  36.115  1.00  0.00     0.059 A 
ATOM     68  F   UNL A   1      45.552  29.589  34.678  1.00  0.00    -0.206 F 
ATOM     69  C   UNL A   1      45.860  26.853  37.020  1.00  0.00     0.060 A 
BRANCH  69  70
ATOM     70  S   UNL A   1      47.138  25.877  37.841  1.00  0.00     0.124 S 
ATOM     71  O   UNL A   1      47.843  26.903  38.604  1.00  0.00    -0.237 OA
ATOM     72  O   UNL A   1      46.351  24.933  38.628  1.00  0.00    -0.237 OA
ATOM     73  O   UNL A   1      47.886  25.294  36.731  1.00  0.00    -0.744 OA
ENDBRANCH  69  70
ENDBRANCH  48  62
BRANCH  49  74
ATOM     74  C   UNL A   1      36.501  33.313  31.071  1.00  0.00     0.058 A 
ATOM     75  C   UNL A   1      36.751  34.098  29.936  1.00  0.00     0.135 A 
ATOM     76  C   UNL A   1      35.174  33.215  31.519  1.00  0.00     0.135 A 
ATOM     77  F   UNL A   1      38.003  34.222  29.470  1.00  0.00    -0.206 F 
ATOM     78  C   UNL A   1      35.730  34.777  29.280  1.00  0.00     0.059 A 
ATOM     79  C   UNL A   1      34.133  33.864  30.864  1.00  0.00     0.059 A 
ATOM     80  F   UNL A   1      34.879  32.457  32.587  1.00  0.00    -0.206 F 
ATOM     81  C   UNL A   1      34.423  34.652  29.751  1.00  0.00     0.060 A 
BRANCH  81  82
ATOM     82  S   UNL A   1      33.098  35.500  28.864  1.00  0.00     0.124 S 
ATOM     83  O   UNL A   1      32.493  34.400  28.120  1.00  0.00    -0.237 OA
ATOM     84  O   UNL A   1      32.299  36.050  29.954  1.00  0.00    -0.237 OA
ATOM     85  O   UNL A   1      33.811  36.488  28.061  1.00  0.00    -0.744 OA
ENDBRANCH  81  82
ENDBRANCH  49  74
BRANCH  61  86
ATOM     86  C   UNL A   1      39.964  34.326  37.037  1.00  0.00     0.058 A 
ATOM     87  C   UNL A   1      40.714  35.508  36.942  1.00  0.00     0.135 A 
ATOM     88  C   UNL A   1      39.101  34.181  38.135  1.00  0.00     0.135 A 
ATOM     89  F   UNL A   1      41.556  35.693  35.913  1.00  0.00    -0.206 F 
ATOM     90  C   UNL A   1      40.638  36.495  37.918  1.00  0.00     0.059 A 
ATOM     91  C   UNL A   1      38.987  35.167  39.108  1.00  0.00     0.059 A 
ATOM     92  F   UNL A   1      38.353  33.074  38.266  1.00  0.00    -0.206 F 
ATOM     93  C   UNL A   1      39.775  36.313  39.000  1.00  0.00     0.060 A 
BRANCH  93  94
ATOM     94  S   UNL A   1      39.678  37.604  40.258  1.00  0.00     0.124 S 
ATOM     95  O   UNL A   1      40.720  38.524  39.812  1.00  0.00    -0.237 OA
ATOM     96  O   UNL A   1      38.307  38.082  40.112  1.00  0.00    -0.237 OA
ATOM     97  O   UNL A   1      39.958  36.890  41.499  1.00  0.00    -0.744 OA
ENDBRANCH  93  94
ENDBRANCH  61  86
ENDBRANCH  35  36
ENDBRANCH  27  30
ENDBRANCH  25  26
ENDBRANCH   1  25
TORSDOF 17
ENDMDL
MODEL 3
REMARK VINA RESULT:     -12.0      6.743     11.953
REMARK SMILES CCN(Cc1ccccn1)c1nc(C)cc(C)c1C(=O)NCCCNC(=O)c1ccc(-c2c3nc(c(-c4c(F)cc(S(=O)(=O)[O-])cc4F)c4ccc([nH]4)c(-c4c(F)cc(S(=O)(=O)[O-])cc4F)c4nc(c(-c5c(F)cc(S(=O)(=O)[O-])cc5F)c5ccc2[nH]5)C=C4)C=C3)cc1
REMARK SMILES IDX 23 1 22 2 21 3 19 4 20 5 18 7 11 8 12 9 13 10 16 11 14 12
REMARK SMILES IDX 15 13 17 14 3 15 2 16 1 17 4 18 5 19 6 20 10 21 7 22 9 23
REMARK SMILES IDX 8 24 24 25 25 26 26 27 27 29 28 30 29 31 93 32 30 33 92 34
REMARK SMILES IDX 31 35 32 36 33 37 86 38 34 39 91 40 85 41 87 42 35 43 90 44
REMARK SMILES IDX 84 45 83 46 36 48 70 49 49 50 69 51 50 52 53 53 68 54 88 55
REMARK SMILES IDX 51 56 52 57 67 59 89 60 54 61 37 62 38 63 47 64 39 65 40 66
REMARK SMILES IDX 46 67 48 68 41 69 42 70 43 71 44 72 45 73 71 74 72 75 81 76
REMARK SMILES IDX 73 77 74 78 80 79 82 80 75 81 76 82 77 83 78 84 79 85 55 86
REMARK SMILES IDX 56 87 65 88 57 89 58 90 64 91 66 92 59 93 60 94 61 95 62 96
REMARK SMILES IDX 63 97
REMARK H PARENT 21 6 25 28 87 47 53 58
REMARK Flexibility Score: inf
ROOT
ATOM      1  C   UNL A   1      33.849  29.537  27.030  1.00  0.00     0.042 C 
ENDROOT
BRANCH   1   2
ATOM      2  C   UNL A   1      33.277  28.136  26.888  1.00  0.00     0.118 C 
BRANCH   2   3
ATOM      3  N   UNL A   1      31.990  28.164  26.230  1.00  0.00    -0.352 N 
ATOM      4  C   UNL A   1      31.329  26.995  25.932  1.00  0.00     0.255 C 
ATOM      5  O   UNL A   1      30.619  26.461  26.780  1.00  0.00    -0.269 OA
ATOM      6  H   UNL A   1      31.582  29.028  25.993  1.00  0.00     0.163 HD
BRANCH   4   7
ATOM      7  C   UNL A   1      31.404  26.471  24.544  1.00  0.00     0.085 A 
ATOM      8  C   UNL A   1      32.418  25.537  24.267  1.00  0.00     0.142 A 
ATOM      9  N   UNL A   1      32.798  25.319  22.987  1.00  0.00    -0.235 NA
ATOM     10  C   UNL A   1      32.140  25.882  21.961  1.00  0.00     0.040 A 
ATOM     11  C   UNL A   1      30.685  27.042  23.463  1.00  0.00    -0.033 A 
ATOM     12  C   UNL A   1      32.647  25.565  20.591  1.00  0.00     0.067 C 
ATOM     13  C   UNL A   1      31.053  26.701  22.157  1.00  0.00     0.028 A 
ATOM     14  C   UNL A   1      29.568  28.031  23.588  1.00  0.00     0.045 C 
BRANCH   8  15
ATOM     15  N   UNL A   1      33.056  24.765  25.243  1.00  0.00    -0.350 N 
BRANCH  15  16
ATOM     16  C   UNL A   1      32.634  23.369  25.374  1.00  0.00     0.115 C 
ATOM     17  C   UNL A   1      32.326  23.008  26.821  1.00  0.00     0.027 C 
ENDBRANCH  15  16
BRANCH  15  18
ATOM     18  C   UNL A   1      34.487  25.036  25.454  1.00  0.00     0.174 C 
BRANCH  18  19
ATOM     19  C   UNL A   1      35.507  23.937  25.116  1.00  0.00     0.060 A 
ATOM     20  C   UNL A   1      35.827  23.741  23.770  1.00  0.00     0.026 A 
ATOM     21  N   UNL A   1      36.020  23.132  26.083  1.00  0.00    -0.259 NA
ATOM     22  C   UNL A   1      36.572  22.623  23.401  1.00  0.00     0.004 A 
ATOM     23  C   UNL A   1      36.675  22.018  25.694  1.00  0.00     0.111 A 
ATOM     24  C   UNL A   1      36.966  21.718  24.376  1.00  0.00     0.020 A 
ENDBRANCH  18  19
ENDBRANCH  15  18
ENDBRANCH   8  15
ENDBRANCH   4   7
ENDBRANCH   2   3
ENDBRANCH   1   2
BRANCH   1  25
ATOM     25  C   UNL A   1      35.260  29.519  27.594  1.00  0.00     0.118 C 
BRANCH  25  26
ATOM     26  N   UNL A   1      35.310  30.134  28.916  1.00  0.00    -0.352 N 
ATOM     27  C   UNL A   1      36.304  30.146  29.858  1.00  0.00     0.251 C 
ATOM     28  H   UNL A   1      34.494  30.622  29.173  1.00  0.00     0.163 HD
ATOM     29  O   UNL A   1      36.036  30.488  31.006  1.00  0.00    -0.269 OA
BRANCH  27  30
ATOM     30  C   UNL A   1      37.682  29.753  29.500  1.00  0.00     0.039 A 
ATOM     31  C   UNL A   1      38.095  29.882  28.172  1.00  0.00     0.014 A 
ATOM     32  C   UNL A   1      38.548  29.216  30.455  1.00  0.00     0.014 A 
ATOM     33  C   UNL A   1      39.391  29.510  27.815  1.00  0.00     0.010 A 
ATOM     34  C   UNL A   1      39.869  28.954  30.123  1.00  0.00     0.010 A 
ATOM     35  C   UNL A   1      40.297  29.070  28.794  1.00  0.00    -0.014 A 
BRANCH  35  36
ATOM     36  C   UNL A   1      41.686  28.694  28.444  1.00  0.00     0.031 A 
ATOM     37  C   UNL A   1      42.769  29.740  28.439  1.00  0.00     0.074 A 
ATOM     38  C   UNL A   1      41.953  27.426  28.076  1.00  0.00     0.049 A 
ATOM     39  N   UNL A   1      44.028  29.623  28.109  1.00  0.00    -0.248 NA
ATOM     40  C   UNL A   1      42.376  31.109  28.816  1.00  0.00     0.031 C 
ATOM     41  C   UNL A   1      40.965  26.347  27.977  1.00  0.00     0.029 A 
ATOM     42  N   UNL A   1      43.131  26.829  27.712  1.00  0.00    -0.354 N 
ATOM     43  C   UNL A   1      44.569  30.899  28.220  1.00  0.00     0.074 A 
ATOM     44  C   UNL A   1      43.488  31.788  28.581  1.00  0.00     0.031 C 
ATOM     45  C   UNL A   1      41.586  25.213  27.618  1.00  0.00     0.029 A 
ATOM     46  C   UNL A   1      43.005  25.491  27.425  1.00  0.00     0.049 A 
ATOM     47  H   UNL A   1      43.987  27.313  27.663  1.00  0.00     0.167 HD
ATOM     48  C   UNL A   1      45.857  31.288  28.065  1.00  0.00     0.037 A 
ATOM     49  C   UNL A   1      43.934  24.590  27.051  1.00  0.00     0.037 A 
ATOM     50  C   UNL A   1      46.929  30.384  27.747  1.00  0.00     0.049 A 
ATOM     51  C   UNL A   1      45.363  25.038  26.926  1.00  0.00     0.074 A 
ATOM     52  C   UNL A   1      48.280  30.654  27.630  1.00  0.00     0.029 A 
ATOM     53  N   UNL A   1      46.770  29.027  27.500  1.00  0.00    -0.354 N 
ATOM     54  N   UNL A   1      45.870  26.237  27.097  1.00  0.00    -0.248 NA
ATOM     55  C   UNL A   1      46.350  24.010  26.570  1.00  0.00     0.031 C 
ATOM     56  C   UNL A   1      48.934  29.468  27.278  1.00  0.00     0.029 A 
ATOM     57  C   UNL A   1      47.996  28.449  27.221  1.00  0.00     0.049 A 
ATOM     58  H   UNL A   1      45.910  28.546  27.522  1.00  0.00     0.167 HD
ATOM     59  C   UNL A   1      47.238  26.103  26.893  1.00  0.00     0.074 A 
ATOM     60  C   UNL A   1      47.479  24.703  26.604  1.00  0.00     0.031 C 
ATOM     61  C   UNL A   1      48.209  27.051  26.938  1.00  0.00     0.037 A 
BRANCH  48  62
ATOM     62  C   UNL A   1      46.172  32.747  28.255  1.00  0.00     0.058 A 
ATOM     63  C   UNL A   1      46.577  33.259  29.500  1.00  0.00     0.135 A 
ATOM     64  C   UNL A   1      46.087  33.645  27.178  1.00  0.00     0.135 A 
ATOM     65  F   UNL A   1      46.658  32.450  30.569  1.00  0.00    -0.206 F 
ATOM     66  C   UNL A   1      46.855  34.610  29.679  1.00  0.00     0.059 A 
ATOM     67  C   UNL A   1      46.389  34.996  27.327  1.00  0.00     0.059 A 
ATOM     68  F   UNL A   1      45.702  33.213  25.967  1.00  0.00    -0.206 F 
ATOM     69  C   UNL A   1      46.757  35.472  28.585  1.00  0.00     0.060 A 
BRANCH  69  70
ATOM     70  S   UNL A   1      47.125  37.222  28.832  1.00  0.00     0.124 S 
ATOM     71  O   UNL A   1      47.011  37.342  30.282  1.00  0.00    -0.237 OA
ATOM     72  O   UNL A   1      48.476  37.336  28.292  1.00  0.00    -0.237 OA
ATOM     73  O   UNL A   1      46.086  37.899  28.062  1.00  0.00    -0.744 OA
ENDBRANCH  69  70
ENDBRANCH  48  62
BRANCH  49  74
ATOM     74  C   UNL A   1      43.543  23.175  26.815  1.00  0.00     0.058 A 
ATOM     75  C   UNL A   1      43.563  22.628  25.523  1.00  0.00     0.135 A 
ATOM     76  C   UNL A   1      43.167  22.335  27.875  1.00  0.00     0.135 A 
ATOM     77  F   UNL A   1      43.916  23.392  24.478  1.00  0.00    -0.206 F 
ATOM     78  C   UNL A   1      43.205  21.306  25.285  1.00  0.00     0.059 A 
ATOM     79  C   UNL A   1      42.829  21.002  27.665  1.00  0.00     0.059 A 
ATOM     80  F   UNL A   1      43.154  22.803  29.133  1.00  0.00    -0.206 F 
ATOM     81  C   UNL A   1      42.841  20.499  26.365  1.00  0.00     0.060 A 
BRANCH  81  82
ATOM     82  S   UNL A   1      42.424  18.770  26.051  1.00  0.00     0.124 S 
ATOM     83  O   UNL A   1      42.701  18.162  27.347  1.00  0.00    -0.237 OA
ATOM     84  O   UNL A   1      41.016  18.856  25.673  1.00  0.00    -0.237 OA
ATOM     85  O   UNL A   1      43.332  18.397  24.971  1.00  0.00    -0.744 OA
ENDBRANCH  81  82
ENDBRANCH  49  74
BRANCH  61  86
ATOM     86  C   UNL A   1      49.619  26.593  26.698  1.00  0.00     0.058 A 
ATOM     87  C   UNL A   1      50.146  26.479  25.402  1.00  0.00     0.135 A 
ATOM     88  C   UNL A   1      50.461  26.291  27.780  1.00  0.00     0.135 A 
ATOM     89  F   UNL A   1      49.380  26.752  24.334  1.00  0.00    -0.206 F 
ATOM     90  C   UNL A   1      51.449  26.045  25.186  1.00  0.00     0.059 A 
ATOM     91  C   UNL A   1      51.776  25.884  27.589  1.00  0.00     0.059 A 
ATOM     92  F   UNL A   1      50.008  26.398  29.039  1.00  0.00    -0.206 F 
ATOM     93  C   UNL A   1      52.255  25.746  26.286  1.00  0.00     0.060 A 
BRANCH  93  94
ATOM     94  S   UNL A   1      53.948  25.192  25.994  1.00  0.00     0.124 S 
ATOM     95  O   UNL A   1      54.489  25.182  27.349  1.00  0.00    -0.237 OA
ATOM     96  O   UNL A   1      53.748  23.882  25.382  1.00  0.00    -0.237 OA
ATOM     97  O   UNL A   1      54.491  26.215  25.107  1.00  0.00    -0.744 OA
ENDBRANCH  93  94
ENDBRANCH  61  86
ENDBRANCH  35  36
ENDBRANCH  27  30
ENDBRANCH  25  26
ENDBRANCH   1  25
TORSDOF 17
ENDMDL
