MODEL 1
REMARK VINA RESULT:     -12.9      0.000      0.000
REMARK SMILES O=C(NCCCNC(=O)c1ccc([C@H]2Nc3ccc(Cl)cc3[C@@H]3C=CC[C@@H]23)cc1)c1ccc(-c2c3nc(c(-c4c(F)cc(S(=O)(=O)[O-])cc4F)c4ccc([nH]4)c(-c4c(F)cc(S(=O)(=O)[O-])cc4F)c4nc(c(-c5c(F)cc(S(=O)(=O)[O-])cc5F)c5ccc2[nH]5)C=C4)C=C3)cc1
REMARK SMILES IDX 4 1 3 2 1 3 2 4 30 6 31 7 95 8 32 9 94 10 33 11 34 12 35 13
REMARK SMILES IDX 88 14 36 15 93 16 87 17 89 18 37 19 92 20 86 21 85 22 38 24
REMARK SMILES IDX 72 25 51 26 71 27 52 28 55 29 70 30 90 31 53 32 54 33 69 35
REMARK SMILES IDX 91 36 56 37 39 38 40 39 49 40 41 41 42 42 48 43 50 44 43 45
REMARK SMILES IDX 44 46 45 47 46 48 47 49 73 50 74 51 83 52 75 53 76 54 82 55
REMARK SMILES IDX 84 56 77 57 78 58 79 59 80 60 81 61 57 62 58 63 67 64 59 65
REMARK SMILES IDX 60 66 66 67 68 68 61 69 62 70 63 71 64 72 65 73 5 74 6 75
REMARK SMILES IDX 7 76 8 77 9 79 10 80 11 81 29 82 12 83 28 84 13 85 14 86
REMARK SMILES IDX 15 87 27 88 16 89 23 91 26 92 17 93 22 94 24 95 25 96 18 97
REMARK SMILES IDX 21 98 19 99 20 100
REMARK H PARENT 3 5 89 23 55 34 7 78 15 90
REMARK Flexibility Score: inf
ROOT
ATOM      1  C   UNL A   1      33.742  28.518  27.049  1.00  0.00     0.118 C 
ENDROOT
BRANCH   1   2
ATOM      2  N   UNL A   1      33.633  29.851  27.634  1.00  0.00    -0.352 N 
ATOM      3  O   UNL A   1      34.182  31.696  28.792  1.00  0.00    -0.269 OA
ATOM      4  C   UNL A   1      34.550  30.632  28.313  1.00  0.00     0.251 C 
ATOM      5  H   UNL A   1      32.748  30.268  27.525  1.00  0.00     0.163 HD
BRANCH   4   6
ATOM      6  C   UNL A   1      35.958  30.191  28.497  1.00  0.00     0.039 A 
ATOM      7  C   UNL A   1      36.410  29.693  29.715  1.00  0.00     0.014 A 
ATOM      8  C   UNL A   1      36.843  30.242  27.410  1.00  0.00     0.014 A 
ATOM      9  C   UNL A   1      37.766  29.441  29.905  1.00  0.00     0.010 A 
ATOM     10  C   UNL A   1      38.190  29.879  27.573  1.00  0.00     0.010 A 
ATOM     11  C   UNL A   1      38.676  29.514  28.836  1.00  0.00    -0.014 A 
BRANCH  11  12
ATOM     12  C   UNL A   1      40.097  29.135  29.082  1.00  0.00     0.031 A 
ATOM     13  C   UNL A   1      40.632  27.772  28.721  1.00  0.00     0.074 A 
ATOM     14  C   UNL A   1      40.934  30.074  29.568  1.00  0.00     0.049 A 
ATOM     15  N   UNL A   1      41.865  27.333  28.778  1.00  0.00    -0.248 NA
ATOM     16  C   UNL A   1      39.667  26.772  28.241  1.00  0.00     0.031 C 
ATOM     17  C   UNL A   1      40.532  31.420  29.989  1.00  0.00     0.029 A 
ATOM     18  N   UNL A   1      42.293  30.066  29.757  1.00  0.00    -0.354 N 
ATOM     19  C   UNL A   1      41.827  26.013  28.341  1.00  0.00     0.074 A 
ATOM     20  C   UNL A   1      40.440  25.708  28.062  1.00  0.00     0.031 C 
ATOM     21  C   UNL A   1      41.621  32.124  30.324  1.00  0.00     0.029 A 
ATOM     22  C   UNL A   1      42.793  31.265  30.211  1.00  0.00     0.049 A 
ATOM     23  H   UNL A   1      42.857  29.276  29.587  1.00  0.00     0.167 HD
ATOM     24  C   UNL A   1      42.855  25.143  28.173  1.00  0.00     0.037 A 
ATOM     25  C   UNL A   1      44.051  31.636  30.517  1.00  0.00     0.037 A 
ATOM     26  C   UNL A   1      44.236  25.454  28.453  1.00  0.00     0.049 A 
ATOM     27  C   UNL A   1      45.166  30.647  30.333  1.00  0.00     0.074 A 
ATOM     28  C   UNL A   1      45.348  24.641  28.304  1.00  0.00     0.029 A 
ATOM     29  N   UNL A   1      44.698  26.669  28.938  1.00  0.00    -0.354 N 
ATOM     30  N   UNL A   1      45.108  29.415  29.888  1.00  0.00    -0.248 NA
ATOM     31  C   UNL A   1      46.517  31.098  30.689  1.00  0.00     0.031 C 
ATOM     32  C   UNL A   1      46.474  25.349  28.741  1.00  0.00     0.029 A 
ATOM     33  C   UNL A   1      46.074  26.622  29.110  1.00  0.00     0.049 A 
ATOM     34  H   UNL A   1      44.132  27.451  29.132  1.00  0.00     0.167 HD
ATOM     35  C   UNL A   1      46.417  28.945  29.906  1.00  0.00     0.074 A 
ATOM     36  C   UNL A   1      47.246  30.039  30.368  1.00  0.00     0.031 C 
ATOM     37  C   UNL A   1      46.888  27.716  29.580  1.00  0.00     0.037 A 
BRANCH  24  38
ATOM     38  C   UNL A   1      42.536  23.762  27.657  1.00  0.00     0.058 A 
ATOM     39  C   UNL A   1      42.433  23.497  26.282  1.00  0.00     0.135 A 
ATOM     40  C   UNL A   1      42.411  22.677  28.541  1.00  0.00     0.135 A 
ATOM     41  F   UNL A   1      42.529  24.496  25.392  1.00  0.00    -0.206 F 
ATOM     42  C   UNL A   1      42.204  22.210  25.804  1.00  0.00     0.059 A 
ATOM     43  C   UNL A   1      42.208  21.377  28.083  1.00  0.00     0.059 A 
ATOM     44  F   UNL A   1      42.504  22.871  29.866  1.00  0.00    -0.206 F 
ATOM     45  C   UNL A   1      42.097  21.156  26.711  1.00  0.00     0.060 A 
BRANCH  45  46
ATOM     46  S   UNL A   1      41.825  19.489  26.069  1.00  0.00     0.124 S 
ATOM     47  O   UNL A   1      42.244  18.668  27.202  1.00  0.00    -0.237 OA
ATOM     48  O   UNL A   1      40.394  19.493  25.787  1.00  0.00    -0.237 OA
ATOM     49  O   UNL A   1      42.693  19.428  24.898  1.00  0.00    -0.744 OA
ENDBRANCH  45  46
ENDBRANCH  24  38
BRANCH  25  50
ATOM     50  C   UNL A   1      44.312  32.997  31.058  1.00  0.00     0.058 A 
ATOM     51  C   UNL A   1      44.613  34.078  30.216  1.00  0.00     0.135 A 
ATOM     52  C   UNL A   1      44.262  33.241  32.440  1.00  0.00     0.135 A 
ATOM     53  F   UNL A   1      44.675  33.897  28.889  1.00  0.00    -0.206 F 
ATOM     54  C   UNL A   1      44.885  35.344  30.726  1.00  0.00     0.059 A 
ATOM     55  C   UNL A   1      44.493  34.504  32.971  1.00  0.00     0.059 A 
ATOM     56  F   UNL A   1      43.958  32.246  33.289  1.00  0.00    -0.206 F 
ATOM     57  C   UNL A   1      44.822  35.546  32.106  1.00  0.00     0.060 A 
BRANCH  57  58
ATOM     58  S   UNL A   1      45.150  37.196  32.761  1.00  0.00     0.124 S 
ATOM     59  O   UNL A   1      44.163  37.995  32.044  1.00  0.00    -0.237 OA
ATOM     60  O   UNL A   1      44.910  37.014  34.188  1.00  0.00    -0.237 OA
ATOM     61  O   UNL A   1      46.543  37.432  32.392  1.00  0.00    -0.744 OA
ENDBRANCH  57  58
ENDBRANCH  25  50
BRANCH  37  62
ATOM     62  C   UNL A   1      48.372  27.503  29.698  1.00  0.00     0.058 A 
ATOM     63  C   UNL A   1      48.956  27.015  30.878  1.00  0.00     0.135 A 
ATOM     64  C   UNL A   1      49.223  27.790  28.619  1.00  0.00     0.135 A 
ATOM     65  F   UNL A   1      48.190  26.731  31.944  1.00  0.00    -0.206 F 
ATOM     66  C   UNL A   1      50.333  26.863  31.001  1.00  0.00     0.059 A 
ATOM     67  C   UNL A   1      50.601  27.615  28.707  1.00  0.00     0.059 A 
ATOM     68  F   UNL A   1      48.719  28.248  27.462  1.00  0.00    -0.206 F 
ATOM     69  C   UNL A   1      51.148  27.172  29.910  1.00  0.00     0.060 A 
BRANCH  69  70
ATOM     70  S   UNL A   1      52.934  26.975  30.084  1.00  0.00     0.124 S 
ATOM     71  O   UNL A   1      53.336  28.312  30.511  1.00  0.00    -0.237 OA
ATOM     72  O   UNL A   1      53.038  25.929  31.096  1.00  0.00    -0.237 OA
ATOM     73  O   UNL A   1      53.365  26.588  28.744  1.00  0.00    -0.744 OA
ENDBRANCH  69  70
ENDBRANCH  37  62
ENDBRANCH  11  12
ENDBRANCH   4   6
ENDBRANCH   1   2
BRANCH   1  74
ATOM     74  C   UNL A   1      32.694  28.211  25.982  1.00  0.00     0.042 C 
BRANCH  74  75
ATOM     75  C   UNL A   1      32.650  29.167  24.788  1.00  0.00     0.118 C 
BRANCH  75  76
ATOM     76  N   UNL A   1      31.297  29.500  24.349  1.00  0.00    -0.352 N 
ATOM     77  C   UNL A   1      30.331  28.794  23.664  1.00  0.00     0.251 C 
ATOM     78  H   UNL A   1      31.018  30.412  24.592  1.00  0.00     0.163 HD
ATOM     79  O   UNL A   1      29.296  29.376  23.341  1.00  0.00    -0.269 OA
BRANCH  77  80
ATOM     80  C   UNL A   1      30.509  27.379  23.256  1.00  0.00     0.039 A 
ATOM     81  C   UNL A   1      31.354  27.098  22.173  1.00  0.00     0.014 A 
ATOM     82  C   UNL A   1      29.865  26.325  23.898  1.00  0.00     0.014 A 
ATOM     83  C   UNL A   1      31.750  25.781  21.909  1.00  0.00     0.006 A 
ATOM     84  C   UNL A   1      30.260  25.009  23.630  1.00  0.00     0.006 A 
ATOM     85  C   UNL A   1      31.342  24.752  22.767  1.00  0.00    -0.025 A 
BRANCH  85  86
ATOM     86  C   UNL A   1      32.260  23.565  23.114  1.00  0.00     0.114 C 
ATOM     87  N   UNL A   1      33.624  23.631  22.519  1.00  0.00    -0.378 N 
ATOM     88  C   UNL A   1      32.423  23.466  24.652  1.00  0.00     0.031 C 
ATOM     89  C   UNL A   1      34.764  23.604  23.345  1.00  0.00     0.038 A 
ATOM     90  H   UNL A   1      33.729  23.695  21.542  1.00  0.00     0.161 HD
ATOM     91  C   UNL A   1      33.349  24.628  25.069  1.00  0.00     0.049 C 
ATOM     92  C   UNL A   1      31.273  23.438  25.657  1.00  0.00     0.034 C 
ATOM     93  C   UNL A   1      35.933  22.949  22.956  1.00  0.00     0.027 A 
ATOM     94  C   UNL A   1      34.695  24.111  24.675  1.00  0.00    -0.016 A 
ATOM     95  C   UNL A   1      32.927  24.927  26.459  1.00  0.00    -0.023 C 
ATOM     96  C   UNL A   1      31.755  24.346  26.746  1.00  0.00    -0.030 C 
ATOM     97  C   UNL A   1      36.996  22.802  23.862  1.00  0.00     0.022 A 
ATOM     98  C   UNL A   1      35.771  24.014  25.558  1.00  0.00     0.027 A 
ATOM     99  C   UNL A   1      36.914  23.340  25.149  1.00  0.00     0.041 A 
ATOM    100  Cl  UNL A   1      38.213  23.124  26.255  1.00  0.00    -0.084 Cl
ENDBRANCH  85  86
ENDBRANCH  77  80
ENDBRANCH  75  76
ENDBRANCH  74  75
ENDBRANCH   1  74
TORSDOF 14
ENDMDL
MODEL 2
REMARK VINA RESULT:     -12.8      5.196     10.165
REMARK SMILES O=C(NCCCNC(=O)c1ccc([C@H]2Nc3ccc(Cl)cc3[C@@H]3C=CC[C@@H]23)cc1)c1ccc(-c2c3nc(c(-c4c(F)cc(S(=O)(=O)[O-])cc4F)c4ccc([nH]4)c(-c4c(F)cc(S(=O)(=O)[O-])cc4F)c4nc(c(-c5c(F)cc(S(=O)(=O)[O-])cc5F)c5ccc2[nH]5)C=C4)C=C3)cc1
REMARK SMILES IDX 4 1 3 2 1 3 2 4 30 6 31 7 95 8 32 9 94 10 33 11 34 12 35 13
REMARK SMILES IDX 88 14 36 15 93 16 87 17 89 18 37 19 92 20 86 21 85 22 38 24
REMARK SMILES IDX 72 25 51 26 71 27 52 28 55 29 70 30 90 31 53 32 54 33 69 35
REMARK SMILES IDX 91 36 56 37 39 38 40 39 49 40 41 41 42 42 48 43 50 44 43 45
REMARK SMILES IDX 44 46 45 47 46 48 47 49 73 50 74 51 83 52 75 53 76 54 82 55
REMARK SMILES IDX 84 56 77 57 78 58 79 59 80 60 81 61 57 62 58 63 67 64 59 65
REMARK SMILES IDX 60 66 66 67 68 68 61 69 62 70 63 71 64 72 65 73 5 74 6 75
REMARK SMILES IDX 7 76 8 77 9 79 10 80 11 81 29 82 12 83 28 84 13 85 14 86
REMARK SMILES IDX 15 87 27 88 16 89 23 91 26 92 17 93 22 94 24 95 25 96 18 97
REMARK SMILES IDX 21 98 19 99 20 100
REMARK H PARENT 3 5 89 23 55 34 7 78 15 90
REMARK Flexibility Score: inf
ROOT
ATOM      1  C   UNL A   1      41.615  23.097  27.483  1.00  0.00     0.118 C 
ENDROOT
BRANCH   1   2
ATOM      2  N   UNL A   1      41.685  23.944  26.296  1.00  0.00    -0.352 N 
ATOM      3  O   UNL A   1      41.514  25.767  24.995  1.00  0.00    -0.269 OA
ATOM      4  C   UNL A   1      41.486  25.301  26.126  1.00  0.00     0.251 C 
ATOM      5  H   UNL A   1      41.913  23.462  25.469  1.00  0.00     0.163 HD
BRANCH   4   6
ATOM      6  C   UNL A   1      41.212  26.196  27.282  1.00  0.00     0.039 A 
ATOM      7  C   UNL A   1      42.003  27.311  27.541  1.00  0.00     0.014 A 
ATOM      8  C   UNL A   1      40.111  25.932  28.110  1.00  0.00     0.014 A 
ATOM      9  C   UNL A   1      41.823  28.034  28.717  1.00  0.00     0.010 A 
ATOM     10  C   UNL A   1      39.862  26.732  29.237  1.00  0.00     0.010 A 
ATOM     11  C   UNL A   1      40.743  27.769  29.576  1.00  0.00    -0.014 A 
BRANCH  11  12
ATOM     12  C   UNL A   1      40.547  28.644  30.768  1.00  0.00     0.031 A 
ATOM     13  C   UNL A   1      41.422  28.531  31.991  1.00  0.00     0.074 A 
ATOM     14  C   UNL A   1      39.611  29.612  30.704  1.00  0.00     0.049 A 
ATOM     15  N   UNL A   1      41.441  29.290  33.059  1.00  0.00    -0.248 NA
ATOM     16  C   UNL A   1      42.394  27.428  32.028  1.00  0.00     0.031 C 
ATOM     17  C   UNL A   1      38.677  29.804  29.589  1.00  0.00     0.029 A 
ATOM     18  N   UNL A   1      39.307  30.638  31.563  1.00  0.00    -0.354 N 
ATOM     19  C   UNL A   1      42.422  28.761  33.892  1.00  0.00     0.074 A 
ATOM     20  C   UNL A   1      42.948  27.591  33.223  1.00  0.00     0.031 C 
ATOM     21  C   UNL A   1      37.953  30.911  29.802  1.00  0.00     0.029 A 
ATOM     22  C   UNL A   1      38.317  31.472  31.097  1.00  0.00     0.049 A 
ATOM     23  H   UNL A   1      39.753  30.763  32.433  1.00  0.00     0.167 HD
ATOM     24  C   UNL A   1      42.855  29.220  35.094  1.00  0.00     0.037 A 
ATOM     25  C   UNL A   1      37.750  32.562  31.650  1.00  0.00     0.037 A 
ATOM     26  C   UNL A   1      42.326  30.389  35.755  1.00  0.00     0.049 A 
ATOM     27  C   UNL A   1      38.241  33.038  32.987  1.00  0.00     0.074 A 
ATOM     28  C   UNL A   1      42.706  30.937  36.969  1.00  0.00     0.029 A 
ATOM     29  N   UNL A   1      41.305  31.190  35.264  1.00  0.00    -0.354 N 
ATOM     30  N   UNL A   1      39.192  32.540  33.739  1.00  0.00    -0.248 NA
ATOM     31  C   UNL A   1      37.584  34.225  33.549  1.00  0.00     0.031 C 
ATOM     32  C   UNL A   1      41.887  32.041  37.232  1.00  0.00     0.029 A 
ATOM     33  C   UNL A   1      41.032  32.216  36.158  1.00  0.00     0.049 A 
ATOM     34  H   UNL A   1      40.841  31.051  34.406  1.00  0.00     0.167 HD
ATOM     35  C   UNL A   1      39.252  33.357  34.862  1.00  0.00     0.074 A 
ATOM     36  C   UNL A   1      38.268  34.402  34.669  1.00  0.00     0.031 C 
ATOM     37  C   UNL A   1      40.042  33.246  35.958  1.00  0.00     0.037 A 
BRANCH  24  38
ATOM     38  C   UNL A   1      43.962  28.464  35.783  1.00  0.00     0.058 A 
ATOM     39  C   UNL A   1      45.312  28.792  35.582  1.00  0.00     0.135 A 
ATOM     40  C   UNL A   1      43.669  27.453  36.715  1.00  0.00     0.135 A 
ATOM     41  F   UNL A   1      45.653  29.739  34.694  1.00  0.00    -0.206 F 
ATOM     42  C   UNL A   1      46.332  28.137  36.268  1.00  0.00     0.059 A 
ATOM     43  C   UNL A   1      44.672  26.804  37.431  1.00  0.00     0.059 A 
ATOM     44  F   UNL A   1      42.396  27.099  36.950  1.00  0.00    -0.206 F 
ATOM     45  C   UNL A   1      46.001  27.147  37.195  1.00  0.00     0.060 A 
BRANCH  45  46
ATOM     46  S   UNL A   1      47.337  26.327  38.094  1.00  0.00     0.124 S 
ATOM     47  O   UNL A   1      48.467  27.203  37.799  1.00  0.00    -0.237 OA
ATOM     48  O   UNL A   1      46.852  26.361  39.470  1.00  0.00    -0.237 OA
ATOM     49  O   UNL A   1      47.396  25.003  37.485  1.00  0.00    -0.744 OA
ENDBRANCH  45  46
ENDBRANCH  24  38
BRANCH  25  50
ATOM     50  C   UNL A   1      36.635  33.254  30.948  1.00  0.00     0.058 A 
ATOM     51  C   UNL A   1      36.870  34.125  29.875  1.00  0.00     0.135 A 
ATOM     52  C   UNL A   1      35.303  33.050  31.345  1.00  0.00     0.135 A 
ATOM     53  F   UNL A   1      38.124  34.356  29.459  1.00  0.00    -0.206 F 
ATOM     54  C   UNL A   1      35.828  34.793  29.240  1.00  0.00     0.059 A 
ATOM     55  C   UNL A   1      34.243  33.677  30.703  1.00  0.00     0.059 A 
ATOM     56  F   UNL A   1      35.022  32.209  32.354  1.00  0.00    -0.206 F 
ATOM     57  C   UNL A   1      34.517  34.562  29.662  1.00  0.00     0.060 A 
BRANCH  57  58
ATOM     58  S   UNL A   1      33.166  35.412  28.817  1.00  0.00     0.124 S 
ATOM     59  O   UNL A   1      33.897  36.326  27.946  1.00  0.00    -0.237 OA
ATOM     60  O   UNL A   1      32.477  34.310  28.154  1.00  0.00    -0.237 OA
ATOM     61  O   UNL A   1      32.427  36.036  29.911  1.00  0.00    -0.744 OA
ENDBRANCH  57  58
ENDBRANCH  25  50
BRANCH  37  62
ATOM     62  C   UNL A   1      39.880  34.297  37.023  1.00  0.00     0.058 A 
ATOM     63  C   UNL A   1      39.044  34.098  38.134  1.00  0.00     0.135 A 
ATOM     64  C   UNL A   1      40.569  35.517  36.934  1.00  0.00     0.135 A 
ATOM     65  F   UNL A   1      38.356  32.953  38.266  1.00  0.00    -0.206 F 
ATOM     66  C   UNL A   1      38.860  35.089  39.092  1.00  0.00     0.059 A 
ATOM     67  C   UNL A   1      40.425  36.510  37.898  1.00  0.00     0.059 A 
ATOM     68  F   UNL A   1      41.392  35.756  35.900  1.00  0.00    -0.206 F 
ATOM     69  C   UNL A   1      39.551  36.295  38.962  1.00  0.00     0.060 A 
BRANCH  69  70
ATOM     70  S   UNL A   1      39.299  37.574  40.210  1.00  0.00     0.124 S 
ATOM     71  O   UNL A   1      38.239  38.372  39.602  1.00  0.00    -0.237 OA
ATOM     72  O   UNL A   1      38.915  36.797  41.383  1.00  0.00    -0.237 OA
ATOM     73  O   UNL A   1      40.603  38.225  40.297  1.00  0.00    -0.744 OA
ENDBRANCH  69  70
ENDBRANCH  37  62
ENDBRANCH  11  12
ENDBRANCH   4   6
ENDBRANCH   1   2
BRANCH   1  74
ATOM     74  C   UNL A   1      40.402  22.169  27.524  1.00  0.00     0.042 C 
BRANCH  74  75
ATOM     75  C   UNL A   1      39.354  22.384  26.429  1.00  0.00     0.118 C 
BRANCH  75  76
ATOM     76  N   UNL A   1      38.986  21.162  25.718  1.00  0.00    -0.352 N 
ATOM     77  C   UNL A   1      37.822  20.742  25.111  1.00  0.00     0.251 C 
ATOM     78  H   UNL A   1      39.718  20.505  25.661  1.00  0.00     0.163 HD
ATOM     79  O   UNL A   1      37.771  19.598  24.665  1.00  0.00    -0.269 OA
BRANCH  77  80
ATOM     80  C   UNL A   1      36.613  21.598  25.019  1.00  0.00     0.039 A 
ATOM     81  C   UNL A   1      35.609  21.441  25.984  1.00  0.00     0.014 A 
ATOM     82  C   UNL A   1      36.432  22.538  24.008  1.00  0.00     0.014 A 
ATOM     83  C   UNL A   1      34.577  22.381  26.091  1.00  0.00     0.006 A 
ATOM     84  C   UNL A   1      35.397  23.475  24.113  1.00  0.00     0.006 A 
ATOM     85  C   UNL A   1      34.583  23.509  25.261  1.00  0.00    -0.025 A 
BRANCH  85  86
ATOM     86  C   UNL A   1      34.114  24.890  25.756  1.00  0.00     0.114 C 
ATOM     87  N   UNL A   1      34.364  26.015  24.812  1.00  0.00    -0.378 N 
ATOM     88  C   UNL A   1      32.591  24.849  26.044  1.00  0.00     0.031 C 
ATOM     89  C   UNL A   1      33.297  26.807  24.348  1.00  0.00     0.038 A 
ATOM     90  H   UNL A   1      35.282  26.204  24.510  1.00  0.00     0.161 HD
ATOM     91  C   UNL A   1      31.888  24.824  24.671  1.00  0.00     0.049 C 
ATOM     92  C   UNL A   1      31.889  23.810  26.916  1.00  0.00     0.034 C 
ATOM     93  C   UNL A   1      33.445  28.178  24.131  1.00  0.00     0.027 A 
ATOM     94  C   UNL A   1      31.988  26.253  24.242  1.00  0.00    -0.016 A 
ATOM     95  C   UNL A   1      30.618  24.107  24.944  1.00  0.00    -0.023 C 
ATOM     96  C   UNL A   1      30.657  23.487  26.130  1.00  0.00    -0.030 C 
ATOM     97  C   UNL A   1      32.326  28.969  23.823  1.00  0.00     0.022 A 
ATOM     98  C   UNL A   1      30.886  27.028  23.882  1.00  0.00     0.027 A 
ATOM     99  C   UNL A   1      31.061  28.392  23.691  1.00  0.00     0.041 A 
ATOM    100  Cl  UNL A   1      29.697  29.382  23.343  1.00  0.00    -0.084 Cl
ENDBRANCH  85  86
ENDBRANCH  77  80
ENDBRANCH  75  76
ENDBRANCH  74  75
ENDBRANCH   1  74
TORSDOF 14
ENDMDL
MODEL 3
REMARK VINA RESULT:     -12.8      3.222      7.997
REMARK SMILES O=C(NCCCNC(=O)c1ccc([C@H]2Nc3ccc(Cl)cc3[C@@H]3C=CC[C@@H]23)cc1)c1ccc(-c2c3nc(c(-c4c(F)cc(S(=O)(=O)[O-])cc4F)c4ccc([nH]4)c(-c4c(F)cc(S(=O)(=O)[O-])cc4F)c4nc(c(-c5c(F)cc(S(=O)(=O)[O-])cc5F)c5ccc2[nH]5)C=C4)C=C3)cc1
REMARK SMILES IDX 4 1 3 2 1 3 2 4 30 6 31 7 95 8 32 9 94 10 33 11 34 12 35 13
REMARK SMILES IDX 88 14 36 15 93 16 87 17 89 18 37 19 92 20 86 21 85 22 38 24
REMARK SMILES IDX 72 25 51 26 71 27 52 28 55 29 70 30 90 31 53 32 54 33 69 35
REMARK SMILES IDX 91 36 56 37 39 38 40 39 49 40 41 41 42 42 48 43 50 44 43 45
REMARK SMILES IDX 44 46 45 47 46 48 47 49 73 50 74 51 83 52 75 53 76 54 82 55
REMARK SMILES IDX 84 56 77 57 78 58 79 59 80 60 81 61 57 62 58 63 67 64 59 65
REMARK SMILES IDX 60 66 66 67 68 68 61 69 62 70 63 71 64 72 65 73 5 74 6 75
REMARK SMILES IDX 7 76 8 77 9 79 10 80 11 81 29 82 12 83 28 84 13 85 14 86
REMARK SMILES IDX 15 87 27 88 16 89 23 91 26 92 17 93 22 94 24 95 25 96 18 97
REMARK SMILES IDX 21 98 19 99 20 100
REMARK H PARENT 3 5 89 23 55 34 7 78 15 90
REMARK Flexibility Score: inf
ROOT
ATOM      1  C   UNL A   1      38.812  20.368  25.744  1.00  0.00     0.118 C 
ENDROOT
BRANCH   1   2
ATOM      2  N   UNL A   1      39.925  19.428  25.842  1.00  0.00    -0.352 N 
ATOM      3  O   UNL A   1      42.027  18.666  26.058  1.00  0.00    -0.269 OA
ATOM      4  C   UNL A   1      41.264  19.620  26.126  1.00  0.00     0.251 C 
ATOM      5  H   UNL A   1      39.677  18.490  25.675  1.00  0.00     0.163 HD
BRANCH   4   6
ATOM      6  C   UNL A   1      41.796  20.963  26.482  1.00  0.00     0.039 A 
ATOM      7  C   UNL A   1      41.954  21.958  25.523  1.00  0.00     0.014 A 
ATOM      8  C   UNL A   1      42.112  21.245  27.819  1.00  0.00     0.014 A 
ATOM      9  C   UNL A   1      42.603  23.146  25.852  1.00  0.00     0.010 A 
ATOM     10  C   UNL A   1      42.664  22.488  28.171  1.00  0.00     0.010 A 
ATOM     11  C   UNL A   1      42.955  23.438  27.182  1.00  0.00    -0.014 A 
BRANCH  11  12
ATOM     12  C   UNL A   1      43.557  24.768  27.484  1.00  0.00     0.031 A 
ATOM     13  C   UNL A   1      45.013  25.061  27.223  1.00  0.00     0.074 A 
ATOM     14  C   UNL A   1      42.746  25.751  27.928  1.00  0.00     0.049 A 
ATOM     15  N   UNL A   1      45.654  26.198  27.337  1.00  0.00    -0.248 NA
ATOM     16  C   UNL A   1      45.861  23.942  26.787  1.00  0.00     0.031 C 
ATOM     17  C   UNL A   1      41.326  25.584  28.253  1.00  0.00     0.029 A 
ATOM     18  N   UNL A   1      42.977  27.085  28.149  1.00  0.00    -0.354 N 
ATOM     19  C   UNL A   1      46.974  25.935  26.985  1.00  0.00     0.074 A 
ATOM     20  C   UNL A   1      47.052  24.520  26.694  1.00  0.00     0.031 C 
ATOM     21  C   UNL A   1      40.800  26.776  28.567  1.00  0.00     0.029 A 
ATOM     22  C   UNL A   1      41.856  27.781  28.537  1.00  0.00     0.049 A 
ATOM     23  H   UNL A   1      43.862  27.504  28.043  1.00  0.00     0.167 HD
ATOM     24  C   UNL A   1      48.018  26.798  26.896  1.00  0.00     0.037 A 
ATOM     25  C   UNL A   1      41.689  29.081  28.847  1.00  0.00     0.037 A 
ATOM     26  C   UNL A   1      47.933  28.209  27.187  1.00  0.00     0.049 A 
ATOM     27  C   UNL A   1      42.866  30.009  28.752  1.00  0.00     0.074 A 
ATOM     28  C   UNL A   1      48.934  29.164  27.117  1.00  0.00     0.029 A 
ATOM     29  N   UNL A   1      46.786  28.870  27.604  1.00  0.00    -0.354 N 
ATOM     30  N   UNL A   1      44.096  29.742  28.386  1.00  0.00    -0.248 NA
ATOM     31  C   UNL A   1      42.632  31.413  29.110  1.00  0.00     0.031 C 
ATOM     32  C   UNL A   1      48.404  30.391  27.533  1.00  0.00     0.029 A 
ATOM     33  C   UNL A   1      47.060  30.214  27.810  1.00  0.00     0.049 A 
ATOM     34  H   UNL A   1      45.907  28.447  27.735  1.00  0.00     0.167 HD
ATOM     35  C   UNL A   1      44.783  30.948  28.464  1.00  0.00     0.074 A 
ATOM     36  C   UNL A   1      43.821  31.949  28.874  1.00  0.00     0.031 C 
ATOM     37  C   UNL A   1      46.094  31.201  28.228  1.00  0.00     0.037 A 
BRANCH  24  38
ATOM     38  C   UNL A   1      49.354  26.249  26.462  1.00  0.00     0.058 A 
ATOM     39  C   UNL A   1      49.819  26.402  25.147  1.00  0.00     0.135 A 
ATOM     40  C   UNL A   1      50.213  25.635  27.390  1.00  0.00     0.135 A 
ATOM     41  F   UNL A   1      49.037  26.968  24.214  1.00  0.00    -0.206 F 
ATOM     42  C   UNL A   1      51.080  25.953  24.763  1.00  0.00     0.059 A 
ATOM     43  C   UNL A   1      51.488  25.203  27.034  1.00  0.00     0.059 A 
ATOM     44  F   UNL A   1      49.822  25.465  28.663  1.00  0.00    -0.206 F 
ATOM     45  C   UNL A   1      51.909  25.359  25.714  1.00  0.00     0.060 A 
BRANCH  45  46
ATOM     46  S   UNL A   1      53.552  24.806  25.202  1.00  0.00     0.124 S 
ATOM     47  O   UNL A   1      54.358  25.175  26.363  1.00  0.00    -0.237 OA
ATOM     48  O   UNL A   1      53.350  23.375  25.001  1.00  0.00    -0.237 OA
ATOM     49  O   UNL A   1      53.810  25.577  23.991  1.00  0.00    -0.744 OA
ENDBRANCH  45  46
ENDBRANCH  24  38
BRANCH  25  50
ATOM     50  C   UNL A   1      40.360  29.569  29.306  1.00  0.00     0.058 A 
ATOM     51  C   UNL A   1      39.319  29.826  28.402  1.00  0.00     0.135 A 
ATOM     52  C   UNL A   1      40.108  29.786  30.670  1.00  0.00     0.135 A 
ATOM     53  F   UNL A   1      39.509  29.638  27.088  1.00  0.00    -0.206 F 
ATOM     54  C   UNL A   1      38.086  30.310  28.830  1.00  0.00     0.059 A 
ATOM     55  C   UNL A   1      38.874  30.233  31.127  1.00  0.00     0.059 A 
ATOM     56  F   UNL A   1      41.063  29.535  31.580  1.00  0.00    -0.206 F 
ATOM     57  C   UNL A   1      37.874  30.510  30.196  1.00  0.00     0.060 A 
BRANCH  57  58
ATOM     58  S   UNL A   1      36.265  31.113  30.749  1.00  0.00     0.124 S 
ATOM     59  O   UNL A   1      35.903  30.107  31.741  1.00  0.00    -0.237 OA
ATOM     60  O   UNL A   1      36.594  32.435  31.269  1.00  0.00    -0.237 OA
ATOM     61  O   UNL A   1      35.468  31.109  29.526  1.00  0.00    -0.744 OA
ENDBRANCH  57  58
ENDBRANCH  25  50
BRANCH  37  62
ATOM     62  C   UNL A   1      46.553  32.624  28.394  1.00  0.00     0.058 A 
ATOM     63  C   UNL A   1      46.509  33.542  27.332  1.00  0.00     0.135 A 
ATOM     64  C   UNL A   1      47.042  33.078  29.630  1.00  0.00     0.135 A 
ATOM     65  F   UNL A   1      46.056  33.160  26.127  1.00  0.00    -0.206 F 
ATOM     66  C   UNL A   1      46.978  34.844  27.475  1.00  0.00     0.059 A 
ATOM     67  C   UNL A   1      47.486  34.385  29.805  1.00  0.00     0.059 A 
ATOM     68  F   UNL A   1      47.095  32.247  30.683  1.00  0.00    -0.206 F 
ATOM     69  C   UNL A   1      47.469  35.254  28.715  1.00  0.00     0.060 A 
BRANCH  69  70
ATOM     70  S   UNL A   1      48.079  36.945  28.886  1.00  0.00     0.124 S 
ATOM     71  O   UNL A   1      48.609  36.929  30.246  1.00  0.00    -0.237 OA
ATOM     72  O   UNL A   1      49.071  37.030  27.820  1.00  0.00    -0.237 OA
ATOM     73  O   UNL A   1      46.883  37.758  28.688  1.00  0.00    -0.744 OA
ENDBRANCH  69  70
ENDBRANCH  37  62
ENDBRANCH  11  12
ENDBRANCH   4   6
ENDBRANCH   1   2
BRANCH   1  74
ATOM     74  C   UNL A   1      37.787  20.019  24.666  1.00  0.00     0.042 C 
BRANCH  74  75
ATOM     75  C   UNL A   1      36.326  20.326  25.004  1.00  0.00     0.118 C 
BRANCH  75  76
ATOM     76  N   UNL A   1      35.461  19.149  25.001  1.00  0.00    -0.352 N 
ATOM     77  C   UNL A   1      34.103  18.981  24.828  1.00  0.00     0.251 C 
ATOM     78  H   UNL A   1      35.944  18.305  25.154  1.00  0.00     0.163 HD
ATOM     79  O   UNL A   1      33.627  17.858  24.977  1.00  0.00    -0.269 OA
BRANCH  77  80
ATOM     80  C   UNL A   1      33.189  20.108  24.519  1.00  0.00     0.039 A 
ATOM     81  C   UNL A   1      32.775  20.939  25.570  1.00  0.00     0.014 A 
ATOM     82  C   UNL A   1      32.720  20.365  23.234  1.00  0.00     0.014 A 
ATOM     83  C   UNL A   1      32.124  22.149  25.300  1.00  0.00     0.006 A 
ATOM     84  C   UNL A   1      32.066  21.574  22.967  1.00  0.00     0.006 A 
ATOM     85  C   UNL A   1      31.938  22.551  23.972  1.00  0.00    -0.025 A 
BRANCH  85  86
ATOM     86  C   UNL A   1      32.039  24.027  23.543  1.00  0.00     0.114 C 
ATOM     87  N   UNL A   1      31.158  24.962  24.296  1.00  0.00    -0.378 N 
ATOM     88  C   UNL A   1      33.500  24.518  23.713  1.00  0.00     0.031 C 
ATOM     89  C   UNL A   1      31.709  26.052  24.996  1.00  0.00     0.038 A 
ATOM     90  H   UNL A   1      30.185  24.816  24.305  1.00  0.00     0.161 HD
ATOM     91  C   UNL A   1      33.732  24.682  25.229  1.00  0.00     0.049 C 
ATOM     92  C   UNL A   1      34.734  23.814  23.153  1.00  0.00     0.034 C 
ATOM     93  C   UNL A   1      31.053  27.282  25.069  1.00  0.00     0.027 A 
ATOM     94  C   UNL A   1      33.035  25.973  25.514  1.00  0.00    -0.016 A 
ATOM     95  C   UNL A   1      35.189  24.451  25.385  1.00  0.00    -0.023 C 
ATOM     96  C   UNL A   1      35.713  23.900  24.283  1.00  0.00    -0.030 C 
ATOM     97  C   UNL A   1      31.696  28.395  25.635  1.00  0.00     0.022 A 
ATOM     98  C   UNL A   1      33.653  27.064  26.126  1.00  0.00     0.027 A 
ATOM     99  C   UNL A   1      32.982  28.278  26.167  1.00  0.00     0.041 A 
ATOM    100  Cl  UNL A   1      33.766  29.659  26.828  1.00  0.00    -0.084 Cl
ENDBRANCH  85  86
ENDBRANCH  77  80
ENDBRANCH  75  76
ENDBRANCH  74  75
ENDBRANCH   1  74
TORSDOF 14
ENDMDL
