MODEL 1
REMARK VINA RESULT:     -10.9      0.000      0.000
REMARK SMILES Cc1cscc1-c1noc(SCC(=O)NCCCNC(=O)c2ccc(-c3c4nc(c(-c5c(F)cc(S(=O)(=O)[O-])cc5F)c5ccc([nH]5)c(-c5c(F)cc(S(=O)(=O)[O-])cc5F)c5nc(c(-c6c(F)cc(S(=O)(=O)[O-])cc6F)c6ccc3[nH]6)C=C5)C=C4)cc2)n1
REMARK SMILES IDX 17 1 16 2 15 3 13 4 14 5 12 7 11 8 10 9 7 10 8 11 88 12 9 13
REMARK SMILES IDX 6 14 1 15 2 16 3 17 4 18 5 19 18 20 19 21 20 22 21 24 22 25
REMARK SMILES IDX 23 26 87 27 24 28 86 29 25 30 26 31 27 32 80 33 28 34 85 35
REMARK SMILES IDX 79 36 81 37 29 38 84 39 78 40 77 41 30 43 64 44 43 45 63 46
REMARK SMILES IDX 44 47 47 48 62 49 82 50 45 51 46 52 61 54 83 55 48 56 31 57
REMARK SMILES IDX 32 58 41 59 33 60 34 61 40 62 42 63 35 64 36 65 37 66 38 67
REMARK SMILES IDX 39 68 65 69 66 70 75 71 67 72 68 73 74 74 76 75 69 76 70 77
REMARK SMILES IDX 71 78 72 79 73 80 49 81 50 82 59 83 51 84 52 85 58 86 60 87
REMARK SMILES IDX 53 88 54 89 55 90 56 91 57 92
REMARK H PARENT 15 6 19 23 81 42 47 53
REMARK Flexibility Score: inf
ROOT
ATOM      1  C   UNL A   1      45.786  23.709  26.014  1.00  0.00     0.042 C 
ENDROOT
BRANCH   1   2
ATOM      2  C   UNL A   1      45.168  22.545  25.244  1.00  0.00     0.117 C 
BRANCH   2   3
ATOM      3  N   UNL A   1      46.069  21.408  25.165  1.00  0.00    -0.355 N 
ATOM      4  C   UNL A   1      45.813  20.100  24.878  1.00  0.00     0.230 C 
ATOM      5  O   UNL A   1      46.778  19.332  24.831  1.00  0.00    -0.274 OA
ATOM      6  H   UNL A   1      47.013  21.615  25.347  1.00  0.00     0.163 HD
BRANCH   4   7
ATOM      7  C   UNL A   1      44.420  19.636  24.500  1.00  0.00     0.179 C 
BRANCH   7   8
ATOM      8  S   UNL A   1      43.688  18.444  25.640  1.00  0.00    -0.055 SA
BRANCH   8   9
ATOM      9  C   UNL A   1      42.367  19.326  26.334  1.00  0.00     0.286 A 
ATOM     10  C   UNL A   1      40.786  20.641  26.699  1.00  0.00     0.204 A 
ATOM     11  N   UNL A   1      40.975  20.070  27.892  1.00  0.00    -0.056 NA
ATOM     12  N   UNL A   1      41.628  20.211  25.707  1.00  0.00    -0.181 NA
ATOM     13  O   UNL A   1      42.013  19.172  27.647  1.00  0.00    -0.327 OA
BRANCH  10  14
ATOM     14  C   UNL A   1      39.828  21.721  26.464  1.00  0.00     0.036 A 
ATOM     15  C   UNL A   1      38.119  20.301  25.098  1.00  0.00     0.046 C 
ATOM     16  C   UNL A   1      38.608  21.570  25.718  1.00  0.00    -0.029 A 
ATOM     17  C   UNL A   1      37.916  22.768  25.675  1.00  0.00     0.069 A 
ATOM     18  S   UNL A   1      38.708  24.032  26.511  1.00  0.00    -0.151 S 
ATOM     19  C   UNL A   1      39.988  22.998  26.963  1.00  0.00     0.077 A 
ENDBRANCH  10  14
ENDBRANCH   8   9
ENDBRANCH   7   8
ENDBRANCH   4   7
ENDBRANCH   2   3
ENDBRANCH   1   2
BRANCH   1  20
ATOM     20  C   UNL A   1      44.766  24.683  26.598  1.00  0.00     0.118 C 
BRANCH  20  21
ATOM     21  N   UNL A   1      43.716  25.035  25.652  1.00  0.00    -0.352 N 
ATOM     22  C   UNL A   1      42.594  25.805  25.825  1.00  0.00     0.251 C 
ATOM     23  H   UNL A   1      43.830  24.663  24.747  1.00  0.00     0.163 HD
ATOM     24  O   UNL A   1      41.740  25.827  24.937  1.00  0.00    -0.269 OA
BRANCH  22  25
ATOM     25  C   UNL A   1      42.389  26.586  27.065  1.00  0.00     0.039 A 
ATOM     26  C   UNL A   1      43.047  27.810  27.206  1.00  0.00     0.014 A 
ATOM     27  C   UNL A   1      41.576  26.109  28.097  1.00  0.00     0.014 A 
ATOM     28  C   UNL A   1      42.838  28.586  28.350  1.00  0.00     0.010 A 
ATOM     29  C   UNL A   1      41.308  26.918  29.201  1.00  0.00     0.010 A 
ATOM     30  C   UNL A   1      41.936  28.165  29.340  1.00  0.00    -0.014 A 
BRANCH  30  31
ATOM     31  C   UNL A   1      41.628  29.021  30.517  1.00  0.00     0.031 A 
ATOM     32  C   UNL A   1      42.429  28.893  31.785  1.00  0.00     0.074 A 
ATOM     33  C   UNL A   1      40.582  29.872  30.463  1.00  0.00     0.049 A 
ATOM     34  N   UNL A   1      42.264  29.503  32.931  1.00  0.00    -0.248 NA
ATOM     35  C   UNL A   1      43.546  27.936  31.772  1.00  0.00     0.031 C 
ATOM     36  C   UNL A   1      39.699  30.055  29.309  1.00  0.00     0.029 A 
ATOM     37  N   UNL A   1      40.075  30.733  31.406  1.00  0.00    -0.354 N 
ATOM     38  C   UNL A   1      43.244  28.996  33.777  1.00  0.00     0.074 A 
ATOM     39  C   UNL A   1      43.967  27.991  33.028  1.00  0.00     0.031 C 
ATOM     40  C   UNL A   1      38.774  30.982  29.604  1.00  0.00     0.029 A 
ATOM     41  C   UNL A   1      38.968  31.430  30.980  1.00  0.00     0.049 A 
ATOM     42  H   UNL A   1      40.468  30.842  32.302  1.00  0.00     0.167 HD
ATOM     43  C   UNL A   1      43.528  29.351  35.053  1.00  0.00     0.037 A 
ATOM     44  C   UNL A   1      38.187  32.318  31.626  1.00  0.00     0.037 A 
ATOM     45  C   UNL A   1      42.817  30.366  35.787  1.00  0.00     0.049 A 
ATOM     46  C   UNL A   1      38.519  32.690  33.046  1.00  0.00     0.074 A 
ATOM     47  C   UNL A   1      43.067  30.838  37.064  1.00  0.00     0.029 A 
ATOM     48  N   UNL A   1      41.713  31.061  35.315  1.00  0.00    -0.354 N 
ATOM     49  N   UNL A   1      39.492  32.249  33.807  1.00  0.00    -0.248 NA
ATOM     50  C   UNL A   1      37.652  33.684  33.694  1.00  0.00     0.031 C 
ATOM     51  C   UNL A   1      42.084  31.780  37.384  1.00  0.00     0.029 A 
ATOM     52  C   UNL A   1      41.256  31.940  36.284  1.00  0.00     0.049 A 
ATOM     53  H   UNL A   1      41.313  30.947  34.422  1.00  0.00     0.167 HD
ATOM     54  C   UNL A   1      39.371  32.932  35.013  1.00  0.00     0.074 A 
ATOM     55  C   UNL A   1      38.239  33.825  34.875  1.00  0.00     0.031 C 
ATOM     56  C   UNL A   1      40.131  32.829  36.132  1.00  0.00     0.037 A 
BRANCH  43  57
ATOM     57  C   UNL A   1      44.659  28.636  35.745  1.00  0.00     0.058 A 
ATOM     58  C   UNL A   1      45.981  29.106  35.677  1.00  0.00     0.135 A 
ATOM     59  C   UNL A   1      44.413  27.493  36.523  1.00  0.00     0.135 A 
ATOM     60  F   UNL A   1      46.279  30.186  34.936  1.00  0.00    -0.206 F 
ATOM     61  C   UNL A   1      47.021  28.453  36.332  1.00  0.00     0.059 A 
ATOM     62  C   UNL A   1      45.433  26.842  37.212  1.00  0.00     0.059 A 
ATOM     63  F   UNL A   1      43.169  27.000  36.625  1.00  0.00    -0.206 F 
ATOM     64  C   UNL A   1      46.736  27.322  37.099  1.00  0.00     0.060 A 
BRANCH  64  65
ATOM     65  S   UNL A   1      48.096  26.495  37.950  1.00  0.00     0.124 S 
ATOM     66  O   UNL A   1      47.547  26.344  39.295  1.00  0.00    -0.237 OA
ATOM     67  O   UNL A   1      48.238  25.262  37.184  1.00  0.00    -0.237 OA
ATOM     68  O   UNL A   1      49.201  27.439  37.827  1.00  0.00    -0.744 OA
ENDBRANCH  64  65
ENDBRANCH  43  57
BRANCH  44  69
ATOM     69  C   UNL A   1      37.022  32.927  30.928  1.00  0.00     0.058 A 
ATOM     70  C   UNL A   1      35.710  32.539  31.237  1.00  0.00     0.135 A 
ATOM     71  C   UNL A   1      37.196  33.919  29.951  1.00  0.00     0.135 A 
ATOM     72  F   UNL A   1      35.491  31.589  32.160  1.00  0.00    -0.206 F 
ATOM     73  C   UNL A   1      34.612  33.099  30.591  1.00  0.00     0.059 A 
ATOM     74  C   UNL A   1      36.114  34.514  29.311  1.00  0.00     0.059 A 
ATOM     75  F   UNL A   1      38.430  34.339  29.630  1.00  0.00    -0.206 F 
ATOM     76  C   UNL A   1      34.824  34.090  29.631  1.00  0.00     0.060 A 
BRANCH  76  77
ATOM     77  S   UNL A   1      33.389  34.845  28.836  1.00  0.00     0.124 S 
ATOM     78  O   UNL A   1      32.460  34.961  29.954  1.00  0.00    -0.237 OA
ATOM     79  O   UNL A   1      33.944  36.097  28.332  1.00  0.00    -0.237 OA
ATOM     80  O   UNL A   1      33.024  33.873  27.810  1.00  0.00    -0.744 OA
ENDBRANCH  76  77
ENDBRANCH  44  69
BRANCH  56  81
ATOM     81  C   UNL A   1      39.790  33.732  37.288  1.00  0.00     0.058 A 
ATOM     82  C   UNL A   1      38.905  33.335  38.304  1.00  0.00     0.135 A 
ATOM     83  C   UNL A   1      40.401  34.991  37.408  1.00  0.00     0.135 A 
ATOM     84  F   UNL A   1      38.289  32.144  38.235  1.00  0.00    -0.206 F 
ATOM     85  C   UNL A   1      38.621  34.164  39.383  1.00  0.00     0.059 A 
ATOM     86  C   UNL A   1      40.154  35.823  38.494  1.00  0.00     0.059 A 
ATOM     87  F   UNL A   1      41.264  35.417  36.470  1.00  0.00    -0.206 F 
ATOM     88  C   UNL A   1      39.253  35.406  39.472  1.00  0.00     0.060 A 
BRANCH  88  89
ATOM     89  S   UNL A   1      38.899  36.457  40.897  1.00  0.00     0.124 S 
ATOM     90  O   UNL A   1      40.200  36.506  41.556  1.00  0.00    -0.237 OA
ATOM     91  O   UNL A   1      38.461  37.698  40.267  1.00  0.00    -0.237 OA
ATOM     92  O   UNL A   1      37.859  35.723  41.612  1.00  0.00    -0.744 OA
ENDBRANCH  88  89
ENDBRANCH  56  81
ENDBRANCH  30  31
ENDBRANCH  22  25
ENDBRANCH  20  21
ENDBRANCH   1  20
TORSDOF 16
ENDMDL
MODEL 2
REMARK VINA RESULT:     -10.8      0.569      8.459
REMARK SMILES Cc1cscc1-c1noc(SCC(=O)NCCCNC(=O)c2ccc(-c3c4nc(c(-c5c(F)cc(S(=O)(=O)[O-])cc5F)c5ccc([nH]5)c(-c5c(F)cc(S(=O)(=O)[O-])cc5F)c5nc(c(-c6c(F)cc(S(=O)(=O)[O-])cc6F)c6ccc3[nH]6)C=C5)C=C4)cc2)n1
REMARK SMILES IDX 17 1 16 2 15 3 13 4 14 5 12 7 11 8 10 9 7 10 8 11 88 12 9 13
REMARK SMILES IDX 6 14 1 15 2 16 3 17 4 18 5 19 18 20 19 21 20 22 21 24 22 25
REMARK SMILES IDX 23 26 87 27 24 28 86 29 25 30 26 31 27 32 80 33 28 34 85 35
REMARK SMILES IDX 79 36 81 37 29 38 84 39 78 40 77 41 30 43 64 44 43 45 63 46
REMARK SMILES IDX 44 47 47 48 62 49 82 50 45 51 46 52 61 54 83 55 48 56 31 57
REMARK SMILES IDX 32 58 41 59 33 60 34 61 40 62 42 63 35 64 36 65 37 66 38 67
REMARK SMILES IDX 39 68 65 69 66 70 75 71 67 72 68 73 74 74 76 75 69 76 70 77
REMARK SMILES IDX 71 78 72 79 73 80 49 81 50 82 59 83 51 84 52 85 58 86 60 87
REMARK SMILES IDX 53 88 54 89 55 90 56 91 57 92
REMARK H PARENT 15 6 19 23 81 42 47 53
REMARK Flexibility Score: inf
ROOT
ATOM      1  C   UNL A   1      44.582  22.980  26.850  1.00  0.00     0.042 C 
ENDROOT
BRANCH   1   2
ATOM      2  C   UNL A   1      44.842  22.554  25.407  1.00  0.00     0.117 C 
BRANCH   2   3
ATOM      3  N   UNL A   1      45.793  21.459  25.328  1.00  0.00    -0.355 N 
ATOM      4  C   UNL A   1      45.600  20.145  25.017  1.00  0.00     0.230 C 
ATOM      5  O   UNL A   1      46.599  19.422  24.975  1.00  0.00    -0.274 OA
ATOM      6  H   UNL A   1      46.724  21.705  25.530  1.00  0.00     0.163 HD
BRANCH   4   7
ATOM      7  C   UNL A   1      44.236  19.627  24.605  1.00  0.00     0.179 C 
BRANCH   7   8
ATOM      8  S   UNL A   1      43.459  18.522  25.803  1.00  0.00    -0.055 SA
BRANCH   8   9
ATOM      9  C   UNL A   1      42.122  19.458  26.388  1.00  0.00     0.286 A 
ATOM     10  C   UNL A   1      40.453  20.700  26.574  1.00  0.00     0.204 A 
ATOM     11  N   UNL A   1      40.807  20.489  27.845  1.00  0.00    -0.056 NA
ATOM     12  N   UNL A   1      41.243  20.081  25.639  1.00  0.00    -0.181 NA
ATOM     13  O   UNL A   1      41.905  19.640  27.727  1.00  0.00    -0.327 OA
BRANCH  10  14
ATOM     14  C   UNL A   1      39.372  21.601  26.175  1.00  0.00     0.036 A 
ATOM     15  C   UNL A   1      37.953  19.811  24.914  1.00  0.00     0.046 C 
ATOM     16  C   UNL A   1      38.228  21.197  25.402  1.00  0.00    -0.029 A 
ATOM     17  C   UNL A   1      37.383  22.273  25.192  1.00  0.00     0.069 A 
ATOM     18  S   UNL A   1      37.946  23.720  25.906  1.00  0.00    -0.151 S 
ATOM     19  C   UNL A   1      39.327  22.934  26.528  1.00  0.00     0.077 A 
ENDBRANCH  10  14
ENDBRANCH   8   9
ENDBRANCH   7   8
ENDBRANCH   4   7
ENDBRANCH   2   3
ENDBRANCH   1   2
BRANCH   1  20
ATOM     20  C   UNL A   1      43.157  23.461  27.112  1.00  0.00     0.118 C 
BRANCH  20  21
ATOM     21  N   UNL A   1      42.623  24.263  26.021  1.00  0.00    -0.352 N 
ATOM     22  C   UNL A   1      41.918  25.440  26.053  1.00  0.00     0.251 C 
ATOM     23  H   UNL A   1      42.794  23.905  25.120  1.00  0.00     0.163 HD
ATOM     24  O   UNL A   1      41.403  25.858  25.015  1.00  0.00    -0.269 OA
BRANCH  22  25
ATOM     25  C   UNL A   1      41.754  26.195  27.316  1.00  0.00     0.039 A 
ATOM     26  C   UNL A   1      42.633  27.245  27.591  1.00  0.00     0.014 A 
ATOM     27  C   UNL A   1      40.759  25.860  28.238  1.00  0.00     0.014 A 
ATOM     28  C   UNL A   1      42.473  28.001  28.756  1.00  0.00     0.010 A 
ATOM     29  C   UNL A   1      40.552  26.661  29.360  1.00  0.00     0.010 A 
ATOM     30  C   UNL A   1      41.407  27.740  29.632  1.00  0.00    -0.014 A 
BRANCH  30  31
ATOM     31  C   UNL A   1      41.164  28.593  30.826  1.00  0.00     0.031 A 
ATOM     32  C   UNL A   1      40.061  29.617  30.822  1.00  0.00     0.074 A 
ATOM     33  C   UNL A   1      41.981  28.488  31.895  1.00  0.00     0.049 A 
ATOM     34  N   UNL A   1      39.745  30.495  31.740  1.00  0.00    -0.248 NA
ATOM     35  C   UNL A   1      39.219  29.683  29.617  1.00  0.00     0.031 C 
ATOM     36  C   UNL A   1      43.115  27.567  32.004  1.00  0.00     0.029 A 
ATOM     37  N   UNL A   1      41.993  29.169  33.088  1.00  0.00    -0.354 N 
ATOM     38  C   UNL A   1      38.679  31.222  31.222  1.00  0.00     0.074 A 
ATOM     39  C   UNL A   1      38.437  30.718  29.887  1.00  0.00     0.031 C 
ATOM     40  C   UNL A   1      43.699  27.727  33.203  1.00  0.00     0.029 A 
ATOM     41  C   UNL A   1      43.012  28.789  33.931  1.00  0.00     0.049 A 
ATOM     42  H   UNL A   1      41.335  29.864  33.317  1.00  0.00     0.167 HD
ATOM     43  C   UNL A   1      37.957  32.205  31.811  1.00  0.00     0.037 A 
ATOM     44  C   UNL A   1      43.363  29.251  35.147  1.00  0.00     0.037 A 
ATOM     45  C   UNL A   1      38.191  32.689  33.148  1.00  0.00     0.049 A 
ATOM     46  C   UNL A   1      42.550  30.349  35.778  1.00  0.00     0.074 A 
ATOM     47  C   UNL A   1      37.477  33.639  33.856  1.00  0.00     0.029 A 
ATOM     48  N   UNL A   1      39.221  32.266  33.977  1.00  0.00    -0.354 N 
ATOM     49  N   UNL A   1      41.504  30.978  35.299  1.00  0.00    -0.248 NA
ATOM     50  C   UNL A   1      42.960  30.796  37.116  1.00  0.00     0.031 C 
ATOM     51  C   UNL A   1      38.104  33.830  35.091  1.00  0.00     0.029 A 
ATOM     52  C   UNL A   1      39.175  32.955  35.178  1.00  0.00     0.049 A 
ATOM     53  H   UNL A   1      39.886  31.578  33.745  1.00  0.00     0.167 HD
ATOM     54  C   UNL A   1      41.113  31.875  36.288  1.00  0.00     0.074 A 
ATOM     55  C   UNL A   1      42.027  31.697  37.397  1.00  0.00     0.031 C 
ATOM     56  C   UNL A   1      40.088  32.763  36.278  1.00  0.00     0.037 A 
BRANCH  43  57
ATOM     57  C   UNL A   1      36.840  32.828  31.016  1.00  0.00     0.058 A 
ATOM     58  C   UNL A   1      35.493  32.522  31.270  1.00  0.00     0.135 A 
ATOM     59  C   UNL A   1      37.116  33.779  30.020  1.00  0.00     0.135 A 
ATOM     60  F   UNL A   1      35.169  31.610  32.201  1.00  0.00    -0.206 F 
ATOM     61  C   UNL A   1      34.462  33.114  30.545  1.00  0.00     0.059 A 
ATOM     62  C   UNL A   1      36.099  34.406  29.305  1.00  0.00     0.059 A 
ATOM     63  F   UNL A   1      38.385  34.111  29.736  1.00  0.00    -0.206 F 
ATOM     64  C   UNL A   1      34.776  34.056  29.566  1.00  0.00     0.060 A 
BRANCH  64  65
ATOM     65  S   UNL A   1      33.426  34.821  28.643  1.00  0.00     0.124 S 
ATOM     66  O   UNL A   1      34.100  35.967  28.039  1.00  0.00    -0.237 OA
ATOM     67  O   UNL A   1      33.037  33.759  27.723  1.00  0.00    -0.237 OA
ATOM     68  O   UNL A   1      32.447  35.144  29.675  1.00  0.00    -0.744 OA
ENDBRANCH  64  65
ENDBRANCH  43  57
BRANCH  44  69
ATOM     69  C   UNL A   1      44.535  28.666  35.853  1.00  0.00     0.058 A 
ATOM     70  C   UNL A   1      44.380  27.594  36.745  1.00  0.00     0.135 A 
ATOM     71  C   UNL A   1      45.833  29.154  35.640  1.00  0.00     0.135 A 
ATOM     72  F   UNL A   1      43.158  27.094  36.988  1.00  0.00    -0.206 F 
ATOM     73  C   UNL A   1      45.466  27.039  37.415  1.00  0.00     0.059 A 
ATOM     74  C   UNL A   1      46.939  28.598  36.276  1.00  0.00     0.059 A 
ATOM     75  F   UNL A   1      46.038  30.168  34.784  1.00  0.00    -0.206 F 
ATOM     76  C   UNL A   1      46.744  27.546  37.169  1.00  0.00     0.060 A 
BRANCH  76  77
ATOM     77  S   UNL A   1      48.152  26.783  38.004  1.00  0.00     0.124 S 
ATOM     78  O   UNL A   1      49.263  27.223  37.170  1.00  0.00    -0.237 OA
ATOM     79  O   UNL A   1      48.076  27.378  39.334  1.00  0.00    -0.237 OA
ATOM     80  O   UNL A   1      47.844  25.357  37.946  1.00  0.00    -0.744 OA
ENDBRANCH  76  77
ENDBRANCH  44  69
BRANCH  56  81
ATOM     81  C   UNL A   1      39.873  33.589  37.519  1.00  0.00     0.058 A 
ATOM     82  C   UNL A   1      40.541  34.807  37.725  1.00  0.00     0.135 A 
ATOM     83  C   UNL A   1      38.942  33.181  38.489  1.00  0.00     0.135 A 
ATOM     84  F   UNL A   1      41.445  35.241  36.833  1.00  0.00    -0.206 F 
ATOM     85  C   UNL A   1      40.312  35.576  38.860  1.00  0.00     0.059 A 
ATOM     86  C   UNL A   1      38.676  33.950  39.616  1.00  0.00     0.059 A 
ATOM     87  F   UNL A   1      38.268  32.029  38.337  1.00  0.00    -0.206 F 
ATOM     88  C   UNL A   1      39.375  35.142  39.800  1.00  0.00     0.060 A 
BRANCH  88  89
ATOM     89  S   UNL A   1      39.063  36.169  41.252  1.00  0.00     0.124 S 
ATOM     90  O   UNL A   1      40.287  35.972  42.020  1.00  0.00    -0.237 OA
ATOM     91  O   UNL A   1      38.891  37.494  40.664  1.00  0.00    -0.237 OA
ATOM     92  O   UNL A   1      37.857  35.584  41.830  1.00  0.00    -0.744 OA
ENDBRANCH  88  89
ENDBRANCH  56  81
ENDBRANCH  30  31
ENDBRANCH  22  25
ENDBRANCH  20  21
ENDBRANCH   1  20
TORSDOF 16
ENDMDL
MODEL 3
REMARK VINA RESULT:     -10.8      4.701     12.588
REMARK SMILES Cc1cscc1-c1noc(SCC(=O)NCCCNC(=O)c2ccc(-c3c4nc(c(-c5c(F)cc(S(=O)(=O)[O-])cc5F)c5ccc([nH]5)c(-c5c(F)cc(S(=O)(=O)[O-])cc5F)c5nc(c(-c6c(F)cc(S(=O)(=O)[O-])cc6F)c6ccc3[nH]6)C=C5)C=C4)cc2)n1
REMARK SMILES IDX 17 1 16 2 15 3 13 4 14 5 12 7 11 8 10 9 7 10 8 11 88 12 9 13
REMARK SMILES IDX 6 14 1 15 2 16 3 17 4 18 5 19 18 20 19 21 20 22 21 24 22 25
REMARK SMILES IDX 23 26 87 27 24 28 86 29 25 30 26 31 27 32 80 33 28 34 85 35
REMARK SMILES IDX 79 36 81 37 29 38 84 39 78 40 77 41 30 43 64 44 43 45 63 46
REMARK SMILES IDX 44 47 47 48 62 49 82 50 45 51 46 52 61 54 83 55 48 56 31 57
REMARK SMILES IDX 32 58 41 59 33 60 34 61 40 62 42 63 35 64 36 65 37 66 38 67
REMARK SMILES IDX 39 68 65 69 66 70 75 71 67 72 68 73 74 74 76 75 69 76 70 77
REMARK SMILES IDX 71 78 72 79 73 80 49 81 50 82 59 83 51 84 52 85 58 86 60 87
REMARK SMILES IDX 53 88 54 89 55 90 56 91 57 92
REMARK H PARENT 15 6 19 23 81 42 47 53
REMARK Flexibility Score: inf
ROOT
ATOM      1  C   UNL A   1      33.522  33.615  28.415  1.00  0.00     0.042 C 
ENDROOT
BRANCH   1   2
ATOM      2  C   UNL A   1      34.082  34.887  29.045  1.00  0.00     0.117 C 
BRANCH   2   3
ATOM      3  N   UNL A   1      33.086  35.579  29.845  1.00  0.00    -0.355 N 
ATOM      4  C   UNL A   1      33.052  35.831  31.185  1.00  0.00     0.230 C 
ATOM      5  O   UNL A   1      32.100  36.489  31.613  1.00  0.00    -0.274 OA
ATOM      6  H   UNL A   1      32.314  35.921  29.340  1.00  0.00     0.163 HD
BRANCH   4   7
ATOM      7  C   UNL A   1      34.205  35.437  32.089  1.00  0.00     0.179 C 
BRANCH   7   8
ATOM      8  S   UNL A   1      34.047  33.802  32.838  1.00  0.00    -0.055 SA
BRANCH   8   9
ATOM      9  C   UNL A   1      35.565  33.053  32.465  1.00  0.00     0.286 A 
ATOM     10  C   UNL A   1      37.430  32.116  32.548  1.00  0.00     0.204 A 
ATOM     11  N   UNL A   1      37.311  32.420  31.252  1.00  0.00    -0.056 NA
ATOM     12  N   UNL A   1      36.373  32.492  33.335  1.00  0.00    -0.181 NA
ATOM     13  O   UNL A   1      36.056  33.023  31.188  1.00  0.00    -0.327 OA
BRANCH  10  14
ATOM     14  C   UNL A   1      38.632  31.518  33.129  1.00  0.00     0.036 A 
ATOM     15  C   UNL A   1      39.889  33.760  33.568  1.00  0.00     0.046 C 
ATOM     16  C   UNL A   1      39.768  32.271  33.588  1.00  0.00    -0.029 A 
ATOM     17  C   UNL A   1      40.740  31.422  34.089  1.00  0.00     0.069 A 
ATOM     18  S   UNL A   1      40.296  29.773  34.013  1.00  0.00    -0.151 S 
ATOM     19  C   UNL A   1      38.784  30.160  33.323  1.00  0.00     0.077 A 
ENDBRANCH  10  14
ENDBRANCH   8   9
ENDBRANCH   7   8
ENDBRANCH   4   7
ENDBRANCH   2   3
ENDBRANCH   1   2
BRANCH   1  20
ATOM     20  C   UNL A   1      34.548  32.497  28.246  1.00  0.00     0.118 C 
BRANCH  20  21
ATOM     21  N   UNL A   1      33.933  31.189  28.066  1.00  0.00    -0.352 N 
ATOM     22  C   UNL A   1      34.509  29.946  27.990  1.00  0.00     0.251 C 
ATOM     23  H   UNL A   1      32.952  31.199  27.988  1.00  0.00     0.163 HD
ATOM     24  O   UNL A   1      33.816  28.985  27.654  1.00  0.00    -0.269 OA
BRANCH  22  25
ATOM     25  C   UNL A   1      35.946  29.754  28.283  1.00  0.00     0.039 A 
ATOM     26  C   UNL A   1      36.323  29.345  29.565  1.00  0.00     0.014 A 
ATOM     27  C   UNL A   1      36.924  29.996  27.314  1.00  0.00     0.014 A 
ATOM     28  C   UNL A   1      37.671  29.115  29.855  1.00  0.00     0.010 A 
ATOM     29  C   UNL A   1      38.259  29.692  27.582  1.00  0.00     0.010 A 
ATOM     30  C   UNL A   1      38.647  29.249  28.855  1.00  0.00    -0.014 A 
BRANCH  30  31
ATOM     31  C   UNL A   1      40.073  28.917  29.120  1.00  0.00     0.031 A 
ATOM     32  C   UNL A   1      41.004  29.951  29.694  1.00  0.00     0.074 A 
ATOM     33  C   UNL A   1      40.544  27.699  28.782  1.00  0.00     0.049 A 
ATOM     34  N   UNL A   1      42.289  29.866  29.927  1.00  0.00    -0.248 NA
ATOM     35  C   UNL A   1      40.421  31.260  30.026  1.00  0.00     0.031 C 
ATOM     36  C   UNL A   1      39.755  26.625  28.174  1.00  0.00     0.029 A 
ATOM     37  N   UNL A   1      41.804  27.161  28.888  1.00  0.00    -0.354 N 
ATOM     38  C   UNL A   1      42.670  31.109  30.420  1.00  0.00     0.074 A 
ATOM     39  C   UNL A   1      41.490  31.947  30.403  1.00  0.00     0.031 C 
ATOM     40  C   UNL A   1      40.541  25.555  27.981  1.00  0.00     0.029 A 
ATOM     41  C   UNL A   1      41.899  25.875  28.408  1.00  0.00     0.049 A 
ATOM     42  H   UNL A   1      42.567  27.650  29.272  1.00  0.00     0.167 HD
ATOM     43  C   UNL A   1      43.885  31.509  30.864  1.00  0.00     0.037 A 
ATOM     44  C   UNL A   1      42.961  25.052  28.308  1.00  0.00     0.037 A 
ATOM     45  C   UNL A   1      45.052  30.664  30.896  1.00  0.00     0.049 A 
ATOM     46  C   UNL A   1      44.303  25.522  28.801  1.00  0.00     0.074 A 
ATOM     47  C   UNL A   1      46.313  30.958  31.383  1.00  0.00     0.029 A 
ATOM     48  N   UNL A   1      45.103  29.362  30.417  1.00  0.00    -0.354 N 
ATOM     49  N   UNL A   1      44.628  26.679  29.327  1.00  0.00    -0.248 NA
ATOM     50  C   UNL A   1      45.420  24.574  28.695  1.00  0.00     0.031 C 
ATOM     51  C   UNL A   1      47.141  29.855  31.151  1.00  0.00     0.029 A 
ATOM     52  C   UNL A   1      46.381  28.850  30.574  1.00  0.00     0.049 A 
ATOM     53  H   UNL A   1      44.344  28.875  30.024  1.00  0.00     0.167 HD
ATOM     54  C   UNL A   1      45.981  26.588  29.640  1.00  0.00     0.074 A 
ATOM     55  C   UNL A   1      46.408  25.258  29.257  1.00  0.00     0.031 C 
ATOM     56  C   UNL A   1      46.793  27.521  30.195  1.00  0.00     0.037 A 
BRANCH  43  57
ATOM     57  C   UNL A   1      44.022  32.927  31.354  1.00  0.00     0.058 A 
ATOM     58  C   UNL A   1      44.188  34.001  30.465  1.00  0.00     0.135 A 
ATOM     59  C   UNL A   1      43.940  33.221  32.725  1.00  0.00     0.135 A 
ATOM     60  F   UNL A   1      44.288  33.779  29.145  1.00  0.00    -0.206 F 
ATOM     61  C   UNL A   1      44.296  35.312  30.920  1.00  0.00     0.059 A 
ATOM     62  C   UNL A   1      44.014  34.528  33.199  1.00  0.00     0.059 A 
ATOM     63  F   UNL A   1      43.780  32.234  33.619  1.00  0.00    -0.206 F 
ATOM     64  C   UNL A   1      44.206  35.566  32.289  1.00  0.00     0.060 A 
BRANCH  64  65
ATOM     65  S   UNL A   1      44.338  37.273  32.859  1.00  0.00     0.124 S 
ATOM     66  O   UNL A   1      44.584  37.979  31.605  1.00  0.00    -0.237 OA
ATOM     67  O   UNL A   1      43.031  37.500  33.466  1.00  0.00    -0.237 OA
ATOM     68  O   UNL A   1      45.461  37.237  33.789  1.00  0.00    -0.744 OA
ENDBRANCH  64  65
ENDBRANCH  43  57
BRANCH  44  69
ATOM     69  C   UNL A   1      42.793  23.692  27.728  1.00  0.00     0.058 A 
ATOM     70  C   UNL A   1      42.546  22.582  28.549  1.00  0.00     0.135 A 
ATOM     71  C   UNL A   1      42.862  23.476  26.344  1.00  0.00     0.135 A 
ATOM     72  F   UNL A   1      42.476  22.734  29.881  1.00  0.00    -0.206 F 
ATOM     73  C   UNL A   1      42.389  21.304  28.021  1.00  0.00     0.059 A 
ATOM     74  C   UNL A   1      42.682  22.213  25.788  1.00  0.00     0.059 A 
ATOM     75  F   UNL A   1      43.081  24.508  25.512  1.00  0.00    -0.206 F 
ATOM     76  C   UNL A   1      42.455  21.131  26.637  1.00  0.00     0.060 A 
BRANCH  76  77
ATOM     77  S   UNL A   1      42.200  19.476  25.960  1.00  0.00     0.124 S 
ATOM     78  O   UNL A   1      40.759  19.468  25.737  1.00  0.00    -0.237 OA
ATOM     79  O   UNL A   1      43.032  19.505  24.762  1.00  0.00    -0.237 OA
ATOM     80  O   UNL A   1      42.679  18.600  27.025  1.00  0.00    -0.744 OA
ENDBRANCH  76  77
ENDBRANCH  44  69
BRANCH  56  81
ATOM     81  C   UNL A   1      48.222  27.128  30.460  1.00  0.00     0.058 A 
ATOM     82  C   UNL A   1      49.267  27.506  29.603  1.00  0.00     0.135 A 
ATOM     83  C   UNL A   1      48.556  26.410  31.621  1.00  0.00     0.135 A 
ATOM     84  F   UNL A   1      49.004  28.189  28.477  1.00  0.00    -0.206 F 
ATOM     85  C   UNL A   1      50.588  27.164  29.873  1.00  0.00     0.059 A 
ATOM     86  C   UNL A   1      49.873  26.083  31.926  1.00  0.00     0.059 A 
ATOM     87  F   UNL A   1      47.597  26.031  32.482  1.00  0.00    -0.206 F 
ATOM     88  C   UNL A   1      50.882  26.455  31.039  1.00  0.00     0.060 A 
BRANCH  88  89
ATOM     89  S   UNL A   1      52.605  26.048  31.394  1.00  0.00     0.124 S 
ATOM     90  O   UNL A   1      53.003  27.166  32.242  1.00  0.00    -0.237 OA
ATOM     91  O   UNL A   1      52.489  24.756  32.061  1.00  0.00    -0.237 OA
ATOM     92  O   UNL A   1      53.225  26.011  30.072  1.00  0.00    -0.744 OA
ENDBRANCH  88  89
ENDBRANCH  56  81
ENDBRANCH  30  31
ENDBRANCH  22  25
ENDBRANCH  20  21
ENDBRANCH   1  20
TORSDOF 16
ENDMDL
