MODEL 1
REMARK VINA RESULT:     -12.6      0.000      0.000
REMARK SMILES CNc1nc(C(=O)N2C[C@@H](C(=O)NCCCNC(=O)c3ccc(-c4c5nc(c(-c6c(F)cc(S(=O)(=O)[O-])cc6F)c6ccc([nH]6)c(-c6c(F)cc(S(=O)(=O)[O-])cc6F)c6nc(c(-c7c(F)cc(S(=O)(=O)[O-])cc7F)c7ccc4[nH]7)C=C6)C=C5)cc3)[C@H](c3ccccc3C)C2)cs1
REMARK SMILES IDX 15 1 14 2 13 3 11 4 12 5 10 7 8 8 9 9 94 10 86 11 6 12 7 13
REMARK SMILES IDX 5 14 3 15 4 16 96 17 95 18 2 19 1 20 87 22 88 23 92 24 89 25
REMARK SMILES IDX 91 26 93 27 90 28 16 29 17 30 18 31 19 33 20 34 21 35 85 36
REMARK SMILES IDX 22 37 84 38 23 39 24 40 25 41 78 42 26 43 83 44 77 45 79 46
REMARK SMILES IDX 27 47 82 48 76 49 75 50 28 52 62 53 41 54 61 55 42 56 45 57
REMARK SMILES IDX 60 58 80 59 43 60 44 61 59 63 81 64 46 65 29 66 30 67 39 68
REMARK SMILES IDX 31 69 32 70 38 71 40 72 33 73 34 74 35 75 36 76 37 77 63 78
REMARK SMILES IDX 64 79 73 80 65 81 66 82 72 83 74 84 67 85 68 86 69 87 70 88
REMARK SMILES IDX 71 89 47 90 48 91 57 92 49 93 50 94 56 95 58 96 51 97 52 98
REMARK SMILES IDX 53 99 54 100 55 101
REMARK H PARENT 13 6 2 21 17 32 79 51 45 62
REMARK Flexibility Score: inf
ROOT
ATOM      1  C   UNL A   1      37.704  23.425  25.573  1.00  0.00     0.042 C 
ENDROOT
BRANCH   1   2
ATOM      2  C   UNL A   1      36.220  23.724  25.778  1.00  0.00     0.117 C 
BRANCH   2   3
ATOM      3  N   UNL A   1      35.639  22.736  26.671  1.00  0.00    -0.356 N 
ATOM      4  C   UNL A   1      34.329  22.521  26.983  1.00  0.00     0.225 C 
ATOM      5  O   UNL A   1      34.079  21.889  28.009  1.00  0.00    -0.275 OA
ATOM      6  H   UNL A   1      36.282  22.138  27.115  1.00  0.00     0.163 HD
BRANCH   4   7
ATOM      7  C   UNL A   1      33.256  23.013  26.035  1.00  0.00     0.107 C 
ATOM      8  N   UNL A   1      31.239  24.151  26.157  1.00  0.00    -0.336 N 
ATOM      9  C   UNL A   1      32.562  24.187  26.710  1.00  0.00     0.134 C 
ATOM     10  C   UNL A   1      30.812  22.775  26.058  1.00  0.00     0.129 C 
ATOM     11  C   UNL A   1      32.122  21.961  25.760  1.00  0.00     0.053 C 
BRANCH   8  12
ATOM     12  C   UNL A   1      30.473  25.228  25.752  1.00  0.00     0.273 C 
ATOM     13  O   UNL A   1      29.381  25.483  26.253  1.00  0.00    -0.267 OA
BRANCH  12  14
ATOM     14  C   UNL A   1      30.992  26.005  24.614  1.00  0.00     0.141 A 
ATOM     15  C   UNL A   1      31.478  26.318  22.457  1.00  0.00     0.183 A 
ATOM     16  N   UNL A   1      31.161  25.418  23.354  1.00  0.00    -0.215 NA
ATOM     17  S   UNL A   1      31.724  27.902  23.084  1.00  0.00    -0.105 S 
ATOM     18  C   UNL A   1      31.241  27.363  24.638  1.00  0.00     0.102 A 
BRANCH  15  19
ATOM     19  N   UNL A   1      31.580  26.084  21.135  1.00  0.00    -0.365 N 
ATOM     20  C   UNL A   1      32.665  25.302  20.599  1.00  0.00     0.142 C 
ATOM     21  H   UNL A   1      30.902  26.454  20.523  1.00  0.00     0.162 HD
ENDBRANCH  15  19
ENDBRANCH  12  14
ENDBRANCH   8  12
BRANCH  11  22
ATOM     22  C   UNL A   1      32.223  21.217  24.402  1.00  0.00    -0.039 A 
ATOM     23  C   UNL A   1      31.929  21.894  23.197  1.00  0.00     0.004 A 
ATOM     24  C   UNL A   1      32.486  19.821  24.286  1.00  0.00    -0.048 A 
ATOM     25  C   UNL A   1      31.857  21.242  21.958  1.00  0.00     0.000 A 
ATOM     26  C   UNL A   1      32.409  19.184  23.024  1.00  0.00     0.004 A 
ATOM     27  C   UNL A   1      32.769  18.885  25.430  1.00  0.00     0.044 C 
ATOM     28  C   UNL A   1      32.092  19.884  21.870  1.00  0.00     0.000 A 
ENDBRANCH  11  22
ENDBRANCH   4   7
ENDBRANCH   2   3
ENDBRANCH   1   2
BRANCH   1  29
ATOM     29  C   UNL A   1      38.613  24.340  26.393  1.00  0.00     0.118 C 
BRANCH  29  30
ATOM     30  N   UNL A   1      40.018  23.991  26.240  1.00  0.00    -0.352 N 
ATOM     31  C   UNL A   1      41.125  24.642  26.721  1.00  0.00     0.251 C 
ATOM     32  H   UNL A   1      40.198  23.173  25.721  1.00  0.00     0.163 HD
ATOM     33  O   UNL A   1      42.242  24.328  26.320  1.00  0.00    -0.269 OA
BRANCH  31  34
ATOM     34  C   UNL A   1      40.964  25.730  27.709  1.00  0.00     0.039 A 
ATOM     35  C   UNL A   1      39.898  25.674  28.610  1.00  0.00     0.014 A 
ATOM     36  C   UNL A   1      41.859  26.804  27.738  1.00  0.00     0.014 A 
ATOM     37  C   UNL A   1      39.761  26.670  29.579  1.00  0.00     0.010 A 
ATOM     38  C   UNL A   1      41.756  27.762  28.742  1.00  0.00     0.010 A 
ATOM     39  C   UNL A   1      40.706  27.705  29.672  1.00  0.00    -0.014 A 
BRANCH  39  40
ATOM     40  C   UNL A   1      40.620  28.737  30.735  1.00  0.00     0.031 A 
ATOM     41  C   UNL A   1      41.498  28.640  31.952  1.00  0.00     0.074 A 
ATOM     42  C   UNL A   1      39.698  29.715  30.639  1.00  0.00     0.049 A 
ATOM     43  N   UNL A   1      41.500  29.379  33.030  1.00  0.00    -0.248 NA
ATOM     44  C   UNL A   1      42.489  27.551  31.968  1.00  0.00     0.031 C 
ATOM     45  C   UNL A   1      38.763  29.889  29.525  1.00  0.00     0.029 A 
ATOM     46  N   UNL A   1      39.381  30.737  31.499  1.00  0.00    -0.354 N 
ATOM     47  C   UNL A   1      42.474  28.838  33.859  1.00  0.00     0.074 A 
ATOM     48  C   UNL A   1      43.013  27.681  33.178  1.00  0.00     0.031 C 
ATOM     49  C   UNL A   1      37.987  30.959  29.764  1.00  0.00     0.029 A 
ATOM     50  C   UNL A   1      38.340  31.523  31.064  1.00  0.00     0.049 A 
ATOM     51  H   UNL A   1      39.856  30.893  32.347  1.00  0.00     0.167 HD
ATOM     52  C   UNL A   1      42.893  29.277  35.070  1.00  0.00     0.037 A 
ATOM     53  C   UNL A   1      37.729  32.569  31.653  1.00  0.00     0.037 A 
ATOM     54  C   UNL A   1      42.368  30.445  35.729  1.00  0.00     0.049 A 
ATOM     55  C   UNL A   1      38.209  33.035  33.000  1.00  0.00     0.074 A 
ATOM     56  C   UNL A   1      42.765  31.006  36.931  1.00  0.00     0.029 A 
ATOM     57  N   UNL A   1      41.332  31.229  35.245  1.00  0.00    -0.354 N 
ATOM     58  N   UNL A   1      39.171  32.546  33.745  1.00  0.00    -0.248 NA
ATOM     59  C   UNL A   1      37.524  34.197  33.586  1.00  0.00     0.031 C 
ATOM     60  C   UNL A   1      41.942  32.106  37.192  1.00  0.00     0.029 A 
ATOM     61  C   UNL A   1      41.063  32.258  36.132  1.00  0.00     0.049 A 
ATOM     62  H   UNL A   1      40.857  31.077  34.396  1.00  0.00     0.167 HD
ATOM     63  C   UNL A   1      39.227  33.357  34.874  1.00  0.00     0.074 A 
ATOM     64  C   UNL A   1      38.206  34.371  34.710  1.00  0.00     0.031 C 
ATOM     65  C   UNL A   1      40.051  33.269  35.947  1.00  0.00     0.037 A 
BRANCH  52  66
ATOM     66  C   UNL A   1      43.976  28.494  35.761  1.00  0.00     0.058 A 
ATOM     67  C   UNL A   1      45.335  28.785  35.567  1.00  0.00     0.135 A 
ATOM     68  C   UNL A   1      43.651  27.461  36.656  1.00  0.00     0.135 A 
ATOM     69  F   UNL A   1      45.704  29.752  34.711  1.00  0.00    -0.206 F 
ATOM     70  C   UNL A   1      46.334  28.062  36.210  1.00  0.00     0.059 A 
ATOM     71  C   UNL A   1      44.633  26.743  37.333  1.00  0.00     0.059 A 
ATOM     72  F   UNL A   1      42.366  27.140  36.880  1.00  0.00    -0.206 F 
ATOM     73  C   UNL A   1      45.973  27.041  37.092  1.00  0.00     0.060 A 
BRANCH  73  74
ATOM     74  S   UNL A   1      47.281  26.116  37.920  1.00  0.00     0.124 S 
ATOM     75  O   UNL A   1      48.270  27.162  38.161  1.00  0.00    -0.237 OA
ATOM     76  O   UNL A   1      46.601  25.604  39.105  1.00  0.00    -0.237 OA
ATOM     77  O   UNL A   1      47.662  25.109  36.935  1.00  0.00    -0.744 OA
ENDBRANCH  73  74
ENDBRANCH  52  66
BRANCH  53  78
ATOM     78  C   UNL A   1      36.606  33.256  30.961  1.00  0.00     0.058 A 
ATOM     79  C   UNL A   1      35.288  33.122  31.419  1.00  0.00     0.135 A 
ATOM     80  C   UNL A   1      36.830  34.072  29.841  1.00  0.00     0.135 A 
ATOM     81  F   UNL A   1      35.023  32.348  32.483  1.00  0.00    -0.206 F 
ATOM     82  C   UNL A   1      34.227  33.763  30.787  1.00  0.00     0.059 A 
ATOM     83  C   UNL A   1      35.789  34.743  29.205  1.00  0.00     0.059 A 
ATOM     84  F   UNL A   1      38.076  34.248  29.374  1.00  0.00    -0.206 F 
ATOM     85  C   UNL A   1      34.489  34.573  29.681  1.00  0.00     0.060 A 
BRANCH  85  86
ATOM     86  S   UNL A   1      33.112  35.442  28.899  1.00  0.00     0.124 S 
ATOM     87  O   UNL A   1      32.508  34.378  28.104  1.00  0.00    -0.237 OA
ATOM     88  O   UNL A   1      32.340  35.895  30.051  1.00  0.00    -0.237 OA
ATOM     89  O   UNL A   1      33.772  36.501  28.140  1.00  0.00    -0.744 OA
ENDBRANCH  85  86
ENDBRANCH  53  78
BRANCH  65  90
ATOM     90  C   UNL A   1      39.915  34.317  37.016  1.00  0.00     0.058 A 
ATOM     91  C   UNL A   1      40.561  35.558  36.917  1.00  0.00     0.135 A 
ATOM     92  C   UNL A   1      39.069  34.101  38.116  1.00  0.00     0.135 A 
ATOM     93  F   UNL A   1      41.388  35.811  35.891  1.00  0.00    -0.206 F 
ATOM     94  C   UNL A   1      40.382  36.547  37.880  1.00  0.00     0.059 A 
ATOM     95  C   UNL A   1      38.854  35.084  39.076  1.00  0.00     0.059 A 
ATOM     96  F   UNL A   1      38.421  32.933  38.251  1.00  0.00    -0.206 F 
ATOM     97  C   UNL A   1      39.521  36.303  38.953  1.00  0.00     0.060 A 
BRANCH  97  98
ATOM     98  S   UNL A   1      39.253  37.615  40.164  1.00  0.00     0.124 S 
ATOM     99  O   UNL A   1      38.165  38.367  39.546  1.00  0.00    -0.237 OA
ATOM    100  O   UNL A   1      38.903  36.865  41.365  1.00  0.00    -0.237 OA
ATOM    101  O   UNL A   1      40.542  38.299  40.213  1.00  0.00    -0.744 OA
ENDBRANCH  97  98
ENDBRANCH  65  90
ENDBRANCH  39  40
ENDBRANCH  31  34
ENDBRANCH  29  30
ENDBRANCH   1  29
TORSDOF 17
ENDMDL
MODEL 2
REMARK VINA RESULT:     -12.6      2.002      3.832
REMARK SMILES CNc1nc(C(=O)N2C[C@@H](C(=O)NCCCNC(=O)c3ccc(-c4c5nc(c(-c6c(F)cc(S(=O)(=O)[O-])cc6F)c6ccc([nH]6)c(-c6c(F)cc(S(=O)(=O)[O-])cc6F)c6nc(c(-c7c(F)cc(S(=O)(=O)[O-])cc7F)c7ccc4[nH]7)C=C6)C=C5)cc3)[C@H](c3ccccc3C)C2)cs1
REMARK SMILES IDX 15 1 14 2 13 3 11 4 12 5 10 7 8 8 9 9 94 10 86 11 6 12 7 13
REMARK SMILES IDX 5 14 3 15 4 16 96 17 95 18 2 19 1 20 87 22 88 23 92 24 89 25
REMARK SMILES IDX 91 26 93 27 90 28 16 29 17 30 18 31 19 33 20 34 21 35 85 36
REMARK SMILES IDX 22 37 84 38 23 39 24 40 25 41 78 42 26 43 83 44 77 45 79 46
REMARK SMILES IDX 27 47 82 48 76 49 75 50 28 52 62 53 41 54 61 55 42 56 45 57
REMARK SMILES IDX 60 58 80 59 43 60 44 61 59 63 81 64 46 65 29 66 30 67 39 68
REMARK SMILES IDX 31 69 32 70 38 71 40 72 33 73 34 74 35 75 36 76 37 77 63 78
REMARK SMILES IDX 64 79 73 80 65 81 66 82 72 83 74 84 67 85 68 86 69 87 70 88
REMARK SMILES IDX 71 89 47 90 48 91 57 92 49 93 50 94 56 95 58 96 51 97 52 98
REMARK SMILES IDX 53 99 54 100 55 101
REMARK H PARENT 13 6 2 21 17 32 79 51 45 62
REMARK Flexibility Score: inf
ROOT
ATOM      1  C   UNL A   1      38.184  23.740  26.642  1.00  0.00     0.042 C 
ENDROOT
BRANCH   1   2
ATOM      2  C   UNL A   1      37.772  22.566  25.754  1.00  0.00     0.117 C 
BRANCH   2   3
ATOM      3  N   UNL A   1      37.598  23.023  24.386  1.00  0.00    -0.356 N 
ATOM      4  C   UNL A   1      36.488  22.972  23.595  1.00  0.00     0.225 C 
ATOM      5  O   UNL A   1      36.644  23.079  22.379  1.00  0.00    -0.275 OA
ATOM      6  H   UNL A   1      38.395  23.424  23.970  1.00  0.00     0.163 HD
BRANCH   4   7
ATOM      7  C   UNL A   1      35.127  22.846  24.245  1.00  0.00     0.107 C 
ATOM      8  N   UNL A   1      33.264  21.473  24.092  1.00  0.00    -0.336 N 
ATOM      9  C   UNL A   1      34.696  21.393  24.113  1.00  0.00     0.134 C 
ATOM     10  C   UNL A   1      32.872  22.615  23.299  1.00  0.00     0.129 C 
ATOM     11  C   UNL A   1      34.003  23.680  23.530  1.00  0.00     0.053 C 
BRANCH   8  12
ATOM     12  C   UNL A   1      32.371  20.632  24.729  1.00  0.00     0.273 C 
ATOM     13  O   UNL A   1      31.426  21.057  25.389  1.00  0.00    -0.267 OA
BRANCH  12  14
ATOM     14  C   UNL A   1      32.667  19.192  24.657  1.00  0.00     0.141 A 
ATOM     15  C   UNL A   1      32.696  17.110  25.463  1.00  0.00     0.183 A 
ATOM     16  N   UNL A   1      32.541  18.370  25.784  1.00  0.00    -0.215 NA
ATOM     17  S   UNL A   1      33.132  16.834  23.820  1.00  0.00    -0.105 S 
ATOM     18  C   UNL A   1      32.969  18.509  23.494  1.00  0.00     0.102 A 
BRANCH  15  19
ATOM     19  N   UNL A   1      32.506  16.073  26.302  1.00  0.00    -0.365 N 
ATOM     20  C   UNL A   1      32.137  14.772  25.805  1.00  0.00     0.142 C 
ATOM     21  H   UNL A   1      32.622  16.207  27.270  1.00  0.00     0.162 HD
ENDBRANCH  15  19
ENDBRANCH  12  14
ENDBRANCH   8  12
BRANCH  11  22
ATOM     22  C   UNL A   1      33.618  25.011  24.230  1.00  0.00    -0.039 A 
ATOM     23  C   UNL A   1      33.406  25.043  25.627  1.00  0.00     0.004 A 
ATOM     24  C   UNL A   1      33.337  26.218  23.527  1.00  0.00    -0.048 A 
ATOM     25  C   UNL A   1      32.912  26.173  26.294  1.00  0.00     0.000 A 
ATOM     26  C   UNL A   1      32.841  27.347  24.222  1.00  0.00     0.004 A 
ATOM     27  C   UNL A   1      33.435  26.408  22.038  1.00  0.00     0.044 C 
ATOM     28  C   UNL A   1      32.624  27.326  25.591  1.00  0.00     0.000 A 
ENDBRANCH  11  22
ENDBRANCH   4   7
ENDBRANCH   2   3
ENDBRANCH   1   2
BRANCH   1  29
ATOM     29  C   UNL A   1      39.641  23.659  27.096  1.00  0.00     0.118 C 
BRANCH  29  30
ATOM     30  N   UNL A   1      40.553  24.202  26.099  1.00  0.00    -0.352 N 
ATOM     31  C   UNL A   1      41.149  25.436  26.058  1.00  0.00     0.251 C 
ATOM     32  H   UNL A   1      40.773  23.598  25.353  1.00  0.00     0.163 HD
ATOM     33  O   UNL A   1      41.721  25.806  25.037  1.00  0.00    -0.269 OA
BRANCH  31  34
ATOM     34  C   UNL A   1      41.084  26.321  27.241  1.00  0.00     0.039 A 
ATOM     35  C   UNL A   1      41.991  27.377  27.347  1.00  0.00     0.014 A 
ATOM     36  C   UNL A   1      40.133  26.100  28.242  1.00  0.00     0.014 A 
ATOM     37  C   UNL A   1      41.909  28.249  28.435  1.00  0.00     0.010 A 
ATOM     38  C   UNL A   1      40.016  27.006  29.293  1.00  0.00     0.010 A 
ATOM     39  C   UNL A   1      40.903  28.088  29.400  1.00  0.00    -0.014 A 
BRANCH  39  40
ATOM     40  C   UNL A   1      40.754  29.041  30.529  1.00  0.00     0.031 A 
ATOM     41  C   UNL A   1      41.609  28.893  31.757  1.00  0.00     0.074 A 
ATOM     42  C   UNL A   1      39.797  29.987  30.477  1.00  0.00     0.049 A 
ATOM     43  N   UNL A   1      41.559  29.557  32.882  1.00  0.00    -0.248 NA
ATOM     44  C   UNL A   1      42.641  27.845  31.723  1.00  0.00     0.031 C 
ATOM     45  C   UNL A   1      38.879  30.202  29.355  1.00  0.00     0.029 A 
ATOM     46  N   UNL A   1      39.422  30.935  31.396  1.00  0.00    -0.354 N 
ATOM     47  C   UNL A   1      42.536  28.997  33.696  1.00  0.00     0.074 A 
ATOM     48  C   UNL A   1      43.134  27.911  32.952  1.00  0.00     0.031 C 
ATOM     49  C   UNL A   1      38.057  31.224  29.648  1.00  0.00     0.029 A 
ATOM     50  C   UNL A   1      38.361  31.710  30.991  1.00  0.00     0.049 A 
ATOM     51  H   UNL A   1      39.872  31.051  32.264  1.00  0.00     0.167 HD
ATOM     52  C   UNL A   1      42.911  29.368  34.944  1.00  0.00     0.037 A 
ATOM     53  C   UNL A   1      37.696  32.689  31.634  1.00  0.00     0.037 A 
ATOM     54  C   UNL A   1      42.327  30.467  35.667  1.00  0.00     0.049 A 
ATOM     55  C   UNL A   1      38.129  33.080  33.021  1.00  0.00     0.074 A 
ATOM     56  C   UNL A   1      42.676  30.959  36.913  1.00  0.00     0.029 A 
ATOM     57  N   UNL A   1      41.271  31.244  35.212  1.00  0.00    -0.354 N 
ATOM     58  N   UNL A   1      39.092  32.578  33.754  1.00  0.00    -0.248 NA
ATOM     59  C   UNL A   1      37.387  34.172  33.667  1.00  0.00     0.031 C 
ATOM     60  C   UNL A   1      41.804  32.008  37.228  1.00  0.00     0.029 A 
ATOM     61  C   UNL A   1      40.943  32.199  36.160  1.00  0.00     0.049 A 
ATOM     62  H   UNL A   1      40.821  31.132  34.344  1.00  0.00     0.167 HD
ATOM     63  C   UNL A   1      39.093  33.311  34.936  1.00  0.00     0.074 A 
ATOM     64  C   UNL A   1      38.036  34.295  34.816  1.00  0.00     0.031 C 
ATOM     65  C   UNL A   1      39.896  33.181  36.019  1.00  0.00     0.037 A 
BRANCH  52  66
ATOM     66  C   UNL A   1      44.008  28.581  35.606  1.00  0.00     0.058 A 
ATOM     67  C   UNL A   1      43.733  27.454  36.397  1.00  0.00     0.135 A 
ATOM     68  C   UNL A   1      45.355  28.935  35.420  1.00  0.00     0.135 A 
ATOM     69  F   UNL A   1      42.464  27.079  36.621  1.00  0.00    -0.206 F 
ATOM     70  C   UNL A   1      44.750  26.725  37.005  1.00  0.00     0.059 A 
ATOM     71  C   UNL A   1      46.391  28.203  35.995  1.00  0.00     0.059 A 
ATOM     72  F   UNL A   1      45.676  30.003  34.672  1.00  0.00    -0.206 F 
ATOM     73  C   UNL A   1      46.077  27.108  36.799  1.00  0.00     0.060 A 
BRANCH  73  74
ATOM     74  S   UNL A   1      47.384  26.150  37.592  1.00  0.00     0.124 S 
ATOM     75  O   UNL A   1      46.688  24.901  37.889  1.00  0.00    -0.237 OA
ATOM     76  O   UNL A   1      48.398  26.076  36.546  1.00  0.00    -0.237 OA
ATOM     77  O   UNL A   1      47.742  26.959  38.753  1.00  0.00    -0.744 OA
ENDBRANCH  73  74
ENDBRANCH  52  66
BRANCH  53  78
ATOM     78  C   UNL A   1      36.562  33.379  30.963  1.00  0.00     0.058 A 
ATOM     79  C   UNL A   1      35.242  33.177  31.389  1.00  0.00     0.135 A 
ATOM     80  C   UNL A   1      36.776  34.267  29.896  1.00  0.00     0.135 A 
ATOM     81  F   UNL A   1      34.986  32.334  32.401  1.00  0.00    -0.206 F 
ATOM     82  C   UNL A   1      34.171  33.819  30.776  1.00  0.00     0.059 A 
ATOM     83  C   UNL A   1      35.724  34.940  29.282  1.00  0.00     0.059 A 
ATOM     84  F   UNL A   1      38.023  34.509  29.462  1.00  0.00    -0.206 F 
ATOM     85  C   UNL A   1      34.423  34.701  29.724  1.00  0.00     0.060 A 
BRANCH  85  86
ATOM     86  S   UNL A   1      33.031  35.569  28.970  1.00  0.00     0.124 S 
ATOM     87  O   UNL A   1      32.514  34.556  28.055  1.00  0.00    -0.237 OA
ATOM     88  O   UNL A   1      32.195  35.872  30.126  1.00  0.00    -0.237 OA
ATOM     89  O   UNL A   1      33.660  36.727  28.340  1.00  0.00    -0.744 OA
ENDBRANCH  85  86
ENDBRANCH  53  78
BRANCH  65  90
ATOM     90  C   UNL A   1      39.697  34.148  37.153  1.00  0.00     0.058 A 
ATOM     91  C   UNL A   1      38.796  33.886  38.195  1.00  0.00     0.135 A 
ATOM     92  C   UNL A   1      40.473  35.316  37.232  1.00  0.00     0.135 A 
ATOM     93  F   UNL A   1      38.024  32.788  38.163  1.00  0.00    -0.206 F 
ATOM     94  C   UNL A   1      38.662  34.756  39.273  1.00  0.00     0.059 A 
ATOM     95  C   UNL A   1      40.375  36.186  38.312  1.00  0.00     0.059 A 
ATOM     96  F   UNL A   1      41.356  35.608  36.263  1.00  0.00    -0.206 F 
ATOM     97  C   UNL A   1      39.461  35.901  39.326  1.00  0.00     0.060 A 
BRANCH  97  98
ATOM     98  S   UNL A   1      39.318  36.991  40.758  1.00  0.00     0.124 S 
ATOM     99  O   UNL A   1      40.689  37.469  40.901  1.00  0.00    -0.237 OA
ATOM    100  O   UNL A   1      38.346  37.979  40.303  1.00  0.00    -0.237 OA
ATOM    101  O   UNL A   1      38.849  36.100  41.816  1.00  0.00    -0.744 OA
ENDBRANCH  97  98
ENDBRANCH  65  90
ENDBRANCH  39  40
ENDBRANCH  31  34
ENDBRANCH  29  30
ENDBRANCH   1  29
TORSDOF 17
ENDMDL
MODEL 3
REMARK VINA RESULT:     -12.5      6.479     11.914
REMARK SMILES CNc1nc(C(=O)N2C[C@@H](C(=O)NCCCNC(=O)c3ccc(-c4c5nc(c(-c6c(F)cc(S(=O)(=O)[O-])cc6F)c6ccc([nH]6)c(-c6c(F)cc(S(=O)(=O)[O-])cc6F)c6nc(c(-c7c(F)cc(S(=O)(=O)[O-])cc7F)c7ccc4[nH]7)C=C6)C=C5)cc3)[C@H](c3ccccc3C)C2)cs1
REMARK SMILES IDX 15 1 14 2 13 3 11 4 12 5 10 7 8 8 9 9 94 10 86 11 6 12 7 13
REMARK SMILES IDX 5 14 3 15 4 16 96 17 95 18 2 19 1 20 87 22 88 23 92 24 89 25
REMARK SMILES IDX 91 26 93 27 90 28 16 29 17 30 18 31 19 33 20 34 21 35 85 36
REMARK SMILES IDX 22 37 84 38 23 39 24 40 25 41 78 42 26 43 83 44 77 45 79 46
REMARK SMILES IDX 27 47 82 48 76 49 75 50 28 52 62 53 41 54 61 55 42 56 45 57
REMARK SMILES IDX 60 58 80 59 43 60 44 61 59 63 81 64 46 65 29 66 30 67 39 68
REMARK SMILES IDX 31 69 32 70 38 71 40 72 33 73 34 74 35 75 36 76 37 77 63 78
REMARK SMILES IDX 64 79 73 80 65 81 66 82 72 83 74 84 67 85 68 86 69 87 70 88
REMARK SMILES IDX 71 89 47 90 48 91 57 92 49 93 50 94 56 95 58 96 51 97 52 98
REMARK SMILES IDX 53 99 54 100 55 101
REMARK H PARENT 13 6 2 21 17 32 79 51 45 62
REMARK Flexibility Score: inf
ROOT
ATOM      1  C   UNL A   1      33.836  29.497  27.336  1.00  0.00     0.042 C 
ENDROOT
BRANCH   1   2
ATOM      2  C   UNL A   1      33.721  28.409  26.269  1.00  0.00     0.117 C 
BRANCH   2   3
ATOM      3  N   UNL A   1      33.809  29.006  24.948  1.00  0.00    -0.356 N 
ATOM      4  C   UNL A   1      33.588  28.439  23.728  1.00  0.00     0.225 C 
ATOM      5  O   UNL A   1      34.053  29.002  22.739  1.00  0.00    -0.275 OA
ATOM      6  H   UNL A   1      34.066  29.957  24.930  1.00  0.00     0.163 HD
BRANCH   4   7
ATOM      7  C   UNL A   1      32.740  27.187  23.643  1.00  0.00     0.107 C 
ATOM      8  N   UNL A   1      32.813  25.125  22.582  1.00  0.00    -0.336 N 
ATOM      9  C   UNL A   1      33.669  26.037  23.285  1.00  0.00     0.134 C 
ATOM     10  C   UNL A   1      31.930  25.882  21.726  1.00  0.00     0.129 C 
ATOM     11  C   UNL A   1      31.666  27.225  22.497  1.00  0.00     0.053 C 
BRANCH   8  12
ATOM     12  C   UNL A   1      32.788  23.748  22.693  1.00  0.00     0.273 C 
ATOM     13  O   UNL A   1      33.123  23.009  21.770  1.00  0.00    -0.267 OA
BRANCH  12  14
ATOM     14  C   UNL A   1      32.244  23.205  23.948  1.00  0.00     0.141 A 
ATOM     15  C   UNL A   1      32.386  22.083  25.874  1.00  0.00     0.183 A 
ATOM     16  N   UNL A   1      32.987  22.314  24.733  1.00  0.00    -0.215 NA
ATOM     17  S   UNL A   1      30.832  22.809  26.027  1.00  0.00    -0.105 S 
ATOM     18  C   UNL A   1      31.047  23.591  24.517  1.00  0.00     0.102 A 
BRANCH  15  19
ATOM     19  N   UNL A   1      32.911  21.373  26.890  1.00  0.00    -0.365 N 
ATOM     20  C   UNL A   1      34.075  21.840  27.601  1.00  0.00     0.142 C 
ATOM     21  H   UNL A   1      32.494  20.521  27.153  1.00  0.00     0.162 HD
ENDBRANCH  15  19
ENDBRANCH  12  14
ENDBRANCH   8  12
BRANCH  11  22
ATOM     22  C   UNL A   1      30.215  27.527  22.957  1.00  0.00    -0.039 A 
ATOM     23  C   UNL A   1      29.464  26.539  23.632  1.00  0.00     0.004 A 
ATOM     24  C   UNL A   1      29.520  28.729  22.635  1.00  0.00    -0.048 A 
ATOM     25  C   UNL A   1      28.105  26.696  23.939  1.00  0.00     0.000 A 
ATOM     26  C   UNL A   1      28.148  28.866  22.957  1.00  0.00     0.004 A 
ATOM     27  C   UNL A   1      30.092  29.895  21.875  1.00  0.00     0.044 C 
ATOM     28  C   UNL A   1      27.443  27.859  23.597  1.00  0.00     0.000 A 
ENDBRANCH  11  22
ENDBRANCH   4   7
ENDBRANCH   2   3
ENDBRANCH   1   2
BRANCH   1  29
ATOM     29  C   UNL A   1      35.257  29.650  27.878  1.00  0.00     0.118 C 
BRANCH  29  30
ATOM     30  N   UNL A   1      35.301  30.503  29.057  1.00  0.00    -0.352 N 
ATOM     31  C   UNL A   1      36.330  30.694  29.944  1.00  0.00     0.251 C 
ATOM     32  H   UNL A   1      34.480  31.013  29.242  1.00  0.00     0.163 HD
ATOM     33  O   UNL A   1      36.125  31.283  31.000  1.00  0.00    -0.269 OA
BRANCH  31  34
ATOM     34  C   UNL A   1      37.677  30.173  29.627  1.00  0.00     0.039 A 
ATOM     35  C   UNL A   1      38.081  30.110  28.292  1.00  0.00     0.014 A 
ATOM     36  C   UNL A   1      38.530  29.742  30.647  1.00  0.00     0.014 A 
ATOM     37  C   UNL A   1      39.368  29.665  27.983  1.00  0.00     0.010 A 
ATOM     38  C   UNL A   1      39.832  29.357  30.340  1.00  0.00     0.010 A 
ATOM     39  C   UNL A   1      40.264  29.313  29.006  1.00  0.00    -0.014 A 
BRANCH  39  40
ATOM     40  C   UNL A   1      41.658  28.902  28.705  1.00  0.00     0.031 A 
ATOM     41  C   UNL A   1      42.762  29.923  28.710  1.00  0.00     0.074 A 
ATOM     42  C   UNL A   1      41.914  27.627  28.353  1.00  0.00     0.049 A 
ATOM     43  N   UNL A   1      44.018  29.783  28.376  1.00  0.00    -0.248 NA
ATOM     44  C   UNL A   1      42.399  31.289  29.123  1.00  0.00     0.031 C 
ATOM     45  C   UNL A   1      40.917  26.556  28.274  1.00  0.00     0.029 A 
ATOM     46  N   UNL A   1      43.085  27.018  27.978  1.00  0.00    -0.354 N 
ATOM     47  C   UNL A   1      44.592  31.040  28.519  1.00  0.00     0.074 A 
ATOM     48  C   UNL A   1      43.536  31.941  28.928  1.00  0.00     0.031 C 
ATOM     49  C   UNL A   1      41.522  25.420  27.887  1.00  0.00     0.029 A 
ATOM     50  C   UNL A   1      42.937  25.690  27.652  1.00  0.00     0.049 A 
ATOM     51  H   UNL A   1      43.949  27.486  27.947  1.00  0.00     0.167 HD
ATOM     52  C   UNL A   1      45.884  31.405  28.342  1.00  0.00     0.037 A 
ATOM     53  C   UNL A   1      43.837  24.795  27.199  1.00  0.00     0.037 A 
ATOM     54  C   UNL A   1      46.932  30.496  27.958  1.00  0.00     0.049 A 
ATOM     55  C   UNL A   1      45.265  25.226  27.006  1.00  0.00     0.074 A 
ATOM     56  C   UNL A   1      48.284  30.755  27.809  1.00  0.00     0.029 A 
ATOM     57  N   UNL A   1      46.748  29.153  27.661  1.00  0.00    -0.354 N 
ATOM     58  N   UNL A   1      45.802  26.406  27.201  1.00  0.00    -0.248 NA
ATOM     59  C   UNL A   1      46.211  24.204  26.534  1.00  0.00     0.031 C 
ATOM     60  C   UNL A   1      48.909  29.578  27.383  1.00  0.00     0.029 A 
ATOM     61  C   UNL A   1      47.956  28.575  27.312  1.00  0.00     0.049 A 
ATOM     62  H   UNL A   1      45.884  28.681  27.694  1.00  0.00     0.167 HD
ATOM     63  C   UNL A   1      47.154  26.262  26.905  1.00  0.00     0.074 A 
ATOM     64  C   UNL A   1      47.352  24.879  26.523  1.00  0.00     0.031 C 
ATOM     65  C   UNL A   1      48.140  27.192  26.947  1.00  0.00     0.037 A 
BRANCH  52  66
ATOM     66  C   UNL A   1      46.238  32.850  28.565  1.00  0.00     0.058 A 
ATOM     67  C   UNL A   1      46.559  33.342  29.840  1.00  0.00     0.135 A 
ATOM     68  C   UNL A   1      46.292  33.747  27.486  1.00  0.00     0.135 A 
ATOM     69  F   UNL A   1      46.509  32.532  30.910  1.00  0.00    -0.206 F 
ATOM     70  C   UNL A   1      46.891  34.677  30.042  1.00  0.00     0.059 A 
ATOM     71  C   UNL A   1      46.650  35.082  27.661  1.00  0.00     0.059 A 
ATOM     72  F   UNL A   1      45.996  33.330  26.244  1.00  0.00    -0.206 F 
ATOM     73  C   UNL A   1      46.933  35.541  28.946  1.00  0.00     0.060 A 
BRANCH  73  74
ATOM     74  S   UNL A   1      47.368  37.269  29.226  1.00  0.00     0.124 S 
ATOM     75  O   UNL A   1      47.146  37.395  30.664  1.00  0.00    -0.237 OA
ATOM     76  O   UNL A   1      48.762  37.316  28.796  1.00  0.00    -0.237 OA
ATOM     77  O   UNL A   1      46.428  37.998  28.381  1.00  0.00    -0.744 OA
ENDBRANCH  73  74
ENDBRANCH  52  66
BRANCH  53  78
ATOM     78  C   UNL A   1      43.413  23.399  26.914  1.00  0.00     0.058 A 
ATOM     79  C   UNL A   1      43.148  22.499  27.957  1.00  0.00     0.135 A 
ATOM     80  C   UNL A   1      43.247  22.940  25.598  1.00  0.00     0.135 A 
ATOM     81  F   UNL A   1      43.297  22.890  29.232  1.00  0.00    -0.206 F 
ATOM     82  C   UNL A   1      42.745  21.192  27.708  1.00  0.00     0.059 A 
ATOM     83  C   UNL A   1      42.822  21.644  25.322  1.00  0.00     0.059 A 
ATOM     84  F   UNL A   1      43.471  23.767  24.564  1.00  0.00    -0.206 F 
ATOM     85  C   UNL A   1      42.582  20.774  26.386  1.00  0.00     0.060 A 
BRANCH  85  86
ATOM     86  S   UNL A   1      42.009  19.090  26.074  1.00  0.00     0.124 S 
ATOM     87  O   UNL A   1      42.442  18.404  27.286  1.00  0.00    -0.237 OA
ATOM     88  O   UNL A   1      40.569  19.279  25.925  1.00  0.00    -0.237 OA
ATOM     89  O   UNL A   1      42.714  18.717  24.850  1.00  0.00    -0.744 OA
ENDBRANCH  85  86
ENDBRANCH  53  78
BRANCH  65  90
ATOM     90  C   UNL A   1      49.534  26.743  26.611  1.00  0.00     0.058 A 
ATOM     91  C   UNL A   1      50.386  26.194  27.580  1.00  0.00     0.135 A 
ATOM     92  C   UNL A   1      49.994  26.797  25.285  1.00  0.00     0.135 A 
ATOM     93  F   UNL A   1      49.997  26.127  28.863  1.00  0.00    -0.206 F 
ATOM     94  C   UNL A   1      51.653  25.723  27.248  1.00  0.00     0.059 A 
ATOM     95  C   UNL A   1      51.246  26.309  24.926  1.00  0.00     0.059 A 
ATOM     96  F   UNL A   1      49.213  27.307  24.318  1.00  0.00    -0.206 F 
ATOM     97  C   UNL A   1      52.072  25.780  25.917  1.00  0.00     0.060 A 
BRANCH  97  98
ATOM     98  S   UNL A   1      53.695  25.114  25.491  1.00  0.00     0.124 S 
ATOM     99  O   UNL A   1      53.996  25.838  24.261  1.00  0.00    -0.237 OA
ATOM    100  O   UNL A   1      54.497  25.477  26.654  1.00  0.00    -0.237 OA
ATOM    101  O   UNL A   1      53.443  23.684  25.332  1.00  0.00    -0.744 OA
ENDBRANCH  97  98
ENDBRANCH  65  90
ENDBRANCH  39  40
ENDBRANCH  31  34
ENDBRANCH  29  30
ENDBRANCH   1  29
TORSDOF 17
ENDMDL
