MODEL 1
REMARK VINA RESULT:     -13.9      0.000      0.000
REMARK SMILES CC1(C)[C@H](O)CC[C@@]2(C)[C@@H]1CC[C@@]1(C)Oc3oc(C(=O)NCCCNC(=O)c4ccc(-c5c6nc(c(-c7c(F)cc(S(=O)(=O)[O-])cc7F)c7ccc([nH]7)c(-c7c(F)cc(S(=O)(=O)[O-])cc7F)c7nc(c(-c8c(F)cc(S(=O)(=O)[O-])cc8F)c8ccc5[nH]8)C=C7)C=C6)cc4)cc(=O)c3C[C@@H]21
REMARK SMILES IDX 24 1 23 2 22 3 21 4 19 5 20 6 18 8 1 9 2 10 4 11 10 12 3 13
REMARK SMILES IDX 6 14 8 15 11 16 7 17 99 18 9 19 12 20 13 21 98 22 15 23
REMARK SMILES IDX 14 24 97 25 16 26 95 27 17 28 94 29 96 30 5 31 25 33 26 34
REMARK SMILES IDX 27 36 28 37 29 38 93 39 30 40 92 41 31 42 32 43 33 44 86 45
REMARK SMILES IDX 34 46 91 47 85 48 87 49 35 50 90 51 84 52 83 53 36 55 70 56
REMARK SMILES IDX 49 57 69 58 50 59 53 60 68 61 88 62 51 63 52 64 67 66 89 67
REMARK SMILES IDX 54 68 37 69 38 70 47 71 39 72 40 73 46 74 48 75 41 76 42 77
REMARK SMILES IDX 43 78 44 79 45 80 71 81 72 82 81 83 73 84 74 85 80 86 82 87
REMARK SMILES IDX 75 88 76 89 77 90 78 91 79 92 55 93 56 94 65 95 57 96 58 97
REMARK SMILES IDX 64 98 66 99 59 100 60 101 61 102 62 103 63 104
REMARK H PARENT 21 7 5 32 25 35 87 54 53 65
REMARK Flexibility Score: inf
ROOT
ATOM      1  C   UNL A   1      41.466  23.185  27.232  1.00  0.00     0.118 C 
ENDROOT
BRANCH   1   2
ATOM      2  C   UNL A   1      39.995  23.104  27.618  1.00  0.00     0.042 C 
BRANCH   2   3
ATOM      3  C   UNL A   1      39.040  22.744  26.483  1.00  0.00     0.118 C 
BRANCH   3   4
ATOM      4  N   UNL A   1      39.089  21.326  26.063  1.00  0.00    -0.349 N 
ATOM      5  C   UNL A   1      38.191  20.522  25.372  1.00  0.00     0.287 C 
ATOM      6  O   UNL A   1      38.461  19.332  25.194  1.00  0.00    -0.266 OA
ATOM      7  H   UNL A   1      39.917  20.863  26.324  1.00  0.00     0.163 HD
BRANCH   5   8
ATOM      8  C   UNL A   1      36.934  21.108  24.831  1.00  0.00     0.199 A 
ATOM      9  C   UNL A   1      31.496  29.287  25.358  1.00  0.00     0.014 C 
ATOM     10  C   UNL A   1      31.716  28.115  24.365  1.00  0.00    -0.006 C 
ATOM     11  C   UNL A   1      33.276  28.395  23.824  1.00  0.00     0.120 C 
ATOM     12  C   UNL A   1      31.546  26.490  25.162  1.00  0.00     0.004 C 
ATOM     13  C   UNL A   1      30.749  28.393  23.188  1.00  0.00     0.014 C 
ATOM     14  C   UNL A   1      33.771  27.292  22.933  1.00  0.00     0.033 C 
ATOM     15  C   UNL A   1      32.980  25.988  25.046  1.00  0.00    -0.022 C 
ATOM     16  C   UNL A   1      30.676  25.212  24.720  1.00  0.00     0.009 C 
ATOM     17  C   UNL A   1      33.007  26.138  23.425  1.00  0.00     0.010 C 
ATOM     18  C   UNL A   1      33.573  24.603  25.365  1.00  0.00     0.044 C 
ATOM     19  C   UNL A   1      33.637  26.781  26.232  1.00  0.00     0.012 C 
ATOM     20  C   UNL A   1      31.376  23.699  24.764  1.00  0.00     0.049 C 
ATOM     21  C   UNL A   1      32.628  23.483  25.704  1.00  0.00     0.113 C 
ATOM     22  C   UNL A   1      34.516  24.270  24.215  1.00  0.00     0.055 C 
ATOM     23  O   UNL A   1      33.408  22.180  25.710  1.00  0.00    -0.458 OA
ATOM     24  C   UNL A   1      32.098  23.568  27.155  1.00  0.00     0.057 C 
ATOM     25  C   UNL A   1      35.178  23.023  24.347  1.00  0.00     0.081 A 
ATOM     26  C   UNL A   1      34.738  22.085  25.186  1.00  0.00     0.292 A 
ATOM     27  C   UNL A   1      36.255  22.803  23.391  1.00  0.00     0.192 A 
ATOM     28  O   UNL A   1      35.675  21.067  25.508  1.00  0.00    -0.420 OA
ATOM     29  C   UNL A   1      37.113  21.680  23.631  1.00  0.00     0.105 A 
ATOM     30  O   UNL A   1      36.482  23.575  22.451  1.00  0.00    -0.289 OA
BRANCH  11  31
ATOM     31  O   UNL A   1      33.495  29.624  23.149  1.00  0.00    -0.393 OA
ATOM     32  H   UNL A   1      34.259  30.077  23.539  1.00  0.00     0.210 HD
ENDBRANCH  11  31
ENDBRANCH   5   8
ENDBRANCH   3   4
ENDBRANCH   2   3
ENDBRANCH   1   2
BRANCH   1  33
ATOM     33  N   UNL A   1      41.728  24.046  26.085  1.00  0.00    -0.352 N 
ATOM     34  C   UNL A   1      41.748  25.422  26.015  1.00  0.00     0.251 C 
ATOM     35  H   UNL A   1      41.920  23.579  25.240  1.00  0.00     0.163 HD
ATOM     36  O   UNL A   1      41.896  25.978  24.926  1.00  0.00    -0.269 OA
BRANCH  34  37
ATOM     37  C   UNL A   1      41.556  26.233  27.238  1.00  0.00     0.039 A 
ATOM     38  C   UNL A   1      42.578  27.093  27.651  1.00  0.00     0.014 A 
ATOM     39  C   UNL A   1      40.365  26.160  27.965  1.00  0.00     0.014 A 
ATOM     40  C   UNL A   1      42.372  27.939  28.745  1.00  0.00     0.010 A 
ATOM     41  C   UNL A   1      40.134  27.053  29.008  1.00  0.00     0.010 A 
ATOM     42  C   UNL A   1      41.136  27.948  29.409  1.00  0.00    -0.014 A 
BRANCH  42  43
ATOM     43  C   UNL A   1      40.883  28.861  30.553  1.00  0.00     0.031 A 
ATOM     44  C   UNL A   1      41.694  28.721  31.810  1.00  0.00     0.074 A 
ATOM     45  C   UNL A   1      39.897  29.778  30.481  1.00  0.00     0.049 A 
ATOM     46  N   UNL A   1      41.602  29.386  32.931  1.00  0.00    -0.248 NA
ATOM     47  C   UNL A   1      42.734  27.679  31.814  1.00  0.00     0.031 C 
ATOM     48  C   UNL A   1      39.021  29.988  29.327  1.00  0.00     0.029 A 
ATOM     49  N   UNL A   1      39.462  30.700  31.400  1.00  0.00    -0.354 N 
ATOM     50  C   UNL A   1      42.570  28.849  33.770  1.00  0.00     0.074 A 
ATOM     51  C   UNL A   1      43.196  27.760  33.052  1.00  0.00     0.031 C 
ATOM     52  C   UNL A   1      38.166  30.988  29.601  1.00  0.00     0.029 A 
ATOM     53  C   UNL A   1      38.410  31.470  30.959  1.00  0.00     0.049 A 
ATOM     54  H   UNL A   1      39.865  30.802  32.292  1.00  0.00     0.167 HD
ATOM     55  C   UNL A   1      42.927  29.247  35.013  1.00  0.00     0.037 A 
ATOM     56  C   UNL A   1      37.721  32.448  31.578  1.00  0.00     0.037 A 
ATOM     57  C   UNL A   1      42.310  30.338  35.717  1.00  0.00     0.049 A 
ATOM     58  C   UNL A   1      38.110  32.849  32.977  1.00  0.00     0.074 A 
ATOM     59  C   UNL A   1      42.630  30.848  36.962  1.00  0.00     0.029 A 
ATOM     60  N   UNL A   1      41.242  31.086  35.242  1.00  0.00    -0.354 N 
ATOM     61  N   UNL A   1      39.070  32.371  33.733  1.00  0.00    -0.248 NA
ATOM     62  C   UNL A   1      37.328  33.922  33.606  1.00  0.00     0.031 C 
ATOM     63  C   UNL A   1      41.724  31.869  37.262  1.00  0.00     0.029 A 
ATOM     64  C   UNL A   1      40.872  32.034  36.181  1.00  0.00     0.049 A 
ATOM     65  H   UNL A   1      40.811  30.961  34.365  1.00  0.00     0.167 HD
ATOM     66  C   UNL A   1      39.021  33.099  34.917  1.00  0.00     0.074 A 
ATOM     67  C   UNL A   1      37.946  34.059  34.772  1.00  0.00     0.031 C 
ATOM     68  C   UNL A   1      39.798  32.983  36.024  1.00  0.00     0.037 A 
BRANCH  55  69
ATOM     69  C   UNL A   1      44.046  28.503  35.688  1.00  0.00     0.058 A 
ATOM     70  C   UNL A   1      43.796  27.409  36.532  1.00  0.00     0.135 A 
ATOM     71  C   UNL A   1      45.385  28.859  35.458  1.00  0.00     0.135 A 
ATOM     72  F   UNL A   1      42.534  27.037  36.800  1.00  0.00    -0.206 F 
ATOM     73  C   UNL A   1      44.830  26.708  37.140  1.00  0.00     0.059 A 
ATOM     74  C   UNL A   1      46.438  28.154  36.034  1.00  0.00     0.059 A 
ATOM     75  F   UNL A   1      45.681  29.901  34.663  1.00  0.00    -0.206 F 
ATOM     76  C   UNL A   1      46.149  27.086  36.882  1.00  0.00     0.060 A 
BRANCH  76  77
ATOM     77  S   UNL A   1      47.478  26.154  37.671  1.00  0.00     0.124 S 
ATOM     78  O   UNL A   1      48.652  26.679  36.980  1.00  0.00    -0.237 OA
ATOM     79  O   UNL A   1      47.340  26.543  39.072  1.00  0.00    -0.237 OA
ATOM     80  O   UNL A   1      47.145  24.765  37.372  1.00  0.00    -0.744 OA
ENDBRANCH  76  77
ENDBRANCH  55  69
BRANCH  56  81
ATOM     81  C   UNL A   1      36.611  33.137  30.865  1.00  0.00     0.058 A 
ATOM     82  C   UNL A   1      35.273  32.893  31.207  1.00  0.00     0.135 A 
ATOM     83  C   UNL A   1      36.865  34.077  29.854  1.00  0.00     0.135 A 
ATOM     84  F   UNL A   1      34.979  31.995  32.160  1.00  0.00    -0.206 F 
ATOM     85  C   UNL A   1      34.226  33.552  30.573  1.00  0.00     0.059 A 
ATOM     86  C   UNL A   1      35.836  34.766  29.220  1.00  0.00     0.059 A 
ATOM     87  F   UNL A   1      38.128  34.356  29.496  1.00  0.00    -0.206 F 
ATOM     88  C   UNL A   1      34.517  34.496  29.586  1.00  0.00     0.060 A 
BRANCH  88  89
ATOM     89  S   UNL A   1      33.151  35.398  28.823  1.00  0.00     0.124 S 
ATOM     90  O   UNL A   1      33.860  36.401  28.038  1.00  0.00    -0.237 OA
ATOM     91  O   UNL A   1      32.482  34.346  28.063  1.00  0.00    -0.237 OA
ATOM     92  O   UNL A   1      32.402  35.906  29.969  1.00  0.00    -0.744 OA
ENDBRANCH  88  89
ENDBRANCH  56  81
BRANCH  68  93
ATOM     93  C   UNL A   1      39.530  33.919  37.170  1.00  0.00     0.058 A 
ATOM     94  C   UNL A   1      38.769  33.522  38.280  1.00  0.00     0.135 A 
ATOM     95  C   UNL A   1      40.116  35.196  37.200  1.00  0.00     0.135 A 
ATOM     96  F   UNL A   1      38.182  32.315  38.300  1.00  0.00    -0.206 F 
ATOM     97  C   UNL A   1      38.588  34.362  39.374  1.00  0.00     0.059 A 
ATOM     98  C   UNL A   1      39.973  36.041  38.295  1.00  0.00     0.059 A 
ATOM     99  F   UNL A   1      40.863  35.621  36.168  1.00  0.00    -0.206 F 
ATOM    100  C   UNL A   1      39.201  35.617  39.376  1.00  0.00     0.060 A 
BRANCH 100 101
ATOM    101  S   UNL A   1      39.000  36.671  40.828  1.00  0.00     0.124 S 
ATOM    102  O   UNL A   1      38.093  35.875  41.647  1.00  0.00    -0.237 OA
ATOM    103  O   UNL A   1      40.369  36.783  41.323  1.00  0.00    -0.237 OA
ATOM    104  O   UNL A   1      38.436  37.901  40.280  1.00  0.00    -0.744 OA
ENDBRANCH 100 101
ENDBRANCH  68  93
ENDBRANCH  42  43
ENDBRANCH  34  37
ENDBRANCH   1  33
TORSDOF 14
ENDMDL
MODEL 2
REMARK VINA RESULT:     -13.7      6.197     11.739
REMARK SMILES CC1(C)[C@H](O)CC[C@@]2(C)[C@@H]1CC[C@@]1(C)Oc3oc(C(=O)NCCCNC(=O)c4ccc(-c5c6nc(c(-c7c(F)cc(S(=O)(=O)[O-])cc7F)c7ccc([nH]7)c(-c7c(F)cc(S(=O)(=O)[O-])cc7F)c7nc(c(-c8c(F)cc(S(=O)(=O)[O-])cc8F)c8ccc5[nH]8)C=C7)C=C6)cc4)cc(=O)c3C[C@@H]21
REMARK SMILES IDX 24 1 23 2 22 3 21 4 19 5 20 6 18 8 1 9 2 10 4 11 10 12 3 13
REMARK SMILES IDX 6 14 8 15 11 16 7 17 99 18 9 19 12 20 13 21 98 22 15 23
REMARK SMILES IDX 14 24 97 25 16 26 95 27 17 28 94 29 96 30 5 31 25 33 26 34
REMARK SMILES IDX 27 36 28 37 29 38 93 39 30 40 92 41 31 42 32 43 33 44 86 45
REMARK SMILES IDX 34 46 91 47 85 48 87 49 35 50 90 51 84 52 83 53 36 55 70 56
REMARK SMILES IDX 49 57 69 58 50 59 53 60 68 61 88 62 51 63 52 64 67 66 89 67
REMARK SMILES IDX 54 68 37 69 38 70 47 71 39 72 40 73 46 74 48 75 41 76 42 77
REMARK SMILES IDX 43 78 44 79 45 80 71 81 72 82 81 83 73 84 74 85 80 86 82 87
REMARK SMILES IDX 75 88 76 89 77 90 78 91 79 92 55 93 56 94 65 95 57 96 58 97
REMARK SMILES IDX 64 98 66 99 59 100 60 101 61 102 62 103 63 104
REMARK H PARENT 21 7 5 32 25 35 87 54 53 65
REMARK Flexibility Score: inf
ROOT
ATOM      1  C   UNL A   1      36.096  32.156  29.252  1.00  0.00     0.118 C 
ENDROOT
BRANCH   1   2
ATOM      2  C   UNL A   1      35.887  31.524  27.882  1.00  0.00     0.042 C 
BRANCH   2   3
ATOM      3  C   UNL A   1      34.541  30.834  27.679  1.00  0.00     0.118 C 
BRANCH   3   4
ATOM      4  N   UNL A   1      33.418  31.749  27.376  1.00  0.00    -0.349 N 
ATOM      5  C   UNL A   1      32.193  31.555  26.752  1.00  0.00     0.287 C 
ATOM      6  O   UNL A   1      31.446  32.520  26.575  1.00  0.00    -0.266 OA
ATOM      7  H   UNL A   1      33.570  32.675  27.674  1.00  0.00     0.163 HD
BRANCH   5   8
ATOM      8  C   UNL A   1      31.784  30.187  26.330  1.00  0.00     0.199 A 
ATOM      9  C   UNL A   1      35.574  21.252  24.730  1.00  0.00     0.014 C 
ATOM     10  C   UNL A   1      34.193  21.870  25.079  1.00  0.00    -0.006 C 
ATOM     11  C   UNL A   1      34.433  22.416  26.643  1.00  0.00     0.120 C 
ATOM     12  C   UNL A   1      33.729  23.214  23.945  1.00  0.00     0.004 C 
ATOM     13  C   UNL A   1      33.216  20.671  25.140  1.00  0.00     0.014 C 
ATOM     14  C   UNL A   1      33.251  23.186  27.160  1.00  0.00     0.033 C 
ATOM     15  C   UNL A   1      33.762  24.394  24.908  1.00  0.00    -0.022 C 
ATOM     16  C   UNL A   1      32.363  23.446  23.129  1.00  0.00     0.009 C 
ATOM     17  C   UNL A   1      32.676  23.726  25.921  1.00  0.00     0.010 C 
ATOM     18  C   UNL A   1      33.321  25.855  24.698  1.00  0.00     0.044 C 
ATOM     19  C   UNL A   1      35.311  24.644  24.970  1.00  0.00     0.012 C 
ATOM     20  C   UNL A   1      31.674  24.965  23.116  1.00  0.00     0.049 C 
ATOM     21  C   UNL A   1      32.601  26.207  23.425  1.00  0.00     0.113 C 
ATOM     22  C   UNL A   1      32.555  26.251  25.954  1.00  0.00     0.055 C 
ATOM     23  O   UNL A   1      32.037  27.610  23.564  1.00  0.00    -0.458 OA
ATOM     24  C   UNL A   1      33.557  26.343  22.217  1.00  0.00     0.057 C 
ATOM     25  C   UNL A   1      32.084  27.588  25.951  1.00  0.00     0.081 A 
ATOM     26  C   UNL A   1      31.991  28.292  24.823  1.00  0.00     0.292 A 
ATOM     27  C   UNL A   1      31.569  28.054  27.231  1.00  0.00     0.192 A 
ATOM     28  O   UNL A   1      31.880  29.699  24.990  1.00  0.00    -0.420 OA
ATOM     29  C   UNL A   1      31.309  29.459  27.353  1.00  0.00     0.105 A 
ATOM     30  O   UNL A   1      31.422  27.304  28.206  1.00  0.00    -0.289 OA
BRANCH  11  31
ATOM     31  O   UNL A   1      34.758  21.429  27.610  1.00  0.00    -0.393 OA
ATOM     32  H   UNL A   1      33.950  21.140  28.062  1.00  0.00     0.210 HD
ENDBRANCH  11  31
ENDBRANCH   5   8
ENDBRANCH   3   4
ENDBRANCH   2   3
ENDBRANCH   1   2
BRANCH   1  33
ATOM     33  N   UNL A   1      35.865  31.243  30.364  1.00  0.00    -0.352 N 
ATOM     34  C   UNL A   1      36.692  30.268  30.879  1.00  0.00     0.251 C 
ATOM     35  H   UNL A   1      34.993  31.336  30.814  1.00  0.00     0.163 HD
ATOM     36  O   UNL A   1      36.280  29.523  31.769  1.00  0.00    -0.269 OA
BRANCH  34  37
ATOM     37  C   UNL A   1      38.058  30.090  30.339  1.00  0.00     0.039 A 
ATOM     38  C   UNL A   1      39.147  30.135  31.215  1.00  0.00     0.014 A 
ATOM     39  C   UNL A   1      38.265  29.861  28.976  1.00  0.00     0.014 A 
ATOM     40  C   UNL A   1      40.433  29.868  30.738  1.00  0.00     0.010 A 
ATOM     41  C   UNL A   1      39.535  29.524  28.515  1.00  0.00     0.010 A 
ATOM     42  C   UNL A   1      40.631  29.528  29.390  1.00  0.00    -0.014 A 
BRANCH  42  43
ATOM     43  C   UNL A   1      41.983  29.208  28.867  1.00  0.00     0.031 A 
ATOM     44  C   UNL A   1      42.294  27.810  28.414  1.00  0.00     0.074 A 
ATOM     45  C   UNL A   1      42.941  30.157  28.846  1.00  0.00     0.049 A 
ATOM     46  N   UNL A   1      43.420  27.317  27.968  1.00  0.00    -0.248 NA
ATOM     47  C   UNL A   1      41.199  26.829  28.493  1.00  0.00     0.031 C 
ATOM     48  C   UNL A   1      42.769  31.542  29.289  1.00  0.00     0.029 A 
ATOM     49  N   UNL A   1      44.251  30.099  28.440  1.00  0.00    -0.354 N 
ATOM     50  C   UNL A   1      43.169  25.975  27.709  1.00  0.00     0.074 A 
ATOM     51  C   UNL A   1      41.804  25.715  28.109  1.00  0.00     0.031 C 
ATOM     52  C   UNL A   1      43.925  32.205  29.115  1.00  0.00     0.029 A 
ATOM     53  C   UNL A   1      44.928  31.289  28.577  1.00  0.00     0.049 A 
ATOM     54  H   UNL A   1      44.668  29.281  28.085  1.00  0.00     0.167 HD
ATOM     55  C   UNL A   1      43.992  25.052  27.160  1.00  0.00     0.037 A 
ATOM     56  C   UNL A   1      46.209  31.604  28.303  1.00  0.00     0.037 A 
ATOM     57  C   UNL A   1      45.345  25.320  26.754  1.00  0.00     0.049 A 
ATOM     58  C   UNL A   1      47.118  30.550  27.729  1.00  0.00     0.074 A 
ATOM     59  C   UNL A   1      46.244  24.463  26.145  1.00  0.00     0.029 A 
ATOM     60  N   UNL A   1      45.997  26.533  26.918  1.00  0.00    -0.354 N 
ATOM     61  N   UNL A   1      46.847  29.300  27.433  1.00  0.00    -0.248 NA
ATOM     62  C   UNL A   1      48.505  30.946  27.447  1.00  0.00     0.031 C 
ATOM     63  C   UNL A   1      47.456  25.142  25.989  1.00  0.00     0.029 A 
ATOM     64  C   UNL A   1      47.297  26.440  26.450  1.00  0.00     0.049 A 
ATOM     65  H   UNL A   1      45.594  27.343  27.309  1.00  0.00     0.167 HD
ATOM     66  C   UNL A   1      48.020  28.768  26.910  1.00  0.00     0.074 A 
ATOM     67  C   UNL A   1      49.001  29.834  26.917  1.00  0.00     0.031 C 
ATOM     68  C   UNL A   1      48.263  27.510  26.464  1.00  0.00     0.037 A 
BRANCH  55  69
ATOM     69  C   UNL A   1      43.445  23.666  26.957  1.00  0.00     0.058 A 
ATOM     70  C   UNL A   1      43.042  23.216  25.689  1.00  0.00     0.135 A 
ATOM     71  C   UNL A   1      43.362  22.763  28.029  1.00  0.00     0.135 A 
ATOM     72  F   UNL A   1      43.083  24.043  24.633  1.00  0.00    -0.206 F 
ATOM     73  C   UNL A   1      42.555  21.928  25.496  1.00  0.00     0.059 A 
ATOM     74  C   UNL A   1      42.905  21.461  27.853  1.00  0.00     0.059 A 
ATOM     75  F   UNL A   1      43.730  23.144  29.263  1.00  0.00    -0.206 F 
ATOM     76  C   UNL A   1      42.493  21.056  26.584  1.00  0.00     0.060 A 
BRANCH  76  77
ATOM     77  S   UNL A   1      41.871  19.385  26.308  1.00  0.00     0.124 S 
ATOM     78  O   UNL A   1      42.279  18.716  27.540  1.00  0.00    -0.237 OA
ATOM     79  O   UNL A   1      40.437  19.609  26.154  1.00  0.00    -0.237 OA
ATOM     80  O   UNL A   1      42.571  18.955  25.102  1.00  0.00    -0.744 OA
ENDBRANCH  76  77
ENDBRANCH  55  69
BRANCH  56  81
ATOM     81  C   UNL A   1      46.698  32.989  28.542  1.00  0.00     0.058 A 
ATOM     82  C   UNL A   1      47.224  33.364  29.786  1.00  0.00     0.135 A 
ATOM     83  C   UNL A   1      46.681  33.955  27.523  1.00  0.00     0.135 A 
ATOM     84  F   UNL A   1      47.253  32.479  30.795  1.00  0.00    -0.206 F 
ATOM     85  C   UNL A   1      47.715  34.645  30.016  1.00  0.00     0.059 A 
ATOM     86  C   UNL A   1      47.187  35.236  27.721  1.00  0.00     0.059 A 
ATOM     87  F   UNL A   1      46.198  33.646  26.310  1.00  0.00    -0.206 F 
ATOM     88  C   UNL A   1      47.701  35.572  28.973  1.00  0.00     0.060 A 
BRANCH  88  89
ATOM     89  S   UNL A   1      48.409  37.209  29.264  1.00  0.00     0.124 S 
ATOM     90  O   UNL A   1      47.284  38.079  28.943  1.00  0.00    -0.237 OA
ATOM     91  O   UNL A   1      48.776  37.133  30.674  1.00  0.00    -0.237 OA
ATOM     92  O   UNL A   1      49.532  37.259  28.333  1.00  0.00    -0.744 OA
ENDBRANCH  88  89
ENDBRANCH  56  81
BRANCH  68  93
ATOM     93  C   UNL A   1      49.637  27.207  25.933  1.00  0.00     0.058 A 
ATOM     94  C   UNL A   1      50.669  26.765  26.776  1.00  0.00     0.135 A 
ATOM     95  C   UNL A   1      49.900  27.272  24.555  1.00  0.00     0.135 A 
ATOM     96  F   UNL A   1      50.473  26.690  28.102  1.00  0.00    -0.206 F 
ATOM     97  C   UNL A   1      51.916  26.410  26.272  1.00  0.00     0.059 A 
ATOM     98  C   UNL A   1      51.130  26.895  24.026  1.00  0.00     0.059 A 
ATOM     99  F   UNL A   1      48.944  27.678  23.703  1.00  0.00    -0.206 F 
ATOM    100  C   UNL A   1      52.134  26.470  24.895  1.00  0.00     0.060 A 
BRANCH 100 101
ATOM    101  S   UNL A   1      53.741  25.954  24.254  1.00  0.00     0.124 S 
ATOM    102  O   UNL A   1      54.635  26.912  24.893  1.00  0.00    -0.237 OA
ATOM    103  O   UNL A   1      53.839  24.578  24.733  1.00  0.00    -0.237 OA
ATOM    104  O   UNL A   1      53.595  26.099  22.809  1.00  0.00    -0.744 OA
ENDBRANCH 100 101
ENDBRANCH  68  93
ENDBRANCH  42  43
ENDBRANCH  34  37
ENDBRANCH   1  33
TORSDOF 14
ENDMDL
MODEL 3
REMARK VINA RESULT:     -13.7      0.378      8.015
REMARK SMILES CC1(C)[C@H](O)CC[C@@]2(C)[C@@H]1CC[C@@]1(C)Oc3oc(C(=O)NCCCNC(=O)c4ccc(-c5c6nc(c(-c7c(F)cc(S(=O)(=O)[O-])cc7F)c7ccc([nH]7)c(-c7c(F)cc(S(=O)(=O)[O-])cc7F)c7nc(c(-c8c(F)cc(S(=O)(=O)[O-])cc8F)c8ccc5[nH]8)C=C7)C=C6)cc4)cc(=O)c3C[C@@H]21
REMARK SMILES IDX 24 1 23 2 22 3 21 4 19 5 20 6 18 8 1 9 2 10 4 11 10 12 3 13
REMARK SMILES IDX 6 14 8 15 11 16 7 17 99 18 9 19 12 20 13 21 98 22 15 23
REMARK SMILES IDX 14 24 97 25 16 26 95 27 17 28 94 29 96 30 5 31 25 33 26 34
REMARK SMILES IDX 27 36 28 37 29 38 93 39 30 40 92 41 31 42 32 43 33 44 86 45
REMARK SMILES IDX 34 46 91 47 85 48 87 49 35 50 90 51 84 52 83 53 36 55 70 56
REMARK SMILES IDX 49 57 69 58 50 59 53 60 68 61 88 62 51 63 52 64 67 66 89 67
REMARK SMILES IDX 54 68 37 69 38 70 47 71 39 72 40 73 46 74 48 75 41 76 42 77
REMARK SMILES IDX 43 78 44 79 45 80 71 81 72 82 81 83 73 84 74 85 80 86 82 87
REMARK SMILES IDX 75 88 76 89 77 90 78 91 79 92 55 93 56 94 65 95 57 96 58 97
REMARK SMILES IDX 64 98 66 99 59 100 60 101 61 102 62 103 63 104
REMARK H PARENT 21 7 5 32 25 35 87 54 53 65
REMARK Flexibility Score: inf
ROOT
ATOM      1  C   UNL A   1      41.498  23.254  27.133  1.00  0.00     0.118 C 
ENDROOT
BRANCH   1   2
ATOM      2  C   UNL A   1      40.056  23.045  27.577  1.00  0.00     0.042 C 
BRANCH   2   3
ATOM      3  C   UNL A   1      39.076  22.678  26.467  1.00  0.00     0.118 C 
BRANCH   3   4
ATOM      4  N   UNL A   1      39.101  21.252  26.069  1.00  0.00    -0.349 N 
ATOM      5  C   UNL A   1      38.194  20.454  25.385  1.00  0.00     0.287 C 
ATOM      6  O   UNL A   1      38.442  19.256  25.227  1.00  0.00    -0.266 OA
ATOM      7  H   UNL A   1      39.919  20.779  26.342  1.00  0.00     0.163 HD
BRANCH   5   8
ATOM      8  C   UNL A   1      36.951  21.054  24.827  1.00  0.00     0.199 A 
ATOM      9  C   UNL A   1      31.504  29.224  25.416  1.00  0.00     0.014 C 
ATOM     10  C   UNL A   1      31.749  28.076  24.400  1.00  0.00    -0.006 C 
ATOM     11  C   UNL A   1      33.322  28.368  23.906  1.00  0.00     0.120 C 
ATOM     12  C   UNL A   1      31.559  26.432  25.152  1.00  0.00     0.004 C 
ATOM     13  C   UNL A   1      30.813  28.384  23.206  1.00  0.00     0.014 C 
ATOM     14  C   UNL A   1      33.839  27.286  23.000  1.00  0.00     0.033 C 
ATOM     15  C   UNL A   1      32.995  25.932  25.060  1.00  0.00    -0.022 C 
ATOM     16  C   UNL A   1      30.699  25.166  24.657  1.00  0.00     0.009 C 
ATOM     17  C   UNL A   1      33.063  26.121  23.445  1.00  0.00     0.010 C 
ATOM     18  C   UNL A   1      33.579  24.539  25.361  1.00  0.00     0.044 C 
ATOM     19  C   UNL A   1      33.621  26.695  26.282  1.00  0.00     0.012 C 
ATOM     20  C   UNL A   1      31.397  23.651  24.682  1.00  0.00     0.049 C 
ATOM     21  C   UNL A   1      32.625  23.412  25.648  1.00  0.00     0.113 C 
ATOM     22  C   UNL A   1      34.550  24.233  24.227  1.00  0.00     0.055 C 
ATOM     23  O   UNL A   1      33.404  22.108  25.641  1.00  0.00    -0.458 OA
ATOM     24  C   UNL A   1      32.058  23.462  27.086  1.00  0.00     0.057 C 
ATOM     25  C   UNL A   1      35.208  22.983  24.346  1.00  0.00     0.081 A 
ATOM     26  C   UNL A   1      34.747  22.025  25.149  1.00  0.00     0.292 A 
ATOM     27  C   UNL A   1      36.309  22.784  23.412  1.00  0.00     0.192 A 
ATOM     28  O   UNL A   1      35.675  20.998  25.470  1.00  0.00    -0.420 OA
ATOM     29  C   UNL A   1      37.160  21.655  23.645  1.00  0.00     0.105 A 
ATOM     30  O   UNL A   1      36.560  23.580  22.496  1.00  0.00    -0.289 OA
BRANCH  11  31
ATOM     31  O   UNL A   1      33.558  29.613  23.267  1.00  0.00    -0.393 OA
ATOM     32  H   UNL A   1      34.437  29.943  23.515  1.00  0.00     0.210 HD
ENDBRANCH  11  31
ENDBRANCH   5   8
ENDBRANCH   3   4
ENDBRANCH   2   3
ENDBRANCH   1   2
BRANCH   1  33
ATOM     33  N   UNL A   1      41.643  24.179  26.016  1.00  0.00    -0.352 N 
ATOM     34  C   UNL A   1      41.612  25.556  26.015  1.00  0.00     0.251 C 
ATOM     35  H   UNL A   1      41.784  23.760  25.136  1.00  0.00     0.163 HD
ATOM     36  O   UNL A   1      41.657  26.170  24.948  1.00  0.00    -0.269 OA
BRANCH  34  37
ATOM     37  C   UNL A   1      41.488  26.299  27.289  1.00  0.00     0.039 A 
ATOM     38  C   UNL A   1      42.548  27.108  27.710  1.00  0.00     0.014 A 
ATOM     39  C   UNL A   1      40.325  26.212  28.058  1.00  0.00     0.014 A 
ATOM     40  C   UNL A   1      42.407  27.894  28.858  1.00  0.00     0.010 A 
ATOM     41  C   UNL A   1      40.158  27.049  29.158  1.00  0.00     0.010 A 
ATOM     42  C   UNL A   1      41.197  27.895  29.571  1.00  0.00    -0.014 A 
BRANCH  42  43
ATOM     43  C   UNL A   1      41.013  28.745  30.774  1.00  0.00     0.031 A 
ATOM     44  C   UNL A   1      39.954  29.811  30.775  1.00  0.00     0.074 A 
ATOM     45  C   UNL A   1      41.825  28.594  31.839  1.00  0.00     0.049 A 
ATOM     46  N   UNL A   1      39.661  30.684  31.704  1.00  0.00    -0.248 NA
ATOM     47  C   UNL A   1      39.127  29.925  29.563  1.00  0.00     0.031 C 
ATOM     48  C   UNL A   1      42.910  27.617  31.944  1.00  0.00     0.029 A 
ATOM     49  N   UNL A   1      41.868  29.266  33.035  1.00  0.00    -0.354 N 
ATOM     50  C   UNL A   1      38.618  31.445  31.192  1.00  0.00     0.074 A 
ATOM     51  C   UNL A   1      38.371  30.974  29.846  1.00  0.00     0.031 C 
ATOM     52  C   UNL A   1      43.499  27.741  33.145  1.00  0.00     0.029 A 
ATOM     53  C   UNL A   1      42.857  28.825  33.884  1.00  0.00     0.049 A 
ATOM     54  H   UNL A   1      41.249  29.997  33.265  1.00  0.00     0.167 HD
ATOM     55  C   UNL A   1      37.909  32.425  31.799  1.00  0.00     0.037 A 
ATOM     56  C   UNL A   1      43.207  29.248  35.115  1.00  0.00     0.037 A 
ATOM     57  C   UNL A   1      38.152  32.880  33.141  1.00  0.00     0.049 A 
ATOM     58  C   UNL A   1      42.430  30.367  35.756  1.00  0.00     0.074 A 
ATOM     59  C   UNL A   1      37.460  33.836  33.862  1.00  0.00     0.029 A 
ATOM     60  N   UNL A   1      39.168  32.417  33.964  1.00  0.00    -0.354 N 
ATOM     61  N   UNL A   1      41.404  31.035  35.281  1.00  0.00    -0.248 NA
ATOM     62  C   UNL A   1      42.851  30.788  37.100  1.00  0.00     0.031 C 
ATOM     63  C   UNL A   1      38.089  33.988  35.101  1.00  0.00     0.029 A 
ATOM     64  C   UNL A   1      39.140  33.088  35.175  1.00  0.00     0.049 A 
ATOM     65  H   UNL A   1      39.814  31.713  33.723  1.00  0.00     0.167 HD
ATOM     66  C   UNL A   1      41.045  31.940  36.275  1.00  0.00     0.074 A 
ATOM     67  C   UNL A   1      41.953  31.725  37.383  1.00  0.00     0.031 C 
ATOM     68  C   UNL A   1      40.052  32.864  36.270  1.00  0.00     0.037 A 
BRANCH  55  69
ATOM     69  C   UNL A   1      36.796  33.065  31.018  1.00  0.00     0.058 A 
ATOM     70  C   UNL A   1      37.055  33.993  29.996  1.00  0.00     0.135 A 
ATOM     71  C   UNL A   1      35.457  32.717  31.261  1.00  0.00     0.135 A 
ATOM     72  F   UNL A   1      38.315  34.375  29.733  1.00  0.00    -0.206 F 
ATOM     73  C   UNL A   1      36.027  34.570  29.260  1.00  0.00     0.059 A 
ATOM     74  C   UNL A   1      34.414  33.260  30.517  1.00  0.00     0.059 A 
ATOM     75  F   UNL A   1      35.153  31.837  32.229  1.00  0.00    -0.206 F 
ATOM     76  C   UNL A   1      34.709  34.195  29.525  1.00  0.00     0.060 A 
BRANCH  76  77
ATOM     77  S   UNL A   1      33.390  34.945  28.548  1.00  0.00     0.124 S 
ATOM     78  O   UNL A   1      34.144  35.863  27.699  1.00  0.00    -0.237 OA
ATOM     79  O   UNL A   1      32.809  33.789  27.872  1.00  0.00    -0.237 OA
ATOM     80  O   UNL A   1      32.539  35.576  29.551  1.00  0.00    -0.744 OA
ENDBRANCH  76  77
ENDBRANCH  55  69
BRANCH  56  81
ATOM     81  C   UNL A   1      44.330  28.587  35.833  1.00  0.00     0.058 A 
ATOM     82  C   UNL A   1      45.635  29.093  35.752  1.00  0.00     0.135 A 
ATOM     83  C   UNL A   1      44.117  27.459  36.641  1.00  0.00     0.135 A 
ATOM     84  F   UNL A   1      45.891  30.164  34.985  1.00  0.00    -0.206 F 
ATOM     85  C   UNL A   1      46.690  28.506  36.443  1.00  0.00     0.059 A 
ATOM     86  C   UNL A   1      45.152  26.867  37.360  1.00  0.00     0.059 A 
ATOM     87  F   UNL A   1      42.885  26.940  36.763  1.00  0.00    -0.206 F 
ATOM     88  C   UNL A   1      46.437  27.398  37.252  1.00  0.00     0.060 A 
BRANCH  88  89
ATOM     89  S   UNL A   1      47.802  26.692  38.201  1.00  0.00     0.124 S 
ATOM     90  O   UNL A   1      47.173  26.455  39.495  1.00  0.00    -0.237 OA
ATOM     91  O   UNL A   1      48.128  25.502  37.421  1.00  0.00    -0.237 OA
ATOM     92  O   UNL A   1      48.812  27.746  38.173  1.00  0.00    -0.744 OA
ENDBRANCH  88  89
ENDBRANCH  56  81
BRANCH  68  93
ATOM     93  C   UNL A   1      39.877  33.713  37.499  1.00  0.00     0.058 A 
ATOM     94  C   UNL A   1      40.550  34.935  37.648  1.00  0.00     0.135 A 
ATOM     95  C   UNL A   1      38.959  33.344  38.496  1.00  0.00     0.135 A 
ATOM     96  F   UNL A   1      41.442  35.333  36.728  1.00  0.00    -0.206 F 
ATOM     97  C   UNL A   1      40.327  35.757  38.749  1.00  0.00     0.059 A 
ATOM     98  C   UNL A   1      38.699  34.162  39.591  1.00  0.00     0.059 A 
ATOM     99  F   UNL A   1      38.281  32.189  38.397  1.00  0.00    -0.206 F 
ATOM    100  C   UNL A   1      39.393  35.365  39.711  1.00  0.00     0.060 A 
BRANCH 100 101
ATOM    101  S   UNL A   1      39.079  36.469  41.104  1.00  0.00     0.124 S 
ATOM    102  O   UNL A   1      40.391  36.527  41.737  1.00  0.00    -0.237 OA
ATOM    103  O   UNL A   1      38.640  37.692  40.439  1.00  0.00    -0.237 OA
ATOM    104  O   UNL A   1      38.046  35.772  41.865  1.00  0.00    -0.744 OA
ENDBRANCH 100 101
ENDBRANCH  68  93
ENDBRANCH  42  43
ENDBRANCH  34  37
ENDBRANCH   1  33
TORSDOF 14
ENDMDL
