MODEL 1
REMARK VINA RESULT:     -13.3      0.000      0.000
REMARK SMILES CCN(CC)c1ncc(NC(=O)c2ccc(C)cc2)cc1C(=O)NCCCNC(=O)c1ccc(-c2c3nc(c(-c4c(F)cc(S(=O)(=O)[O-])cc4F)c4ccc([nH]4)c(-c4c(F)cc(S(=O)(=O)[O-])cc4F)c4nc(c(-c5c(F)cc(S(=O)(=O)[O-])cc5F)c5ccc2[nH]5)C=C4)C=C3)cc1
REMARK SMILES IDX 26 1 25 2 24 3 22 4 23 5 21 7 6 8 7 9 8 10 20 11 9 12 3 13
REMARK SMILES IDX 2 14 1 15 4 16 5 17 10 18 11 19 12 21 13 22 14 23 19 24
REMARK SMILES IDX 15 25 18 26 16 27 17 28 27 29 28 30 29 31 30 33 31 34 32 35
REMARK SMILES IDX 96 36 33 37 95 38 34 39 35 40 36 41 89 42 37 43 94 44 88 45
REMARK SMILES IDX 90 46 38 47 93 48 87 49 86 50 39 52 73 53 52 54 72 55 53 56
REMARK SMILES IDX 56 57 71 58 91 59 54 60 55 61 70 63 92 64 57 65 40 66 41 67
REMARK SMILES IDX 50 68 42 69 43 70 49 71 51 72 44 73 45 74 46 75 47 76 48 77
REMARK SMILES IDX 74 78 75 79 84 80 76 81 77 82 83 83 85 84 78 85 79 86 80 87
REMARK SMILES IDX 81 88 82 89 58 90 59 91 68 92 60 93 61 94 67 95 69 96 62 97
REMARK SMILES IDX 63 98 64 99 65 100 66 101
REMARK H PARENT 24 6 10 20 28 32 90 51 56 62
REMARK Flexibility Score: inf
ROOT
ATOM      1  C   UNL A   1      33.632  29.140  27.529  1.00  0.00     0.042 C 
ENDROOT
BRANCH   1   2
ATOM      2  C   UNL A   1      33.298  27.871  26.753  1.00  0.00     0.118 C 
BRANCH   2   3
ATOM      3  N   UNL A   1      31.881  27.517  26.783  1.00  0.00    -0.352 N 
ATOM      4  C   UNL A   1      31.060  26.663  26.078  1.00  0.00     0.255 C 
ATOM      5  O   UNL A   1      30.023  26.353  26.667  1.00  0.00    -0.269 OA
ATOM      6  H   UNL A   1      31.391  28.012  27.480  1.00  0.00     0.163 HD
BRANCH   4   7
ATOM      7  C   UNL A   1      31.345  26.098  24.713  1.00  0.00     0.084 A 
ATOM      8  C   UNL A   1      31.538  26.944  23.596  1.00  0.00     0.141 A 
ATOM      9  N   UNL A   1      31.624  26.439  22.335  1.00  0.00    -0.236 NA
ATOM     10  C   UNL A   1      31.585  25.104  22.150  1.00  0.00     0.139 A 
ATOM     11  C   UNL A   1      31.356  24.715  24.464  1.00  0.00     0.045 A 
ATOM     12  C   UNL A   1      31.524  24.193  23.180  1.00  0.00     0.060 A 
BRANCH   8  13
ATOM     13  N   UNL A   1      31.700  28.318  23.666  1.00  0.00    -0.357 N 
BRANCH  13  14
ATOM     14  C   UNL A   1      32.772  28.916  22.870  1.00  0.00     0.114 C 
ATOM     15  C   UNL A   1      34.151  28.566  23.400  1.00  0.00     0.027 C 
ENDBRANCH  13  14
BRANCH  13  16
ATOM     16  C   UNL A   1      30.514  29.124  23.952  1.00  0.00     0.114 C 
ATOM     17  C   UNL A   1      29.261  28.659  23.214  1.00  0.00     0.027 C 
ENDBRANCH  13  16
ENDBRANCH   8  13
BRANCH  12  18
ATOM     18  N   UNL A   1      31.560  22.792  23.043  1.00  0.00    -0.321 N 
ATOM     19  C   UNL A   1      32.573  21.868  23.156  1.00  0.00     0.255 C 
ATOM     20  H   UNL A   1      30.686  22.396  22.823  1.00  0.00     0.170 HD
ATOM     21  O   UNL A   1      32.399  20.733  22.712  1.00  0.00    -0.269 OA
BRANCH  19  22
ATOM     22  C   UNL A   1      33.853  22.156  23.841  1.00  0.00     0.040 A 
ATOM     23  C   UNL A   1      34.761  23.014  23.209  1.00  0.00     0.014 A 
ATOM     24  C   UNL A   1      34.208  21.538  25.044  1.00  0.00     0.014 A 
ATOM     25  C   UNL A   1      35.986  23.306  23.811  1.00  0.00     0.004 A 
ATOM     26  C   UNL A   1      35.426  21.849  25.655  1.00  0.00     0.004 A 
ATOM     27  C   UNL A   1      36.315  22.748  25.054  1.00  0.00    -0.051 A 
ATOM     28  C   UNL A   1      37.633  23.067  25.695  1.00  0.00     0.044 C 
ENDBRANCH  19  22
ENDBRANCH  12  18
ENDBRANCH   4   7
ENDBRANCH   2   3
ENDBRANCH   1   2
BRANCH   1  29
ATOM     29  C   UNL A   1      34.533  30.083  26.741  1.00  0.00     0.118 C 
BRANCH  29  30
ATOM     30  N   UNL A   1      35.104  31.160  27.543  1.00  0.00    -0.352 N 
ATOM     31  C   UNL A   1      36.196  31.093  28.394  1.00  0.00     0.251 C 
ATOM     32  H   UNL A   1      34.662  32.037  27.470  1.00  0.00     0.163 HD
ATOM     33  O   UNL A   1      36.470  31.982  29.175  1.00  0.00    -0.269 OA
BRANCH  31  34
ATOM     34  C   UNL A   1      37.086  29.923  28.233  1.00  0.00     0.039 A 
ATOM     35  C   UNL A   1      37.223  29.066  29.330  1.00  0.00     0.014 A 
ATOM     36  C   UNL A   1      37.964  29.861  27.155  1.00  0.00     0.014 A 
ATOM     37  C   UNL A   1      38.356  28.262  29.432  1.00  0.00     0.010 A 
ATOM     38  C   UNL A   1      39.128  29.128  27.298  1.00  0.00     0.010 A 
ATOM     39  C   UNL A   1      39.351  28.367  28.457  1.00  0.00    -0.014 A 
BRANCH  39  40
ATOM     40  C   UNL A   1      40.690  27.799  28.609  1.00  0.00     0.031 A 
ATOM     41  C   UNL A   1      40.954  26.385  28.219  1.00  0.00     0.074 A 
ATOM     42  C   UNL A   1      41.723  28.575  29.018  1.00  0.00     0.049 A 
ATOM     43  N   UNL A   1      41.923  25.663  28.682  1.00  0.00    -0.248 NA
ATOM     44  C   UNL A   1      40.110  25.658  27.277  1.00  0.00     0.031 C 
ATOM     45  C   UNL A   1      43.140  28.231  28.923  1.00  0.00     0.029 A 
ATOM     46  N   UNL A   1      41.730  29.766  29.754  1.00  0.00    -0.354 N 
ATOM     47  C   UNL A   1      42.017  24.528  27.902  1.00  0.00     0.074 A 
ATOM     48  C   UNL A   1      40.824  24.544  27.086  1.00  0.00     0.031 C 
ATOM     49  C   UNL A   1      43.825  28.972  29.807  1.00  0.00     0.029 A 
ATOM     50  C   UNL A   1      42.847  29.691  30.604  1.00  0.00     0.049 A 
ATOM     51  H   UNL A   1      41.084  30.506  29.688  1.00  0.00     0.167 HD
ATOM     52  C   UNL A   1      43.158  23.775  27.922  1.00  0.00     0.037 A 
ATOM     53  C   UNL A   1      42.813  29.690  31.971  1.00  0.00     0.037 A 
ATOM     54  C   UNL A   1      44.132  24.311  28.872  1.00  0.00     0.049 A 
ATOM     55  C   UNL A   1      43.504  28.494  32.597  1.00  0.00     0.074 A 
ATOM     56  C   UNL A   1      45.237  25.131  28.704  1.00  0.00     0.029 A 
ATOM     57  N   UNL A   1      43.886  24.258  30.239  1.00  0.00    -0.354 N 
ATOM     58  N   UNL A   1      43.824  27.418  31.936  1.00  0.00    -0.248 NA
ATOM     59  C   UNL A   1      43.840  28.387  34.017  1.00  0.00     0.031 C 
ATOM     60  C   UNL A   1      45.629  25.610  29.975  1.00  0.00     0.029 A 
ATOM     61  C   UNL A   1      44.768  25.078  30.919  1.00  0.00     0.049 A 
ATOM     62  H   UNL A   1      43.184  23.714  30.664  1.00  0.00     0.167 HD
ATOM     63  C   UNL A   1      44.344  26.482  32.791  1.00  0.00     0.074 A 
ATOM     64  C   UNL A   1      44.362  27.148  34.079  1.00  0.00     0.031 C 
ATOM     65  C   UNL A   1      44.697  25.234  32.364  1.00  0.00     0.037 A 
BRANCH  52  66
ATOM     66  C   UNL A   1      43.519  22.756  26.849  1.00  0.00     0.058 A 
ATOM     67  C   UNL A   1      42.875  21.499  26.792  1.00  0.00     0.135 A 
ATOM     68  C   UNL A   1      44.533  22.930  25.887  1.00  0.00     0.135 A 
ATOM     69  F   UNL A   1      41.799  21.223  27.541  1.00  0.00    -0.206 F 
ATOM     70  C   UNL A   1      43.303  20.456  25.969  1.00  0.00     0.059 A 
ATOM     71  C   UNL A   1      45.018  21.885  25.090  1.00  0.00     0.059 A 
ATOM     72  F   UNL A   1      45.063  24.138  25.648  1.00  0.00    -0.206 F 
ATOM     73  C   UNL A   1      44.410  20.640  25.154  1.00  0.00     0.060 A 
BRANCH  73  74
ATOM     74  S   UNL A   1      45.026  19.244  24.196  1.00  0.00     0.124 S 
ATOM     75  O   UNL A   1      44.443  18.105  24.899  1.00  0.00    -0.237 OA
ATOM     76  O   UNL A   1      44.480  19.519  22.871  1.00  0.00    -0.237 OA
ATOM     77  O   UNL A   1      46.477  19.365  24.314  1.00  0.00    -0.744 OA
ENDBRANCH  73  74
ENDBRANCH  52  66
BRANCH  53  78
ATOM     78  C   UNL A   1      41.652  30.396  32.565  1.00  0.00     0.058 A 
ATOM     79  C   UNL A   1      40.514  29.634  32.883  1.00  0.00     0.135 A 
ATOM     80  C   UNL A   1      41.808  31.638  33.196  1.00  0.00     0.135 A 
ATOM     81  F   UNL A   1      40.299  28.460  32.271  1.00  0.00    -0.206 F 
ATOM     82  C   UNL A   1      39.672  29.994  33.927  1.00  0.00     0.059 A 
ATOM     83  C   UNL A   1      40.973  32.022  34.243  1.00  0.00     0.059 A 
ATOM     84  F   UNL A   1      42.867  32.410  32.914  1.00  0.00    -0.206 F 
ATOM     85  C   UNL A   1      39.960  31.150  34.650  1.00  0.00     0.060 A 
BRANCH  85  86
ATOM     86  S   UNL A   1      39.129  31.373  36.241  1.00  0.00     0.124 S 
ATOM     87  O   UNL A   1      40.231  31.773  37.108  1.00  0.00    -0.237 OA
ATOM     88  O   UNL A   1      38.164  32.423  35.915  1.00  0.00    -0.237 OA
ATOM     89  O   UNL A   1      38.559  30.058  36.503  1.00  0.00    -0.744 OA
ENDBRANCH  85  86
ENDBRANCH  53  78
BRANCH  65  90
ATOM     90  C   UNL A   1      45.104  24.084  33.251  1.00  0.00     0.058 A 
ATOM     91  C   UNL A   1      46.352  23.992  33.888  1.00  0.00     0.135 A 
ATOM     92  C   UNL A   1      44.169  23.075  33.588  1.00  0.00     0.135 A 
ATOM     93  F   UNL A   1      47.280  24.949  33.738  1.00  0.00    -0.206 F 
ATOM     94  C   UNL A   1      46.682  22.937  34.742  1.00  0.00     0.059 A 
ATOM     95  C   UNL A   1      44.460  22.040  34.475  1.00  0.00     0.059 A 
ATOM     96  F   UNL A   1      42.933  23.069  33.069  1.00  0.00    -0.206 F 
ATOM     97  C   UNL A   1      45.732  21.961  35.026  1.00  0.00     0.060 A 
BRANCH  97  98
ATOM     98  S   UNL A   1      46.128  20.616  36.159  1.00  0.00     0.124 S 
ATOM     99  O   UNL A   1      45.346  19.521  35.595  1.00  0.00    -0.237 OA
ATOM    100  O   UNL A   1      47.576  20.489  36.023  1.00  0.00    -0.237 OA
ATOM    101  O   UNL A   1      45.671  21.124  37.448  1.00  0.00    -0.744 OA
ENDBRANCH  97  98
ENDBRANCH  65  90
ENDBRANCH  39  40
ENDBRANCH  31  34
ENDBRANCH  29  30
ENDBRANCH   1  29
TORSDOF 18
ENDMDL
MODEL 2
REMARK VINA RESULT:     -13.2      4.779     11.214
REMARK SMILES CCN(CC)c1ncc(NC(=O)c2ccc(C)cc2)cc1C(=O)NCCCNC(=O)c1ccc(-c2c3nc(c(-c4c(F)cc(S(=O)(=O)[O-])cc4F)c4ccc([nH]4)c(-c4c(F)cc(S(=O)(=O)[O-])cc4F)c4nc(c(-c5c(F)cc(S(=O)(=O)[O-])cc5F)c5ccc2[nH]5)C=C4)C=C3)cc1
REMARK SMILES IDX 26 1 25 2 24 3 22 4 23 5 21 7 6 8 7 9 8 10 20 11 9 12 3 13
REMARK SMILES IDX 2 14 1 15 4 16 5 17 10 18 11 19 12 21 13 22 14 23 19 24
REMARK SMILES IDX 15 25 18 26 16 27 17 28 27 29 28 30 29 31 30 33 31 34 32 35
REMARK SMILES IDX 96 36 33 37 95 38 34 39 35 40 36 41 89 42 37 43 94 44 88 45
REMARK SMILES IDX 90 46 38 47 93 48 87 49 86 50 39 52 73 53 52 54 72 55 53 56
REMARK SMILES IDX 56 57 71 58 91 59 54 60 55 61 70 63 92 64 57 65 40 66 41 67
REMARK SMILES IDX 50 68 42 69 43 70 49 71 51 72 44 73 45 74 46 75 47 76 48 77
REMARK SMILES IDX 74 78 75 79 84 80 76 81 77 82 83 83 85 84 78 85 79 86 80 87
REMARK SMILES IDX 81 88 82 89 58 90 59 91 68 92 60 93 61 94 67 95 69 96 62 97
REMARK SMILES IDX 63 98 64 99 65 100 66 101
REMARK H PARENT 24 6 10 20 28 32 90 51 56 62
REMARK Flexibility Score: inf
ROOT
ATOM      1  C   UNL A   1      36.826  23.114  25.961  1.00  0.00     0.042 C 
ENDROOT
BRANCH   1   2
ATOM      2  C   UNL A   1      35.740  23.889  25.223  1.00  0.00     0.118 C 
BRANCH   2   3
ATOM      3  N   UNL A   1      35.311  23.260  23.977  1.00  0.00    -0.352 N 
ATOM      4  C   UNL A   1      34.262  23.423  23.096  1.00  0.00     0.255 C 
ATOM      5  O   UNL A   1      34.474  22.981  21.966  1.00  0.00    -0.269 OA
ATOM      6  H   UNL A   1      35.923  22.541  23.695  1.00  0.00     0.163 HD
BRANCH   4   7
ATOM      7  C   UNL A   1      32.951  24.091  23.408  1.00  0.00     0.084 A 
ATOM      8  C   UNL A   1      32.047  23.531  24.342  1.00  0.00     0.141 A 
ATOM      9  N   UNL A   1      30.793  24.035  24.499  1.00  0.00    -0.236 NA
ATOM     10  C   UNL A   1      30.421  25.124  23.797  1.00  0.00     0.139 A 
ATOM     11  C   UNL A   1      32.524  25.250  22.737  1.00  0.00     0.045 A 
ATOM     12  C   UNL A   1      31.266  25.814  22.956  1.00  0.00     0.060 A 
BRANCH   8  13
ATOM     13  N   UNL A   1      32.345  22.482  25.197  1.00  0.00    -0.357 N 
BRANCH  13  14
ATOM     14  C   UNL A   1      32.096  22.678  26.624  1.00  0.00     0.114 C 
ATOM     15  C   UNL A   1      33.373  22.639  27.446  1.00  0.00     0.027 C 
ENDBRANCH  13  14
BRANCH  13  16
ATOM     16  C   UNL A   1      32.261  21.126  24.656  1.00  0.00     0.114 C 
ATOM     17  C   UNL A   1      33.519  20.292  24.886  1.00  0.00     0.027 C 
ENDBRANCH  13  16
ENDBRANCH   8  13
BRANCH  12  18
ATOM     18  N   UNL A   1      30.950  26.998  22.263  1.00  0.00    -0.321 N 
ATOM     19  C   UNL A   1      30.976  28.326  22.622  1.00  0.00     0.255 C 
ATOM     20  H   UNL A   1      30.652  26.844  21.337  1.00  0.00     0.170 HD
ATOM     21  O   UNL A   1      30.383  29.146  21.921  1.00  0.00    -0.269 OA
BRANCH  19  22
ATOM     22  C   UNL A   1      31.733  28.830  23.789  1.00  0.00     0.040 A 
ATOM     23  C   UNL A   1      31.048  29.591  24.743  1.00  0.00     0.014 A 
ATOM     24  C   UNL A   1      33.113  28.639  23.918  1.00  0.00     0.014 A 
ATOM     25  C   UNL A   1      31.722  30.097  25.855  1.00  0.00     0.004 A 
ATOM     26  C   UNL A   1      33.782  29.129  25.044  1.00  0.00     0.004 A 
ATOM     27  C   UNL A   1      33.090  29.845  26.028  1.00  0.00    -0.051 A 
ATOM     28  C   UNL A   1      33.809  30.392  27.226  1.00  0.00     0.044 C 
ENDBRANCH  19  22
ENDBRANCH  12  18
ENDBRANCH   4   7
ENDBRANCH   2   3
ENDBRANCH   1   2
BRANCH   1  29
ATOM     29  C   UNL A   1      38.228  23.532  25.537  1.00  0.00     0.118 C 
BRANCH  29  30
ATOM     30  N   UNL A   1      39.281  23.049  26.425  1.00  0.00    -0.352 N 
ATOM     31  C   UNL A   1      40.060  23.795  27.296  1.00  0.00     0.251 C 
ATOM     32  H   UNL A   1      39.458  22.081  26.403  1.00  0.00     0.163 HD
ATOM     33  O   UNL A   1      41.048  23.342  27.839  1.00  0.00    -0.269 OA
BRANCH  31  34
ATOM     34  C   UNL A   1      39.570  25.152  27.621  1.00  0.00     0.039 A 
ATOM     35  C   UNL A   1      40.050  26.211  26.843  1.00  0.00     0.014 A 
ATOM     36  C   UNL A   1      38.911  25.382  28.825  1.00  0.00     0.014 A 
ATOM     37  C   UNL A   1      40.029  27.504  27.362  1.00  0.00     0.010 A 
ATOM     38  C   UNL A   1      38.969  26.650  29.373  1.00  0.00     0.010 A 
ATOM     39  C   UNL A   1      39.572  27.703  28.666  1.00  0.00    -0.014 A 
BRANCH  39  40
ATOM     40  C   UNL A   1      39.773  28.948  29.407  1.00  0.00     0.031 A 
ATOM     41  C   UNL A   1      38.744  30.025  29.358  1.00  0.00     0.074 A 
ATOM     42  C   UNL A   1      40.849  29.099  30.218  1.00  0.00     0.049 A 
ATOM     43  N   UNL A   1      38.976  31.276  29.594  1.00  0.00    -0.248 NA
ATOM     44  C   UNL A   1      37.352  29.767  29.007  1.00  0.00     0.031 C 
ATOM     45  C   UNL A   1      41.016  30.138  31.232  1.00  0.00     0.029 A 
ATOM     46  N   UNL A   1      42.094  28.461  30.205  1.00  0.00    -0.354 N 
ATOM     47  C   UNL A   1      37.761  31.916  29.726  1.00  0.00     0.074 A 
ATOM     48  C   UNL A   1      36.785  30.945  29.285  1.00  0.00     0.031 C 
ATOM     49  C   UNL A   1      42.323  30.275  31.500  1.00  0.00     0.029 A 
ATOM     50  C   UNL A   1      43.039  29.443  30.549  1.00  0.00     0.049 A 
ATOM     51  H   UNL A   1      42.273  27.515  29.997  1.00  0.00     0.167 HD
ATOM     52  C   UNL A   1      37.694  33.140  30.331  1.00  0.00     0.037 A 
ATOM     53  C   UNL A   1      44.061  29.882  29.756  1.00  0.00     0.037 A 
ATOM     54  C   UNL A   1      39.021  33.618  30.713  1.00  0.00     0.049 A 
ATOM     55  C   UNL A   1      44.058  31.382  29.531  1.00  0.00     0.074 A 
ATOM     56  C   UNL A   1      39.708  33.585  31.917  1.00  0.00     0.029 A 
ATOM     57  N   UNL A   1      39.949  33.974  29.742  1.00  0.00    -0.354 N 
ATOM     58  N   UNL A   1      43.036  32.148  29.788  1.00  0.00    -0.248 NA
ATOM     59  C   UNL A   1      45.174  32.131  28.953  1.00  0.00     0.031 C 
ATOM     60  C   UNL A   1      41.067  33.879  31.659  1.00  0.00     0.029 A 
ATOM     61  C   UNL A   1      41.209  34.097  30.299  1.00  0.00     0.049 A 
ATOM     62  H   UNL A   1      39.740  34.119  28.790  1.00  0.00     0.167 HD
ATOM     63  C   UNL A   1      43.304  33.432  29.393  1.00  0.00     0.074 A 
ATOM     64  C   UNL A   1      44.668  33.377  28.903  1.00  0.00     0.031 C 
ATOM     65  C   UNL A   1      42.369  34.423  29.486  1.00  0.00     0.037 A 
BRANCH  52  66
ATOM     66  C   UNL A   1      36.405  33.749  30.870  1.00  0.00     0.058 A 
ATOM     67  C   UNL A   1      35.386  34.189  29.994  1.00  0.00     0.135 A 
ATOM     68  C   UNL A   1      36.139  33.986  32.232  1.00  0.00     0.135 A 
ATOM     69  F   UNL A   1      35.416  33.916  28.682  1.00  0.00    -0.206 F 
ATOM     70  C   UNL A   1      34.284  34.936  30.416  1.00  0.00     0.059 A 
ATOM     71  C   UNL A   1      35.073  34.779  32.676  1.00  0.00     0.059 A 
ATOM     72  F   UNL A   1      36.878  33.414  33.192  1.00  0.00    -0.206 F 
ATOM     73  C   UNL A   1      34.160  35.270  31.756  1.00  0.00     0.060 A 
BRANCH  73  74
ATOM     74  S   UNL A   1      32.802  36.342  32.261  1.00  0.00     0.124 S 
ATOM     75  O   UNL A   1      31.726  35.384  32.500  1.00  0.00    -0.237 OA
ATOM     76  O   UNL A   1      33.350  36.990  33.447  1.00  0.00    -0.237 OA
ATOM     77  O   UNL A   1      32.607  37.211  31.104  1.00  0.00    -0.744 OA
ENDBRANCH  73  74
ENDBRANCH  52  66
BRANCH  53  78
ATOM     78  C   UNL A   1      44.560  28.887  28.776  1.00  0.00     0.058 A 
ATOM     79  C   UNL A   1      43.943  28.844  27.513  1.00  0.00     0.135 A 
ATOM     80  C   UNL A   1      45.841  28.332  28.900  1.00  0.00     0.135 A 
ATOM     81  F   UNL A   1      42.699  29.323  27.357  1.00  0.00    -0.206 F 
ATOM     82  C   UNL A   1      44.642  28.449  26.380  1.00  0.00     0.059 A 
ATOM     83  C   UNL A   1      46.559  27.924  27.777  1.00  0.00     0.059 A 
ATOM     84  F   UNL A   1      46.465  28.332  30.086  1.00  0.00    -0.206 F 
ATOM     85  C   UNL A   1      45.976  28.067  26.516  1.00  0.00     0.060 A 
BRANCH  85  86
ATOM     86  S   UNL A   1      46.978  27.971  25.015  1.00  0.00     0.124 S 
ATOM     87  O   UNL A   1      46.453  26.773  24.371  1.00  0.00    -0.237 OA
ATOM     88  O   UNL A   1      46.644  29.238  24.366  1.00  0.00    -0.237 OA
ATOM     89  O   UNL A   1      48.337  27.872  25.531  1.00  0.00    -0.744 OA
ENDBRANCH  85  86
ENDBRANCH  53  78
BRANCH  65  90
ATOM     90  C   UNL A   1      42.502  35.814  28.915  1.00  0.00     0.058 A 
ATOM     91  C   UNL A   1      41.804  36.263  27.782  1.00  0.00     0.135 A 
ATOM     92  C   UNL A   1      43.268  36.794  29.590  1.00  0.00     0.135 A 
ATOM     93  F   UNL A   1      40.957  35.457  27.124  1.00  0.00    -0.206 F 
ATOM     94  C   UNL A   1      41.912  37.571  27.304  1.00  0.00     0.059 A 
ATOM     95  C   UNL A   1      43.352  38.117  29.160  1.00  0.00     0.059 A 
ATOM     96  F   UNL A   1      43.957  36.497  30.702  1.00  0.00    -0.206 F 
ATOM     97  C   UNL A   1      42.693  38.491  27.997  1.00  0.00     0.060 A 
BRANCH  97  98
ATOM     98  S   UNL A   1      42.810  40.195  27.418  1.00  0.00     0.124 S 
ATOM     99  O   UNL A   1      41.445  40.440  26.962  1.00  0.00    -0.237 OA
ATOM    100  O   UNL A   1      43.212  40.923  28.617  1.00  0.00    -0.237 OA
ATOM    101  O   UNL A   1      43.825  40.119  26.371  1.00  0.00    -0.744 OA
ENDBRANCH  97  98
ENDBRANCH  65  90
ENDBRANCH  39  40
ENDBRANCH  31  34
ENDBRANCH  29  30
ENDBRANCH   1  29
TORSDOF 18
ENDMDL
MODEL 3
REMARK VINA RESULT:     -13.2      1.438      2.275
REMARK SMILES CCN(CC)c1ncc(NC(=O)c2ccc(C)cc2)cc1C(=O)NCCCNC(=O)c1ccc(-c2c3nc(c(-c4c(F)cc(S(=O)(=O)[O-])cc4F)c4ccc([nH]4)c(-c4c(F)cc(S(=O)(=O)[O-])cc4F)c4nc(c(-c5c(F)cc(S(=O)(=O)[O-])cc5F)c5ccc2[nH]5)C=C4)C=C3)cc1
REMARK SMILES IDX 26 1 25 2 24 3 22 4 23 5 21 7 6 8 7 9 8 10 20 11 9 12 3 13
REMARK SMILES IDX 2 14 1 15 4 16 5 17 10 18 11 19 12 21 13 22 14 23 19 24
REMARK SMILES IDX 15 25 18 26 16 27 17 28 27 29 28 30 29 31 30 33 31 34 32 35
REMARK SMILES IDX 96 36 33 37 95 38 34 39 35 40 36 41 89 42 37 43 94 44 88 45
REMARK SMILES IDX 90 46 38 47 93 48 87 49 86 50 39 52 73 53 52 54 72 55 53 56
REMARK SMILES IDX 56 57 71 58 91 59 54 60 55 61 70 63 92 64 57 65 40 66 41 67
REMARK SMILES IDX 50 68 42 69 43 70 49 71 51 72 44 73 45 74 46 75 47 76 48 77
REMARK SMILES IDX 74 78 75 79 84 80 76 81 77 82 83 83 85 84 78 85 79 86 80 87
REMARK SMILES IDX 81 88 82 89 58 90 59 91 68 92 60 93 61 94 67 95 69 96 62 97
REMARK SMILES IDX 63 98 64 99 65 100 66 101
REMARK H PARENT 24 6 10 20 28 32 90 51 56 62
REMARK Flexibility Score: inf
ROOT
ATOM      1  C   UNL A   1      33.100  30.211  27.003  1.00  0.00     0.042 C 
ENDROOT
BRANCH   1   2
ATOM      2  C   UNL A   1      32.771  29.290  25.833  1.00  0.00     0.118 C 
BRANCH   2   3
ATOM      3  N   UNL A   1      31.927  28.155  26.196  1.00  0.00    -0.352 N 
ATOM      4  C   UNL A   1      32.002  26.784  26.064  1.00  0.00     0.255 C 
ATOM      5  O   UNL A   1      31.292  26.158  26.853  1.00  0.00    -0.269 OA
ATOM      6  H   UNL A   1      31.098  28.439  26.647  1.00  0.00     0.163 HD
BRANCH   4   7
ATOM      7  C   UNL A   1      32.865  26.043  25.080  1.00  0.00     0.084 A 
ATOM      8  C   UNL A   1      32.489  25.919  23.722  1.00  0.00     0.141 A 
ATOM      9  N   UNL A   1      33.176  25.109  22.871  1.00  0.00    -0.236 NA
ATOM     10  C   UNL A   1      34.270  24.456  23.312  1.00  0.00     0.139 A 
ATOM     11  C   UNL A   1      34.039  25.375  25.471  1.00  0.00     0.045 A 
ATOM     12  C   UNL A   1      34.789  24.607  24.579  1.00  0.00     0.060 A 
BRANCH   8  13
ATOM     13  N   UNL A   1      31.452  26.617  23.124  1.00  0.00    -0.357 N 
BRANCH  13  14
ATOM     14  C   UNL A   1      30.087  26.270  23.517  1.00  0.00     0.114 C 
ATOM     15  C   UNL A   1      29.146  27.461  23.454  1.00  0.00     0.027 C 
ENDBRANCH  13  14
BRANCH  13  16
ATOM     16  C   UNL A   1      31.723  27.985  22.686  1.00  0.00     0.114 C 
ATOM     17  C   UNL A   1      33.197  28.256  22.391  1.00  0.00     0.027 C 
ENDBRANCH  13  16
ENDBRANCH   8  13
BRANCH  12  18
ATOM     18  N   UNL A   1      35.969  24.010  25.060  1.00  0.00    -0.321 N 
ATOM     19  C   UNL A   1      36.225  22.802  25.667  1.00  0.00     0.255 C 
ATOM     20  H   UNL A   1      36.771  24.568  24.936  1.00  0.00     0.170 HD
ATOM     21  O   UNL A   1      37.300  22.639  26.244  1.00  0.00    -0.269 OA
BRANCH  19  22
ATOM     22  C   UNL A   1      35.286  21.660  25.613  1.00  0.00     0.040 A 
ATOM     23  C   UNL A   1      35.653  20.539  24.859  1.00  0.00     0.014 A 
ATOM     24  C   UNL A   1      34.026  21.704  26.217  1.00  0.00     0.014 A 
ATOM     25  C   UNL A   1      34.796  19.441  24.769  1.00  0.00     0.004 A 
ATOM     26  C   UNL A   1      33.178  20.594  26.144  1.00  0.00     0.004 A 
ATOM     27  C   UNL A   1      33.563  19.449  25.436  1.00  0.00    -0.051 A 
ATOM     28  C   UNL A   1      32.647  18.266  25.335  1.00  0.00     0.044 C 
ENDBRANCH  19  22
ENDBRANCH  12  18
ENDBRANCH   4   7
ENDBRANCH   2   3
ENDBRANCH   1   2
BRANCH   1  29
ATOM     29  C   UNL A   1      34.456  29.898  27.624  1.00  0.00     0.118 C 
BRANCH  29  30
ATOM     30  N   UNL A   1      35.130  31.064  28.186  1.00  0.00    -0.352 N 
ATOM     31  C   UNL A   1      36.327  31.094  28.884  1.00  0.00     0.251 C 
ATOM     32  H   UNL A   1      34.682  31.931  28.053  1.00  0.00     0.163 HD
ATOM     33  O   UNL A   1      36.704  32.076  29.492  1.00  0.00    -0.269 OA
BRANCH  31  34
ATOM     34  C   UNL A   1      37.187  29.897  28.768  1.00  0.00     0.039 A 
ATOM     35  C   UNL A   1      37.380  29.132  29.924  1.00  0.00     0.014 A 
ATOM     36  C   UNL A   1      37.994  29.728  27.647  1.00  0.00     0.014 A 
ATOM     37  C   UNL A   1      38.506  28.317  30.023  1.00  0.00     0.010 A 
ATOM     38  C   UNL A   1      39.154  28.986  27.780  1.00  0.00     0.010 A 
ATOM     39  C   UNL A   1      39.439  28.320  28.983  1.00  0.00    -0.014 A 
BRANCH  39  40
ATOM     40  C   UNL A   1      40.776  27.740  29.100  1.00  0.00     0.031 A 
ATOM     41  C   UNL A   1      41.035  26.349  28.631  1.00  0.00     0.074 A 
ATOM     42  C   UNL A   1      41.812  28.488  29.550  1.00  0.00     0.049 A 
ATOM     43  N   UNL A   1      42.002  25.599  29.049  1.00  0.00    -0.248 NA
ATOM     44  C   UNL A   1      40.186  25.679  27.651  1.00  0.00     0.031 C 
ATOM     45  C   UNL A   1      43.228  28.146  29.433  1.00  0.00     0.029 A 
ATOM     46  N   UNL A   1      41.825  29.635  30.352  1.00  0.00    -0.354 N 
ATOM     47  C   UNL A   1      42.090  24.510  28.207  1.00  0.00     0.074 A 
ATOM     48  C   UNL A   1      40.896  24.575  27.396  1.00  0.00     0.031 C 
ATOM     49  C   UNL A   1      43.917  28.833  30.355  1.00  0.00     0.029 A 
ATOM     50  C   UNL A   1      42.943  29.509  31.194  1.00  0.00     0.049 A 
ATOM     51  H   UNL A   1      41.182  30.381  30.330  1.00  0.00     0.167 HD
ATOM     52  C   UNL A   1      43.229  23.753  28.182  1.00  0.00     0.037 A 
ATOM     53  C   UNL A   1      42.912  29.431  32.558  1.00  0.00     0.037 A 
ATOM     54  C   UNL A   1      44.206  24.231  29.158  1.00  0.00     0.049 A 
ATOM     55  C   UNL A   1      43.600  28.200  33.115  1.00  0.00     0.074 A 
ATOM     56  C   UNL A   1      45.314  25.056  29.034  1.00  0.00     0.029 A 
ATOM     57  N   UNL A   1      43.964  24.102  30.520  1.00  0.00    -0.354 N 
ATOM     58  N   UNL A   1      43.915  27.161  32.393  1.00  0.00    -0.248 NA
ATOM     59  C   UNL A   1      43.939  28.012  34.525  1.00  0.00     0.031 C 
ATOM     60  C   UNL A   1      45.710  25.461  30.329  1.00  0.00     0.029 A 
ATOM     61  C   UNL A   1      44.849  24.880  31.244  1.00  0.00     0.049 A 
ATOM     62  H   UNL A   1      43.260  23.538  30.916  1.00  0.00     0.167 HD
ATOM     63  C   UNL A   1      44.434  26.178  33.193  1.00  0.00     0.074 A 
ATOM     64  C   UNL A   1      44.457  26.769  34.517  1.00  0.00     0.031 C 
ATOM     65  C   UNL A   1      44.781  24.954  32.695  1.00  0.00     0.037 A 
BRANCH  52  66
ATOM     66  C   UNL A   1      43.584  22.795  27.052  1.00  0.00     0.058 A 
ATOM     67  C   UNL A   1      42.874  21.586  26.872  1.00  0.00     0.135 A 
ATOM     68  C   UNL A   1      44.653  22.977  26.153  1.00  0.00     0.135 A 
ATOM     69  F   UNL A   1      41.747  21.322  27.548  1.00  0.00    -0.206 F 
ATOM     70  C   UNL A   1      43.282  20.582  25.992  1.00  0.00     0.059 A 
ATOM     71  C   UNL A   1      45.117  21.966  25.302  1.00  0.00     0.059 A 
ATOM     72  F   UNL A   1      45.261  24.165  26.030  1.00  0.00    -0.206 F 
ATOM     73  C   UNL A   1      44.437  20.759  25.244  1.00  0.00     0.060 A 
BRANCH  73  74
ATOM     74  S   UNL A   1      45.019  19.402  24.211  1.00  0.00     0.124 S 
ATOM     75  O   UNL A   1      44.409  19.712  22.921  1.00  0.00    -0.237 OA
ATOM     76  O   UNL A   1      46.467  19.561  24.285  1.00  0.00    -0.237 OA
ATOM     77  O   UNL A   1      44.484  18.216  24.876  1.00  0.00    -0.744 OA
ENDBRANCH  73  74
ENDBRANCH  52  66
BRANCH  53  78
ATOM     78  C   UNL A   1      41.754  30.106  33.194  1.00  0.00     0.058 A 
ATOM     79  C   UNL A   1      41.867  31.480  33.469  1.00  0.00     0.135 A 
ATOM     80  C   UNL A   1      40.468  29.555  33.119  1.00  0.00     0.135 A 
ATOM     81  F   UNL A   1      43.079  32.043  33.595  1.00  0.00    -0.206 F 
ATOM     82  C   UNL A   1      40.754  32.310  33.473  1.00  0.00     0.059 A 
ATOM     83  C   UNL A   1      39.336  30.368  33.126  1.00  0.00     0.059 A 
ATOM     84  F   UNL A   1      40.307  28.246  32.875  1.00  0.00    -0.206 F 
ATOM     85  C   UNL A   1      39.502  31.751  33.221  1.00  0.00     0.060 A 
BRANCH  85  86
ATOM     86  S   UNL A   1      38.148  32.877  32.811  1.00  0.00     0.124 S 
ATOM     87  O   UNL A   1      37.032  31.959  32.620  1.00  0.00    -0.237 OA
ATOM     88  O   UNL A   1      38.089  33.706  34.014  1.00  0.00    -0.237 OA
ATOM     89  O   UNL A   1      38.630  33.550  31.611  1.00  0.00    -0.744 OA
ENDBRANCH  85  86
ENDBRANCH  53  78
BRANCH  65  90
ATOM     90  C   UNL A   1      45.186  23.754  33.515  1.00  0.00     0.058 A 
ATOM     91  C   UNL A   1      46.478  23.562  34.033  1.00  0.00     0.135 A 
ATOM     92  C   UNL A   1      44.219  22.801  33.914  1.00  0.00     0.135 A 
ATOM     93  F   UNL A   1      47.452  24.459  33.820  1.00  0.00    -0.206 F 
ATOM     94  C   UNL A   1      46.810  22.463  34.829  1.00  0.00     0.059 A 
ATOM     95  C   UNL A   1      44.516  21.724  34.746  1.00  0.00     0.059 A 
ATOM     96  F   UNL A   1      42.943  22.891  33.510  1.00  0.00    -0.206 F 
ATOM     97  C   UNL A   1      45.824  21.545  35.177  1.00  0.00     0.060 A 
BRANCH  97  98
ATOM     98  S   UNL A   1      46.227  20.144  36.238  1.00  0.00     0.124 S 
ATOM     99  O   UNL A   1      45.489  19.065  35.589  1.00  0.00    -0.237 OA
ATOM    100  O   UNL A   1      47.681  20.061  36.133  1.00  0.00    -0.237 OA
ATOM    101  O   UNL A   1      45.724  20.562  37.543  1.00  0.00    -0.744 OA
ENDBRANCH  97  98
ENDBRANCH  65  90
ENDBRANCH  39  40
ENDBRANCH  31  34
ENDBRANCH  29  30
ENDBRANCH   1  29
TORSDOF 18
ENDMDL
