MODEL 1
REMARK VINA RESULT:     -12.5      0.000      0.000
REMARK SMILES CCN1C(=O)CC[C@H](C(=O)NCCCNC(=O)c2ccc(-c3c4nc(c(-c5c(F)cc(S(=O)(=O)[O-])cc5F)c5ccc([nH]5)c(-c5c(F)cc(S(=O)(=O)[O-])cc5F)c5nc(c(-c6c(F)cc(S(=O)(=O)[O-])cc6F)c6ccc3[nH]6)C=C5)C=C4)cc2)[C@@H]1c1ccc(OC)cc1
REMARK SMILES IDX 13 1 12 2 11 3 9 4 10 5 8 7 3 8 4 9 84 10 5 11 6 12 7 13
REMARK SMILES IDX 2 14 1 15 85 16 86 17 92 18 87 19 91 20 88 21 89 22 90 23
REMARK SMILES IDX 14 24 15 25 16 26 17 28 18 29 19 30 83 31 20 32 82 33 21 34
REMARK SMILES IDX 22 35 23 36 76 37 24 38 81 39 75 40 77 41 25 42 80 43 74 44
REMARK SMILES IDX 73 45 26 47 60 48 39 49 59 50 40 51 43 52 58 53 78 54 41 55
REMARK SMILES IDX 42 56 57 58 79 59 44 60 27 61 28 62 37 63 29 64 30 65 36 66
REMARK SMILES IDX 38 67 31 68 32 69 33 70 34 71 35 72 61 73 62 74 71 75 63 76
REMARK SMILES IDX 64 77 70 78 72 79 65 80 66 81 67 82 68 83 69 84 45 85 46 86
REMARK SMILES IDX 55 87 47 88 48 89 54 90 56 91 49 92 50 93 51 94 52 95 53 96
REMARK H PARENT 11 6 15 27 77 46 43 57
REMARK Flexibility Score: inf
ROOT
ATOM      1  C   UNL A   1      38.808  22.801  26.528  1.00  0.00     0.042 C 
ENDROOT
BRANCH   1   2
ATOM      2  C   UNL A   1      37.853  23.686  25.776  1.00  0.00     0.117 C 
BRANCH   2   3
ATOM      3  N   UNL A   1      37.309  23.103  24.566  1.00  0.00    -0.356 N 
ATOM      4  C   UNL A   1      36.152  23.417  23.923  1.00  0.00     0.225 C 
ATOM      5  O   UNL A   1      36.045  23.086  22.739  1.00  0.00    -0.275 OA
ATOM      6  H   UNL A   1      37.846  22.387  24.156  1.00  0.00     0.163 HD
BRANCH   4   7
ATOM      7  C   UNL A   1      35.008  24.141  24.621  1.00  0.00     0.106 C 
ATOM      8  N   UNL A   1      32.907  24.030  26.006  1.00  0.00    -0.335 N 
ATOM      9  C   UNL A   1      32.425  25.201  25.428  1.00  0.00     0.223 C 
ATOM     10  C   UNL A   1      34.055  23.258  25.461  1.00  0.00     0.128 C 
ATOM     11  O   UNL A   1      31.325  25.673  25.723  1.00  0.00    -0.275 OA
ATOM     12  C   UNL A   1      33.335  25.989  24.514  1.00  0.00     0.101 C 
ATOM     13  C   UNL A   1      34.319  25.164  23.724  1.00  0.00     0.026 C 
BRANCH   8  14
ATOM     14  C   UNL A   1      32.037  23.439  27.036  1.00  0.00     0.117 C 
ATOM     15  C   UNL A   1      30.717  22.831  26.592  1.00  0.00     0.027 C 
ENDBRANCH   8  14
BRANCH  10  16
ATOM     16  C   UNL A   1      33.615  21.922  24.856  1.00  0.00    -0.024 A 
ATOM     17  C   UNL A   1      34.025  20.684  25.379  1.00  0.00     0.010 A 
ATOM     18  C   UNL A   1      32.767  21.910  23.728  1.00  0.00     0.010 A 
ATOM     19  C   UNL A   1      33.561  19.486  24.825  1.00  0.00     0.047 A 
ATOM     20  C   UNL A   1      32.296  20.707  23.182  1.00  0.00     0.047 A 
ATOM     21  C   UNL A   1      32.671  19.490  23.750  1.00  0.00     0.118 A 
BRANCH  21  22
ATOM     22  O   UNL A   1      32.244  18.257  23.350  1.00  0.00    -0.497 OA
ATOM     23  C   UNL A   1      33.252  17.278  23.112  1.00  0.00     0.278 C 
ENDBRANCH  21  22
ENDBRANCH  10  16
ENDBRANCH   4   7
ENDBRANCH   2   3
ENDBRANCH   1   2
BRANCH   1  24
ATOM     24  C   UNL A   1      39.969  23.583  27.103  1.00  0.00     0.118 C 
BRANCH  24  25
ATOM     25  N   UNL A   1      40.797  24.239  26.086  1.00  0.00    -0.352 N 
ATOM     26  C   UNL A   1      41.254  25.531  26.025  1.00  0.00     0.251 C 
ATOM     27  H   UNL A   1      41.065  23.664  25.334  1.00  0.00     0.163 HD
ATOM     28  O   UNL A   1      41.859  25.942  25.038  1.00  0.00    -0.269 OA
BRANCH  26  29
ATOM     29  C   UNL A   1      41.001  26.427  27.156  1.00  0.00     0.039 A 
ATOM     30  C   UNL A   1      40.068  26.067  28.129  1.00  0.00     0.014 A 
ATOM     31  C   UNL A   1      41.729  27.612  27.260  1.00  0.00     0.014 A 
ATOM     32  C   UNL A   1      39.901  26.890  29.237  1.00  0.00     0.010 A 
ATOM     33  C   UNL A   1      41.683  28.334  28.431  1.00  0.00     0.010 A 
ATOM     34  C   UNL A   1      40.726  28.016  29.401  1.00  0.00    -0.014 A 
BRANCH  34  35
ATOM     35  C   UNL A   1      40.540  28.959  30.519  1.00  0.00     0.031 A 
ATOM     36  C   UNL A   1      41.410  28.804  31.739  1.00  0.00     0.074 A 
ATOM     37  C   UNL A   1      39.559  29.877  30.461  1.00  0.00     0.049 A 
ATOM     38  N   UNL A   1      41.352  29.431  32.882  1.00  0.00    -0.248 NA
ATOM     39  C   UNL A   1      42.450  27.756  31.686  1.00  0.00     0.031 C 
ATOM     40  C   UNL A   1      38.627  30.055  29.346  1.00  0.00     0.029 A 
ATOM     41  N   UNL A   1      39.182  30.829  31.367  1.00  0.00    -0.354 N 
ATOM     42  C   UNL A   1      42.314  28.830  33.686  1.00  0.00     0.074 A 
ATOM     43  C   UNL A   1      42.880  27.735  32.936  1.00  0.00     0.031 C 
ATOM     44  C   UNL A   1      37.808  31.082  29.619  1.00  0.00     0.029 A 
ATOM     45  C   UNL A   1      38.131  31.604  30.941  1.00  0.00     0.049 A 
ATOM     46  H   UNL A   1      39.620  30.947  32.240  1.00  0.00     0.167 HD
ATOM     47  C   UNL A   1      42.717  29.189  34.925  1.00  0.00     0.037 A 
ATOM     48  C   UNL A   1      37.508  32.625  31.559  1.00  0.00     0.037 A 
ATOM     49  C   UNL A   1      42.172  30.320  35.625  1.00  0.00     0.049 A 
ATOM     50  C   UNL A   1      38.010  33.045  32.913  1.00  0.00     0.074 A 
ATOM     51  C   UNL A   1      42.533  30.832  36.855  1.00  0.00     0.029 A 
ATOM     52  N   UNL A   1      41.148  31.124  35.137  1.00  0.00    -0.354 N 
ATOM     53  N   UNL A   1      38.955  32.504  33.647  1.00  0.00    -0.248 NA
ATOM     54  C   UNL A   1      37.377  34.223  33.514  1.00  0.00     0.031 C 
ATOM     55  C   UNL A   1      41.698  31.918  37.133  1.00  0.00     0.029 A 
ATOM     56  C   UNL A   1      40.858  32.123  36.047  1.00  0.00     0.049 A 
ATOM     57  H   UNL A   1      40.697  30.999  34.271  1.00  0.00     0.167 HD
ATOM     58  C   UNL A   1      39.056  33.296  34.784  1.00  0.00     0.074 A 
ATOM     59  C   UNL A   1      38.081  34.359  34.630  1.00  0.00     0.031 C 
ATOM     60  C   UNL A   1      39.881  33.166  35.855  1.00  0.00     0.037 A 
BRANCH  47  61
ATOM     61  C   UNL A   1      43.785  28.353  35.580  1.00  0.00     0.058 A 
ATOM     62  C   UNL A   1      45.155  28.576  35.350  1.00  0.00     0.135 A 
ATOM     63  C   UNL A   1      43.436  27.298  36.439  1.00  0.00     0.135 A 
ATOM     64  F   UNL A   1      45.551  29.556  34.521  1.00  0.00    -0.206 F 
ATOM     65  C   UNL A   1      46.133  27.759  35.908  1.00  0.00     0.059 A 
ATOM     66  C   UNL A   1      44.399  26.490  37.037  1.00  0.00     0.059 A 
ATOM     67  F   UNL A   1      42.145  27.031  36.691  1.00  0.00    -0.206 F 
ATOM     68  C   UNL A   1      45.744  26.716  36.750  1.00  0.00     0.060 A 
BRANCH  68  69
ATOM     69  S   UNL A   1      47.023  25.660  37.460  1.00  0.00     0.124 S 
ATOM     70  O   UNL A   1      46.284  24.422  37.690  1.00  0.00    -0.237 OA
ATOM     71  O   UNL A   1      48.018  25.615  36.394  1.00  0.00    -0.237 OA
ATOM     72  O   UNL A   1      47.430  26.379  38.663  1.00  0.00    -0.744 OA
ENDBRANCH  68  69
ENDBRANCH  47  61
BRANCH  48  73
ATOM     73  C   UNL A   1      36.397  33.336  30.874  1.00  0.00     0.058 A 
ATOM     74  C   UNL A   1      35.080  33.245  31.349  1.00  0.00     0.135 A 
ATOM     75  C   UNL A   1      36.633  34.162  29.765  1.00  0.00     0.135 A 
ATOM     76  F   UNL A   1      34.801  32.471  32.409  1.00  0.00    -0.206 F 
ATOM     77  C   UNL A   1      34.035  33.934  30.742  1.00  0.00     0.059 A 
ATOM     78  C   UNL A   1      35.610  34.883  29.157  1.00  0.00     0.059 A 
ATOM     79  F   UNL A   1      37.880  34.306  29.287  1.00  0.00    -0.206 F 
ATOM     80  C   UNL A   1      34.312  34.756  29.648  1.00  0.00     0.060 A 
BRANCH  80  81
ATOM     81  S   UNL A   1      32.958  35.694  28.907  1.00  0.00     0.124 S 
ATOM     82  O   UNL A   1      32.338  34.689  28.052  1.00  0.00    -0.237 OA
ATOM     83  O   UNL A   1      32.190  36.099  30.080  1.00  0.00    -0.237 OA
ATOM     84  O   UNL A   1      33.644  36.779  28.211  1.00  0.00    -0.744 OA
ENDBRANCH  80  81
ENDBRANCH  48  73
BRANCH  60  85
ATOM     85  C   UNL A   1      39.793  34.231  36.911  1.00  0.00     0.058 A 
ATOM     86  C   UNL A   1      40.470  35.454  36.792  1.00  0.00     0.135 A 
ATOM     87  C   UNL A   1      38.994  34.027  38.048  1.00  0.00     0.135 A 
ATOM     88  F   UNL A   1      41.245  35.699  35.723  1.00  0.00    -0.206 F 
ATOM     89  C   UNL A   1      40.398  36.420  37.790  1.00  0.00     0.059 A 
ATOM     90  C   UNL A   1      38.879  34.993  39.039  1.00  0.00     0.059 A 
ATOM     91  F   UNL A   1      38.311  32.881  38.200  1.00  0.00    -0.206 F 
ATOM     92  C   UNL A   1      39.603  36.177  38.912  1.00  0.00     0.060 A 
BRANCH  92  93
ATOM     93  S   UNL A   1      39.523  37.434  40.202  1.00  0.00     0.124 S 
ATOM     94  O   UNL A   1      38.621  38.411  39.602  1.00  0.00    -0.237 OA
ATOM     95  O   UNL A   1      38.985  36.685  41.334  1.00  0.00    -0.237 OA
ATOM     96  O   UNL A   1      40.911  37.863  40.345  1.00  0.00    -0.744 OA
ENDBRANCH  92  93
ENDBRANCH  60  85
ENDBRANCH  34  35
ENDBRANCH  26  29
ENDBRANCH  24  25
ENDBRANCH   1  24
TORSDOF 16
ENDMDL
MODEL 2
REMARK VINA RESULT:     -12.3      6.652     12.295
REMARK SMILES CCN1C(=O)CC[C@H](C(=O)NCCCNC(=O)c2ccc(-c3c4nc(c(-c5c(F)cc(S(=O)(=O)[O-])cc5F)c5ccc([nH]5)c(-c5c(F)cc(S(=O)(=O)[O-])cc5F)c5nc(c(-c6c(F)cc(S(=O)(=O)[O-])cc6F)c6ccc3[nH]6)C=C5)C=C4)cc2)[C@@H]1c1ccc(OC)cc1
REMARK SMILES IDX 13 1 12 2 11 3 9 4 10 5 8 7 3 8 4 9 84 10 5 11 6 12 7 13
REMARK SMILES IDX 2 14 1 15 85 16 86 17 92 18 87 19 91 20 88 21 89 22 90 23
REMARK SMILES IDX 14 24 15 25 16 26 17 28 18 29 19 30 83 31 20 32 82 33 21 34
REMARK SMILES IDX 22 35 23 36 76 37 24 38 81 39 75 40 77 41 25 42 80 43 74 44
REMARK SMILES IDX 73 45 26 47 60 48 39 49 59 50 40 51 43 52 58 53 78 54 41 55
REMARK SMILES IDX 42 56 57 58 79 59 44 60 27 61 28 62 37 63 29 64 30 65 36 66
REMARK SMILES IDX 38 67 31 68 32 69 33 70 34 71 35 72 61 73 62 74 71 75 63 76
REMARK SMILES IDX 64 77 70 78 72 79 65 80 66 81 67 82 68 83 69 84 45 85 46 86
REMARK SMILES IDX 55 87 47 88 48 89 54 90 56 91 49 92 50 93 51 94 52 95 53 96
REMARK H PARENT 11 6 15 27 77 46 43 57
REMARK Flexibility Score: inf
ROOT
ATOM      1  C   UNL A   1      34.853  29.377  27.667  1.00  0.00     0.042 C 
ENDROOT
BRANCH   1   2
ATOM      2  C   UNL A   1      33.681  29.873  26.867  1.00  0.00     0.117 C 
BRANCH   2   3
ATOM      3  N   UNL A   1      32.401  29.314  27.252  1.00  0.00    -0.356 N 
ATOM      4  C   UNL A   1      31.972  28.028  27.136  1.00  0.00     0.225 C 
ATOM      5  O   UNL A   1      31.024  27.673  27.842  1.00  0.00    -0.275 OA
ATOM      6  H   UNL A   1      31.759  29.945  27.650  1.00  0.00     0.163 HD
BRANCH   4   7
ATOM      7  C   UNL A   1      32.613  27.044  26.165  1.00  0.00     0.106 C 
ATOM      8  N   UNL A   1      33.085  26.350  23.791  1.00  0.00    -0.335 N 
ATOM      9  C   UNL A   1      33.136  25.008  24.159  1.00  0.00     0.223 C 
ATOM     10  C   UNL A   1      32.539  27.420  24.666  1.00  0.00     0.128 C 
ATOM     11  O   UNL A   1      33.333  24.109  23.338  1.00  0.00    -0.275 OA
ATOM     12  C   UNL A   1      33.088  24.655  25.629  1.00  0.00     0.101 C 
ATOM     13  C   UNL A   1      32.276  25.592  26.485  1.00  0.00     0.026 C 
BRANCH   8  14
ATOM     14  C   UNL A   1      33.344  26.615  22.367  1.00  0.00     0.117 C 
ATOM     15  C   UNL A   1      34.042  27.915  21.999  1.00  0.00     0.027 C 
ENDBRANCH   8  14
BRANCH  10  16
ATOM     16  C   UNL A   1      31.211  27.972  24.142  1.00  0.00    -0.024 A 
ATOM     17  C   UNL A   1      31.035  29.324  23.803  1.00  0.00     0.010 A 
ATOM     18  C   UNL A   1      30.107  27.107  23.987  1.00  0.00     0.010 A 
ATOM     19  C   UNL A   1      29.818  29.778  23.282  1.00  0.00     0.047 A 
ATOM     20  C   UNL A   1      28.892  27.564  23.455  1.00  0.00     0.047 A 
ATOM     21  C   UNL A   1      28.755  28.898  23.074  1.00  0.00     0.118 A 
BRANCH  21  22
ATOM     22  O   UNL A   1      27.650  29.455  22.498  1.00  0.00    -0.497 OA
ATOM     23  C   UNL A   1      27.634  30.876  22.389  1.00  0.00     0.278 C 
ENDBRANCH  21  22
ENDBRANCH  10  16
ENDBRANCH   4   7
ENDBRANCH   2   3
ENDBRANCH   1   2
BRANCH   1  24
ATOM     24  C   UNL A   1      35.599  30.511  28.337  1.00  0.00     0.118 C 
BRANCH  24  25
ATOM     25  N   UNL A   1      35.568  30.451  29.802  1.00  0.00    -0.352 N 
ATOM     26  C   UNL A   1      36.524  30.015  30.684  1.00  0.00     0.251 C 
ATOM     27  H   UNL A   1      34.734  30.772  30.214  1.00  0.00     0.163 HD
ATOM     28  O   UNL A   1      36.289  29.941  31.886  1.00  0.00    -0.269 OA
BRANCH  26  29
ATOM     29  C   UNL A   1      37.840  29.628  30.168  1.00  0.00     0.039 A 
ATOM     30  C   UNL A   1      38.178  29.917  28.846  1.00  0.00     0.014 A 
ATOM     31  C   UNL A   1      38.749  29.008  31.025  1.00  0.00     0.014 A 
ATOM     32  C   UNL A   1      39.459  29.616  28.398  1.00  0.00     0.010 A 
ATOM     33  C   UNL A   1      40.061  28.865  30.631  1.00  0.00     0.010 A 
ATOM     34  C   UNL A   1      40.411  29.108  29.298  1.00  0.00    -0.014 A 
BRANCH  34  35
ATOM     35  C   UNL A   1      41.759  28.706  28.857  1.00  0.00     0.031 A 
ATOM     36  C   UNL A   1      42.840  29.754  28.809  1.00  0.00     0.074 A 
ATOM     37  C   UNL A   1      41.976  27.447  28.439  1.00  0.00     0.049 A 
ATOM     38  N   UNL A   1      44.058  29.666  28.347  1.00  0.00    -0.248 NA
ATOM     39  C   UNL A   1      42.481  31.103  29.290  1.00  0.00     0.031 C 
ATOM     40  C   UNL A   1      40.970  26.383  28.389  1.00  0.00     0.029 A 
ATOM     41  N   UNL A   1      43.114  26.851  27.969  1.00  0.00    -0.354 N 
ATOM     42  C   UNL A   1      44.588  30.948  28.449  1.00  0.00     0.074 A 
ATOM     43  C   UNL A   1      43.538  31.812  28.931  1.00  0.00     0.031 C 
ATOM     44  C   UNL A   1      41.547  25.253  27.952  1.00  0.00     0.029 A 
ATOM     45  C   UNL A   1      42.947  25.525  27.651  1.00  0.00     0.049 A 
ATOM     46  H   UNL A   1      43.970  27.327  27.869  1.00  0.00     0.167 HD
ATOM     47  C   UNL A   1      45.852  31.356  28.201  1.00  0.00     0.037 A 
ATOM     48  C   UNL A   1      43.838  24.636  27.173  1.00  0.00     0.037 A 
ATOM     49  C   UNL A   1      46.892  30.460  27.775  1.00  0.00     0.049 A 
ATOM     50  C   UNL A   1      45.253  25.097  26.958  1.00  0.00     0.074 A 
ATOM     51  C   UNL A   1      48.227  30.728  27.550  1.00  0.00     0.029 A 
ATOM     52  N   UNL A   1      46.702  29.106  27.521  1.00  0.00    -0.354 N 
ATOM     53  N   UNL A   1      45.760  26.299  27.105  1.00  0.00    -0.248 NA
ATOM     54  C   UNL A   1      46.220  24.080  26.534  1.00  0.00     0.031 C 
ATOM     55  C   UNL A   1      48.838  29.547  27.117  1.00  0.00     0.029 A 
ATOM     56  C   UNL A   1      47.896  28.527  27.132  1.00  0.00     0.049 A 
ATOM     57  H   UNL A   1      45.845  28.630  27.605  1.00  0.00     0.167 HD
ATOM     58  C   UNL A   1      47.116  26.179  26.825  1.00  0.00     0.074 A 
ATOM     59  C   UNL A   1      47.346  24.782  26.512  1.00  0.00     0.031 C 
ATOM     60  C   UNL A   1      48.086  27.129  26.831  1.00  0.00     0.037 A 
BRANCH  47  61
ATOM     61  C   UNL A   1      46.162  32.818  28.387  1.00  0.00     0.058 A 
ATOM     62  C   UNL A   1      46.590  33.340  29.622  1.00  0.00     0.135 A 
ATOM     63  C   UNL A   1      46.010  33.719  27.321  1.00  0.00     0.135 A 
ATOM     64  F   UNL A   1      46.732  32.533  30.686  1.00  0.00    -0.206 F 
ATOM     65  C   UNL A   1      46.812  34.702  29.802  1.00  0.00     0.059 A 
ATOM     66  C   UNL A   1      46.261  35.080  27.469  1.00  0.00     0.059 A 
ATOM     67  F   UNL A   1      45.597  33.282  26.121  1.00  0.00    -0.206 F 
ATOM     68  C   UNL A   1      46.642  35.564  28.719  1.00  0.00     0.060 A 
BRANCH  68  69
ATOM     69  S   UNL A   1      46.926  37.329  28.971  1.00  0.00     0.124 S 
ATOM     70  O   UNL A   1      46.713  37.456  30.410  1.00  0.00    -0.237 OA
ATOM     71  O   UNL A   1      48.304  37.491  28.519  1.00  0.00    -0.237 OA
ATOM     72  O   UNL A   1      45.914  37.960  28.130  1.00  0.00    -0.744 OA
ENDBRANCH  68  69
ENDBRANCH  47  61
BRANCH  48  73
ATOM     73  C   UNL A   1      43.420  23.231  26.928  1.00  0.00     0.058 A 
ATOM     74  C   UNL A   1      43.254  22.744  25.623  1.00  0.00     0.135 A 
ATOM     75  C   UNL A   1      43.229  22.331  27.988  1.00  0.00     0.135 A 
ATOM     76  F   UNL A   1      43.429  23.563  24.574  1.00  0.00    -0.206 F 
ATOM     77  C   UNL A   1      42.901  21.421  25.376  1.00  0.00     0.059 A 
ATOM     78  C   UNL A   1      42.902  20.997  27.767  1.00  0.00     0.059 A 
ATOM     79  F   UNL A   1      43.402  22.739  29.256  1.00  0.00    -0.206 F 
ATOM     80  C   UNL A   1      42.731  20.553  26.457  1.00  0.00     0.060 A 
BRANCH  80  81
ATOM     81  S   UNL A   1      42.334  18.824  26.122  1.00  0.00     0.124 S 
ATOM     82  O   UNL A   1      40.931  18.915  25.735  1.00  0.00    -0.237 OA
ATOM     83  O   UNL A   1      43.273  18.496  25.053  1.00  0.00    -0.237 OA
ATOM     84  O   UNL A   1      42.596  18.166  27.399  1.00  0.00    -0.744 OA
ENDBRANCH  80  81
ENDBRANCH  48  73
BRANCH  60  85
ATOM     85  C   UNL A   1      49.486  26.671  26.540  1.00  0.00     0.058 A 
ATOM     86  C   UNL A   1      49.988  26.598  25.232  1.00  0.00     0.135 A 
ATOM     87  C   UNL A   1      50.344  26.324  27.596  1.00  0.00     0.135 A 
ATOM     88  F   UNL A   1      49.208  26.920  24.188  1.00  0.00    -0.206 F 
ATOM     89  C   UNL A   1      51.279  26.149  24.976  1.00  0.00     0.059 A 
ATOM     90  C   UNL A   1      51.649  25.907  27.366  1.00  0.00     0.059 A 
ATOM     91  F   UNL A   1      49.919  26.395  28.867  1.00  0.00    -0.206 F 
ATOM     92  C   UNL A   1      52.100  25.801  26.051  1.00  0.00     0.060 A 
BRANCH  92  93
ATOM     93  S   UNL A   1      53.769  25.213  25.708  1.00  0.00     0.124 S 
ATOM     94  O   UNL A   1      54.333  25.136  27.052  1.00  0.00    -0.237 OA
ATOM     95  O   UNL A   1      53.521  23.934  25.050  1.00  0.00    -0.237 OA
ATOM     96  O   UNL A   1      54.327  26.255  24.851  1.00  0.00    -0.744 OA
ENDBRANCH  92  93
ENDBRANCH  60  85
ENDBRANCH  34  35
ENDBRANCH  26  29
ENDBRANCH  24  25
ENDBRANCH   1  24
TORSDOF 16
ENDMDL
MODEL 3
REMARK VINA RESULT:     -12.2      6.727     12.049
REMARK SMILES CCN1C(=O)CC[C@H](C(=O)NCCCNC(=O)c2ccc(-c3c4nc(c(-c5c(F)cc(S(=O)(=O)[O-])cc5F)c5ccc([nH]5)c(-c5c(F)cc(S(=O)(=O)[O-])cc5F)c5nc(c(-c6c(F)cc(S(=O)(=O)[O-])cc6F)c6ccc3[nH]6)C=C5)C=C4)cc2)[C@@H]1c1ccc(OC)cc1
REMARK SMILES IDX 13 1 12 2 11 3 9 4 10 5 8 7 3 8 4 9 84 10 5 11 6 12 7 13
REMARK SMILES IDX 2 14 1 15 85 16 86 17 92 18 87 19 91 20 88 21 89 22 90 23
REMARK SMILES IDX 14 24 15 25 16 26 17 28 18 29 19 30 83 31 20 32 82 33 21 34
REMARK SMILES IDX 22 35 23 36 76 37 24 38 81 39 75 40 77 41 25 42 80 43 74 44
REMARK SMILES IDX 73 45 26 47 60 48 39 49 59 50 40 51 43 52 58 53 78 54 41 55
REMARK SMILES IDX 42 56 57 58 79 59 44 60 27 61 28 62 37 63 29 64 30 65 36 66
REMARK SMILES IDX 38 67 31 68 32 69 33 70 34 71 35 72 61 73 62 74 71 75 63 76
REMARK SMILES IDX 64 77 70 78 72 79 65 80 66 81 67 82 68 83 69 84 45 85 46 86
REMARK SMILES IDX 55 87 47 88 48 89 54 90 56 91 49 92 50 93 51 94 52 95 53 96
REMARK H PARENT 11 6 15 27 77 46 43 57
REMARK Flexibility Score: inf
ROOT
ATOM      1  C   UNL A   1      34.572  29.048  27.542  1.00  0.00     0.042 C 
ENDROOT
BRANCH   1   2
ATOM      2  C   UNL A   1      33.605  29.561  26.511  1.00  0.00     0.117 C 
BRANCH   2   3
ATOM      3  N   UNL A   1      34.006  29.336  25.136  1.00  0.00    -0.356 N 
ATOM      4  C   UNL A   1      33.222  29.037  24.066  1.00  0.00     0.225 C 
ATOM      5  O   UNL A   1      33.682  29.247  22.940  1.00  0.00    -0.275 OA
ATOM      6  H   UNL A   1      34.970  29.408  24.954  1.00  0.00     0.163 HD
BRANCH   4   7
ATOM      7  C   UNL A   1      31.825  28.450  24.223  1.00  0.00     0.106 C 
ATOM      8  N   UNL A   1      30.361  26.474  24.767  1.00  0.00    -0.335 N 
ATOM      9  C   UNL A   1      29.355  26.947  23.929  1.00  0.00     0.223 C 
ATOM     10  C   UNL A   1      31.751  27.000  24.758  1.00  0.00     0.128 C 
ATOM     11  O   UNL A   1      28.301  26.331  23.756  1.00  0.00    -0.275 OA
ATOM     12  C   UNL A   1      29.503  28.323  23.320  1.00  0.00     0.101 C 
ATOM     13  C   UNL A   1      30.920  28.746  23.032  1.00  0.00     0.026 C 
BRANCH   8  14
ATOM     14  C   UNL A   1      30.045  25.223  25.476  1.00  0.00     0.117 C 
ATOM     15  C   UNL A   1      30.932  24.821  26.643  1.00  0.00     0.027 C 
ENDBRANCH   8  14
BRANCH  10  16
ATOM     16  C   UNL A   1      32.747  25.987  24.187  1.00  0.00    -0.024 A 
ATOM     17  C   UNL A   1      33.910  25.601  24.874  1.00  0.00     0.010 A 
ATOM     18  C   UNL A   1      32.507  25.407  22.923  1.00  0.00     0.010 A 
ATOM     19  C   UNL A   1      34.770  24.635  24.338  1.00  0.00     0.047 A 
ATOM     20  C   UNL A   1      33.367  24.432  22.394  1.00  0.00     0.047 A 
ATOM     21  C   UNL A   1      34.486  24.023  23.116  1.00  0.00     0.118 A 
BRANCH  21  22
ATOM     22  O   UNL A   1      35.368  23.051  22.741  1.00  0.00    -0.497 OA
ATOM     23  C   UNL A   1      36.339  22.660  23.708  1.00  0.00     0.278 C 
ENDBRANCH  21  22
ENDBRANCH  10  16
ENDBRANCH   4   7
ENDBRANCH   2   3
ENDBRANCH   1   2
BRANCH   1  24
ATOM     24  C   UNL A   1      35.473  30.146  28.065  1.00  0.00     0.118 C 
BRANCH  24  25
ATOM     25  N   UNL A   1      35.480  30.255  29.527  1.00  0.00    -0.352 N 
ATOM     26  C   UNL A   1      36.475  29.961  30.425  1.00  0.00     0.251 C 
ATOM     27  H   UNL A   1      34.643  30.589  29.923  1.00  0.00     0.163 HD
ATOM     28  O   UNL A   1      36.272  30.017  31.635  1.00  0.00    -0.269 OA
BRANCH  26  29
ATOM     29  C   UNL A   1      37.793  29.568  29.920  1.00  0.00     0.039 A 
ATOM     30  C   UNL A   1      38.137  29.844  28.596  1.00  0.00     0.014 A 
ATOM     31  C   UNL A   1      38.697  28.955  30.786  1.00  0.00     0.014 A 
ATOM     32  C   UNL A   1      39.420  29.537  28.158  1.00  0.00     0.010 A 
ATOM     33  C   UNL A   1      40.010  28.808  30.400  1.00  0.00     0.010 A 
ATOM     34  C   UNL A   1      40.367  29.038  29.067  1.00  0.00    -0.014 A 
BRANCH  34  35
ATOM     35  C   UNL A   1      41.717  28.630  28.636  1.00  0.00     0.031 A 
ATOM     36  C   UNL A   1      42.796  29.679  28.574  1.00  0.00     0.074 A 
ATOM     37  C   UNL A   1      41.937  27.364  28.240  1.00  0.00     0.049 A 
ATOM     38  N   UNL A   1      44.016  29.585  28.117  1.00  0.00    -0.248 NA
ATOM     39  C   UNL A   1      42.434  31.035  29.031  1.00  0.00     0.031 C 
ATOM     40  C   UNL A   1      40.932  26.298  28.206  1.00  0.00     0.029 A 
ATOM     41  N   UNL A   1      43.077  26.762  27.783  1.00  0.00    -0.354 N 
ATOM     42  C   UNL A   1      44.544  30.869  28.199  1.00  0.00     0.074 A 
ATOM     43  C   UNL A   1      43.491  31.739  28.663  1.00  0.00     0.031 C 
ATOM     44  C   UNL A   1      41.512  25.162  27.788  1.00  0.00     0.029 A 
ATOM     45  C   UNL A   1      42.913  25.431  27.486  1.00  0.00     0.049 A 
ATOM     46  H   UNL A   1      43.932  27.238  27.678  1.00  0.00     0.167 HD
ATOM     47  C   UNL A   1      45.808  31.275  27.948  1.00  0.00     0.037 A 
ATOM     48  C   UNL A   1      43.806  24.536  27.026  1.00  0.00     0.037 A 
ATOM     49  C   UNL A   1      46.850  30.373  27.540  1.00  0.00     0.049 A 
ATOM     50  C   UNL A   1      45.221  24.995  26.808  1.00  0.00     0.074 A 
ATOM     51  C   UNL A   1      48.186  30.640  27.314  1.00  0.00     0.029 A 
ATOM     52  N   UNL A   1      46.663  29.015  27.307  1.00  0.00    -0.354 N 
ATOM     53  N   UNL A   1      45.726  26.200  26.936  1.00  0.00    -0.248 NA
ATOM     54  C   UNL A   1      46.191  23.973  26.403  1.00  0.00     0.031 C 
ATOM     55  C   UNL A   1      48.799  29.452  26.902  1.00  0.00     0.029 A 
ATOM     56  C   UNL A   1      47.859  28.432  26.931  1.00  0.00     0.049 A 
ATOM     57  H   UNL A   1      45.806  28.539  27.397  1.00  0.00     0.167 HD
ATOM     58  C   UNL A   1      47.083  26.077  26.662  1.00  0.00     0.074 A 
ATOM     59  C   UNL A   1      47.315  24.675  26.372  1.00  0.00     0.031 C 
ATOM     60  C   UNL A   1      48.051  27.029  26.654  1.00  0.00     0.037 A 
BRANCH  47  61
ATOM     61  C   UNL A   1      46.115  32.740  28.111  1.00  0.00     0.058 A 
ATOM     62  C   UNL A   1      45.983  33.654  27.050  1.00  0.00     0.135 A 
ATOM     63  C   UNL A   1      46.567  33.239  29.343  1.00  0.00     0.135 A 
ATOM     64  F   UNL A   1      45.578  33.234  25.840  1.00  0.00    -0.206 F 
ATOM     65  C   UNL A   1      46.330  34.994  27.191  1.00  0.00     0.059 A 
ATOM     66  C   UNL A   1      46.885  34.583  29.518  1.00  0.00     0.059 A 
ATOM     67  F   UNL A   1      46.720  32.415  30.391  1.00  0.00    -0.206 F 
ATOM     68  C   UNL A   1      46.782  35.448  28.431  1.00  0.00     0.060 A 
BRANCH  68  69
ATOM     69  S   UNL A   1      47.236  37.188  28.597  1.00  0.00     0.124 S 
ATOM     70  O   UNL A   1      48.617  37.086  29.062  1.00  0.00    -0.237 OA
ATOM     71  O   UNL A   1      47.061  37.687  27.237  1.00  0.00    -0.237 OA
ATOM     72  O   UNL A   1      46.281  37.696  29.577  1.00  0.00    -0.744 OA
ENDBRANCH  68  69
ENDBRANCH  47  61
BRANCH  48  73
ATOM     73  C   UNL A   1      43.391  23.126  26.803  1.00  0.00     0.058 A 
ATOM     74  C   UNL A   1      43.366  22.576  25.513  1.00  0.00     0.135 A 
ATOM     75  C   UNL A   1      43.062  22.284  27.877  1.00  0.00     0.135 A 
ATOM     76  F   UNL A   1      43.675  23.338  24.453  1.00  0.00    -0.206 F 
ATOM     77  C   UNL A   1      43.016  21.248  25.292  1.00  0.00     0.059 A 
ATOM     78  C   UNL A   1      42.736  20.945  27.685  1.00  0.00     0.059 A 
ATOM     79  F   UNL A   1      43.097  22.753  29.135  1.00  0.00    -0.206 F 
ATOM     80  C   UNL A   1      42.707  20.438  26.387  1.00  0.00     0.060 A 
BRANCH  80  81
ATOM     81  S   UNL A   1      42.316  18.700  26.093  1.00  0.00     0.124 S 
ATOM     82  O   UNL A   1      42.618  18.108  27.392  1.00  0.00    -0.237 OA
ATOM     83  O   UNL A   1      40.904  18.761  25.730  1.00  0.00    -0.237 OA
ATOM     84  O   UNL A   1      43.220  18.331  25.007  1.00  0.00    -0.744 OA
ENDBRANCH  80  81
ENDBRANCH  48  73
BRANCH  60  85
ATOM     85  C   UNL A   1      49.453  26.568  26.374  1.00  0.00     0.058 A 
ATOM     86  C   UNL A   1      50.058  26.743  25.120  1.00  0.00     0.135 A 
ATOM     87  C   UNL A   1      50.209  25.964  27.392  1.00  0.00     0.135 A 
ATOM     88  F   UNL A   1      49.377  27.316  24.115  1.00  0.00    -0.206 F 
ATOM     89  C   UNL A   1      51.347  26.289  24.869  1.00  0.00     0.059 A 
ATOM     90  C   UNL A   1      51.512  25.536  27.174  1.00  0.00     0.059 A 
ATOM     91  F   UNL A   1      49.684  25.791  28.615  1.00  0.00    -0.206 F 
ATOM     92  C   UNL A   1      52.065  25.682  25.903  1.00  0.00     0.060 A 
BRANCH  92  93
ATOM     93  S   UNL A   1      53.734  25.090  25.564  1.00  0.00     0.124 S 
ATOM     94  O   UNL A   1      54.059  25.818  24.342  1.00  0.00    -0.237 OA
ATOM     95  O   UNL A   1      54.460  25.503  26.761  1.00  0.00    -0.237 OA
ATOM     96  O   UNL A   1      53.559  23.649  25.410  1.00  0.00    -0.744 OA
ENDBRANCH  92  93
ENDBRANCH  60  85
ENDBRANCH  34  35
ENDBRANCH  26  29
ENDBRANCH  24  25
ENDBRANCH   1  24
TORSDOF 16
ENDMDL
