MODEL 1
REMARK VINA RESULT:     -12.2      0.000      0.000
REMARK SMILES COc1ccc(C(=O)N[C@@H](C(=O)NCCCNC(=O)c2ccc(-c3c4nc(c(-c5c(F)cc(S(=O)(=O)[O-])cc5F)c5ccc([nH]5)c(-c5c(F)cc(S(=O)(=O)[O-])cc5F)c5nc(c(-c6c(F)cc(S(=O)(=O)[O-])cc6F)c6ccc3[nH]6)C=C5)C=C4)cc2)C(C)C)cc1O
REMARK SMILES IDX 15 1 14 2 13 3 11 4 12 5 10 7 9 8 7 9 8 10 6 12 3 13 4 14
REMARK SMILES IDX 90 15 5 16 89 17 2 18 1 19 91 20 86 22 87 23 88 24 16 25
REMARK SMILES IDX 17 26 18 27 19 29 20 30 21 31 85 32 22 33 84 34 23 35 24 36
REMARK SMILES IDX 25 37 78 38 26 39 83 40 77 41 79 42 27 43 82 44 76 45 75 46
REMARK SMILES IDX 28 48 62 49 41 50 61 51 42 52 45 53 60 54 80 55 43 56 44 57
REMARK SMILES IDX 59 59 81 60 46 61 29 62 30 63 39 64 31 65 32 66 38 67 40 68
REMARK SMILES IDX 33 69 34 70 35 71 36 72 37 73 63 74 64 75 73 76 65 77 66 78
REMARK SMILES IDX 72 79 74 80 67 81 68 82 69 83 70 84 71 85 47 86 48 87 57 88
REMARK SMILES IDX 49 89 50 90 56 91 58 92 51 93 52 94 53 95 54 96 55 97
REMARK H PARENT 13 6 9 11 91 21 17 28 79 47 45 58
REMARK Flexibility Score: inf
ROOT
ATOM      1  C   UNL A   1      39.106  22.305  26.264  1.00  0.00     0.042 C 
ENDROOT
BRANCH   1   2
ATOM      2  C   UNL A   1      37.677  22.720  25.944  1.00  0.00     0.117 C 
BRANCH   2   3
ATOM      3  N   UNL A   1      37.498  22.938  24.522  1.00  0.00    -0.354 N 
ATOM      4  C   UNL A   1      36.341  22.924  23.791  1.00  0.00     0.242 C 
ATOM      5  O   UNL A   1      36.428  23.059  22.571  1.00  0.00    -0.273 OA
ATOM      6  H   UNL A   1      38.320  23.121  24.012  1.00  0.00     0.163 HD
BRANCH   4   7
ATOM      7  C   UNL A   1      34.987  22.839  24.542  1.00  0.00     0.174 C 
BRANCH   7   8
ATOM      8  N   UNL A   1      33.868  22.949  23.598  1.00  0.00    -0.340 N 
ATOM      9  C   UNL A   1      32.797  22.141  23.295  1.00  0.00     0.252 C 
ATOM     10  O   UNL A   1      31.989  22.569  22.471  1.00  0.00    -0.269 OA
ATOM     11  H   UNL A   1      33.888  23.778  23.069  1.00  0.00     0.164 HD
BRANCH   9  12
ATOM     12  C   UNL A   1      32.610  20.756  23.828  1.00  0.00     0.043 A 
ATOM     13  C   UNL A   1      32.564  18.035  24.646  1.00  0.00     0.160 A 
ATOM     14  C   UNL A   1      32.417  18.383  23.300  1.00  0.00     0.051 A 
ATOM     15  C   UNL A   1      32.689  19.068  25.571  1.00  0.00     0.158 A 
ATOM     16  C   UNL A   1      32.462  19.724  22.891  1.00  0.00     0.018 A 
ATOM     17  C   UNL A   1      32.629  20.407  25.175  1.00  0.00     0.064 A 
BRANCH  13  18
ATOM     18  O   UNL A   1      32.567  16.689  24.869  1.00  0.00    -0.493 OA
ATOM     19  C   UNL A   1      33.636  15.908  24.358  1.00  0.00     0.278 C 
ENDBRANCH  13  18
BRANCH  15  20
ATOM     20  O   UNL A   1      32.959  18.878  26.897  1.00  0.00    -0.504 OA
ATOM     21  H   UNL A   1      33.615  18.261  27.158  1.00  0.00     0.293 HD
ENDBRANCH  15  20
ENDBRANCH   9  12
ENDBRANCH   7   8
BRANCH   7  22
ATOM     22  C   UNL A   1      34.882  23.914  25.658  1.00  0.00     0.015 C 
ATOM     23  C   UNL A   1      34.455  25.299  25.151  1.00  0.00     0.010 C 
ATOM     24  C   UNL A   1      33.894  23.456  26.738  1.00  0.00     0.010 C 
ENDBRANCH   7  22
ENDBRANCH   4   7
ENDBRANCH   2   3
ENDBRANCH   1   2
BRANCH   1  25
ATOM     25  C   UNL A   1      39.895  23.404  26.965  1.00  0.00     0.118 C 
BRANCH  25  26
ATOM     26  N   UNL A   1      40.784  24.108  26.052  1.00  0.00    -0.352 N 
ATOM     27  C   UNL A   1      41.276  25.386  26.111  1.00  0.00     0.251 C 
ATOM     28  H   UNL A   1      41.078  23.585  25.271  1.00  0.00     0.163 HD
ATOM     29  O   UNL A   1      41.862  25.844  25.134  1.00  0.00    -0.269 OA
BRANCH  27  30
ATOM     30  C   UNL A   1      41.088  26.209  27.325  1.00  0.00     0.039 A 
ATOM     31  C   UNL A   1      41.985  27.252  27.564  1.00  0.00     0.014 A 
ATOM     32  C   UNL A   1      40.062  25.945  28.236  1.00  0.00     0.014 A 
ATOM     33  C   UNL A   1      41.826  28.052  28.695  1.00  0.00     0.010 A 
ATOM     34  C   UNL A   1      39.853  26.797  29.316  1.00  0.00     0.010 A 
ATOM     35  C   UNL A   1      40.741  27.850  29.566  1.00  0.00    -0.014 A 
BRANCH  35  36
ATOM     36  C   UNL A   1      40.539  28.747  30.733  1.00  0.00     0.031 A 
ATOM     37  C   UNL A   1      41.393  28.610  31.965  1.00  0.00     0.074 A 
ATOM     38  C   UNL A   1      39.568  29.682  30.679  1.00  0.00     0.049 A 
ATOM     39  N   UNL A   1      41.390  29.336  33.054  1.00  0.00    -0.248 NA
ATOM     40  C   UNL A   1      42.359  27.499  31.991  1.00  0.00     0.031 C 
ATOM     41  C   UNL A   1      38.631  29.863  29.568  1.00  0.00     0.029 A 
ATOM     42  N   UNL A   1      39.214  30.659  31.573  1.00  0.00    -0.354 N 
ATOM     43  C   UNL A   1      42.347  28.772  33.889  1.00  0.00     0.074 A 
ATOM     44  C   UNL A   1      42.864  27.605  33.211  1.00  0.00     0.031 C 
ATOM     45  C   UNL A   1      37.842  30.917  29.825  1.00  0.00     0.029 A 
ATOM     46  C   UNL A   1      38.191  31.466  31.130  1.00  0.00     0.049 A 
ATOM     47  H   UNL A   1      39.649  30.772  32.449  1.00  0.00     0.167 HD
ATOM     48  C   UNL A   1      42.777  29.206  35.100  1.00  0.00     0.037 A 
ATOM     49  C   UNL A   1      37.608  32.533  31.708  1.00  0.00     0.037 A 
ATOM     50  C   UNL A   1      42.266  30.379  35.761  1.00  0.00     0.049 A 
ATOM     51  C   UNL A   1      38.116  33.004  33.043  1.00  0.00     0.074 A 
ATOM     52  C   UNL A   1      42.667  30.935  36.963  1.00  0.00     0.029 A 
ATOM     53  N   UNL A   1      41.239  31.178  35.278  1.00  0.00    -0.354 N 
ATOM     54  N   UNL A   1      39.076  32.504  33.786  1.00  0.00    -0.248 NA
ATOM     55  C   UNL A   1      37.472  34.195  33.611  1.00  0.00     0.031 C 
ATOM     56  C   UNL A   1      41.851  32.040  37.230  1.00  0.00     0.029 A 
ATOM     57  C   UNL A   1      40.979  32.208  36.166  1.00  0.00     0.049 A 
ATOM     58  H   UNL A   1      40.763  31.033  34.427  1.00  0.00     0.167 HD
ATOM     59  C   UNL A   1      39.168  33.335  34.897  1.00  0.00     0.074 A 
ATOM     60  C   UNL A   1      38.183  34.382  34.714  1.00  0.00     0.031 C 
ATOM     61  C   UNL A   1      39.990  33.240  35.972  1.00  0.00     0.037 A 
BRANCH  48  62
ATOM     62  C   UNL A   1      43.862  28.414  35.782  1.00  0.00     0.058 A 
ATOM     63  C   UNL A   1      45.223  28.680  35.556  1.00  0.00     0.135 A 
ATOM     64  C   UNL A   1      43.540  27.405  36.704  1.00  0.00     0.135 A 
ATOM     65  F   UNL A   1      45.591  29.623  34.674  1.00  0.00    -0.206 F 
ATOM     66  C   UNL A   1      46.224  27.958  36.200  1.00  0.00     0.059 A 
ATOM     67  C   UNL A   1      44.525  26.690  37.381  1.00  0.00     0.059 A 
ATOM     68  F   UNL A   1      42.257  27.105  36.958  1.00  0.00    -0.206 F 
ATOM     69  C   UNL A   1      45.865  26.966  37.113  1.00  0.00     0.060 A 
BRANCH  69  70
ATOM     70  S   UNL A   1      47.177  26.051  37.948  1.00  0.00     0.124 S 
ATOM     71  O   UNL A   1      47.289  24.866  37.103  1.00  0.00    -0.237 OA
ATOM     72  O   UNL A   1      48.296  26.983  37.884  1.00  0.00    -0.237 OA
ATOM     73  O   UNL A   1      46.633  25.818  39.282  1.00  0.00    -0.744 OA
ENDBRANCH  69  70
ENDBRANCH  48  62
BRANCH  49  74
ATOM     74  C   UNL A   1      36.508  33.251  31.009  1.00  0.00     0.058 A 
ATOM     75  C   UNL A   1      36.765  34.060  29.892  1.00  0.00     0.135 A 
ATOM     76  C   UNL A   1      35.177  33.138  31.441  1.00  0.00     0.135 A 
ATOM     77  F   UNL A   1      38.021  34.201  29.441  1.00  0.00    -0.206 F 
ATOM     78  C   UNL A   1      35.748  34.752  29.243  1.00  0.00     0.059 A 
ATOM     79  C   UNL A   1      34.138  33.797  30.791  1.00  0.00     0.059 A 
ATOM     80  F   UNL A   1      34.874  32.360  32.492  1.00  0.00    -0.206 F 
ATOM     81  C   UNL A   1      34.436  34.614  29.701  1.00  0.00     0.060 A 
BRANCH  81  82
ATOM     82  S   UNL A   1      33.119  35.491  28.831  1.00  0.00     0.124 S 
ATOM     83  O   UNL A   1      33.877  36.456  28.045  1.00  0.00    -0.237 OA
ATOM     84  O   UNL A   1      32.480  34.414  28.078  1.00  0.00    -0.237 OA
ATOM     85  O   UNL A   1      32.316  36.049  29.914  1.00  0.00    -0.744 OA
ENDBRANCH  81  82
ENDBRANCH  49  74
BRANCH  61  86
ATOM     86  C   UNL A   1      39.877  34.320  37.015  1.00  0.00     0.058 A 
ATOM     87  C   UNL A   1      38.966  34.227  38.081  1.00  0.00     0.135 A 
ATOM     88  C   UNL A   1      40.689  35.462  36.947  1.00  0.00     0.135 A 
ATOM     89  F   UNL A   1      38.163  33.157  38.194  1.00  0.00    -0.206 F 
ATOM     90  C   UNL A   1      38.828  35.254  39.009  1.00  0.00     0.059 A 
ATOM     91  C   UNL A   1      40.593  36.485  37.884  1.00  0.00     0.059 A 
ATOM     92  F   UNL A   1      41.590  35.595  35.959  1.00  0.00    -0.206 F 
ATOM     93  C   UNL A   1      39.642  36.383  38.898  1.00  0.00     0.060 A 
BRANCH  93  94
ATOM     94  S   UNL A   1      39.441  37.716  40.097  1.00  0.00     0.124 S 
ATOM     95  O   UNL A   1      38.237  38.377  39.603  1.00  0.00    -0.237 OA
ATOM     96  O   UNL A   1      39.295  36.989  41.354  1.00  0.00    -0.237 OA
ATOM     97  O   UNL A   1      40.677  38.483  39.964  1.00  0.00    -0.744 OA
ENDBRANCH  93  94
ENDBRANCH  61  86
ENDBRANCH  35  36
ENDBRANCH  27  30
ENDBRANCH  25  26
ENDBRANCH   1  25
TORSDOF 18
ENDMDL
MODEL 2
REMARK VINA RESULT:     -12.2      3.637      9.532
REMARK SMILES COc1ccc(C(=O)N[C@@H](C(=O)NCCCNC(=O)c2ccc(-c3c4nc(c(-c5c(F)cc(S(=O)(=O)[O-])cc5F)c5ccc([nH]5)c(-c5c(F)cc(S(=O)(=O)[O-])cc5F)c5nc(c(-c6c(F)cc(S(=O)(=O)[O-])cc6F)c6ccc3[nH]6)C=C5)C=C4)cc2)C(C)C)cc1O
REMARK SMILES IDX 15 1 14 2 13 3 11 4 12 5 10 7 9 8 7 9 8 10 6 12 3 13 4 14
REMARK SMILES IDX 90 15 5 16 89 17 2 18 1 19 91 20 86 22 87 23 88 24 16 25
REMARK SMILES IDX 17 26 18 27 19 29 20 30 21 31 85 32 22 33 84 34 23 35 24 36
REMARK SMILES IDX 25 37 78 38 26 39 83 40 77 41 79 42 27 43 82 44 76 45 75 46
REMARK SMILES IDX 28 48 62 49 41 50 61 51 42 52 45 53 60 54 80 55 43 56 44 57
REMARK SMILES IDX 59 59 81 60 46 61 29 62 30 63 39 64 31 65 32 66 38 67 40 68
REMARK SMILES IDX 33 69 34 70 35 71 36 72 37 73 63 74 64 75 73 76 65 77 66 78
REMARK SMILES IDX 72 79 74 80 67 81 68 82 69 83 70 84 71 85 47 86 48 87 57 88
REMARK SMILES IDX 49 89 50 90 56 91 58 92 51 93 52 94 53 95 54 96 55 97
REMARK H PARENT 13 6 9 11 91 21 17 28 79 47 45 58
REMARK Flexibility Score: inf
ROOT
ATOM      1  C   UNL A   1      31.567  32.191  26.754  1.00  0.00     0.042 C 
ENDROOT
BRANCH   1   2
ATOM      2  C   UNL A   1      31.858  30.803  26.199  1.00  0.00     0.117 C 
BRANCH   2   3
ATOM      3  N   UNL A   1      31.759  29.792  27.234  1.00  0.00    -0.354 N 
ATOM      4  C   UNL A   1      31.665  28.433  27.098  1.00  0.00     0.242 C 
ATOM      5  O   UNL A   1      31.510  27.761  28.118  1.00  0.00    -0.273 OA
ATOM      6  H   UNL A   1      31.758  30.127  28.159  1.00  0.00     0.163 HD
BRANCH   4   7
ATOM      7  C   UNL A   1      31.854  27.811  25.691  1.00  0.00     0.174 C 
BRANCH   7   8
ATOM      8  N   UNL A   1      30.849  26.768  25.450  1.00  0.00    -0.340 N 
ATOM      9  C   UNL A   1      29.856  26.604  24.514  1.00  0.00     0.252 C 
ATOM     10  O   UNL A   1      29.210  25.557  24.562  1.00  0.00    -0.269 OA
ATOM     11  H   UNL A   1      30.897  26.028  26.097  1.00  0.00     0.164 HD
BRANCH   9  12
ATOM     12  C   UNL A   1      29.457  27.645  23.518  1.00  0.00     0.043 A 
ATOM     13  C   UNL A   1      28.593  29.831  21.921  1.00  0.00     0.160 A 
ATOM     14  C   UNL A   1      27.688  29.119  22.715  1.00  0.00     0.051 A 
ATOM     15  C   UNL A   1      29.917  29.402  21.907  1.00  0.00     0.158 A 
ATOM     16  C   UNL A   1      28.116  28.055  23.521  1.00  0.00     0.018 A 
ATOM     17  C   UNL A   1      30.323  28.278  22.630  1.00  0.00     0.064 A 
BRANCH  13  18
ATOM     18  O   UNL A   1      28.032  30.879  21.251  1.00  0.00    -0.493 OA
ATOM     19  C   UNL A   1      27.969  32.147  21.884  1.00  0.00     0.278 C 
ENDBRANCH  13  18
BRANCH  15  20
ATOM     20  O   UNL A   1      30.930  30.070  21.276  1.00  0.00    -0.504 OA
ATOM     21  H   UNL A   1      31.708  30.294  21.748  1.00  0.00     0.293 HD
ENDBRANCH  15  20
ENDBRANCH   9  12
ENDBRANCH   7   8
BRANCH   7  22
ATOM     22  C   UNL A   1      33.291  27.254  25.500  1.00  0.00     0.015 C 
ATOM     23  C   UNL A   1      33.376  25.722  25.536  1.00  0.00     0.010 C 
ATOM     24  C   UNL A   1      33.876  27.751  24.172  1.00  0.00     0.010 C 
ENDBRANCH   7  22
ENDBRANCH   4   7
ENDBRANCH   2   3
ENDBRANCH   1   2
BRANCH   1  25
ATOM     25  C   UNL A   1      32.821  32.904  27.245  1.00  0.00     0.118 C 
BRANCH  25  26
ATOM     26  N   UNL A   1      32.531  34.235  27.758  1.00  0.00    -0.352 N 
ATOM     27  C   UNL A   1      33.072  34.907  28.823  1.00  0.00     0.251 C 
ATOM     28  H   UNL A   1      31.838  34.729  27.262  1.00  0.00     0.163 HD
ATOM     29  O   UNL A   1      32.548  35.952  29.197  1.00  0.00    -0.269 OA
BRANCH  27  30
ATOM     30  C   UNL A   1      34.260  34.373  29.523  1.00  0.00     0.039 A 
ATOM     31  C   UNL A   1      34.066  33.653  30.703  1.00  0.00     0.014 A 
ATOM     32  C   UNL A   1      35.554  34.600  29.046  1.00  0.00     0.014 A 
ATOM     33  C   UNL A   1      35.166  33.127  31.379  1.00  0.00     0.010 A 
ATOM     34  C   UNL A   1      36.643  34.002  29.673  1.00  0.00     0.010 A 
ATOM     35  C   UNL A   1      36.463  33.272  30.855  1.00  0.00    -0.014 A 
BRANCH  35  36
ATOM     36  C   UNL A   1      37.624  32.653  31.544  1.00  0.00     0.031 A 
ATOM     37  C   UNL A   1      38.098  33.179  32.873  1.00  0.00     0.074 A 
ATOM     38  C   UNL A   1      38.259  31.619  30.956  1.00  0.00     0.049 A 
ATOM     39  N   UNL A   1      39.060  32.732  33.639  1.00  0.00    -0.248 NA
ATOM     40  C   UNL A   1      37.423  34.376  33.400  1.00  0.00     0.031 C 
ATOM     41  C   UNL A   1      37.935  31.069  29.638  1.00  0.00     0.029 A 
ATOM     42  N   UNL A   1      39.300  30.841  31.393  1.00  0.00    -0.354 N 
ATOM     43  C   UNL A   1      39.105  33.589  34.732  1.00  0.00     0.074 A 
ATOM     44  C   UNL A   1      38.120  34.621  34.500  1.00  0.00     0.031 C 
ATOM     45  C   UNL A   1      38.727  30.014  29.394  1.00  0.00     0.029 A 
ATOM     46  C   UNL A   1      39.637  29.832  30.520  1.00  0.00     0.049 A 
ATOM     47  H   UNL A   1      39.762  30.990  32.249  1.00  0.00     0.167 HD
ATOM     48  C   UNL A   1      39.877  33.505  35.843  1.00  0.00     0.037 A 
ATOM     49  C   UNL A   1      40.568  28.865  30.621  1.00  0.00     0.037 A 
ATOM     50  C   UNL A   1      40.846  32.464  36.073  1.00  0.00     0.049 A 
ATOM     51  C   UNL A   1      41.399  28.785  31.872  1.00  0.00     0.074 A 
ATOM     52  C   UNL A   1      41.643  32.259  37.185  1.00  0.00     0.029 A 
ATOM     53  N   UNL A   1      41.153  31.454  35.172  1.00  0.00    -0.354 N 
ATOM     54  N   UNL A   1      41.376  29.559  32.931  1.00  0.00    -0.248 NA
ATOM     55  C   UNL A   1      42.373  27.688  31.948  1.00  0.00     0.031 C 
ATOM     56  C   UNL A   1      42.465  31.154  36.938  1.00  0.00     0.029 A 
ATOM     57  C   UNL A   1      42.140  30.635  35.694  1.00  0.00     0.049 A 
ATOM     58  H   UNL A   1      40.731  31.337  34.290  1.00  0.00     0.167 HD
ATOM     59  C   UNL A   1      42.313  29.028  33.810  1.00  0.00     0.074 A 
ATOM     60  C   UNL A   1      42.865  27.853  33.167  1.00  0.00     0.031 C 
ATOM     61  C   UNL A   1      42.684  29.472  35.037  1.00  0.00     0.037 A 
BRANCH  48  62
ATOM     62  C   UNL A   1      39.698  34.564  36.901  1.00  0.00     0.058 A 
ATOM     63  C   UNL A   1      38.915  34.336  38.046  1.00  0.00     0.135 A 
ATOM     64  C   UNL A   1      40.348  35.803  36.792  1.00  0.00     0.135 A 
ATOM     65  F   UNL A   1      38.257  33.176  38.197  1.00  0.00    -0.206 F 
ATOM     66  C   UNL A   1      38.763  35.309  39.030  1.00  0.00     0.059 A 
ATOM     67  C   UNL A   1      40.233  36.779  37.779  1.00  0.00     0.059 A 
ATOM     68  F   UNL A   1      41.107  36.077  35.720  1.00  0.00    -0.206 F 
ATOM     69  C   UNL A   1      39.428  36.527  38.889  1.00  0.00     0.060 A 
BRANCH  69  70
ATOM     70  S   UNL A   1      39.231  37.770  40.183  1.00  0.00     0.124 S 
ATOM     71  O   UNL A   1      38.161  38.596  39.632  1.00  0.00    -0.237 OA
ATOM     72  O   UNL A   1      38.873  36.959  41.341  1.00  0.00    -0.237 OA
ATOM     73  O   UNL A   1      40.543  38.406  40.247  1.00  0.00    -0.744 OA
ENDBRANCH  69  70
ENDBRANCH  48  62
BRANCH  49  74
ATOM     74  C   UNL A   1      40.735  27.873  29.524  1.00  0.00     0.058 A 
ATOM     75  C   UNL A   1      39.886  26.762  29.417  1.00  0.00     0.135 A 
ATOM     76  C   UNL A   1      41.743  28.020  28.558  1.00  0.00     0.135 A 
ATOM     77  F   UNL A   1      38.907  26.576  30.315  1.00  0.00    -0.206 F 
ATOM     78  C   UNL A   1      40.045  25.817  28.408  1.00  0.00     0.059 A 
ATOM     79  C   UNL A   1      41.904  27.105  27.523  1.00  0.00     0.059 A 
ATOM     80  F   UNL A   1      42.569  29.077  28.603  1.00  0.00    -0.206 F 
ATOM     81  C   UNL A   1      41.058  25.998  27.465  1.00  0.00     0.060 A 
BRANCH  81  82
ATOM     82  S   UNL A   1      41.235  24.783  26.140  1.00  0.00     0.124 S 
ATOM     83  O   UNL A   1      41.662  25.622  25.027  1.00  0.00    -0.237 OA
ATOM     84  O   UNL A   1      42.245  23.881  26.686  1.00  0.00    -0.237 OA
ATOM     85  O   UNL A   1      39.895  24.216  26.026  1.00  0.00    -0.744 OA
ENDBRANCH  81  82
ENDBRANCH  49  74
BRANCH  61  86
ATOM     86  C   UNL A   1      43.716  28.659  35.773  1.00  0.00     0.058 A 
ATOM     87  C   UNL A   1      43.357  27.593  36.615  1.00  0.00     0.135 A 
ATOM     88  C   UNL A   1      45.083  28.951  35.635  1.00  0.00     0.135 A 
ATOM     89  F   UNL A   1      42.065  27.271  36.785  1.00  0.00    -0.206 F 
ATOM     90  C   UNL A   1      44.312  26.882  37.334  1.00  0.00     0.059 A 
ATOM     91  C   UNL A   1      46.057  28.231  36.318  1.00  0.00     0.059 A 
ATOM     92  F   UNL A   1      45.484  29.949  34.830  1.00  0.00    -0.206 F 
ATOM     93  C   UNL A   1      45.660  27.213  37.184  1.00  0.00     0.060 A 
BRANCH  93  94
ATOM     94  S   UNL A   1      46.888  26.297  38.136  1.00  0.00     0.124 S 
ATOM     95  O   UNL A   1      48.134  26.783  37.553  1.00  0.00    -0.237 OA
ATOM     96  O   UNL A   1      46.615  26.731  39.502  1.00  0.00    -0.237 OA
ATOM     97  O   UNL A   1      46.566  24.901  37.853  1.00  0.00    -0.744 OA
ENDBRANCH  93  94
ENDBRANCH  61  86
ENDBRANCH  35  36
ENDBRANCH  27  30
ENDBRANCH  25  26
ENDBRANCH   1  25
TORSDOF 18
ENDMDL
MODEL 3
REMARK VINA RESULT:     -12.1      6.852     14.181
REMARK SMILES COc1ccc(C(=O)N[C@@H](C(=O)NCCCNC(=O)c2ccc(-c3c4nc(c(-c5c(F)cc(S(=O)(=O)[O-])cc5F)c5ccc([nH]5)c(-c5c(F)cc(S(=O)(=O)[O-])cc5F)c5nc(c(-c6c(F)cc(S(=O)(=O)[O-])cc6F)c6ccc3[nH]6)C=C5)C=C4)cc2)C(C)C)cc1O
REMARK SMILES IDX 15 1 14 2 13 3 11 4 12 5 10 7 9 8 7 9 8 10 6 12 3 13 4 14
REMARK SMILES IDX 90 15 5 16 89 17 2 18 1 19 91 20 86 22 87 23 88 24 16 25
REMARK SMILES IDX 17 26 18 27 19 29 20 30 21 31 85 32 22 33 84 34 23 35 24 36
REMARK SMILES IDX 25 37 78 38 26 39 83 40 77 41 79 42 27 43 82 44 76 45 75 46
REMARK SMILES IDX 28 48 62 49 41 50 61 51 42 52 45 53 60 54 80 55 43 56 44 57
REMARK SMILES IDX 59 59 81 60 46 61 29 62 30 63 39 64 31 65 32 66 38 67 40 68
REMARK SMILES IDX 33 69 34 70 35 71 36 72 37 73 63 74 64 75 73 76 65 77 66 78
REMARK SMILES IDX 72 79 74 80 67 81 68 82 69 83 70 84 71 85 47 86 48 87 57 88
REMARK SMILES IDX 49 89 50 90 56 91 58 92 51 93 52 94 53 95 54 96 55 97
REMARK H PARENT 13 6 9 11 91 21 17 28 79 47 45 58
REMARK Flexibility Score: inf
ROOT
ATOM      1  C   UNL A   1      34.775  32.778  28.257  1.00  0.00     0.042 C 
ENDROOT
BRANCH   1   2
ATOM      2  C   UNL A   1      35.128  34.259  28.274  1.00  0.00     0.117 C 
BRANCH   2   3
ATOM      3  N   UNL A   1      33.940  35.084  28.169  1.00  0.00    -0.354 N 
ATOM      4  C   UNL A   1      33.210  35.665  29.170  1.00  0.00     0.242 C 
ATOM      5  O   UNL A   1      32.182  36.267  28.858  1.00  0.00    -0.273 OA
ATOM      6  H   UNL A   1      33.614  35.248  27.255  1.00  0.00     0.163 HD
BRANCH   4   7
ATOM      7  C   UNL A   1      33.761  35.621  30.618  1.00  0.00     0.174 C 
BRANCH   7   8
ATOM      8  N   UNL A   1      33.711  34.252  31.145  1.00  0.00    -0.340 N 
ATOM      9  C   UNL A   1      34.529  33.523  31.976  1.00  0.00     0.252 C 
ATOM     10  O   UNL A   1      34.155  32.388  32.274  1.00  0.00    -0.269 OA
ATOM     11  H   UNL A   1      32.922  33.748  30.840  1.00  0.00     0.164 HD
BRANCH   9  12
ATOM     12  C   UNL A   1      35.869  33.983  32.454  1.00  0.00     0.043 A 
ATOM     13  C   UNL A   1      38.439  34.526  33.539  1.00  0.00     0.160 A 
ATOM     14  C   UNL A   1      37.332  34.334  34.373  1.00  0.00     0.051 A 
ATOM     15  C   UNL A   1      38.226  34.485  32.164  1.00  0.00     0.158 A 
ATOM     16  C   UNL A   1      36.068  34.044  33.841  1.00  0.00     0.018 A 
ATOM     17  C   UNL A   1      36.947  34.299  31.633  1.00  0.00     0.064 A 
BRANCH  13  18
ATOM     18  O   UNL A   1      39.607  34.730  34.213  1.00  0.00    -0.493 OA
ATOM     19  C   UNL A   1      40.455  33.623  34.474  1.00  0.00     0.278 C 
ENDBRANCH  13  18
BRANCH  15  20
ATOM     20  O   UNL A   1      39.227  34.534  31.234  1.00  0.00    -0.504 OA
ATOM     21  H   UNL A   1      39.215  35.192  30.567  1.00  0.00     0.293 HD
ENDBRANCH  15  20
ENDBRANCH   9  12
ENDBRANCH   7   8
BRANCH   7  22
ATOM     22  C   UNL A   1      33.005  36.606  31.549  1.00  0.00     0.015 C 
ATOM     23  C   UNL A   1      31.874  35.955  32.358  1.00  0.00     0.010 C 
ATOM     24  C   UNL A   1      33.988  37.272  32.521  1.00  0.00     0.010 C 
ENDBRANCH   7  22
ENDBRANCH   4   7
ENDBRANCH   2   3
ENDBRANCH   1   2
BRANCH   1  25
ATOM     25  C   UNL A   1      35.966  31.885  28.585  1.00  0.00     0.118 C 
BRANCH  25  26
ATOM     26  N   UNL A   1      35.832  31.247  29.887  1.00  0.00    -0.352 N 
ATOM     27  C   UNL A   1      36.650  30.345  30.515  1.00  0.00     0.251 C 
ATOM     28  H   UNL A   1      35.027  31.503  30.394  1.00  0.00     0.163 HD
ATOM     29  O   UNL A   1      36.252  29.788  31.534  1.00  0.00    -0.269 OA
BRANCH  27  30
ATOM     30  C   UNL A   1      37.987  30.034  29.966  1.00  0.00     0.039 A 
ATOM     31  C   UNL A   1      39.052  29.885  30.857  1.00  0.00     0.014 A 
ATOM     32  C   UNL A   1      38.204  29.917  28.590  1.00  0.00     0.014 A 
ATOM     33  C   UNL A   1      40.322  29.580  30.369  1.00  0.00     0.010 A 
ATOM     34  C   UNL A   1      39.451  29.526  28.112  1.00  0.00     0.010 A 
ATOM     35  C   UNL A   1      40.527  29.368  28.994  1.00  0.00    -0.014 A 
BRANCH  35  36
ATOM     36  C   UNL A   1      41.868  28.978  28.487  1.00  0.00     0.031 A 
ATOM     37  C   UNL A   1      42.978  29.991  28.391  1.00  0.00     0.074 A 
ATOM     38  C   UNL A   1      42.075  27.703  28.100  1.00  0.00     0.049 A 
ATOM     39  N   UNL A   1      44.221  29.817  28.020  1.00  0.00    -0.248 NA
ATOM     40  C   UNL A   1      42.645  31.384  28.730  1.00  0.00     0.031 C 
ATOM     41  C   UNL A   1      41.056  26.650  28.080  1.00  0.00     0.029 A 
ATOM     42  N   UNL A   1      43.210  27.073  27.658  1.00  0.00    -0.354 N 
ATOM     43  C   UNL A   1      44.815  31.072  28.082  1.00  0.00     0.074 A 
ATOM     44  C   UNL A   1      43.782  32.010  28.460  1.00  0.00     0.031 C 
ATOM     45  C   UNL A   1      41.623  25.497  27.696  1.00  0.00     0.029 A 
ATOM     46  C   UNL A   1      43.034  25.732  27.409  1.00  0.00     0.049 A 
ATOM     47  H   UNL A   1      44.070  27.537  27.531  1.00  0.00     0.167 HD
ATOM     48  C   UNL A   1      46.112  31.407  27.871  1.00  0.00     0.037 A 
ATOM     49  C   UNL A   1      43.913  24.796  27.004  1.00  0.00     0.037 A 
ATOM     50  C   UNL A   1      47.137  30.462  27.509  1.00  0.00     0.049 A 
ATOM     51  C   UNL A   1      45.349  25.191  26.794  1.00  0.00     0.074 A 
ATOM     52  C   UNL A   1      48.489  30.688  27.321  1.00  0.00     0.029 A 
ATOM     53  N   UNL A   1      46.924  29.111  27.275  1.00  0.00    -0.354 N 
ATOM     54  N   UNL A   1      45.911  26.370  26.931  1.00  0.00    -0.248 NA
ATOM     55  C   UNL A   1      46.274  24.125  26.390  1.00  0.00     0.031 C 
ATOM     56  C   UNL A   1      49.085  29.485  26.928  1.00  0.00     0.029 A 
ATOM     57  C   UNL A   1      48.115  28.495  26.926  1.00  0.00     0.049 A 
ATOM     58  H   UNL A   1      46.053  28.656  27.346  1.00  0.00     0.167 HD
ATOM     59  C   UNL A   1      47.260  26.181  26.654  1.00  0.00     0.074 A 
ATOM     60  C   UNL A   1      47.431  24.770  26.368  1.00  0.00     0.031 C 
ATOM     61  C   UNL A   1      48.267  27.091  26.637  1.00  0.00     0.037 A 
BRANCH  48  62
ATOM     62  C   UNL A   1      46.496  32.854  28.037  1.00  0.00     0.058 A 
ATOM     63  C   UNL A   1      47.009  33.346  29.249  1.00  0.00     0.135 A 
ATOM     64  C   UNL A   1      46.391  33.752  26.962  1.00  0.00     0.135 A 
ATOM     65  F   UNL A   1      47.118  32.538  30.317  1.00  0.00    -0.206 F 
ATOM     66  C   UNL A   1      47.379  34.680  29.397  1.00  0.00     0.059 A 
ATOM     67  C   UNL A   1      46.783  35.083  27.079  1.00  0.00     0.059 A 
ATOM     68  F   UNL A   1      45.906  33.339  25.782  1.00  0.00    -0.206 F 
ATOM     69  C   UNL A   1      47.264  35.541  28.305  1.00  0.00     0.060 A 
BRANCH  69  70
ATOM     70  S   UNL A   1      47.763  37.263  28.511  1.00  0.00     0.124 S 
ATOM     71  O   UNL A   1      48.305  37.248  29.867  1.00  0.00    -0.237 OA
ATOM     72  O   UNL A   1      48.740  37.434  27.442  1.00  0.00    -0.237 OA
ATOM     73  O   UNL A   1      46.516  38.001  28.344  1.00  0.00    -0.744 OA
ENDBRANCH  69  70
ENDBRANCH  48  62
BRANCH  49  74
ATOM     74  C   UNL A   1      43.467  23.390  26.809  1.00  0.00     0.058 A 
ATOM     75  C   UNL A   1      43.323  22.847  25.524  1.00  0.00     0.135 A 
ATOM     76  C   UNL A   1      43.182  22.559  27.904  1.00  0.00     0.135 A 
ATOM     77  F   UNL A   1      43.583  23.600  24.444  1.00  0.00    -0.206 F 
ATOM     78  C   UNL A   1      42.886  21.541  25.328  1.00  0.00     0.059 A 
ATOM     79  C   UNL A   1      42.771  21.241  27.736  1.00  0.00     0.059 A 
ATOM     80  F   UNL A   1      43.324  23.023  29.156  1.00  0.00    -0.206 F 
ATOM     81  C   UNL A   1      42.614  20.744  26.442  1.00  0.00     0.060 A 
BRANCH  81  82
ATOM     82  S   UNL A   1      42.080  19.039  26.178  1.00  0.00     0.124 S 
ATOM     83  O   UNL A   1      40.683  19.223  25.806  1.00  0.00    -0.237 OA
ATOM     84  O   UNL A   1      42.974  18.601  25.110  1.00  0.00    -0.237 OA
ATOM     85  O   UNL A   1      42.311  18.412  27.475  1.00  0.00    -0.744 OA
ENDBRANCH  81  82
ENDBRANCH  49  74
BRANCH  61  86
ATOM     86  C   UNL A   1      49.647  26.575  26.328  1.00  0.00     0.058 A 
ATOM     87  C   UNL A   1      50.471  26.023  27.324  1.00  0.00     0.135 A 
ATOM     88  C   UNL A   1      50.153  26.634  25.020  1.00  0.00     0.135 A 
ATOM     89  F   UNL A   1      50.039  25.943  28.592  1.00  0.00    -0.206 F 
ATOM     90  C   UNL A   1      51.766  25.599  27.041  1.00  0.00     0.059 A 
ATOM     91  C   UNL A   1      51.431  26.184  24.709  1.00  0.00     0.059 A 
ATOM     92  F   UNL A   1      49.401  27.136  24.026  1.00  0.00    -0.206 F 
ATOM     93  C   UNL A   1      52.239  25.690  25.732  1.00  0.00     0.060 A 
BRANCH  93  94
ATOM     94  S   UNL A   1      53.927  25.155  25.381  1.00  0.00     0.124 S 
ATOM     95  O   UNL A   1      54.294  26.043  24.283  1.00  0.00    -0.237 OA
ATOM     96  O   UNL A   1      54.604  25.402  26.650  1.00  0.00    -0.237 OA
ATOM     97  O   UNL A   1      53.770  23.748  25.025  1.00  0.00    -0.744 OA
ENDBRANCH  93  94
ENDBRANCH  61  86
ENDBRANCH  35  36
ENDBRANCH  27  30
ENDBRANCH  25  26
ENDBRANCH   1  25
TORSDOF 18
ENDMDL
