MODEL 1
REMARK VINA RESULT:     -11.8      0.000      0.000
REMARK SMILES Cc1cc2c(c(C)c1Cl)C=C(C(=O)NCCCNC(=O)c1ccc(-c3c4nc(c(-c5c(F)cc(S(=O)(=O)[O-])cc5F)c5ccc([nH]5)c(-c5c(F)cc(S(=O)(=O)[O-])cc5F)c5nc(c(-c6c(F)cc(S(=O)(=O)[O-])cc6F)c6ccc3[nH]6)C=C5)C=C4)cc1)[C@@H](C(F)(F)F)O2
REMARK SMILES IDX 17 1 16 2 15 3 14 4 12 5 13 6 11 8 1 9 2 10 3 11 8 12 4 13
REMARK SMILES IDX 6 14 9 15 5 16 92 17 7 18 10 19 87 20 88 21 89 22 90 23
REMARK SMILES IDX 91 24 18 25 19 26 20 28 21 29 22 30 86 31 23 32 85 33 24 34
REMARK SMILES IDX 25 35 26 36 79 37 27 38 84 39 78 40 80 41 28 42 83 43 77 44
REMARK SMILES IDX 76 45 29 47 63 48 42 49 62 50 43 51 46 52 61 53 81 54 44 55
REMARK SMILES IDX 45 56 60 58 82 59 47 60 30 61 31 62 40 63 32 64 33 65 39 66
REMARK SMILES IDX 41 67 34 68 35 69 36 70 37 71 38 72 64 73 65 74 74 75 66 76
REMARK SMILES IDX 67 77 73 78 75 79 68 80 69 81 70 82 71 83 72 84 48 85 49 86
REMARK SMILES IDX 58 87 50 88 51 89 57 90 59 91 52 92 53 93 54 94 55 95 56 96
REMARK H PARENT 14 7 18 27 80 46 46 57
REMARK Flexibility Score: inf
ROOT
ATOM      1  C   UNL A   1      33.852  28.217  26.658  1.00  0.00     0.118 C 
ENDROOT
BRANCH   1   2
ATOM      2  C   UNL A   1      34.017  28.151  25.145  1.00  0.00     0.042 C 
BRANCH   2   3
ATOM      3  C   UNL A   1      33.041  27.178  24.502  1.00  0.00     0.118 C 
BRANCH   3   4
ATOM      4  N   UNL A   1      32.156  26.567  25.483  1.00  0.00    -0.352 N 
ATOM      5  C   UNL A   1      31.969  25.341  26.023  1.00  0.00     0.251 C 
ATOM      6  O   UNL A   1      31.073  25.270  26.871  1.00  0.00    -0.270 OA
ATOM      7  H   UNL A   1      31.522  27.222  25.853  1.00  0.00     0.163 HD
BRANCH   5   8
ATOM      8  C   UNL A   1      32.753  24.121  25.675  1.00  0.00     0.067 C 
ATOM      9  C   UNL A   1      37.111  19.372  24.795  1.00  0.00     0.046 C 
ATOM     10  C   UNL A   1      36.382  20.644  25.132  1.00  0.00    -0.028 A 
ATOM     11  C   UNL A   1      34.993  20.662  24.995  1.00  0.00     0.052 A 
ATOM     12  C   UNL A   1      37.042  21.822  25.540  1.00  0.00     0.047 A 
ATOM     13  C   UNL A   1      34.272  21.819  25.268  1.00  0.00     0.128 A 
ATOM     14  C   UNL A   1      36.316  23.001  25.843  1.00  0.00    -0.021 A 
ATOM     15  Cl  UNL A   1      38.777  21.795  25.657  1.00  0.00    -0.084 Cl
ATOM     16  C   UNL A   1      34.906  22.985  25.704  1.00  0.00     0.022 A 
ATOM     17  O   UNL A   1      32.921  21.707  25.119  1.00  0.00    -0.475 OA
ATOM     18  C   UNL A   1      37.002  24.264  26.310  1.00  0.00     0.047 C 
ATOM     19  C   UNL A   1      34.052  24.132  26.031  1.00  0.00     0.026 C 
ATOM     20  C   UNL A   1      32.185  22.943  24.946  1.00  0.00     0.314 C 
BRANCH  20  21
ATOM     21  C   UNL A   1      31.988  23.216  23.442  1.00  0.00     0.429 C 
ATOM     22  F   UNL A   1      30.741  23.693  23.204  1.00  0.00    -0.167 F 
ATOM     23  F   UNL A   1      32.850  24.143  22.960  1.00  0.00    -0.167 F 
ATOM     24  F   UNL A   1      32.149  22.107  22.684  1.00  0.00    -0.167 F 
ENDBRANCH  20  21
ENDBRANCH   5   8
ENDBRANCH   3   4
ENDBRANCH   2   3
ENDBRANCH   1   2
BRANCH   1  25
ATOM     25  N   UNL A   1      33.708  29.594  27.127  1.00  0.00    -0.352 N 
ATOM     26  C   UNL A   1      34.533  30.344  27.925  1.00  0.00     0.251 C 
ATOM     27  H   UNL A   1      32.894  30.054  26.822  1.00  0.00     0.163 HD
ATOM     28  O   UNL A   1      34.102  31.371  28.449  1.00  0.00    -0.269 OA
BRANCH  26  29
ATOM     29  C   UNL A   1      35.928  29.920  28.152  1.00  0.00     0.039 A 
ATOM     30  C   UNL A   1      36.866  30.060  27.127  1.00  0.00     0.014 A 
ATOM     31  C   UNL A   1      36.300  29.361  29.377  1.00  0.00     0.014 A 
ATOM     32  C   UNL A   1      38.193  29.695  27.357  1.00  0.00     0.010 A 
ATOM     33  C   UNL A   1      37.636  29.096  29.638  1.00  0.00     0.010 A 
ATOM     34  C   UNL A   1      38.593  29.242  28.626  1.00  0.00    -0.014 A 
BRANCH  34  35
ATOM     35  C   UNL A   1      40.001  28.876  28.910  1.00  0.00     0.031 A 
ATOM     36  C   UNL A   1      40.924  29.892  29.525  1.00  0.00     0.074 A 
ATOM     37  C   UNL A   1      40.456  27.657  28.561  1.00  0.00     0.049 A 
ATOM     38  N   UNL A   1      42.201  29.795  29.785  1.00  0.00    -0.248 NA
ATOM     39  C   UNL A   1      40.342  31.202  29.868  1.00  0.00     0.031 C 
ATOM     40  C   UNL A   1      39.661  26.609  27.916  1.00  0.00     0.029 A 
ATOM     41  N   UNL A   1      41.698  27.092  28.696  1.00  0.00    -0.354 N 
ATOM     42  C   UNL A   1      42.574  31.028  30.309  1.00  0.00     0.074 A 
ATOM     43  C   UNL A   1      41.407  31.879  30.268  1.00  0.00     0.031 C 
ATOM     44  C   UNL A   1      40.425  25.518  27.745  1.00  0.00     0.029 A 
ATOM     45  C   UNL A   1      41.773  25.802  28.228  1.00  0.00     0.049 A 
ATOM     46  H   UNL A   1      42.466  27.568  29.090  1.00  0.00     0.167 HD
ATOM     47  C   UNL A   1      43.772  31.403  30.814  1.00  0.00     0.037 A 
ATOM     48  C   UNL A   1      42.813  24.945  28.193  1.00  0.00     0.037 A 
ATOM     49  C   UNL A   1      44.917  30.534  30.881  1.00  0.00     0.049 A 
ATOM     50  C   UNL A   1      44.139  25.390  28.746  1.00  0.00     0.074 A 
ATOM     51  C   UNL A   1      46.164  30.797  31.417  1.00  0.00     0.029 A 
ATOM     52  N   UNL A   1      44.952  29.233  30.399  1.00  0.00    -0.354 N 
ATOM     53  N   UNL A   1      44.461  26.542  29.287  1.00  0.00    -0.248 NA
ATOM     54  C   UNL A   1      45.243  24.424  28.688  1.00  0.00     0.031 C 
ATOM     55  C   UNL A   1      46.969  29.672  31.220  1.00  0.00     0.029 A 
ATOM     56  C   UNL A   1      46.208  28.688  30.606  1.00  0.00     0.049 A 
ATOM     57  H   UNL A   1      44.197  28.768  29.973  1.00  0.00     0.167 HD
ATOM     58  C   UNL A   1      45.797  26.432  29.652  1.00  0.00     0.074 A 
ATOM     59  C   UNL A   1      46.220  25.095  29.284  1.00  0.00     0.031 C 
ATOM     60  C   UNL A   1      46.605  27.353  30.235  1.00  0.00     0.037 A 
BRANCH  47  61
ATOM     61  C   UNL A   1      43.899  32.800  31.354  1.00  0.00     0.058 A 
ATOM     62  C   UNL A   1      44.167  33.890  30.510  1.00  0.00     0.135 A 
ATOM     63  C   UNL A   1      43.707  33.062  32.720  1.00  0.00     0.135 A 
ATOM     64  F   UNL A   1      44.380  33.695  29.199  1.00  0.00    -0.206 F 
ATOM     65  C   UNL A   1      44.258  35.187  31.003  1.00  0.00     0.059 A 
ATOM     66  C   UNL A   1      43.764  34.355  33.231  1.00  0.00     0.059 A 
ATOM     67  F   UNL A   1      43.454  32.056  33.572  1.00  0.00    -0.206 F 
ATOM     68  C   UNL A   1      44.048  35.411  32.365  1.00  0.00     0.060 A 
BRANCH  68  69
ATOM     69  S   UNL A   1      44.147  37.105  32.980  1.00  0.00     0.124 S 
ATOM     70  O   UNL A   1      45.355  37.049  33.798  1.00  0.00    -0.237 OA
ATOM     71  O   UNL A   1      44.254  37.876  31.745  1.00  0.00    -0.237 OA
ATOM     72  O   UNL A   1      42.899  37.274  33.717  1.00  0.00    -0.744 OA
ENDBRANCH  68  69
ENDBRANCH  47  61
BRANCH  48  73
ATOM     73  C   UNL A   1      42.625  23.574  27.647  1.00  0.00     0.058 A 
ATOM     74  C   UNL A   1      42.786  23.319  26.278  1.00  0.00     0.135 A 
ATOM     75  C   UNL A   1      42.316  22.488  28.482  1.00  0.00     0.135 A 
ATOM     76  F   UNL A   1      43.076  24.324  25.438  1.00  0.00    -0.206 F 
ATOM     77  C   UNL A   1      42.638  22.040  25.751  1.00  0.00     0.059 A 
ATOM     78  C   UNL A   1      42.189  21.195  27.983  1.00  0.00     0.059 A 
ATOM     79  F   UNL A   1      42.170  22.676  29.803  1.00  0.00    -0.206 F 
ATOM     80  C   UNL A   1      42.346  20.982  26.614  1.00  0.00     0.060 A 
BRANCH  80  81
ATOM     81  S   UNL A   1      42.215  19.318  25.926  1.00  0.00     0.124 S 
ATOM     82  O   UNL A   1      40.780  19.206  25.695  1.00  0.00    -0.237 OA
ATOM     83  O   UNL A   1      43.050  19.417  24.732  1.00  0.00    -0.237 OA
ATOM     84  O   UNL A   1      42.751  18.471  26.987  1.00  0.00    -0.744 OA
ENDBRANCH  80  81
ENDBRANCH  48  73
BRANCH  60  85
ATOM     85  C   UNL A   1      48.022  26.951  30.528  1.00  0.00     0.058 A 
ATOM     86  C   UNL A   1      49.063  27.229  29.629  1.00  0.00     0.135 A 
ATOM     87  C   UNL A   1      48.355  26.361  31.758  1.00  0.00     0.135 A 
ATOM     88  F   UNL A   1      48.796  27.786  28.437  1.00  0.00    -0.206 F 
ATOM     89  C   UNL A   1      50.384  26.925  29.935  1.00  0.00     0.059 A 
ATOM     90  C   UNL A   1      49.673  26.075  32.097  1.00  0.00     0.059 A 
ATOM     91  F   UNL A   1      47.397  26.085  32.657  1.00  0.00    -0.206 F 
ATOM     92  C   UNL A   1      50.681  26.355  31.175  1.00  0.00     0.060 A 
BRANCH  92  93
ATOM     93  S   UNL A   1      52.408  26.017  31.575  1.00  0.00     0.124 S 
ATOM     94  O   UNL A   1      53.051  26.191  30.277  1.00  0.00    -0.237 OA
ATOM     95  O   UNL A   1      52.702  27.042  32.571  1.00  0.00    -0.237 OA
ATOM     96  O   UNL A   1      52.379  24.648  32.082  1.00  0.00    -0.744 OA
ENDBRANCH  92  93
ENDBRANCH  60  85
ENDBRANCH  34  35
ENDBRANCH  26  29
ENDBRANCH   1  25
TORSDOF 14
ENDMDL
MODEL 2
REMARK VINA RESULT:     -11.6      3.066      3.993
REMARK SMILES Cc1cc2c(c(C)c1Cl)C=C(C(=O)NCCCNC(=O)c1ccc(-c3c4nc(c(-c5c(F)cc(S(=O)(=O)[O-])cc5F)c5ccc([nH]5)c(-c5c(F)cc(S(=O)(=O)[O-])cc5F)c5nc(c(-c6c(F)cc(S(=O)(=O)[O-])cc6F)c6ccc3[nH]6)C=C5)C=C4)cc1)[C@@H](C(F)(F)F)O2
REMARK SMILES IDX 17 1 16 2 15 3 14 4 12 5 13 6 11 8 1 9 2 10 3 11 8 12 4 13
REMARK SMILES IDX 6 14 9 15 5 16 92 17 7 18 10 19 87 20 88 21 89 22 90 23
REMARK SMILES IDX 91 24 18 25 19 26 20 28 21 29 22 30 86 31 23 32 85 33 24 34
REMARK SMILES IDX 25 35 26 36 79 37 27 38 84 39 78 40 80 41 28 42 83 43 77 44
REMARK SMILES IDX 76 45 29 47 63 48 42 49 62 50 43 51 46 52 61 53 81 54 44 55
REMARK SMILES IDX 45 56 60 58 82 59 47 60 30 61 31 62 40 63 32 64 33 65 39 66
REMARK SMILES IDX 41 67 34 68 35 69 36 70 37 71 38 72 64 73 65 74 74 75 66 76
REMARK SMILES IDX 67 77 73 78 75 79 68 80 69 81 70 82 71 83 72 84 48 85 49 86
REMARK SMILES IDX 58 87 50 88 51 89 57 90 59 91 52 92 53 93 54 94 55 95 56 96
REMARK H PARENT 14 7 18 27 80 46 46 57
REMARK Flexibility Score: inf
ROOT
ATOM      1  C   UNL A   1      35.546  31.398  28.333  1.00  0.00     0.118 C 
ENDROOT
BRANCH   1   2
ATOM      2  C   UNL A   1      34.154  31.311  27.722  1.00  0.00     0.042 C 
BRANCH   2   3
ATOM      3  C   UNL A   1      33.901  29.967  27.058  1.00  0.00     0.118 C 
BRANCH   3   4
ATOM      4  N   UNL A   1      32.806  29.245  27.690  1.00  0.00    -0.352 N 
ATOM      5  C   UNL A   1      32.000  28.201  27.388  1.00  0.00     0.251 C 
ATOM      6  O   UNL A   1      31.180  27.900  28.262  1.00  0.00    -0.270 OA
ATOM      7  H   UNL A   1      32.596  29.616  28.577  1.00  0.00     0.163 HD
BRANCH   5   8
ATOM      8  C   UNL A   1      32.046  27.421  26.118  1.00  0.00     0.067 C 
ATOM      9  C   UNL A   1      33.112  23.316  21.186  1.00  0.00     0.046 C 
ATOM     10  C   UNL A   1      33.141  24.096  22.471  1.00  0.00    -0.028 A 
ATOM     11  C   UNL A   1      32.100  24.992  22.722  1.00  0.00     0.052 A 
ATOM     12  C   UNL A   1      34.189  23.991  23.410  1.00  0.00     0.047 A 
ATOM     13  C   UNL A   1      32.091  25.757  23.882  1.00  0.00     0.128 A 
ATOM     14  C   UNL A   1      34.180  24.749  24.607  1.00  0.00    -0.021 A 
ATOM     15  Cl  UNL A   1      35.503  22.907  23.059  1.00  0.00    -0.084 Cl
ATOM     16  C   UNL A   1      33.105  25.642  24.837  1.00  0.00     0.022 A 
ATOM     17  O   UNL A   1      31.011  26.579  24.024  1.00  0.00    -0.475 OA
ATOM     18  C   UNL A   1      35.278  24.629  25.638  1.00  0.00     0.047 C 
ATOM     19  C   UNL A   1      32.970  26.443  26.059  1.00  0.00     0.026 C 
ATOM     20  C   UNL A   1      31.162  27.691  24.939  1.00  0.00     0.314 C 
BRANCH  20  21
ATOM     21  C   UNL A   1      31.588  28.948  24.155  1.00  0.00     0.429 C 
ATOM     22  F   UNL A   1      31.049  28.938  22.911  1.00  0.00    -0.167 F 
ATOM     23  F   UNL A   1      31.175  30.097  24.743  1.00  0.00    -0.167 F 
ATOM     24  F   UNL A   1      32.930  29.045  24.016  1.00  0.00    -0.167 F 
ENDBRANCH  20  21
ENDBRANCH   5   8
ENDBRANCH   3   4
ENDBRANCH   2   3
ENDBRANCH   1   2
BRANCH   1  25
ATOM     25  N   UNL A   1      35.505  31.276  29.789  1.00  0.00    -0.352 N 
ATOM     26  C   UNL A   1      36.335  30.594  30.642  1.00  0.00     0.251 C 
ATOM     27  H   UNL A   1      34.767  31.759  30.226  1.00  0.00     0.163 HD
ATOM     28  O   UNL A   1      35.969  30.367  31.794  1.00  0.00    -0.269 OA
BRANCH  26  29
ATOM     29  C   UNL A   1      37.658  30.136  30.176  1.00  0.00     0.039 A 
ATOM     30  C   UNL A   1      37.953  30.159  28.811  1.00  0.00     0.014 A 
ATOM     31  C   UNL A   1      38.599  29.662  31.093  1.00  0.00     0.014 A 
ATOM     32  C   UNL A   1      39.219  29.763  28.376  1.00  0.00     0.010 A 
ATOM     33  C   UNL A   1      39.887  29.369  30.672  1.00  0.00     0.010 A 
ATOM     34  C   UNL A   1      40.205  29.398  29.307  1.00  0.00    -0.014 A 
BRANCH  34  35
ATOM     35  C   UNL A   1      41.568  29.003  28.879  1.00  0.00     0.031 A 
ATOM     36  C   UNL A   1      42.666  30.031  28.851  1.00  0.00     0.074 A 
ATOM     37  C   UNL A   1      41.797  27.742  28.465  1.00  0.00     0.049 A 
ATOM     38  N   UNL A   1      43.901  29.907  28.441  1.00  0.00    -0.248 NA
ATOM     39  C   UNL A   1      42.324  31.387  29.316  1.00  0.00     0.031 C 
ATOM     40  C   UNL A   1      40.795  26.674  28.407  1.00  0.00     0.029 A 
ATOM     41  N   UNL A   1      42.943  27.143  28.009  1.00  0.00    -0.354 N 
ATOM     42  C   UNL A   1      44.476  31.164  28.590  1.00  0.00     0.074 A 
ATOM     43  C   UNL A   1      43.439  32.053  29.061  1.00  0.00     0.031 C 
ATOM     44  C   UNL A   1      41.380  25.544  27.978  1.00  0.00     0.029 A 
ATOM     45  C   UNL A   1      42.785  25.815  27.690  1.00  0.00     0.049 A 
ATOM     46  H   UNL A   1      43.801  27.620  27.918  1.00  0.00     0.167 HD
ATOM     47  C   UNL A   1      45.761  31.533  28.388  1.00  0.00     0.037 A 
ATOM     48  C   UNL A   1      43.673  24.918  27.218  1.00  0.00     0.037 A 
ATOM     49  C   UNL A   1      46.792  30.630  27.952  1.00  0.00     0.049 A 
ATOM     50  C   UNL A   1      45.093  25.357  26.986  1.00  0.00     0.074 A 
ATOM     51  C   UNL A   1      48.137  30.889  27.762  1.00  0.00     0.029 A 
ATOM     52  N   UNL A   1      46.592  29.292  27.640  1.00  0.00    -0.354 N 
ATOM     53  N   UNL A   1      45.633  26.538  27.182  1.00  0.00    -0.248 NA
ATOM     54  C   UNL A   1      46.027  24.347  26.471  1.00  0.00     0.031 C 
ATOM     55  C   UNL A   1      48.743  29.720  27.293  1.00  0.00     0.029 A 
ATOM     56  C   UNL A   1      47.786  28.718  27.239  1.00  0.00     0.049 A 
ATOM     57  H   UNL A   1      45.730  28.822  27.697  1.00  0.00     0.167 HD
ATOM     58  C   UNL A   1      46.972  26.406  26.835  1.00  0.00     0.074 A 
ATOM     59  C   UNL A   1      47.164  25.028  26.431  1.00  0.00     0.031 C 
ATOM     60  C   UNL A   1      47.954  27.341  26.845  1.00  0.00     0.037 A 
BRANCH  47  61
ATOM     61  C   UNL A   1      46.131  32.966  28.658  1.00  0.00     0.058 A 
ATOM     62  C   UNL A   1      46.574  33.382  29.924  1.00  0.00     0.135 A 
ATOM     63  C   UNL A   1      46.087  33.924  27.632  1.00  0.00     0.135 A 
ATOM     64  F   UNL A   1      46.617  32.513  30.946  1.00  0.00    -0.206 F 
ATOM     65  C   UNL A   1      46.943  34.700  30.169  1.00  0.00     0.059 A 
ATOM     66  C   UNL A   1      46.479  35.242  27.847  1.00  0.00     0.059 A 
ATOM     67  F   UNL A   1      45.665  33.582  26.405  1.00  0.00    -0.206 F 
ATOM     68  C   UNL A   1      46.898  35.622  29.121  1.00  0.00     0.060 A 
BRANCH  68  69
ATOM     69  S   UNL A   1      47.403  37.322  29.455  1.00  0.00     0.124 S 
ATOM     70  O   UNL A   1      48.857  37.193  29.493  1.00  0.00    -0.237 OA
ATOM     71  O   UNL A   1      46.861  38.038  28.305  1.00  0.00    -0.237 OA
ATOM     72  O   UNL A   1      46.768  37.623  30.735  1.00  0.00    -0.744 OA
ENDBRANCH  68  69
ENDBRANCH  47  61
BRANCH  48  73
ATOM     73  C   UNL A   1      43.249  23.514  26.970  1.00  0.00     0.058 A 
ATOM     74  C   UNL A   1      43.033  23.050  25.665  1.00  0.00     0.135 A 
ATOM     75  C   UNL A   1      43.082  22.602  28.024  1.00  0.00     0.135 A 
ATOM     76  F   UNL A   1      43.175  23.884  24.624  1.00  0.00    -0.206 F 
ATOM     77  C   UNL A   1      42.660  21.734  25.411  1.00  0.00     0.059 A 
ATOM     78  C   UNL A   1      42.734  21.274  27.794  1.00  0.00     0.059 A 
ATOM     79  F   UNL A   1      43.293  22.992  29.291  1.00  0.00    -0.206 F 
ATOM     80  C   UNL A   1      42.518  20.851  26.483  1.00  0.00     0.060 A 
BRANCH  80  81
ATOM     81  S   UNL A   1      42.090  19.132  26.135  1.00  0.00     0.124 S 
ATOM     82  O   UNL A   1      42.483  18.473  27.375  1.00  0.00    -0.237 OA
ATOM     83  O   UNL A   1      40.653  19.222  25.886  1.00  0.00    -0.237 OA
ATOM     84  O   UNL A   1      42.901  18.813  24.965  1.00  0.00    -0.744 OA
ENDBRANCH  80  81
ENDBRANCH  48  73
BRANCH  60  85
ATOM     85  C   UNL A   1      49.331  26.911  26.423  1.00  0.00     0.058 A 
ATOM     86  C   UNL A   1      50.231  26.341  27.336  1.00  0.00     0.135 A 
ATOM     87  C   UNL A   1      49.720  26.990  25.077  1.00  0.00     0.135 A 
ATOM     88  F   UNL A   1      49.909  26.250  28.636  1.00  0.00    -0.206 F 
ATOM     89  C   UNL A   1      51.475  25.874  26.930  1.00  0.00     0.059 A 
ATOM     90  C   UNL A   1      50.949  26.502  24.643  1.00  0.00     0.059 A 
ATOM     91  F   UNL A   1      48.890  27.517  24.162  1.00  0.00    -0.206 F 
ATOM     92  C   UNL A   1      51.822  25.951  25.579  1.00  0.00     0.060 A 
BRANCH  92  93
ATOM     93  S   UNL A   1      53.421  25.291  25.063  1.00  0.00     0.124 S 
ATOM     94  O   UNL A   1      53.460  25.681  23.657  1.00  0.00    -0.237 OA
ATOM     95  O   UNL A   1      54.346  25.997  25.943  1.00  0.00    -0.237 OA
ATOM     96  O   UNL A   1      53.295  23.858  25.313  1.00  0.00    -0.744 OA
ENDBRANCH  92  93
ENDBRANCH  60  85
ENDBRANCH  34  35
ENDBRANCH  26  29
ENDBRANCH   1  25
TORSDOF 14
ENDMDL
MODEL 3
REMARK VINA RESULT:     -11.6      2.745      3.563
REMARK SMILES Cc1cc2c(c(C)c1Cl)C=C(C(=O)NCCCNC(=O)c1ccc(-c3c4nc(c(-c5c(F)cc(S(=O)(=O)[O-])cc5F)c5ccc([nH]5)c(-c5c(F)cc(S(=O)(=O)[O-])cc5F)c5nc(c(-c6c(F)cc(S(=O)(=O)[O-])cc6F)c6ccc3[nH]6)C=C5)C=C4)cc1)[C@@H](C(F)(F)F)O2
REMARK SMILES IDX 17 1 16 2 15 3 14 4 12 5 13 6 11 8 1 9 2 10 3 11 8 12 4 13
REMARK SMILES IDX 6 14 9 15 5 16 92 17 7 18 10 19 87 20 88 21 89 22 90 23
REMARK SMILES IDX 91 24 18 25 19 26 20 28 21 29 22 30 86 31 23 32 85 33 24 34
REMARK SMILES IDX 25 35 26 36 79 37 27 38 84 39 78 40 80 41 28 42 83 43 77 44
REMARK SMILES IDX 76 45 29 47 63 48 42 49 62 50 43 51 46 52 61 53 81 54 44 55
REMARK SMILES IDX 45 56 60 58 82 59 47 60 30 61 31 62 40 63 32 64 33 65 39 66
REMARK SMILES IDX 41 67 34 68 35 69 36 70 37 71 38 72 64 73 65 74 74 75 66 76
REMARK SMILES IDX 67 77 73 78 75 79 68 80 69 81 70 82 71 83 72 84 48 85 49 86
REMARK SMILES IDX 58 87 50 88 51 89 57 90 59 91 52 92 53 93 54 94 55 95 56 96
REMARK H PARENT 14 7 18 27 80 46 46 57
REMARK Flexibility Score: inf
ROOT
ATOM      1  C   UNL A   1      35.104  29.386  27.653  1.00  0.00     0.118 C 
ENDROOT
BRANCH   1   2
ATOM      2  C   UNL A   1      33.655  29.206  27.220  1.00  0.00     0.042 C 
BRANCH   2   3
ATOM      3  C   UNL A   1      33.394  27.821  26.649  1.00  0.00     0.118 C 
BRANCH   3   4
ATOM      4  N   UNL A   1      33.661  27.761  25.219  1.00  0.00    -0.352 N 
ATOM      5  C   UNL A   1      33.633  26.826  24.242  1.00  0.00     0.251 C 
ATOM      6  O   UNL A   1      33.933  27.233  23.115  1.00  0.00    -0.270 OA
ATOM      7  H   UNL A   1      33.937  28.638  24.869  1.00  0.00     0.163 HD
BRANCH   5   8
ATOM      8  C   UNL A   1      33.267  25.393  24.437  1.00  0.00     0.067 C 
ATOM      9  C   UNL A   1      32.923  18.974  25.433  1.00  0.00     0.046 C 
ATOM     10  C   UNL A   1      33.351  20.396  25.195  1.00  0.00    -0.028 A 
ATOM     11  C   UNL A   1      32.379  21.395  25.255  1.00  0.00     0.052 A 
ATOM     12  C   UNL A   1      34.677  20.755  24.876  1.00  0.00     0.047 A 
ATOM     13  C   UNL A   1      32.715  22.723  25.017  1.00  0.00     0.128 A 
ATOM     14  C   UNL A   1      35.038  22.107  24.653  1.00  0.00    -0.021 A 
ATOM     15  Cl  UNL A   1      35.866  19.491  24.756  1.00  0.00    -0.084 Cl
ATOM     16  C   UNL A   1      34.030  23.100  24.732  1.00  0.00     0.022 A 
ATOM     17  O   UNL A   1      31.684  23.609  25.127  1.00  0.00    -0.475 OA
ATOM     18  C   UNL A   1      36.459  22.516  24.340  1.00  0.00     0.047 C 
ATOM     19  C   UNL A   1      34.296  24.533  24.563  1.00  0.00     0.026 C 
ATOM     20  C   UNL A   1      31.858  24.887  24.468  1.00  0.00     0.314 C 
BRANCH  20  21
ATOM     21  C   UNL A   1      31.218  24.835  23.067  1.00  0.00     0.429 C 
ATOM     22  F   UNL A   1      30.757  26.058  22.707  1.00  0.00    -0.167 F 
ATOM     23  F   UNL A   1      32.094  24.458  22.104  1.00  0.00    -0.167 F 
ATOM     24  F   UNL A   1      30.177  23.974  23.001  1.00  0.00    -0.167 F 
ENDBRANCH  20  21
ENDBRANCH   5   8
ENDBRANCH   3   4
ENDBRANCH   2   3
ENDBRANCH   1   2
BRANCH   1  25
ATOM     25  N   UNL A   1      35.211  30.223  28.847  1.00  0.00    -0.352 N 
ATOM     26  C   UNL A   1      36.249  30.371  29.731  1.00  0.00     0.251 C 
ATOM     27  H   UNL A   1      34.414  30.765  29.047  1.00  0.00     0.163 HD
ATOM     28  O   UNL A   1      36.044  30.889  30.827  1.00  0.00    -0.269 OA
BRANCH  26  29
ATOM     29  C   UNL A   1      37.601  29.911  29.365  1.00  0.00     0.039 A 
ATOM     30  C   UNL A   1      38.003  29.946  28.028  1.00  0.00     0.014 A 
ATOM     31  C   UNL A   1      38.465  29.421  30.348  1.00  0.00     0.014 A 
ATOM     32  C   UNL A   1      39.297  29.547  27.690  1.00  0.00     0.010 A 
ATOM     33  C   UNL A   1      39.781  29.124  30.026  1.00  0.00     0.010 A 
ATOM     34  C   UNL A   1      40.206  29.165  28.691  1.00  0.00    -0.014 A 
BRANCH  34  35
ATOM     35  C   UNL A   1      41.596  28.766  28.367  1.00  0.00     0.031 A 
ATOM     36  C   UNL A   1      42.686  29.803  28.367  1.00  0.00     0.074 A 
ATOM     37  C   UNL A   1      41.859  27.492  28.018  1.00  0.00     0.049 A 
ATOM     38  N   UNL A   1      43.945  29.674  28.043  1.00  0.00    -0.248 NA
ATOM     39  C   UNL A   1      42.305  31.173  28.755  1.00  0.00     0.031 C 
ATOM     40  C   UNL A   1      40.870  26.414  27.940  1.00  0.00     0.029 A 
ATOM     41  N   UNL A   1      43.036  26.887  27.661  1.00  0.00    -0.354 N 
ATOM     42  C   UNL A   1      44.501  30.942  28.177  1.00  0.00     0.074 A 
ATOM     43  C   UNL A   1      43.430  31.839  28.546  1.00  0.00     0.031 C 
ATOM     44  C   UNL A   1      41.488  25.274  27.594  1.00  0.00     0.029 A 
ATOM     45  C   UNL A   1      42.907  25.546  27.385  1.00  0.00     0.049 A 
ATOM     46  H   UNL A   1      43.894  27.368  27.606  1.00  0.00     0.167 HD
ATOM     47  C   UNL A   1      45.794  31.315  28.043  1.00  0.00     0.037 A 
ATOM     48  C   UNL A   1      43.830  24.640  27.007  1.00  0.00     0.037 A 
ATOM     49  C   UNL A   1      46.857  30.405  27.710  1.00  0.00     0.049 A 
ATOM     50  C   UNL A   1      45.259  25.082  26.849  1.00  0.00     0.074 A 
ATOM     51  C   UNL A   1      48.209  30.668  27.596  1.00  0.00     0.029 A 
ATOM     52  N   UNL A   1      46.687  29.054  27.440  1.00  0.00    -0.354 N 
ATOM     53  N   UNL A   1      45.777  26.274  27.032  1.00  0.00    -0.248 NA
ATOM     54  C   UNL A   1      46.230  24.061  26.435  1.00  0.00     0.031 C 
ATOM     55  C   UNL A   1      48.853  29.488  27.214  1.00  0.00     0.029 A 
ATOM     56  C   UNL A   1      47.907  28.476  27.139  1.00  0.00     0.049 A 
ATOM     57  H   UNL A   1      45.825  28.578  27.460  1.00  0.00     0.167 HD
ATOM     58  C   UNL A   1      47.137  26.142  26.776  1.00  0.00     0.074 A 
ATOM     59  C   UNL A   1      47.364  24.750  26.441  1.00  0.00     0.031 C 
ATOM     60  C   UNL A   1      48.110  27.086  26.811  1.00  0.00     0.037 A 
BRANCH  47  61
ATOM     61  C   UNL A   1      46.136  32.760  28.279  1.00  0.00     0.058 A 
ATOM     62  C   UNL A   1      46.510  33.227  29.550  1.00  0.00     0.135 A 
ATOM     63  C   UNL A   1      46.136  33.680  27.218  1.00  0.00     0.135 A 
ATOM     64  F   UNL A   1      46.508  32.396  30.604  1.00  0.00    -0.206 F 
ATOM     65  C   UNL A   1      46.853  34.557  29.764  1.00  0.00     0.059 A 
ATOM     66  C   UNL A   1      46.504  35.009  27.403  1.00  0.00     0.059 A 
ATOM     67  F   UNL A   1      45.781  33.289  25.984  1.00  0.00    -0.206 F 
ATOM     68  C   UNL A   1      46.853  35.440  28.683  1.00  0.00     0.060 A 
BRANCH  68  69
ATOM     69  S   UNL A   1      47.325  37.157  28.979  1.00  0.00     0.124 S 
ATOM     70  O   UNL A   1      47.673  37.123  30.396  1.00  0.00    -0.237 OA
ATOM     71  O   UNL A   1      48.442  37.334  28.057  1.00  0.00    -0.237 OA
ATOM     72  O   UNL A   1      46.116  37.905  28.648  1.00  0.00    -0.744 OA
ENDBRANCH  68  69
ENDBRANCH  47  61
BRANCH  48  73
ATOM     73  C   UNL A   1      43.432  23.223  26.789  1.00  0.00     0.058 A 
ATOM     74  C   UNL A   1      43.391  22.680  25.497  1.00  0.00     0.135 A 
ATOM     75  C   UNL A   1      43.118  22.376  27.864  1.00  0.00     0.135 A 
ATOM     76  F   UNL A   1      43.677  23.451  24.437  1.00  0.00    -0.206 F 
ATOM     77  C   UNL A   1      43.044  21.352  25.274  1.00  0.00     0.059 A 
ATOM     78  C   UNL A   1      42.793  21.037  27.669  1.00  0.00     0.059 A 
ATOM     79  F   UNL A   1      43.160  22.842  29.122  1.00  0.00    -0.206 F 
ATOM     80  C   UNL A   1      42.753  20.535  26.369  1.00  0.00     0.060 A 
BRANCH  80  81
ATOM     81  S   UNL A   1      42.362  18.798  26.070  1.00  0.00     0.124 S 
ATOM     82  O   UNL A   1      42.646  18.203  27.371  1.00  0.00    -0.237 OA
ATOM     83  O   UNL A   1      40.953  18.865  25.691  1.00  0.00    -0.237 OA
ATOM     84  O   UNL A   1      43.275  18.427  24.993  1.00  0.00    -0.744 OA
ENDBRANCH  80  81
ENDBRANCH  48  73
BRANCH  60  85
ATOM     85  C   UNL A   1      49.514  26.652  26.496  1.00  0.00     0.058 A 
ATOM     86  C   UNL A   1      50.315  26.013  27.454  1.00  0.00     0.135 A 
ATOM     87  C   UNL A   1      50.030  26.799  25.199  1.00  0.00     0.135 A 
ATOM     88  F   UNL A   1      49.870  25.854  28.710  1.00  0.00    -0.206 F 
ATOM     89  C   UNL A   1      51.585  25.544  27.139  1.00  0.00     0.059 A 
ATOM     90  C   UNL A   1      51.286  26.312  24.854  1.00  0.00     0.059 A 
ATOM     91  F   UNL A   1      49.298  27.395  24.243  1.00  0.00    -0.206 F 
ATOM     92  C   UNL A   1      52.059  25.691  25.834  1.00  0.00     0.060 A 
BRANCH  92  93
ATOM     93  S   UNL A   1      53.689  25.029  25.431  1.00  0.00     0.124 S 
ATOM     94  O   UNL A   1      54.469  25.440  26.593  1.00  0.00    -0.237 OA
ATOM     95  O   UNL A   1      53.423  23.598  25.320  1.00  0.00    -0.237 OA
ATOM     96  O   UNL A   1      54.029  25.698  24.179  1.00  0.00    -0.744 OA
ENDBRANCH  92  93
ENDBRANCH  60  85
ENDBRANCH  34  35
ENDBRANCH  26  29
ENDBRANCH   1  25
TORSDOF 14
ENDMDL
