MODEL 1
REMARK VINA RESULT:     -11.0      0.000      0.000
REMARK SMILES Cc1ccc(-c2cc(Cl)cc3c2O[C@@H](C(F)(F)F)C(C(=O)NCCCNC(=O)c2ccc(-c4c5nc(c(-c6c(F)cc(S(=O)(=O)[O-])cc6F)c6ccc([nH]6)c(-c6c(F)cc(S(=O)(=O)[O-])cc6F)c6nc(c(-c7c(F)cc(S(=O)(=O)[O-])cc7F)c7ccc4[nH]7)C=C6)C=C5)cc2)=C3)cc1
REMARK SMILES IDX 25 1 24 2 23 3 22 4 20 5 21 6 19 8 6 9 7 10 12 11 8 12 11 13
REMARK SMILES IDX 13 14 9 15 10 16 95 17 14 18 5 19 1 20 2 21 3 22 97 23 4 24
REMARK SMILES IDX 96 25 15 26 16 27 17 28 18 29 26 30 27 31 28 33 29 34 30 35
REMARK SMILES IDX 94 36 31 37 93 38 32 39 33 40 34 41 87 42 35 43 92 44 86 45
REMARK SMILES IDX 88 46 36 47 91 48 85 49 84 50 37 52 71 53 50 54 70 55 51 56
REMARK SMILES IDX 54 57 69 58 89 59 52 60 53 61 68 63 90 64 55 65 38 66 39 67
REMARK SMILES IDX 48 68 40 69 41 70 47 71 49 72 42 73 43 74 44 75 45 76 46 77
REMARK SMILES IDX 72 78 73 79 82 80 74 81 75 82 81 83 83 84 76 85 77 86 78 87
REMARK SMILES IDX 79 88 80 89 56 90 57 91 66 92 58 93 59 94 65 95 67 96 60 97
REMARK SMILES IDX 61 98 62 99 63 100 64 101
REMARK H PARENT 22 7 26 32 88 51 54 62
REMARK Flexibility Score: inf
ROOT
ATOM      1  C   UNL A   1      44.236  28.400  28.063  1.00  0.00     0.118 C 
ENDROOT
BRANCH   1   2
ATOM      2  C   UNL A   1      42.972  29.099  28.537  1.00  0.00     0.042 C 
BRANCH   2   3
ATOM      3  C   UNL A   1      41.686  28.789  27.750  1.00  0.00     0.118 C 
BRANCH   3   4
ATOM      4  N   UNL A   1      41.765  27.699  26.781  1.00  0.00    -0.352 N 
ATOM      5  C   UNL A   1      40.870  26.764  26.338  1.00  0.00     0.251 C 
ATOM      6  O   UNL A   1      41.005  26.353  25.181  1.00  0.00    -0.270 OA
ATOM      7  H   UNL A   1      42.650  27.621  26.357  1.00  0.00     0.163 HD
BRANCH   5   8
ATOM      8  C   UNL A   1      39.829  26.098  27.243  1.00  0.00     0.067 C 
ATOM      9  C   UNL A   1      42.806  23.499  27.653  1.00  0.00     0.026 A 
ATOM     10  C   UNL A   1      42.560  22.105  27.673  1.00  0.00     0.033 A 
ATOM     11  C   UNL A   1      41.675  24.306  27.813  1.00  0.00     0.135 A 
ATOM     12  C   UNL A   1      41.261  21.600  27.552  1.00  0.00     0.042 A 
ATOM     13  C   UNL A   1      40.439  23.833  27.299  1.00  0.00     0.019 A 
ATOM     14  O   UNL A   1      41.671  25.501  28.599  1.00  0.00    -0.475 OA
ATOM     15  Cl  UNL A   1      40.998  19.900  27.551  1.00  0.00    -0.084 Cl
ATOM     16  C   UNL A   1      40.204  22.463  27.273  1.00  0.00     0.032 A 
ATOM     17  C   UNL A   1      39.429  24.860  26.853  1.00  0.00     0.025 C 
ATOM     18  C   UNL A   1      40.278  25.983  28.679  1.00  0.00     0.314 C 
BRANCH   9  19
ATOM     19  C   UNL A   1      43.899  23.875  26.699  1.00  0.00    -0.015 A 
ATOM     20  C   UNL A   1      47.554  25.186  24.724  1.00  0.00     0.044 C 
ATOM     21  C   UNL A   1      46.282  24.699  25.360  1.00  0.00    -0.051 A 
ATOM     22  C   UNL A   1      45.095  25.445  25.270  1.00  0.00     0.004 A 
ATOM     23  C   UNL A   1      46.258  23.501  26.066  1.00  0.00     0.004 A 
ATOM     24  C   UNL A   1      43.918  25.044  25.937  1.00  0.00     0.009 A 
ATOM     25  C   UNL A   1      45.084  23.093  26.708  1.00  0.00     0.009 A 
ENDBRANCH   9  19
BRANCH  18  26
ATOM     26  C   UNL A   1      39.652  27.099  29.546  1.00  0.00     0.429 C 
ATOM     27  F   UNL A   1      38.701  26.544  30.360  1.00  0.00    -0.167 F 
ATOM     28  F   UNL A   1      40.495  27.750  30.360  1.00  0.00    -0.167 F 
ATOM     29  F   UNL A   1      38.958  28.008  28.819  1.00  0.00    -0.167 F 
ENDBRANCH  18  26
ENDBRANCH   5   8
ENDBRANCH   3   4
ENDBRANCH   2   3
ENDBRANCH   1   2
BRANCH   1  30
ATOM     30  N   UNL A   1      45.307  28.650  28.979  1.00  0.00    -0.352 N 
ATOM     31  C   UNL A   1      46.009  27.852  29.860  1.00  0.00     0.251 C 
ATOM     32  H   UNL A   1      45.607  29.587  28.981  1.00  0.00     0.163 HD
ATOM     33  O   UNL A   1      46.448  28.429  30.816  1.00  0.00    -0.269 OA
BRANCH  31  34
ATOM     34  C   UNL A   1      46.525  26.448  29.443  1.00  0.00     0.039 A 
ATOM     35  C   UNL A   1      45.371  25.693  29.180  1.00  0.00     0.014 A 
ATOM     36  C   UNL A   1      47.333  25.892  30.421  1.00  0.00     0.014 A 
ATOM     37  C   UNL A   1      44.649  25.263  30.288  1.00  0.00     0.010 A 
ATOM     38  C   UNL A   1      46.675  25.546  31.579  1.00  0.00     0.010 A 
ATOM     39  C   UNL A   1      45.283  25.390  31.516  1.00  0.00    -0.014 A 
BRANCH  39  40
ATOM     40  C   UNL A   1      44.594  25.496  32.784  1.00  0.00     0.031 A 
ATOM     41  C   UNL A   1      44.067  26.824  33.126  1.00  0.00     0.074 A 
ATOM     42  C   UNL A   1      44.328  24.355  33.466  1.00  0.00     0.049 A 
ATOM     43  N   UNL A   1      43.607  27.174  34.268  1.00  0.00    -0.248 NA
ATOM     44  C   UNL A   1      44.058  27.910  32.146  1.00  0.00     0.031 C 
ATOM     45  C   UNL A   1      43.403  24.161  34.580  1.00  0.00     0.029 A 
ATOM     46  N   UNL A   1      45.024  23.138  33.408  1.00  0.00    -0.354 N 
ATOM     47  C   UNL A   1      42.994  28.401  34.110  1.00  0.00     0.074 A 
ATOM     48  C   UNL A   1      43.342  28.835  32.783  1.00  0.00     0.031 C 
ATOM     49  C   UNL A   1      43.805  23.088  35.286  1.00  0.00     0.029 A 
ATOM     50  C   UNL A   1      45.086  22.669  34.726  1.00  0.00     0.049 A 
ATOM     51  H   UNL A   1      45.394  22.705  32.606  1.00  0.00     0.167 HD
ATOM     52  C   UNL A   1      42.145  28.825  35.086  1.00  0.00     0.037 A 
ATOM     53  C   UNL A   1      46.257  22.631  35.429  1.00  0.00     0.037 A 
ATOM     54  C   UNL A   1      42.253  27.933  36.242  1.00  0.00     0.049 A 
ATOM     55  C   UNL A   1      46.194  23.589  36.616  1.00  0.00     0.074 A 
ATOM     56  C   UNL A   1      41.544  26.799  36.608  1.00  0.00     0.029 A 
ATOM     57  N   UNL A   1      43.465  27.875  36.931  1.00  0.00    -0.354 N 
ATOM     58  N   UNL A   1      45.456  24.672  36.660  1.00  0.00    -0.248 NA
ATOM     59  C   UNL A   1      46.890  23.340  37.876  1.00  0.00     0.031 C 
ATOM     60  C   UNL A   1      42.402  25.992  37.405  1.00  0.00     0.029 A 
ATOM     61  C   UNL A   1      43.613  26.648  37.555  1.00  0.00     0.049 A 
ATOM     62  H   UNL A   1      44.123  28.607  36.968  1.00  0.00     0.167 HD
ATOM     63  C   UNL A   1      45.529  25.229  37.914  1.00  0.00     0.074 A 
ATOM     64  C   UNL A   1      46.450  24.362  38.632  1.00  0.00     0.031 C 
ATOM     65  C   UNL A   1      44.819  26.332  38.311  1.00  0.00     0.037 A 
BRANCH  52  66
ATOM     66  C   UNL A   1      41.025  29.816  34.836  1.00  0.00     0.058 A 
ATOM     67  C   UNL A   1      40.948  31.005  35.594  1.00  0.00     0.135 A 
ATOM     68  C   UNL A   1      39.957  29.630  33.933  1.00  0.00     0.135 A 
ATOM     69  F   UNL A   1      41.917  31.348  36.453  1.00  0.00    -0.206 F 
ATOM     70  C   UNL A   1      39.869  31.889  35.521  1.00  0.00     0.059 A 
ATOM     71  C   UNL A   1      38.838  30.470  33.880  1.00  0.00     0.059 A 
ATOM     72  F   UNL A   1      39.975  28.651  33.019  1.00  0.00    -0.206 F 
ATOM     73  C   UNL A   1      38.803  31.603  34.679  1.00  0.00     0.060 A 
BRANCH  73  74
ATOM     74  S   UNL A   1      37.410  32.745  34.617  1.00  0.00     0.124 S 
ATOM     75  O   UNL A   1      36.513  32.088  33.671  1.00  0.00    -0.237 OA
ATOM     76  O   UNL A   1      36.968  32.756  36.008  1.00  0.00    -0.237 OA
ATOM     77  O   UNL A   1      38.008  33.989  34.141  1.00  0.00    -0.744 OA
ENDBRANCH  73  74
ENDBRANCH  52  66
BRANCH  53  78
ATOM     78  C   UNL A   1      47.467  22.283  34.612  1.00  0.00     0.058 A 
ATOM     79  C   UNL A   1      48.402  23.306  34.334  1.00  0.00     0.135 A 
ATOM     80  C   UNL A   1      47.912  20.967  34.428  1.00  0.00     0.135 A 
ATOM     81  F   UNL A   1      48.037  24.592  34.466  1.00  0.00    -0.206 F 
ATOM     82  C   UNL A   1      49.740  23.040  34.024  1.00  0.00     0.059 A 
ATOM     83  C   UNL A   1      49.252  20.675  34.114  1.00  0.00     0.059 A 
ATOM     84  F   UNL A   1      47.089  19.937  34.673  1.00  0.00    -0.206 F 
ATOM     85  C   UNL A   1      50.173  21.717  33.962  1.00  0.00     0.060 A 
BRANCH  85  86
ATOM     86  S   UNL A   1      51.962  21.373  33.895  1.00  0.00     0.124 S 
ATOM     87  O   UNL A   1      52.071  20.208  34.768  1.00  0.00    -0.237 OA
ATOM     88  O   UNL A   1      52.229  21.111  32.484  1.00  0.00    -0.237 OA
ATOM     89  O   UNL A   1      52.567  22.595  34.421  1.00  0.00    -0.744 OA
ENDBRANCH  85  86
ENDBRANCH  53  78
BRANCH  65  90
ATOM     90  C   UNL A   1      45.138  27.164  39.536  1.00  0.00     0.058 A 
ATOM     91  C   UNL A   1      44.784  26.781  40.842  1.00  0.00     0.135 A 
ATOM     92  C   UNL A   1      45.970  28.307  39.444  1.00  0.00     0.135 A 
ATOM     93  F   UNL A   1      44.109  25.647  41.080  1.00  0.00    -0.206 F 
ATOM     94  C   UNL A   1      45.149  27.523  41.964  1.00  0.00     0.059 A 
ATOM     95  C   UNL A   1      46.405  29.022  40.557  1.00  0.00     0.059 A 
ATOM     96  F   UNL A   1      46.411  28.765  38.262  1.00  0.00    -0.206 F 
ATOM     97  C   UNL A   1      45.957  28.644  41.812  1.00  0.00     0.060 A 
BRANCH  97  98
ATOM     98  S   UNL A   1      46.456  29.582  43.264  1.00  0.00     0.124 S 
ATOM     99  O   UNL A   1      45.882  28.776  44.338  1.00  0.00    -0.237 OA
ATOM    100  O   UNL A   1      47.914  29.565  43.174  1.00  0.00    -0.237 OA
ATOM    101  O   UNL A   1      45.838  30.887  43.052  1.00  0.00    -0.744 OA
ENDBRANCH  97  98
ENDBRANCH  65  90
ENDBRANCH  39  40
ENDBRANCH  31  34
ENDBRANCH   1  30
TORSDOF 15
ENDMDL
MODEL 2
REMARK VINA RESULT:     -10.9      4.638     10.292
REMARK SMILES Cc1ccc(-c2cc(Cl)cc3c2O[C@@H](C(F)(F)F)C(C(=O)NCCCNC(=O)c2ccc(-c4c5nc(c(-c6c(F)cc(S(=O)(=O)[O-])cc6F)c6ccc([nH]6)c(-c6c(F)cc(S(=O)(=O)[O-])cc6F)c6nc(c(-c7c(F)cc(S(=O)(=O)[O-])cc7F)c7ccc4[nH]7)C=C6)C=C5)cc2)=C3)cc1
REMARK SMILES IDX 25 1 24 2 23 3 22 4 20 5 21 6 19 8 6 9 7 10 12 11 8 12 11 13
REMARK SMILES IDX 13 14 9 15 10 16 95 17 14 18 5 19 1 20 2 21 3 22 97 23 4 24
REMARK SMILES IDX 96 25 15 26 16 27 17 28 18 29 26 30 27 31 28 33 29 34 30 35
REMARK SMILES IDX 94 36 31 37 93 38 32 39 33 40 34 41 87 42 35 43 92 44 86 45
REMARK SMILES IDX 88 46 36 47 91 48 85 49 84 50 37 52 71 53 50 54 70 55 51 56
REMARK SMILES IDX 54 57 69 58 89 59 52 60 53 61 68 63 90 64 55 65 38 66 39 67
REMARK SMILES IDX 48 68 40 69 41 70 47 71 49 72 42 73 43 74 44 75 45 76 46 77
REMARK SMILES IDX 72 78 73 79 82 80 74 81 75 82 81 83 83 84 76 85 77 86 78 87
REMARK SMILES IDX 79 88 80 89 56 90 57 91 66 92 58 93 59 94 65 95 67 96 60 97
REMARK SMILES IDX 61 98 62 99 63 100 64 101
REMARK H PARENT 22 7 26 32 88 51 54 62
REMARK Flexibility Score: inf
ROOT
ATOM      1  C   UNL A   1      37.980  29.122  28.088  1.00  0.00     0.118 C 
ENDROOT
BRANCH   1   2
ATOM      2  C   UNL A   1      36.663  29.859  27.910  1.00  0.00     0.042 C 
BRANCH   2   3
ATOM      3  C   UNL A   1      36.288  30.861  29.018  1.00  0.00     0.118 C 
BRANCH   3   4
ATOM      4  N   UNL A   1      35.933  32.208  28.580  1.00  0.00    -0.352 N 
ATOM      5  C   UNL A   1      35.492  33.327  29.234  1.00  0.00     0.251 C 
ATOM      6  O   UNL A   1      35.796  34.422  28.752  1.00  0.00    -0.270 OA
ATOM      7  H   UNL A   1      36.031  32.339  27.610  1.00  0.00     0.163 HD
BRANCH   5   8
ATOM      8  C   UNL A   1      34.526  33.284  30.421  1.00  0.00     0.067 C 
ATOM      9  C   UNL A   1      37.851  34.333  32.325  1.00  0.00     0.026 A 
ATOM     10  C   UNL A   1      38.179  33.774  33.584  1.00  0.00     0.033 A 
ATOM     11  C   UNL A   1      36.533  34.126  31.906  1.00  0.00     0.135 A 
ATOM     12  C   UNL A   1      37.340  32.837  34.197  1.00  0.00     0.042 A 
ATOM     13  C   UNL A   1      35.890  32.922  32.296  1.00  0.00     0.019 A 
ATOM     14  O   UNL A   1      35.756  35.127  31.243  1.00  0.00    -0.475 OA
ATOM     15  Cl  UNL A   1      37.781  32.155  35.713  1.00  0.00    -0.084 Cl
ATOM     16  C   UNL A   1      36.236  32.340  33.510  1.00  0.00     0.032 A 
ATOM     17  C   UNL A   1      34.826  32.370  31.381  1.00  0.00     0.025 C 
ATOM     18  C   UNL A   1      34.377  34.617  31.115  1.00  0.00     0.314 C 
BRANCH   9  19
ATOM     19  C   UNL A   1      38.993  34.273  31.356  1.00  0.00    -0.015 A 
ATOM     20  C   UNL A   1      42.573  34.913  28.958  1.00  0.00     0.044 C 
ATOM     21  C   UNL A   1      41.343  34.635  29.776  1.00  0.00    -0.051 A 
ATOM     22  C   UNL A   1      40.060  34.754  29.218  1.00  0.00     0.004 A 
ATOM     23  C   UNL A   1      41.451  34.266  31.114  1.00  0.00     0.004 A 
ATOM     24  C   UNL A   1      38.896  34.582  29.999  1.00  0.00     0.009 A 
ATOM     25  C   UNL A   1      40.298  34.076  31.880  1.00  0.00     0.009 A 
ENDBRANCH   9  19
BRANCH  18  26
ATOM     26  C   UNL A   1      33.081  35.330  30.670  1.00  0.00     0.429 C 
ATOM     27  F   UNL A   1      33.358  36.654  30.454  1.00  0.00    -0.167 F 
ATOM     28  F   UNL A   1      32.528  34.884  29.533  1.00  0.00    -0.167 F 
ATOM     29  F   UNL A   1      32.132  35.356  31.636  1.00  0.00    -0.167 F 
ENDBRANCH  18  26
ENDBRANCH   5   8
ENDBRANCH   3   4
ENDBRANCH   2   3
ENDBRANCH   1   2
BRANCH   1  30
ATOM     30  N   UNL A   1      38.118  28.682  29.442  1.00  0.00    -0.352 N 
ATOM     31  C   UNL A   1      38.908  29.090  30.498  1.00  0.00     0.251 C 
ATOM     32  H   UNL A   1      37.524  27.930  29.670  1.00  0.00     0.163 HD
ATOM     33  O   UNL A   1      39.167  28.227  31.291  1.00  0.00    -0.269 OA
BRANCH  31  34
ATOM     34  C   UNL A   1      39.092  30.594  30.835  1.00  0.00     0.039 A 
ATOM     35  C   UNL A   1      39.882  31.113  29.797  1.00  0.00     0.014 A 
ATOM     36  C   UNL A   1      39.651  30.769  32.090  1.00  0.00     0.014 A 
ATOM     37  C   UNL A   1      41.233  30.788  29.828  1.00  0.00     0.010 A 
ATOM     38  C   UNL A   1      40.961  30.363  32.194  1.00  0.00     0.010 A 
ATOM     39  C   UNL A   1      41.697  30.225  31.009  1.00  0.00    -0.014 A 
BRANCH  39  40
ATOM     40  C   UNL A   1      42.865  29.374  31.104  1.00  0.00     0.031 A 
ATOM     41  C   UNL A   1      42.756  28.052  30.476  1.00  0.00     0.074 A 
ATOM     42  C   UNL A   1      44.009  29.911  31.593  1.00  0.00     0.049 A 
ATOM     43  N   UNL A   1      43.586  27.088  30.614  1.00  0.00    -0.248 NA
ATOM     44  C   UNL A   1      41.615  27.709  29.627  1.00  0.00     0.031 C 
ATOM     45  C   UNL A   1      45.367  29.378  31.509  1.00  0.00     0.029 A 
ATOM     46  N   UNL A   1      44.143  30.994  32.475  1.00  0.00    -0.354 N 
ATOM     47  C   UNL A   1      43.262  26.123  29.681  1.00  0.00     0.074 A 
ATOM     48  C   UNL A   1      42.001  26.538  29.124  1.00  0.00     0.031 C 
ATOM     49  C   UNL A   1      46.091  29.892  32.520  1.00  0.00     0.029 A 
ATOM     50  C   UNL A   1      45.167  30.642  33.363  1.00  0.00     0.049 A 
ATOM     51  H   UNL A   1      43.622  31.829  32.471  1.00  0.00     0.167 HD
ATOM     52  C   UNL A   1      44.186  25.164  29.400  1.00  0.00     0.037 A 
ATOM     53  C   UNL A   1      44.922  30.361  34.678  1.00  0.00     0.037 A 
ATOM     54  C   UNL A   1      45.284  25.255  30.364  1.00  0.00     0.049 A 
ATOM     55  C   UNL A   1      45.246  28.899  34.976  1.00  0.00     0.074 A 
ATOM     56  C   UNL A   1      46.494  25.932  30.332  1.00  0.00     0.029 A 
ATOM     57  N   UNL A   1      45.016  25.000  31.710  1.00  0.00    -0.354 N 
ATOM     58  N   UNL A   1      45.195  27.930  34.093  1.00  0.00    -0.248 NA
ATOM     59  C   UNL A   1      45.744  28.442  36.271  1.00  0.00     0.031 C 
ATOM     60  C   UNL A   1      46.872  26.208  31.675  1.00  0.00     0.029 A 
ATOM     61  C   UNL A   1      45.917  25.669  32.522  1.00  0.00     0.049 A 
ATOM     62  H   UNL A   1      44.288  24.423  32.036  1.00  0.00     0.167 HD
ATOM     63  C   UNL A   1      45.674  26.770  34.653  1.00  0.00     0.074 A 
ATOM     64  C   UNL A   1      45.992  27.145  36.022  1.00  0.00     0.031 C 
ATOM     65  C   UNL A   1      45.819  25.589  33.975  1.00  0.00     0.037 A 
BRANCH  52  66
ATOM     66  C   UNL A   1      44.224  24.410  28.085  1.00  0.00     0.058 A 
ATOM     67  C   UNL A   1      43.717  23.094  28.008  1.00  0.00     0.135 A 
ATOM     68  C   UNL A   1      44.810  24.880  26.891  1.00  0.00     0.135 A 
ATOM     69  F   UNL A   1      43.082  22.530  29.043  1.00  0.00    -0.206 F 
ATOM     70  C   UNL A   1      43.851  22.290  26.874  1.00  0.00     0.059 A 
ATOM     71  C   UNL A   1      45.007  24.077  25.761  1.00  0.00     0.059 A 
ATOM     72  F   UNL A   1      45.172  26.161  26.746  1.00  0.00    -0.206 F 
ATOM     73  C   UNL A   1      44.519  22.779  25.761  1.00  0.00     0.060 A 
BRANCH  73  74
ATOM     74  S   UNL A   1      44.701  21.715  24.316  1.00  0.00     0.124 S 
ATOM     75  O   UNL A   1      46.122  21.382  24.355  1.00  0.00    -0.237 OA
ATOM     76  O   UNL A   1      43.785  20.624  24.629  1.00  0.00    -0.237 OA
ATOM     77  O   UNL A   1      44.297  22.573  23.206  1.00  0.00    -0.744 OA
ENDBRANCH  73  74
ENDBRANCH  52  66
BRANCH  53  78
ATOM     78  C   UNL A   1      43.842  31.193  35.307  1.00  0.00     0.058 A 
ATOM     79  C   UNL A   1      42.629  30.559  35.657  1.00  0.00     0.135 A 
ATOM     80  C   UNL A   1      44.087  32.439  35.899  1.00  0.00     0.135 A 
ATOM     81  F   UNL A   1      42.318  29.372  35.109  1.00  0.00    -0.206 F 
ATOM     82  C   UNL A   1      41.770  31.064  36.639  1.00  0.00     0.059 A 
ATOM     83  C   UNL A   1      43.238  32.969  36.887  1.00  0.00     0.059 A 
ATOM     84  F   UNL A   1      45.217  33.106  35.623  1.00  0.00    -0.206 F 
ATOM     85  C   UNL A   1      42.105  32.251  37.287  1.00  0.00     0.060 A 
BRANCH  85  86
ATOM     86  S   UNL A   1      41.181  32.733  38.784  1.00  0.00     0.124 S 
ATOM     87  O   UNL A   1      39.822  32.327  38.436  1.00  0.00    -0.237 OA
ATOM     88  O   UNL A   1      41.798  31.958  39.857  1.00  0.00    -0.237 OA
ATOM     89  O   UNL A   1      41.389  34.177  38.866  1.00  0.00    -0.744 OA
ENDBRANCH  85  86
ENDBRANCH  53  78
BRANCH  65  90
ATOM     90  C   UNL A   1      45.999  24.236  34.632  1.00  0.00     0.058 A 
ATOM     91  C   UNL A   1      47.231  23.777  35.130  1.00  0.00     0.135 A 
ATOM     92  C   UNL A   1      44.880  23.420  34.937  1.00  0.00     0.135 A 
ATOM     93  F   UNL A   1      48.346  24.514  35.024  1.00  0.00    -0.206 F 
ATOM     94  C   UNL A   1      47.362  22.561  35.797  1.00  0.00     0.059 A 
ATOM     95  C   UNL A   1      44.979  22.237  35.664  1.00  0.00     0.059 A 
ATOM     96  F   UNL A   1      43.638  23.754  34.554  1.00  0.00    -0.206 F 
ATOM     97  C   UNL A   1      46.231  21.795  36.057  1.00  0.00     0.060 A 
BRANCH  97  98
ATOM     98  S   UNL A   1      46.397  20.241  36.949  1.00  0.00     0.124 S 
ATOM     99  O   UNL A   1      47.809  19.936  36.734  1.00  0.00    -0.237 OA
ATOM    100  O   UNL A   1      46.033  20.612  38.315  1.00  0.00    -0.237 OA
ATOM    101  O   UNL A   1      45.449  19.362  36.274  1.00  0.00    -0.744 OA
ENDBRANCH  97  98
ENDBRANCH  65  90
ENDBRANCH  39  40
ENDBRANCH  31  34
ENDBRANCH   1  30
TORSDOF 15
ENDMDL
MODEL 3
REMARK VINA RESULT:     -10.6      7.461     14.015
REMARK SMILES Cc1ccc(-c2cc(Cl)cc3c2O[C@@H](C(F)(F)F)C(C(=O)NCCCNC(=O)c2ccc(-c4c5nc(c(-c6c(F)cc(S(=O)(=O)[O-])cc6F)c6ccc([nH]6)c(-c6c(F)cc(S(=O)(=O)[O-])cc6F)c6nc(c(-c7c(F)cc(S(=O)(=O)[O-])cc7F)c7ccc4[nH]7)C=C6)C=C5)cc2)=C3)cc1
REMARK SMILES IDX 25 1 24 2 23 3 22 4 20 5 21 6 19 8 6 9 7 10 12 11 8 12 11 13
REMARK SMILES IDX 13 14 9 15 10 16 95 17 14 18 5 19 1 20 2 21 3 22 97 23 4 24
REMARK SMILES IDX 96 25 15 26 16 27 17 28 18 29 26 30 27 31 28 33 29 34 30 35
REMARK SMILES IDX 94 36 31 37 93 38 32 39 33 40 34 41 87 42 35 43 92 44 86 45
REMARK SMILES IDX 88 46 36 47 91 48 85 49 84 50 37 52 71 53 50 54 70 55 51 56
REMARK SMILES IDX 54 57 69 58 89 59 52 60 53 61 68 63 90 64 55 65 38 66 39 67
REMARK SMILES IDX 48 68 40 69 41 70 47 71 49 72 42 73 43 74 44 75 45 76 46 77
REMARK SMILES IDX 72 78 73 79 82 80 74 81 75 82 81 83 83 84 76 85 77 86 78 87
REMARK SMILES IDX 79 88 80 89 56 90 57 91 66 92 58 93 59 94 65 95 67 96 60 97
REMARK SMILES IDX 61 98 62 99 63 100 64 101
REMARK H PARENT 22 7 26 32 88 51 54 62
REMARK Flexibility Score: inf
ROOT
ATOM      1  C   UNL A   1      40.542  30.655  32.391  1.00  0.00     0.118 C 
ENDROOT
BRANCH   1   2
ATOM      2  C   UNL A   1      40.988  29.463  31.561  1.00  0.00     0.042 C 
BRANCH   2   3
ATOM      3  C   UNL A   1      39.869  28.575  30.987  1.00  0.00     0.118 C 
BRANCH   3   4
ATOM      4  N   UNL A   1      38.501  29.035  31.205  1.00  0.00    -0.352 N 
ATOM      5  C   UNL A   1      37.368  29.026  30.437  1.00  0.00     0.251 C 
ATOM      6  O   UNL A   1      36.284  28.954  31.024  1.00  0.00    -0.270 OA
ATOM      7  H   UNL A   1      38.363  29.436  32.094  1.00  0.00     0.163 HD
BRANCH   5   8
ATOM      8  C   UNL A   1      37.375  29.258  28.923  1.00  0.00     0.067 C 
ATOM      9  C   UNL A   1      36.982  33.014  30.156  1.00  0.00     0.026 A 
ATOM     10  C   UNL A   1      36.108  33.912  29.495  1.00  0.00     0.033 A 
ATOM     11  C   UNL A   1      37.265  31.835  29.458  1.00  0.00     0.135 A 
ATOM     12  C   UNL A   1      35.360  33.504  28.387  1.00  0.00     0.042 A 
ATOM     13  C   UNL A   1      36.254  31.296  28.620  1.00  0.00     0.019 A 
ATOM     14  O   UNL A   1      38.564  31.238  29.425  1.00  0.00    -0.475 OA
ATOM     15  Cl  UNL A   1      34.286  34.609  27.623  1.00  0.00    -0.084 Cl
ATOM     16  C   UNL A   1      35.363  32.166  28.001  1.00  0.00     0.032 A 
ATOM     17  C   UNL A   1      36.239  29.803  28.414  1.00  0.00     0.025 C 
ATOM     18  C   UNL A   1      38.523  30.122  28.460  1.00  0.00     0.314 C 
BRANCH   9  19
ATOM     19  C   UNL A   1      36.782  33.008  31.641  1.00  0.00    -0.015 A 
ATOM     20  C   UNL A   1      37.034  33.455  35.968  1.00  0.00     0.044 C 
ATOM     21  C   UNL A   1      36.889  33.299  34.479  1.00  0.00    -0.051 A 
ATOM     22  C   UNL A   1      37.027  32.043  33.866  1.00  0.00     0.004 A 
ATOM     23  C   UNL A   1      36.628  34.403  33.674  1.00  0.00     0.004 A 
ATOM     24  C   UNL A   1      36.981  31.898  32.462  1.00  0.00     0.009 A 
ATOM     25  C   UNL A   1      36.562  34.254  32.286  1.00  0.00     0.009 A 
ENDBRANCH   9  19
BRANCH  18  26
ATOM     26  C   UNL A   1      39.664  29.260  27.875  1.00  0.00     0.429 C 
ATOM     27  F   UNL A   1      39.631  29.351  26.510  1.00  0.00    -0.167 F 
ATOM     28  F   UNL A   1      40.906  29.612  28.234  1.00  0.00    -0.167 F 
ATOM     29  F   UNL A   1      39.501  27.935  28.110  1.00  0.00    -0.167 F 
ENDBRANCH  18  26
ENDBRANCH   5   8
ENDBRANCH   3   4
ENDBRANCH   2   3
ENDBRANCH   1   2
BRANCH   1  30
ATOM     30  N   UNL A   1      41.683  31.336  32.925  1.00  0.00    -0.352 N 
ATOM     31  C   UNL A   1      42.138  32.636  32.841  1.00  0.00     0.251 C 
ATOM     32  H   UNL A   1      42.265  30.755  33.466  1.00  0.00     0.163 HD
ATOM     33  O   UNL A   1      43.328  32.756  32.937  1.00  0.00    -0.269 OA
BRANCH  31  34
ATOM     34  C   UNL A   1      41.177  33.842  33.021  1.00  0.00     0.039 A 
ATOM     35  C   UNL A   1      40.175  33.665  32.054  1.00  0.00     0.014 A 
ATOM     36  C   UNL A   1      41.846  35.049  32.903  1.00  0.00     0.014 A 
ATOM     37  C   UNL A   1      40.528  33.951  30.740  1.00  0.00     0.010 A 
ATOM     38  C   UNL A   1      42.306  35.325  31.636  1.00  0.00     0.010 A 
ATOM     39  C   UNL A   1      41.726  34.630  30.566  1.00  0.00    -0.014 A 
BRANCH  39  40
ATOM     40  C   UNL A   1      42.520  34.588  29.356  1.00  0.00     0.031 A 
ATOM     41  C   UNL A   1      43.429  33.443  29.218  1.00  0.00     0.074 A 
ATOM     42  C   UNL A   1      42.245  35.484  28.378  1.00  0.00     0.049 A 
ATOM     43  N   UNL A   1      44.347  33.319  28.335  1.00  0.00    -0.248 NA
ATOM     44  C   UNL A   1      43.370  32.314  30.147  1.00  0.00     0.031 C 
ATOM     45  C   UNL A   1      42.673  35.460  26.980  1.00  0.00     0.029 A 
ATOM     46  N   UNL A   1      41.662  36.753  28.513  1.00  0.00    -0.354 N 
ATOM     47  C   UNL A   1      44.801  32.017  28.388  1.00  0.00     0.074 A 
ATOM     48  C   UNL A   1      44.195  31.446  29.562  1.00  0.00     0.031 C 
ATOM     49  C   UNL A   1      42.653  36.719  26.506  1.00  0.00     0.029 A 
ATOM     50  C   UNL A   1      42.362  37.593  27.637  1.00  0.00     0.049 A 
ATOM     51  H   UNL A   1      40.917  37.003  29.105  1.00  0.00     0.167 HD
ATOM     52  C   UNL A   1      45.529  31.546  27.338  1.00  0.00     0.037 A 
ATOM     53  C   UNL A   1      43.198  38.575  28.086  1.00  0.00     0.037 A 
ATOM     54  C   UNL A   1      45.864  32.658  26.446  1.00  0.00     0.049 A 
ATOM     55  C   UNL A   1      44.638  38.273  27.678  1.00  0.00     0.074 A 
ATOM     56  C   UNL A   1      45.231  33.171  25.324  1.00  0.00     0.029 A 
ATOM     57  N   UNL A   1      46.691  33.675  26.926  1.00  0.00    -0.354 N 
ATOM     58  N   UNL A   1      45.116  37.070  27.473  1.00  0.00    -0.248 NA
ATOM     59  C   UNL A   1      45.616  39.316  27.380  1.00  0.00     0.031 C 
ATOM     60  C   UNL A   1      45.575  34.547  25.224  1.00  0.00     0.029 A 
ATOM     61  C   UNL A   1      46.442  34.862  26.258  1.00  0.00     0.049 A 
ATOM     62  H   UNL A   1      47.358  33.562  27.641  1.00  0.00     0.167 HD
ATOM     63  C   UNL A   1      46.400  37.159  26.990  1.00  0.00     0.074 A 
ATOM     64  C   UNL A   1      46.667  38.589  26.964  1.00  0.00     0.031 C 
ATOM     65  C   UNL A   1      47.157  36.084  26.608  1.00  0.00     0.037 A 
BRANCH  52  66
ATOM     66  C   UNL A   1      45.623  30.074  26.989  1.00  0.00     0.058 A 
ATOM     67  C   UNL A   1      46.877  29.426  26.981  1.00  0.00     0.135 A 
ATOM     68  C   UNL A   1      44.544  29.262  26.576  1.00  0.00     0.135 A 
ATOM     69  F   UNL A   1      47.986  30.049  27.400  1.00  0.00    -0.206 F 
ATOM     70  C   UNL A   1      47.057  28.116  26.530  1.00  0.00     0.059 A 
ATOM     71  C   UNL A   1      44.705  27.968  26.067  1.00  0.00     0.059 A 
ATOM     72  F   UNL A   1      43.275  29.670  26.700  1.00  0.00    -0.206 F 
ATOM     73  C   UNL A   1      45.970  27.400  26.050  1.00  0.00     0.060 A 
BRANCH  73  74
ATOM     74  S   UNL A   1      46.229  25.719  25.450  1.00  0.00     0.124 S 
ATOM     75  O   UNL A   1      44.863  25.256  25.229  1.00  0.00    -0.237 OA
ATOM     76  O   UNL A   1      47.024  25.948  24.248  1.00  0.00    -0.237 OA
ATOM     77  O   UNL A   1      46.933  25.068  26.551  1.00  0.00    -0.744 OA
ENDBRANCH  73  74
ENDBRANCH  52  66
BRANCH  53  78
ATOM     78  C   UNL A   1      42.740  39.265  29.339  1.00  0.00     0.058 A 
ATOM     79  C   UNL A   1      43.501  39.086  30.516  1.00  0.00     0.135 A 
ATOM     80  C   UNL A   1      41.848  40.346  29.333  1.00  0.00     0.135 A 
ATOM     81  F   UNL A   1      44.360  38.056  30.601  1.00  0.00    -0.206 F 
ATOM     82  C   UNL A   1      43.480  40.002  31.573  1.00  0.00     0.059 A 
ATOM     83  C   UNL A   1      41.807  41.278  30.384  1.00  0.00     0.059 A 
ATOM     84  F   UNL A   1      41.091  40.588  28.253  1.00  0.00    -0.206 F 
ATOM     85  C   UNL A   1      42.663  41.126  31.481  1.00  0.00     0.060 A 
BRANCH  85  86
ATOM     86  S   UNL A   1      42.880  42.479  32.684  1.00  0.00     0.124 S 
ATOM     87  O   UNL A   1      42.474  43.641  31.898  1.00  0.00    -0.237 OA
ATOM     88  O   UNL A   1      41.982  42.136  33.783  1.00  0.00    -0.237 OA
ATOM     89  O   UNL A   1      44.304  42.425  33.010  1.00  0.00    -0.744 OA
ENDBRANCH  85  86
ENDBRANCH  53  78
BRANCH  65  90
ATOM     90  C   UNL A   1      48.660  36.114  26.418  1.00  0.00     0.058 A 
ATOM     91  C   UNL A   1      49.288  36.762  25.339  1.00  0.00     0.135 A 
ATOM     92  C   UNL A   1      49.532  35.630  27.424  1.00  0.00     0.135 A 
ATOM     93  F   UNL A   1      48.577  37.378  24.384  1.00  0.00    -0.206 F 
ATOM     94  C   UNL A   1      50.674  36.843  25.219  1.00  0.00     0.059 A 
ATOM     95  C   UNL A   1      50.917  35.762  27.359  1.00  0.00     0.059 A 
ATOM     96  F   UNL A   1      49.068  35.021  28.526  1.00  0.00    -0.206 F 
ATOM     97  C   UNL A   1      51.481  36.337  26.232  1.00  0.00     0.060 A 
BRANCH  97  98
ATOM     98  S   UNL A   1      53.270  36.473  26.092  1.00  0.00     0.124 S 
ATOM     99  O   UNL A   1      53.627  35.125  25.659  1.00  0.00    -0.237 OA
ATOM    100  O   UNL A   1      53.437  37.522  25.090  1.00  0.00    -0.237 OA
ATOM    101  O   UNL A   1      53.687  36.835  27.442  1.00  0.00    -0.744 OA
ENDBRANCH  97  98
ENDBRANCH  65  90
ENDBRANCH  39  40
ENDBRANCH  31  34
ENDBRANCH   1  30
TORSDOF 15
ENDMDL
