MODEL 1
REMARK VINA RESULT:     -11.4      0.000      0.000
REMARK SMILES CC[C@H](C)[C@@H](NC(=O)c1csc(NC(C)=O)n1)C(=O)NCCCNC(=O)c1ccc(-c2c3nc(c(-c4c(F)cc(S(=O)(=O)[O-])cc4F)c4ccc([nH]4)c(-c4c(F)cc(S(=O)(=O)[O-])cc4F)c4nc(c(-c5c(F)cc(S(=O)(=O)[O-])cc5F)c5ccc2[nH]5)C=C4)C=C3)cc1
REMARK SMILES IDX 22 1 21 2 20 3 18 4 19 5 5 7 3 8 4 9 2 10 1 11 6 12 7 13
REMARK SMILES IDX 8 15 9 16 10 17 17 18 11 19 12 20 13 21 14 22 15 24 16 25
REMARK SMILES IDX 23 26 24 27 25 28 26 30 27 31 28 32 92 33 29 34 91 35 30 36
REMARK SMILES IDX 31 37 32 38 85 39 33 40 90 41 84 42 86 43 34 44 89 45 83 46
REMARK SMILES IDX 82 47 35 49 69 50 48 51 68 52 49 53 52 54 67 55 87 56 50 57
REMARK SMILES IDX 51 58 66 60 88 61 53 62 36 63 37 64 46 65 38 66 39 67 45 68
REMARK SMILES IDX 47 69 40 70 41 71 42 72 43 73 44 74 70 75 71 76 80 77 72 78
REMARK SMILES IDX 73 79 79 80 81 81 74 82 75 83 76 84 77 85 78 86 54 87 55 88
REMARK SMILES IDX 64 89 56 90 57 91 63 92 65 93 58 94 59 95 60 96 61 97 62 98
REMARK H PARENT 20 6 6 14 13 23 24 29 86 48 52 59
REMARK Flexibility Score: inf
ROOT
ATOM      1  C   UNL A   1      32.405  27.963  27.252  1.00  0.00     0.042 C 
ENDROOT
BRANCH   1   2
ATOM      2  C   UNL A   1      31.778  27.802  25.880  1.00  0.00     0.117 C 
BRANCH   2   3
ATOM      3  N   UNL A   1      32.494  28.573  24.880  1.00  0.00    -0.354 N 
ATOM      4  C   UNL A   1      32.516  28.439  23.523  1.00  0.00     0.242 C 
ATOM      5  O   UNL A   1      33.283  29.170  22.887  1.00  0.00    -0.273 OA
ATOM      6  H   UNL A   1      33.049  29.304  25.235  1.00  0.00     0.163 HD
BRANCH   4   7
ATOM      7  C   UNL A   1      31.722  27.310  22.824  1.00  0.00     0.174 C 
BRANCH   7   8
ATOM      8  C   UNL A   1      30.280  27.884  22.540  1.00  0.00     0.018 C 
ATOM      9  C   UNL A   1      29.199  27.390  23.508  1.00  0.00     0.010 C 
BRANCH   8  10
ATOM     10  C   UNL A   1      30.244  29.428  22.422  1.00  0.00     0.002 C 
ATOM     11  C   UNL A   1      29.213  30.120  23.299  1.00  0.00     0.004 C 
ENDBRANCH   8  10
ENDBRANCH   7   8
BRANCH   7  12
ATOM     12  N   UNL A   1      32.339  26.782  21.583  1.00  0.00    -0.339 N 
ATOM     13  C   UNL A   1      32.791  25.533  21.217  1.00  0.00     0.271 C 
ATOM     14  H   UNL A   1      32.448  27.461  20.879  1.00  0.00     0.164 HD
ATOM     15  O   UNL A   1      33.067  25.360  20.030  1.00  0.00    -0.267 OA
BRANCH  13  16
ATOM     16  C   UNL A   1      33.091  24.518  22.224  1.00  0.00     0.141 A 
ATOM     17  C   UNL A   1      32.103  23.736  22.802  1.00  0.00     0.102 A 
ATOM     18  N   UNL A   1      34.374  24.218  22.659  1.00  0.00    -0.215 NA
ATOM     19  S   UNL A   1      32.812  22.516  23.768  1.00  0.00    -0.104 S 
ATOM     20  C   UNL A   1      34.353  23.125  23.389  1.00  0.00     0.190 A 
BRANCH  20  21
ATOM     21  N   UNL A   1      35.520  22.524  23.783  1.00  0.00    -0.302 N 
ATOM     22  C   UNL A   1      36.369  22.936  24.782  1.00  0.00     0.223 C 
ATOM     23  H   UNL A   1      35.779  21.708  23.296  1.00  0.00     0.172 HD
ATOM     24  C   UNL A   1      37.584  22.052  24.922  1.00  0.00     0.114 C 
ATOM     25  O   UNL A   1      36.230  23.904  25.522  1.00  0.00    -0.275 OA
ENDBRANCH  20  21
ENDBRANCH  13  16
ENDBRANCH   7  12
ENDBRANCH   4   7
ENDBRANCH   2   3
ENDBRANCH   1   2
BRANCH   1  26
ATOM     26  C   UNL A   1      33.736  28.694  27.209  1.00  0.00     0.118 C 
BRANCH  26  27
ATOM     27  N   UNL A   1      33.648  30.052  27.734  1.00  0.00    -0.352 N 
ATOM     28  C   UNL A   1      34.607  30.745  28.434  1.00  0.00     0.251 C 
ATOM     29  H   UNL A   1      32.803  30.528  27.568  1.00  0.00     0.163 HD
ATOM     30  O   UNL A   1      34.347  31.818  28.968  1.00  0.00    -0.269 OA
BRANCH  28  31
ATOM     31  C   UNL A   1      35.947  30.144  28.550  1.00  0.00     0.039 A 
ATOM     32  C   UNL A   1      36.800  30.149  27.446  1.00  0.00     0.014 A 
ATOM     33  C   UNL A   1      36.382  29.679  29.793  1.00  0.00     0.014 A 
ATOM     34  C   UNL A   1      38.127  29.745  27.607  1.00  0.00     0.010 A 
ATOM     35  C   UNL A   1      37.719  29.362  29.969  1.00  0.00     0.010 A 
ATOM     36  C   UNL A   1      38.603  29.386  28.878  1.00  0.00    -0.014 A 
BRANCH  36  37
ATOM     37  C   UNL A   1      40.010  28.985  29.110  1.00  0.00     0.031 A 
ATOM     38  C   UNL A   1      40.988  30.018  29.594  1.00  0.00     0.074 A 
ATOM     39  C   UNL A   1      40.430  27.750  28.774  1.00  0.00     0.049 A 
ATOM     40  N   UNL A   1      42.291  29.959  29.662  1.00  0.00    -0.248 NA
ATOM     41  C   UNL A   1      40.420  31.313  30.009  1.00  0.00     0.031 C 
ATOM     42  C   UNL A   1      39.583  26.678  28.248  1.00  0.00     0.029 A 
ATOM     43  N   UNL A   1      41.686  27.199  28.798  1.00  0.00    -0.354 N 
ATOM     44  C   UNL A   1      42.701  31.221  30.077  1.00  0.00     0.074 A 
ATOM     45  C   UNL A   1      41.512  32.034  30.204  1.00  0.00     0.031 C 
ATOM     46  C   UNL A   1      40.342  25.596  28.007  1.00  0.00     0.029 A 
ATOM     47  C   UNL A   1      41.732  25.911  28.322  1.00  0.00     0.049 A 
ATOM     48  H   UNL A   1      42.479  27.682  29.126  1.00  0.00     0.167 HD
ATOM     49  C   UNL A   1      43.954  31.656  30.342  1.00  0.00     0.037 A 
ATOM     50  C   UNL A   1      42.781  25.084  28.146  1.00  0.00     0.037 A 
ATOM     51  C   UNL A   1      45.122  30.821  30.265  1.00  0.00     0.049 A 
ATOM     52  C   UNL A   1      44.159  25.562  28.512  1.00  0.00     0.074 A 
ATOM     53  C   UNL A   1      46.431  31.140  30.573  1.00  0.00     0.029 A 
ATOM     54  N   UNL A   1      45.113  29.493  29.864  1.00  0.00    -0.354 N 
ATOM     55  N   UNL A   1      44.530  26.748  28.937  1.00  0.00    -0.248 NA
ATOM     56  C   UNL A   1      45.258  24.597  28.382  1.00  0.00     0.031 C 
ATOM     57  C   UNL A   1      47.220  30.006  30.342  1.00  0.00     0.029 A 
ATOM     58  C   UNL A   1      46.395  28.974  29.919  1.00  0.00     0.049 A 
ATOM     59  H   UNL A   1      44.314  28.993  29.581  1.00  0.00     0.167 HD
ATOM     60  C   UNL A   1      45.900  26.663  29.152  1.00  0.00     0.074 A 
ATOM     61  C   UNL A   1      46.294  25.310  28.809  1.00  0.00     0.031 C 
ATOM     62  C   UNL A   1      46.755  27.617  29.596  1.00  0.00     0.037 A 
BRANCH  49  63
ATOM     63  C   UNL A   1      44.108  33.098  30.735  1.00  0.00     0.058 A 
ATOM     64  C   UNL A   1      44.299  34.108  29.778  1.00  0.00     0.135 A 
ATOM     65  C   UNL A   1      44.096  33.472  32.088  1.00  0.00     0.135 A 
ATOM     66  F   UNL A   1      44.336  33.801  28.471  1.00  0.00    -0.206 F 
ATOM     67  C   UNL A   1      44.527  35.428  30.148  1.00  0.00     0.059 A 
ATOM     68  C   UNL A   1      44.292  34.793  32.481  1.00  0.00     0.059 A 
ATOM     69  F   UNL A   1      43.916  32.548  33.045  1.00  0.00    -0.206 F 
ATOM     70  C   UNL A   1      44.533  35.759  31.505  1.00  0.00     0.060 A 
BRANCH  70  71
ATOM     71  S   UNL A   1      44.869  37.467  31.979  1.00  0.00     0.124 S 
ATOM     72  O   UNL A   1      46.117  37.321  32.722  1.00  0.00    -0.237 OA
ATOM     73  O   UNL A   1      44.976  38.140  30.688  1.00  0.00    -0.237 OA
ATOM     74  O   UNL A   1      43.702  37.832  32.776  1.00  0.00    -0.744 OA
ENDBRANCH  70  71
ENDBRANCH  49  63
BRANCH  50  75
ATOM     75  C   UNL A   1      42.551  23.710  27.630  1.00  0.00     0.058 A 
ATOM     76  C   UNL A   1      42.549  23.454  26.252  1.00  0.00     0.135 A 
ATOM     77  C   UNL A   1      42.391  22.620  28.500  1.00  0.00     0.135 A 
ATOM     78  F   UNL A   1      42.694  24.465  25.382  1.00  0.00    -0.206 F 
ATOM     79  C   UNL A   1      42.400  22.165  25.750  1.00  0.00     0.059 A 
ATOM     80  C   UNL A   1      42.258  21.319  28.023  1.00  0.00     0.059 A 
ATOM     81  F   UNL A   1      42.405  22.812  29.828  1.00  0.00    -0.206 F 
ATOM     82  C   UNL A   1      42.262  21.102  26.645  1.00  0.00     0.060 A 
BRANCH  82  83
ATOM     83  S   UNL A   1      42.159  19.423  25.987  1.00  0.00     0.124 S 
ATOM     84  O   UNL A   1      40.735  19.311  25.689  1.00  0.00    -0.237 OA
ATOM     85  O   UNL A   1      43.050  19.489  24.832  1.00  0.00    -0.237 OA
ATOM     86  O   UNL A   1      42.641  18.601  27.093  1.00  0.00    -0.744 OA
ENDBRANCH  82  83
ENDBRANCH  50  75
BRANCH  62  87
ATOM     87  C   UNL A   1      48.193  27.229  29.785  1.00  0.00     0.058 A 
ATOM     88  C   UNL A   1      49.141  27.402  28.767  1.00  0.00     0.135 A 
ATOM     89  C   UNL A   1      48.640  26.772  31.035  1.00  0.00     0.135 A 
ATOM     90  F   UNL A   1      48.759  27.831  27.554  1.00  0.00    -0.206 F 
ATOM     91  C   UNL A   1      50.488  27.132  28.980  1.00  0.00     0.059 A 
ATOM     92  C   UNL A   1      49.984  26.514  31.277  1.00  0.00     0.059 A 
ATOM     93  F   UNL A   1      47.769  26.599  32.042  1.00  0.00    -0.206 F 
ATOM     94  C   UNL A   1      50.901  26.694  30.241  1.00  0.00     0.060 A 
BRANCH  94  95
ATOM     95  S   UNL A   1      52.662  26.417  30.530  1.00  0.00     0.124 S 
ATOM     96  O   UNL A   1      52.630  25.349  31.524  1.00  0.00    -0.237 OA
ATOM     97  O   UNL A   1      53.141  26.035  29.205  1.00  0.00    -0.237 OA
ATOM     98  O   UNL A   1      53.134  27.712  31.011  1.00  0.00    -0.744 OA
ENDBRANCH  94  95
ENDBRANCH  62  87
ENDBRANCH  36  37
ENDBRANCH  28  31
ENDBRANCH  26  27
ENDBRANCH   1  26
TORSDOF 18
ENDMDL
MODEL 2
REMARK VINA RESULT:     -11.3      5.250     10.838
REMARK SMILES CC[C@H](C)[C@@H](NC(=O)c1csc(NC(C)=O)n1)C(=O)NCCCNC(=O)c1ccc(-c2c3nc(c(-c4c(F)cc(S(=O)(=O)[O-])cc4F)c4ccc([nH]4)c(-c4c(F)cc(S(=O)(=O)[O-])cc4F)c4nc(c(-c5c(F)cc(S(=O)(=O)[O-])cc5F)c5ccc2[nH]5)C=C4)C=C3)cc1
REMARK SMILES IDX 22 1 21 2 20 3 18 4 19 5 5 7 3 8 4 9 2 10 1 11 6 12 7 13
REMARK SMILES IDX 8 15 9 16 10 17 17 18 11 19 12 20 13 21 14 22 15 24 16 25
REMARK SMILES IDX 23 26 24 27 25 28 26 30 27 31 28 32 92 33 29 34 91 35 30 36
REMARK SMILES IDX 31 37 32 38 85 39 33 40 90 41 84 42 86 43 34 44 89 45 83 46
REMARK SMILES IDX 82 47 35 49 69 50 48 51 68 52 49 53 52 54 67 55 87 56 50 57
REMARK SMILES IDX 51 58 66 60 88 61 53 62 36 63 37 64 46 65 38 66 39 67 45 68
REMARK SMILES IDX 47 69 40 70 41 71 42 72 43 73 44 74 70 75 71 76 80 77 72 78
REMARK SMILES IDX 73 79 79 80 81 81 74 82 75 83 76 84 77 85 78 86 54 87 55 88
REMARK SMILES IDX 64 89 56 90 57 91 63 92 65 93 58 94 59 95 60 96 61 97 62 98
REMARK H PARENT 20 6 6 14 13 23 24 29 86 48 52 59
REMARK Flexibility Score: inf
ROOT
ATOM      1  C   UNL A   1      37.411  23.569  25.317  1.00  0.00     0.042 C 
ENDROOT
BRANCH   1   2
ATOM      2  C   UNL A   1      35.940  23.713  25.652  1.00  0.00     0.117 C 
BRANCH   2   3
ATOM      3  N   UNL A   1      35.554  22.815  26.726  1.00  0.00    -0.354 N 
ATOM      4  C   UNL A   1      34.468  21.997  26.834  1.00  0.00     0.242 C 
ATOM      5  O   UNL A   1      34.312  21.388  27.899  1.00  0.00    -0.273 OA
ATOM      6  H   UNL A   1      36.169  22.793  27.493  1.00  0.00     0.163 HD
BRANCH   4   7
ATOM      7  C   UNL A   1      33.393  21.953  25.722  1.00  0.00     0.174 C 
BRANCH   7   8
ATOM      8  C   UNL A   1      33.771  20.746  24.779  1.00  0.00     0.018 C 
ATOM      9  C   UNL A   1      35.218  20.260  24.922  1.00  0.00     0.010 C 
BRANCH   8  10
ATOM     10  C   UNL A   1      32.783  19.556  24.874  1.00  0.00     0.002 C 
ATOM     11  C   UNL A   1      32.553  18.801  23.575  1.00  0.00     0.004 C 
ENDBRANCH   8  10
ENDBRANCH   7   8
BRANCH   7  12
ATOM     12  N   UNL A   1      31.995  21.836  26.203  1.00  0.00    -0.339 N 
ATOM     13  C   UNL A   1      30.873  22.614  26.024  1.00  0.00     0.271 C 
ATOM     14  H   UNL A   1      31.837  21.041  26.762  1.00  0.00     0.164 HD
ATOM     15  O   UNL A   1      29.795  22.139  26.384  1.00  0.00    -0.267 OA
BRANCH  13  16
ATOM     16  C   UNL A   1      30.984  24.003  25.587  1.00  0.00     0.141 A 
ATOM     17  C   UNL A   1      30.707  24.393  24.286  1.00  0.00     0.102 A 
ATOM     18  N   UNL A   1      31.329  25.052  26.428  1.00  0.00    -0.215 NA
ATOM     19  S   UNL A   1      30.726  26.099  24.168  1.00  0.00    -0.104 S 
ATOM     20  C   UNL A   1      31.130  26.198  25.817  1.00  0.00     0.190 A 
BRANCH  20  21
ATOM     21  N   UNL A   1      31.225  27.382  26.501  1.00  0.00    -0.302 N 
ATOM     22  C   UNL A   1      32.135  28.391  26.289  1.00  0.00     0.223 C 
ATOM     23  H   UNL A   1      30.571  27.525  27.222  1.00  0.00     0.172 HD
ATOM     24  C   UNL A   1      31.971  29.540  27.253  1.00  0.00     0.114 C 
ATOM     25  O   UNL A   1      33.015  28.430  25.436  1.00  0.00    -0.275 OA
ENDBRANCH  20  21
ENDBRANCH  13  16
ENDBRANCH   7  12
ENDBRANCH   4   7
ENDBRANCH   2   3
ENDBRANCH   1   2
BRANCH   1  26
ATOM     26  C   UNL A   1      38.319  24.113  26.406  1.00  0.00     0.118 C 
BRANCH  26  27
ATOM     27  N   UNL A   1      39.729  23.843  26.148  1.00  0.00    -0.352 N 
ATOM     28  C   UNL A   1      40.814  24.591  26.543  1.00  0.00     0.251 C 
ATOM     29  H   UNL A   1      39.928  23.030  25.631  1.00  0.00     0.163 HD
ATOM     30  O   UNL A   1      41.937  24.347  26.118  1.00  0.00    -0.269 OA
BRANCH  28  31
ATOM     31  C   UNL A   1      40.579  25.713  27.469  1.00  0.00     0.039 A 
ATOM     32  C   UNL A   1      39.630  25.580  28.484  1.00  0.00     0.014 A 
ATOM     33  C   UNL A   1      41.386  26.850  27.382  1.00  0.00     0.014 A 
ATOM     34  C   UNL A   1      39.538  26.570  29.464  1.00  0.00     0.010 A 
ATOM     35  C   UNL A   1      41.352  27.785  28.403  1.00  0.00     0.010 A 
ATOM     36  C   UNL A   1      40.425  27.658  29.450  1.00  0.00    -0.014 A 
BRANCH  36  37
ATOM     37  C   UNL A   1      40.393  28.716  30.488  1.00  0.00     0.031 A 
ATOM     38  C   UNL A   1      41.294  28.586  31.683  1.00  0.00     0.074 A 
ATOM     39  C   UNL A   1      39.485  29.708  30.419  1.00  0.00     0.049 A 
ATOM     40  N   UNL A   1      41.289  29.260  32.802  1.00  0.00    -0.248 NA
ATOM     41  C   UNL A   1      42.304  27.515  31.628  1.00  0.00     0.031 C 
ATOM     42  C   UNL A   1      38.525  29.910  29.332  1.00  0.00     0.029 A 
ATOM     43  N   UNL A   1      39.203  30.720  31.303  1.00  0.00    -0.354 N 
ATOM     44  C   UNL A   1      42.256  28.662  33.602  1.00  0.00     0.074 A 
ATOM     45  C   UNL A   1      42.797  27.547  32.856  1.00  0.00     0.031 C 
ATOM     46  C   UNL A   1      37.766  30.983  29.609  1.00  0.00     0.029 A 
ATOM     47  C   UNL A   1      38.157  31.520  30.909  1.00  0.00     0.049 A 
ATOM     48  H   UNL A   1      39.704  30.859  32.139  1.00  0.00     0.167 HD
ATOM     49  C   UNL A   1      42.666  29.021  34.841  1.00  0.00     0.037 A 
ATOM     50  C   UNL A   1      37.571  32.559  31.536  1.00  0.00     0.037 A 
ATOM     51  C   UNL A   1      42.160  30.165  35.549  1.00  0.00     0.049 A 
ATOM     52  C   UNL A   1      38.087  32.986  32.882  1.00  0.00     0.074 A 
ATOM     53  C   UNL A   1      42.549  30.658  36.780  1.00  0.00     0.029 A 
ATOM     54  N   UNL A   1      41.161  31.004  35.075  1.00  0.00    -0.354 N 
ATOM     55  N   UNL A   1      39.027  32.434  33.614  1.00  0.00    -0.248 NA
ATOM     56  C   UNL A   1      37.472  34.175  33.486  1.00  0.00     0.031 C 
ATOM     57  C   UNL A   1      41.771  31.788  37.060  1.00  0.00     0.029 A 
ATOM     58  C   UNL A   1      40.921  32.015  35.988  1.00  0.00     0.049 A 
ATOM     59  H   UNL A   1      40.692  30.895  34.217  1.00  0.00     0.167 HD
ATOM     60  C   UNL A   1      39.136  33.224  34.752  1.00  0.00     0.074 A 
ATOM     61  C   UNL A   1      38.165  34.292  34.613  1.00  0.00     0.031 C 
ATOM     62  C   UNL A   1      39.966  33.080  35.814  1.00  0.00     0.037 A 
BRANCH  49  63
ATOM     63  C   UNL A   1      43.709  28.158  35.492  1.00  0.00     0.058 A 
ATOM     64  C   UNL A   1      43.362  27.096  36.343  1.00  0.00     0.135 A 
ATOM     65  C   UNL A   1      45.075  28.415  35.288  1.00  0.00     0.135 A 
ATOM     66  F   UNL A   1      42.071  26.819  36.585  1.00  0.00    -0.206 F 
ATOM     67  C   UNL A   1      44.329  26.354  37.011  1.00  0.00     0.059 A 
ATOM     68  C   UNL A   1      46.060  27.665  35.924  1.00  0.00     0.059 A 
ATOM     69  F   UNL A   1      45.462  29.417  34.484  1.00  0.00    -0.206 F 
ATOM     70  C   UNL A   1      45.677  26.654  36.804  1.00  0.00     0.060 A 
BRANCH  70  71
ATOM     71  S   UNL A   1      46.924  25.713  37.705  1.00  0.00     0.124 S 
ATOM     72  O   UNL A   1      46.435  25.824  39.077  1.00  0.00    -0.237 OA
ATOM     73  O   UNL A   1      46.819  24.387  37.103  1.00  0.00    -0.237 OA
ATOM     74  O   UNL A   1      48.162  26.431  37.418  1.00  0.00    -0.744 OA
ENDBRANCH  70  71
ENDBRANCH  49  63
BRANCH  50  75
ATOM     75  C   UNL A   1      36.456  33.280  30.870  1.00  0.00     0.058 A 
ATOM     76  C   UNL A   1      35.144  33.170  31.352  1.00  0.00     0.135 A 
ATOM     77  C   UNL A   1      36.686  34.137  29.783  1.00  0.00     0.135 A 
ATOM     78  F   UNL A   1      34.876  32.359  32.386  1.00  0.00    -0.206 F 
ATOM     79  C   UNL A   1      34.097  33.887  30.783  1.00  0.00     0.059 A 
ATOM     80  C   UNL A   1      35.658  34.879  29.208  1.00  0.00     0.059 A 
ATOM     81  F   UNL A   1      37.929  34.290  29.298  1.00  0.00    -0.206 F 
ATOM     82  C   UNL A   1      34.366  34.745  29.715  1.00  0.00     0.060 A 
BRANCH  82  83
ATOM     83  S   UNL A   1      33.016  35.739  29.040  1.00  0.00     0.124 S 
ATOM     84  O   UNL A   1      33.745  36.824  28.393  1.00  0.00    -0.237 OA
ATOM     85  O   UNL A   1      32.352  34.793  28.148  1.00  0.00    -0.237 OA
ATOM     86  O   UNL A   1      32.250  36.110  30.227  1.00  0.00    -0.744 OA
ENDBRANCH  82  83
ENDBRANCH  50  75
BRANCH  62  87
ATOM     87  C   UNL A   1      39.903  34.122  36.892  1.00  0.00     0.058 A 
ATOM     88  C   UNL A   1      40.522  35.371  36.745  1.00  0.00     0.135 A 
ATOM     89  C   UNL A   1      39.130  33.899  38.043  1.00  0.00     0.135 A 
ATOM     90  F   UNL A   1      41.276  35.628  35.665  1.00  0.00    -0.206 F 
ATOM     91  C   UNL A   1      40.379  36.367  37.705  1.00  0.00     0.059 A 
ATOM     92  C   UNL A   1      38.957  34.885  39.006  1.00  0.00     0.059 A 
ATOM     93  F   UNL A   1      38.512  32.720  38.223  1.00  0.00    -0.206 F 
ATOM     94  C   UNL A   1      39.589  36.117  38.829  1.00  0.00     0.060 A 
BRANCH  94  95
ATOM     95  S   UNL A   1      39.349  37.440  40.035  1.00  0.00     0.124 S 
ATOM     96  O   UNL A   1      40.716  37.916  40.222  1.00  0.00    -0.237 OA
ATOM     97  O   UNL A   1      38.453  38.350  39.327  1.00  0.00    -0.237 OA
ATOM     98  O   UNL A   1      38.759  36.753  41.179  1.00  0.00    -0.744 OA
ENDBRANCH  94  95
ENDBRANCH  62  87
ENDBRANCH  36  37
ENDBRANCH  28  31
ENDBRANCH  26  27
ENDBRANCH   1  26
TORSDOF 18
ENDMDL
MODEL 3
REMARK VINA RESULT:     -11.2      2.304      3.060
REMARK SMILES CC[C@H](C)[C@@H](NC(=O)c1csc(NC(C)=O)n1)C(=O)NCCCNC(=O)c1ccc(-c2c3nc(c(-c4c(F)cc(S(=O)(=O)[O-])cc4F)c4ccc([nH]4)c(-c4c(F)cc(S(=O)(=O)[O-])cc4F)c4nc(c(-c5c(F)cc(S(=O)(=O)[O-])cc5F)c5ccc2[nH]5)C=C4)C=C3)cc1
REMARK SMILES IDX 22 1 21 2 20 3 18 4 19 5 5 7 3 8 4 9 2 10 1 11 6 12 7 13
REMARK SMILES IDX 8 15 9 16 10 17 17 18 11 19 12 20 13 21 14 22 15 24 16 25
REMARK SMILES IDX 23 26 24 27 25 28 26 30 27 31 28 32 92 33 29 34 91 35 30 36
REMARK SMILES IDX 31 37 32 38 85 39 33 40 90 41 84 42 86 43 34 44 89 45 83 46
REMARK SMILES IDX 82 47 35 49 69 50 48 51 68 52 49 53 52 54 67 55 87 56 50 57
REMARK SMILES IDX 51 58 66 60 88 61 53 62 36 63 37 64 46 65 38 66 39 67 45 68
REMARK SMILES IDX 47 69 40 70 41 71 42 72 43 73 44 74 70 75 71 76 80 77 72 78
REMARK SMILES IDX 73 79 79 80 81 81 74 82 75 83 76 84 77 85 78 86 54 87 55 88
REMARK SMILES IDX 64 89 56 90 57 91 63 92 65 93 58 94 59 95 60 96 61 97 62 98
REMARK H PARENT 20 6 6 14 13 23 24 29 86 48 52 59
REMARK Flexibility Score: inf
ROOT
ATOM      1  C   UNL A   1      33.957  29.673  27.573  1.00  0.00     0.042 C 
ENDROOT
BRANCH   1   2
ATOM      2  C   UNL A   1      33.999  28.452  26.674  1.00  0.00     0.117 C 
BRANCH   2   3
ATOM      3  N   UNL A   1      34.154  28.829  25.280  1.00  0.00    -0.354 N 
ATOM      4  C   UNL A   1      33.778  28.166  24.149  1.00  0.00     0.242 C 
ATOM      5  O   UNL A   1      34.106  28.657  23.063  1.00  0.00    -0.273 OA
ATOM      6  H   UNL A   1      34.599  29.693  25.129  1.00  0.00     0.163 HD
BRANCH   4   7
ATOM      7  C   UNL A   1      33.102  26.777  24.229  1.00  0.00     0.174 C 
BRANCH   7   8
ATOM      8  C   UNL A   1      31.548  27.038  24.301  1.00  0.00     0.018 C 
ATOM      9  C   UNL A   1      30.762  26.517  23.092  1.00  0.00     0.010 C 
BRANCH   8  10
ATOM     10  C   UNL A   1      30.902  26.555  25.623  1.00  0.00     0.002 C 
ATOM     11  C   UNL A   1      30.560  25.074  25.672  1.00  0.00     0.004 C 
ENDBRANCH   8  10
ENDBRANCH   7   8
BRANCH   7  12
ATOM     12  N   UNL A   1      33.436  25.850  23.121  1.00  0.00    -0.339 N 
ATOM     13  C   UNL A   1      33.831  24.531  23.089  1.00  0.00     0.271 C 
ATOM     14  H   UNL A   1      33.360  26.260  22.230  1.00  0.00     0.164 HD
ATOM     15  O   UNL A   1      33.835  23.971  21.992  1.00  0.00    -0.267 OA
BRANCH  13  16
ATOM     16  C   UNL A   1      34.385  23.883  24.275  1.00  0.00     0.141 A 
ATOM     17  C   UNL A   1      33.692  22.908  24.976  1.00  0.00     0.102 A 
ATOM     18  N   UNL A   1      35.651  24.147  24.779  1.00  0.00    -0.215 NA
ATOM     19  S   UNL A   1      34.702  22.213  26.168  1.00  0.00    -0.104 S 
ATOM     20  C   UNL A   1      35.956  23.264  25.703  1.00  0.00     0.190 A 
BRANCH  20  21
ATOM     21  N   UNL A   1      37.223  23.203  26.222  1.00  0.00    -0.302 N 
ATOM     22  C   UNL A   1      38.200  22.284  25.919  1.00  0.00     0.223 C 
ATOM     23  H   UNL A   1      37.459  23.892  26.885  1.00  0.00     0.172 HD
ATOM     24  C   UNL A   1      39.469  22.496  26.707  1.00  0.00     0.114 C 
ATOM     25  O   UNL A   1      38.128  21.363  25.112  1.00  0.00    -0.275 OA
ENDBRANCH  20  21
ENDBRANCH  13  16
ENDBRANCH   7  12
ENDBRANCH   4   7
ENDBRANCH   2   3
ENDBRANCH   1   2
BRANCH   1  26
ATOM     26  C   UNL A   1      35.341  30.182  27.939  1.00  0.00     0.118 C 
BRANCH  26  27
ATOM     27  N   UNL A   1      35.374  30.828  29.246  1.00  0.00    -0.352 N 
ATOM     28  C   UNL A   1      36.378  30.776  30.183  1.00  0.00     0.251 C 
ATOM     29  H   UNL A   1      34.583  31.363  29.487  1.00  0.00     0.163 HD
ATOM     30  O   UNL A   1      36.212  31.223  31.313  1.00  0.00    -0.269 OA
BRANCH  28  31
ATOM     31  C   UNL A   1      37.651  30.140  29.797  1.00  0.00     0.039 A 
ATOM     32  C   UNL A   1      38.062  30.178  28.464  1.00  0.00     0.014 A 
ATOM     33  C   UNL A   1      38.475  29.606  30.790  1.00  0.00     0.014 A 
ATOM     34  C   UNL A   1      39.344  29.737  28.134  1.00  0.00     0.010 A 
ATOM     35  C   UNL A   1      39.776  29.251  30.472  1.00  0.00     0.010 A 
ATOM     36  C   UNL A   1      40.221  29.307  29.142  1.00  0.00    -0.014 A 
BRANCH  36  37
ATOM     37  C   UNL A   1      41.605  28.863  28.849  1.00  0.00     0.031 A 
ATOM     38  C   UNL A   1      42.707  29.884  28.842  1.00  0.00     0.074 A 
ATOM     39  C   UNL A   1      41.846  27.592  28.474  1.00  0.00     0.049 A 
ATOM     40  N   UNL A   1      43.935  29.775  28.411  1.00  0.00    -0.248 NA
ATOM     41  C   UNL A   1      42.360  31.226  29.341  1.00  0.00     0.031 C 
ATOM     42  C   UNL A   1      40.848  26.524  28.396  1.00  0.00     0.029 A 
ATOM     43  N   UNL A   1      43.008  26.992  28.059  1.00  0.00    -0.354 N 
ATOM     44  C   UNL A   1      44.490  31.043  28.539  1.00  0.00     0.074 A 
ATOM     45  C   UNL A   1      43.452  31.913  29.048  1.00  0.00     0.031 C 
ATOM     46  C   UNL A   1      41.442  25.398  27.968  1.00  0.00     0.029 A 
ATOM     47  C   UNL A   1      42.850  25.674  27.703  1.00  0.00     0.049 A 
ATOM     48  H   UNL A   1      43.873  27.461  28.021  1.00  0.00     0.167 HD
ATOM     49  C   UNL A   1      45.755  31.442  28.271  1.00  0.00     0.037 A 
ATOM     50  C   UNL A   1      43.740  24.794  27.204  1.00  0.00     0.037 A 
ATOM     51  C   UNL A   1      46.793  30.555  27.819  1.00  0.00     0.049 A 
ATOM     52  C   UNL A   1      45.159  25.237  26.977  1.00  0.00     0.074 A 
ATOM     53  C   UNL A   1      48.124  30.838  27.578  1.00  0.00     0.029 A 
ATOM     54  N   UNL A   1      46.612  29.205  27.555  1.00  0.00    -0.354 N 
ATOM     55  N   UNL A   1      45.681  26.431  27.135  1.00  0.00    -0.248 NA
ATOM     56  C   UNL A   1      46.111  24.220  26.512  1.00  0.00     0.031 C 
ATOM     57  C   UNL A   1      48.748  29.660  27.150  1.00  0.00     0.029 A 
ATOM     58  C   UNL A   1      47.810  28.638  27.156  1.00  0.00     0.049 A 
ATOM     59  H   UNL A   1      45.759  28.722  27.639  1.00  0.00     0.167 HD
ATOM     60  C   UNL A   1      47.027  26.303  26.817  1.00  0.00     0.074 A 
ATOM     61  C   UNL A   1      47.240  24.915  26.455  1.00  0.00     0.031 C 
ATOM     62  C   UNL A   1      47.999  27.248  26.826  1.00  0.00     0.037 A 
BRANCH  49  63
ATOM     63  C   UNL A   1      46.068  32.899  28.463  1.00  0.00     0.058 A 
ATOM     64  C   UNL A   1      45.945  33.825  27.414  1.00  0.00     0.135 A 
ATOM     65  C   UNL A   1      46.525  33.372  29.704  1.00  0.00     0.135 A 
ATOM     66  F   UNL A   1      45.529  33.422  26.203  1.00  0.00    -0.206 F 
ATOM     67  C   UNL A   1      46.317  35.155  27.571  1.00  0.00     0.059 A 
ATOM     68  C   UNL A   1      46.874  34.706  29.891  1.00  0.00     0.059 A 
ATOM     69  F   UNL A   1      46.660  32.530  30.741  1.00  0.00    -0.206 F 
ATOM     70  C   UNL A   1      46.791  35.584  28.812  1.00  0.00     0.060 A 
BRANCH  70  71
ATOM     71  S   UNL A   1      47.309  37.302  28.995  1.00  0.00     0.124 S 
ATOM     72  O   UNL A   1      46.438  37.753  30.076  1.00  0.00    -0.237 OA
ATOM     73  O   UNL A   1      48.723  37.174  29.335  1.00  0.00    -0.237 OA
ATOM     74  O   UNL A   1      47.035  37.879  27.683  1.00  0.00    -0.744 OA
ENDBRANCH  70  71
ENDBRANCH  49  63
BRANCH  50  75
ATOM     75  C   UNL A   1      43.311  23.400  26.922  1.00  0.00     0.058 A 
ATOM     76  C   UNL A   1      43.089  22.971  25.606  1.00  0.00     0.135 A 
ATOM     77  C   UNL A   1      43.174  22.456  27.951  1.00  0.00     0.135 A 
ATOM     78  F   UNL A   1      43.204  23.840  24.590  1.00  0.00    -0.206 F 
ATOM     79  C   UNL A   1      42.750  21.653  25.316  1.00  0.00     0.059 A 
ATOM     80  C   UNL A   1      42.853  21.128  27.685  1.00  0.00     0.059 A 
ATOM     81  F   UNL A   1      43.394  22.813  29.226  1.00  0.00    -0.206 F 
ATOM     82  C   UNL A   1      42.641  20.737  26.363  1.00  0.00     0.060 A 
BRANCH  82  83
ATOM     83  S   UNL A   1      42.288  19.009  25.970  1.00  0.00     0.124 S 
ATOM     84  O   UNL A   1      43.137  18.794  24.803  1.00  0.00    -0.237 OA
ATOM     85  O   UNL A   1      42.698  18.324  27.193  1.00  0.00    -0.237 OA
ATOM     86  O   UNL A   1      40.850  19.012  25.716  1.00  0.00    -0.744 OA
ENDBRANCH  82  83
ENDBRANCH  50  75
BRANCH  62  87
ATOM     87  C   UNL A   1      49.394  26.814  26.480  1.00  0.00     0.058 A 
ATOM     88  C   UNL A   1      50.232  26.211  27.428  1.00  0.00     0.135 A 
ATOM     89  C   UNL A   1      49.857  26.917  25.158  1.00  0.00     0.135 A 
ATOM     90  F   UNL A   1      49.835  26.096  28.706  1.00  0.00    -0.206 F 
ATOM     91  C   UNL A   1      51.487  25.723  27.078  1.00  0.00     0.059 A 
ATOM     92  C   UNL A   1      51.099  26.420  24.782  1.00  0.00     0.059 A 
ATOM     93  F   UNL A   1      49.086  27.481  24.215  1.00  0.00    -0.206 F 
ATOM     94  C   UNL A   1      51.909  25.827  25.751  1.00  0.00     0.060 A 
BRANCH  94  95
ATOM     95  S   UNL A   1      53.508  25.125  25.291  1.00  0.00     0.124 S 
ATOM     96  O   UNL A   1      54.365  25.625  26.362  1.00  0.00    -0.237 OA
ATOM     97  O   UNL A   1      53.239  23.691  25.311  1.00  0.00    -0.237 OA
ATOM     98  O   UNL A   1      53.758  25.690  23.968  1.00  0.00    -0.744 OA
ENDBRANCH  94  95
ENDBRANCH  62  87
ENDBRANCH  36  37
ENDBRANCH  28  31
ENDBRANCH  26  27
ENDBRANCH   1  26
TORSDOF 18
ENDMDL
