MODEL 1
REMARK VINA RESULT:     -13.3      0.000      0.000
REMARK SMILES O=C1[NH+]=C(Nc2ccc(C(=O)NCCCNC(=O)c3ccc(-c4c5nc(c(-c6c(F)cc(S(=O)(=O)[O-])cc6F)c6ccc([nH]6)c(-c6c(F)cc(S(=O)(=O)[O-])cc6F)c6nc(c(-c7c(F)cc(S(=O)(=O)[O-])cc7F)c7ccc4[nH]7)C=C6)C=C5)cc3)c(O)c2)S/C1=C\c1ccc[nH]1
REMARK SMILES IDX 14 1 13 2 12 3 10 4 11 5 9 7 6 8 7 9 87 10 8 11 85 12 5 13
REMARK SMILES IDX 1 14 2 15 3 16 89 17 4 18 88 20 90 21 91 23 92 24 95 25
REMARK SMILES IDX 93 26 94 27 86 29 15 31 16 32 17 33 18 35 19 36 20 37 84 38
REMARK SMILES IDX 21 39 83 40 22 41 23 42 24 43 77 44 25 45 82 46 76 47 78 48
REMARK SMILES IDX 26 49 81 50 75 51 74 52 27 54 61 55 40 56 60 57 41 58 44 59
REMARK SMILES IDX 59 60 79 61 42 62 43 63 58 65 80 66 45 67 28 68 29 69 38 70
REMARK SMILES IDX 30 71 31 72 37 73 39 74 32 75 33 76 34 77 35 78 36 79 62 80
REMARK SMILES IDX 63 81 72 82 64 83 65 84 71 85 73 86 66 87 67 88 68 89 69 90
REMARK SMILES IDX 70 91 46 92 47 93 56 94 48 95 49 96 55 97 57 98 50 99 51 100
REMARK SMILES IDX 52 101 53 102 54 103
REMARK H PARENT 12 6 3 19 5 22 95 28 86 30 16 34 78 53 44 64
REMARK Flexibility Score: inf
ROOT
ATOM      1  C   UNL A   1      37.585  22.902  25.602  1.00  0.00     0.042 C 
ENDROOT
BRANCH   1   2
ATOM      2  C   UNL A   1      36.163  22.674  26.085  1.00  0.00     0.118 C 
BRANCH   2   3
ATOM      3  N   UNL A   1      35.573  21.407  25.674  1.00  0.00    -0.352 N 
ATOM      4  C   UNL A   1      34.550  21.134  24.798  1.00  0.00     0.255 C 
ATOM      5  O   UNL A   1      34.229  19.962  24.613  1.00  0.00    -0.269 OA
ATOM      6  H   UNL A   1      35.975  20.613  26.096  1.00  0.00     0.163 HD
BRANCH   4   7
ATOM      7  C   UNL A   1      33.792  22.207  24.115  1.00  0.00     0.081 A 
ATOM      8  C   UNL A   1      32.212  24.324  23.113  1.00  0.00     0.129 A 
ATOM      9  C   UNL A   1      31.643  23.318  23.898  1.00  0.00     0.053 A 
ATOM     10  C   UNL A   1      33.566  24.215  22.776  1.00  0.00     0.098 A 
ATOM     11  C   UNL A   1      32.420  22.268  24.394  1.00  0.00     0.022 A 
ATOM     12  C   UNL A   1      34.334  23.141  23.230  1.00  0.00     0.132 A 
BRANCH   8  13
ATOM     13  N   UNL A   1      31.505  25.466  22.724  1.00  0.00    -0.234 N 
ATOM     14  O   UNL A   1      32.220  28.896  25.807  1.00  0.00    -0.240 OA
ATOM     15  C   UNL A   1      31.741  28.313  24.842  1.00  0.00     0.346 C 
ATOM     16  N   UNL A   1      32.032  27.021  24.476  1.00  0.00    -0.199 N 
ATOM     17  C   UNL A   1      30.745  28.936  23.925  1.00  0.00     0.111 C 
ATOM     18  C   UNL A   1      31.419  26.643  23.405  1.00  0.00     0.322 C 
ATOM     19  H   UNL A   1      32.646  26.440  24.981  1.00  0.00     0.316 HD
ATOM     20  S   UNL A   1      30.342  27.816  22.684  1.00  0.00     0.006 SA
ATOM     21  C   UNL A   1      30.291  30.183  24.101  1.00  0.00     0.050 C 
ATOM     22  H   UNL A   1      31.018  25.413  21.870  1.00  0.00     0.313 HD
BRANCH  21  23
ATOM     23  C   UNL A   1      29.279  30.745  23.288  1.00  0.00     0.039 A 
ATOM     24  C   UNL A   1      27.900  30.783  23.377  1.00  0.00     0.027 A 
ATOM     25  N   UNL A   1      29.639  31.410  22.142  1.00  0.00    -0.362 N 
ATOM     26  C   UNL A   1      27.416  31.461  22.235  1.00  0.00     0.020 A 
ATOM     27  C   UNL A   1      28.510  31.831  21.485  1.00  0.00     0.083 A 
ATOM     28  H   UNL A   1      30.564  31.560  21.839  1.00  0.00     0.166 HD
ENDBRANCH  21  23
ENDBRANCH   8  13
BRANCH  12  29
ATOM     29  O   UNL A   1      35.604  23.075  22.726  1.00  0.00    -0.507 OA
ATOM     30  H   UNL A   1      35.760  23.264  21.823  1.00  0.00     0.293 HD
ENDBRANCH  12  29
ENDBRANCH   4   7
ENDBRANCH   2   3
ENDBRANCH   1   2
BRANCH   1  31
ATOM     31  C   UNL A   1      38.391  23.914  26.402  1.00  0.00     0.118 C 
BRANCH  31  32
ATOM     32  N   UNL A   1      39.828  23.857  26.159  1.00  0.00    -0.352 N 
ATOM     33  C   UNL A   1      40.856  24.665  26.596  1.00  0.00     0.251 C 
ATOM     34  H   UNL A   1      40.113  23.111  25.584  1.00  0.00     0.163 HD
ATOM     35  O   UNL A   1      41.987  24.486  26.154  1.00  0.00    -0.269 OA
BRANCH  33  36
ATOM     36  C   UNL A   1      40.601  25.766  27.552  1.00  0.00     0.039 A 
ATOM     37  C   UNL A   1      39.653  25.587  28.564  1.00  0.00     0.014 A 
ATOM     38  C   UNL A   1      41.295  26.971  27.466  1.00  0.00     0.014 A 
ATOM     39  C   UNL A   1      39.489  26.571  29.545  1.00  0.00     0.010 A 
ATOM     40  C   UNL A   1      41.229  27.885  28.511  1.00  0.00     0.010 A 
ATOM     41  C   UNL A   1      40.319  27.703  29.561  1.00  0.00    -0.014 A 
BRANCH  41  42
ATOM     42  C   UNL A   1      40.251  28.716  30.649  1.00  0.00     0.031 A 
ATOM     43  C   UNL A   1      41.141  28.582  31.859  1.00  0.00     0.074 A 
ATOM     44  C   UNL A   1      39.337  29.707  30.590  1.00  0.00     0.049 A 
ATOM     45  N   UNL A   1      41.165  29.301  32.952  1.00  0.00    -0.248 NA
ATOM     46  C   UNL A   1      42.108  27.471  31.855  1.00  0.00     0.031 C 
ATOM     47  C   UNL A   1      38.381  29.916  29.500  1.00  0.00     0.029 A 
ATOM     48  N   UNL A   1      39.056  30.722  31.471  1.00  0.00    -0.354 N 
ATOM     49  C   UNL A   1      42.130  28.720  33.766  1.00  0.00     0.074 A 
ATOM     50  C   UNL A   1      42.617  27.548  33.075  1.00  0.00     0.031 C 
ATOM     51  C   UNL A   1      37.646  31.009  29.759  1.00  0.00     0.029 A 
ATOM     52  C   UNL A   1      38.039  31.551  31.054  1.00  0.00     0.049 A 
ATOM     53  H   UNL A   1      39.536  30.845  32.321  1.00  0.00     0.167 HD
ATOM     54  C   UNL A   1      42.597  29.143  34.966  1.00  0.00     0.037 A 
ATOM     55  C   UNL A   1      37.480  32.622  31.652  1.00  0.00     0.037 A 
ATOM     56  C   UNL A   1      42.126  30.325  35.637  1.00  0.00     0.049 A 
ATOM     57  C   UNL A   1      38.001  33.062  32.996  1.00  0.00     0.074 A 
ATOM     58  C   UNL A   1      42.566  30.870  36.830  1.00  0.00     0.029 A 
ATOM     59  N   UNL A   1      41.104  31.144  35.176  1.00  0.00    -0.354 N 
ATOM     60  N   UNL A   1      38.960  32.538  33.721  1.00  0.00    -0.248 NA
ATOM     61  C   UNL A   1      37.365  34.241  33.601  1.00  0.00     0.031 C 
ATOM     62  C   UNL A   1      41.776  31.987  37.118  1.00  0.00     0.029 A 
ATOM     63  C   UNL A   1      40.884  32.176  36.073  1.00  0.00     0.049 A 
ATOM     64  H   UNL A   1      40.609  31.011  34.336  1.00  0.00     0.167 HD
ATOM     65  C   UNL A   1      39.066  33.343  34.851  1.00  0.00     0.074 A 
ATOM     66  C   UNL A   1      38.081  34.394  34.706  1.00  0.00     0.031 C 
ATOM     67  C   UNL A   1      39.906  33.223  35.910  1.00  0.00     0.037 A 
BRANCH  54  68
ATOM     68  C   UNL A   1      43.676  28.322  35.624  1.00  0.00     0.058 A 
ATOM     69  C   UNL A   1      43.370  27.298  36.537  1.00  0.00     0.135 A 
ATOM     70  C   UNL A   1      45.028  28.542  35.321  1.00  0.00     0.135 A 
ATOM     71  F   UNL A   1      42.095  27.052  36.878  1.00  0.00    -0.206 F 
ATOM     72  C   UNL A   1      44.368  26.551  37.155  1.00  0.00     0.059 A 
ATOM     73  C   UNL A   1      46.042  27.782  35.899  1.00  0.00     0.059 A 
ATOM     74  F   UNL A   1      45.380  29.506  34.455  1.00  0.00    -0.206 F 
ATOM     75  C   UNL A   1      45.701  26.800  36.828  1.00  0.00     0.060 A 
BRANCH  75  76
ATOM     76  S   UNL A   1      46.981  25.819  37.639  1.00  0.00     0.124 S 
ATOM     77  O   UNL A   1      47.342  26.682  38.761  1.00  0.00    -0.237 OA
ATOM     78  O   UNL A   1      46.264  24.597  37.985  1.00  0.00    -0.237 OA
ATOM     79  O   UNL A   1      48.004  25.674  36.607  1.00  0.00    -0.744 OA
ENDBRANCH  75  76
ENDBRANCH  54  68
BRANCH  55  80
ATOM     80  C   UNL A   1      36.385  33.371  30.976  1.00  0.00     0.058 A 
ATOM     81  C   UNL A   1      35.070  33.323  31.464  1.00  0.00     0.135 A 
ATOM     82  C   UNL A   1      36.628  34.157  29.838  1.00  0.00     0.135 A 
ATOM     83  F   UNL A   1      34.783  32.582  32.545  1.00  0.00    -0.206 F 
ATOM     84  C   UNL A   1      34.033  34.009  30.839  1.00  0.00     0.059 A 
ATOM     85  C   UNL A   1      35.613  34.876  29.213  1.00  0.00     0.059 A 
ATOM     86  F   UNL A   1      37.871  34.253  29.339  1.00  0.00    -0.206 F 
ATOM     87  C   UNL A   1      34.316  34.786  29.715  1.00  0.00     0.060 A 
BRANCH  87  88
ATOM     88  S   UNL A   1      32.970  35.707  28.940  1.00  0.00     0.124 S 
ATOM     89  O   UNL A   1      33.696  36.769  28.254  1.00  0.00    -0.237 OA
ATOM     90  O   UNL A   1      32.360  34.693  28.085  1.00  0.00    -0.237 OA
ATOM     91  O   UNL A   1      32.155  36.130  30.076  1.00  0.00    -0.744 OA
ENDBRANCH  87  88
ENDBRANCH  55  80
BRANCH  67  92
ATOM     92  C   UNL A   1      39.831  34.279  36.980  1.00  0.00     0.058 A 
ATOM     93  C   UNL A   1      40.465  35.522  36.841  1.00  0.00     0.135 A 
ATOM     94  C   UNL A   1      39.061  34.061  38.134  1.00  0.00     0.135 A 
ATOM     95  F   UNL A   1      41.219  35.782  35.761  1.00  0.00    -0.206 F 
ATOM     96  C   UNL A   1      40.357  36.506  37.820  1.00  0.00     0.059 A 
ATOM     97  C   UNL A   1      38.911  35.041  39.110  1.00  0.00     0.059 A 
ATOM     98  F   UNL A   1      38.423  32.893  38.313  1.00  0.00    -0.206 F 
ATOM     99  C   UNL A   1      39.574  36.257  38.948  1.00  0.00     0.060 A 
BRANCH  99 100
ATOM    100  S   UNL A   1      39.410  37.557  40.190  1.00  0.00     0.124 S 
ATOM    101  O   UNL A   1      40.787  38.023  40.313  1.00  0.00    -0.237 OA
ATOM    102  O   UNL A   1      38.481  38.483  39.550  1.00  0.00    -0.237 OA
ATOM    103  O   UNL A   1      38.880  36.852  41.354  1.00  0.00    -0.744 OA
ENDBRANCH  99 100
ENDBRANCH  67  92
ENDBRANCH  41  42
ENDBRANCH  33  36
ENDBRANCH  31  32
ENDBRANCH   1  31
TORSDOF 16
ENDMDL
MODEL 2
REMARK VINA RESULT:     -13.1      6.628     12.569
REMARK SMILES O=C1[NH+]=C(Nc2ccc(C(=O)NCCCNC(=O)c3ccc(-c4c5nc(c(-c6c(F)cc(S(=O)(=O)[O-])cc6F)c6ccc([nH]6)c(-c6c(F)cc(S(=O)(=O)[O-])cc6F)c6nc(c(-c7c(F)cc(S(=O)(=O)[O-])cc7F)c7ccc4[nH]7)C=C6)C=C5)cc3)c(O)c2)S/C1=C\c1ccc[nH]1
REMARK SMILES IDX 14 1 13 2 12 3 10 4 11 5 9 7 6 8 7 9 87 10 8 11 85 12 5 13
REMARK SMILES IDX 1 14 2 15 3 16 89 17 4 18 88 20 90 21 91 23 92 24 95 25
REMARK SMILES IDX 93 26 94 27 86 29 15 31 16 32 17 33 18 35 19 36 20 37 84 38
REMARK SMILES IDX 21 39 83 40 22 41 23 42 24 43 77 44 25 45 82 46 76 47 78 48
REMARK SMILES IDX 26 49 81 50 75 51 74 52 27 54 61 55 40 56 60 57 41 58 44 59
REMARK SMILES IDX 59 60 79 61 42 62 43 63 58 65 80 66 45 67 28 68 29 69 38 70
REMARK SMILES IDX 30 71 31 72 37 73 39 74 32 75 33 76 34 77 35 78 36 79 62 80
REMARK SMILES IDX 63 81 72 82 64 83 65 84 71 85 73 86 66 87 67 88 68 89 69 90
REMARK SMILES IDX 70 91 46 92 47 93 56 94 48 95 49 96 55 97 57 98 50 99 51 100
REMARK SMILES IDX 52 101 53 102 54 103
REMARK H PARENT 12 6 3 19 5 22 95 28 86 30 16 34 78 53 44 64
REMARK Flexibility Score: inf
ROOT
ATOM      1  C   UNL A   1      33.640  29.883  27.037  1.00  0.00     0.042 C 
ENDROOT
BRANCH   1   2
ATOM      2  C   UNL A   1      33.420  29.130  25.736  1.00  0.00     0.118 C 
BRANCH   2   3
ATOM      3  N   UNL A   1      32.251  29.550  24.976  1.00  0.00    -0.352 N 
ATOM      4  C   UNL A   1      31.170  28.834  24.520  1.00  0.00     0.255 C 
ATOM      5  O   UNL A   1      30.294  29.424  23.891  1.00  0.00    -0.269 OA
ATOM      6  H   UNL A   1      32.232  30.508  24.750  1.00  0.00     0.163 HD
BRANCH   4   7
ATOM      7  C   UNL A   1      31.056  27.371  24.717  1.00  0.00     0.081 A 
ATOM      8  C   UNL A   1      31.073  24.549  24.853  1.00  0.00     0.129 A 
ATOM      9  C   UNL A   1      30.936  25.204  23.626  1.00  0.00     0.053 A 
ATOM     10  C   UNL A   1      31.127  25.326  26.016  1.00  0.00     0.098 A 
ATOM     11  C   UNL A   1      30.926  26.599  23.555  1.00  0.00     0.022 A 
ATOM     12  C   UNL A   1      31.067  26.719  25.951  1.00  0.00     0.132 A 
BRANCH   8  13
ATOM     13  N   UNL A   1      31.240  23.164  24.952  1.00  0.00    -0.234 N 
ATOM     14  O   UNL A   1      35.774  22.091  24.683  1.00  0.00    -0.240 OA
ATOM     15  C   UNL A   1      34.563  21.915  24.743  1.00  0.00     0.346 C 
ATOM     16  N   UNL A   1      33.620  22.914  24.758  1.00  0.00    -0.199 N 
ATOM     17  C   UNL A   1      33.936  20.564  24.791  1.00  0.00     0.111 C 
ATOM     18  C   UNL A   1      32.410  22.474  24.853  1.00  0.00     0.322 C 
ATOM     19  H   UNL A   1      33.844  23.871  24.702  1.00  0.00     0.316 HD
ATOM     20  S   UNL A   1      32.229  20.735  24.901  1.00  0.00     0.006 SA
ATOM     21  C   UNL A   1      34.660  19.438  24.759  1.00  0.00     0.050 C 
ATOM     22  H   UNL A   1      30.426  22.632  25.109  1.00  0.00     0.313 HD
BRANCH  21  23
ATOM     23  C   UNL A   1      34.066  18.155  24.712  1.00  0.00     0.039 A 
ATOM     24  C   UNL A   1      33.896  17.222  23.706  1.00  0.00     0.027 A 
ATOM     25  N   UNL A   1      33.508  17.638  25.855  1.00  0.00    -0.362 N 
ATOM     26  C   UNL A   1      33.186  16.129  24.251  1.00  0.00     0.020 A 
ATOM     27  C   UNL A   1      32.952  16.414  25.578  1.00  0.00     0.083 A 
ATOM     28  H   UNL A   1      33.505  18.078  26.736  1.00  0.00     0.166 HD
ENDBRANCH  21  23
ENDBRANCH   8  13
BRANCH  12  29
ATOM     29  O   UNL A   1      30.994  27.358  27.158  1.00  0.00    -0.507 OA
ATOM     30  H   UNL A   1      30.185  27.380  27.629  1.00  0.00     0.293 HD
ENDBRANCH  12  29
ENDBRANCH   4   7
ENDBRANCH   2   3
ENDBRANCH   1   2
BRANCH   1  31
ATOM     31  C   UNL A   1      35.025  29.739  27.648  1.00  0.00     0.118 C 
BRANCH  31  32
ATOM     32  N   UNL A   1      35.209  30.485  28.888  1.00  0.00    -0.352 N 
ATOM     33  C   UNL A   1      36.298  30.601  29.725  1.00  0.00     0.251 C 
ATOM     34  H   UNL A   1      34.418  30.993  29.178  1.00  0.00     0.163 HD
ATOM     35  O   UNL A   1      36.174  31.196  30.791  1.00  0.00    -0.269 OA
BRANCH  33  36
ATOM     36  C   UNL A   1      37.595  29.980  29.371  1.00  0.00     0.039 A 
ATOM     37  C   UNL A   1      38.007  29.969  28.035  1.00  0.00     0.014 A 
ATOM     38  C   UNL A   1      38.415  29.416  30.347  1.00  0.00     0.014 A 
ATOM     39  C   UNL A   1      39.281  29.496  27.704  1.00  0.00     0.010 A 
ATOM     40  C   UNL A   1      39.725  29.072  30.038  1.00  0.00     0.010 A 
ATOM     41  C   UNL A   1      40.174  29.098  28.711  1.00  0.00    -0.014 A 
BRANCH  41  42
ATOM     42  C   UNL A   1      41.575  28.694  28.408  1.00  0.00     0.031 A 
ATOM     43  C   UNL A   1      42.671  29.729  28.396  1.00  0.00     0.074 A 
ATOM     44  C   UNL A   1      41.848  27.418  28.067  1.00  0.00     0.049 A 
ATOM     45  N   UNL A   1      43.930  29.597  28.063  1.00  0.00    -0.248 NA
ATOM     46  C   UNL A   1      42.295  31.103  28.772  1.00  0.00     0.031 C 
ATOM     47  C   UNL A   1      40.868  26.331  27.990  1.00  0.00     0.029 A 
ATOM     48  N   UNL A   1      43.031  26.817  27.714  1.00  0.00    -0.354 N 
ATOM     49  C   UNL A   1      44.485  30.867  28.173  1.00  0.00     0.074 A 
ATOM     50  C   UNL A   1      43.413  31.769  28.530  1.00  0.00     0.031 C 
ATOM     51  C   UNL A   1      41.494  25.194  27.648  1.00  0.00     0.029 A 
ATOM     52  C   UNL A   1      42.909  25.475  27.432  1.00  0.00     0.049 A 
ATOM     53  H   UNL A   1      43.886  27.301  27.666  1.00  0.00     0.167 HD
ATOM     54  C   UNL A   1      45.778  31.245  28.025  1.00  0.00     0.037 A 
ATOM     55  C   UNL A   1      43.830  24.574  27.036  1.00  0.00     0.037 A 
ATOM     56  C   UNL A   1      46.845  30.338  27.694  1.00  0.00     0.049 A 
ATOM     57  C   UNL A   1      45.258  25.021  26.858  1.00  0.00     0.074 A 
ATOM     58  C   UNL A   1      48.196  30.608  27.571  1.00  0.00     0.029 A 
ATOM     59  N   UNL A   1      46.681  28.985  27.430  1.00  0.00    -0.354 N 
ATOM     60  N   UNL A   1      45.776  26.213  27.030  1.00  0.00    -0.248 NA
ATOM     61  C   UNL A   1      46.225  23.999  26.434  1.00  0.00     0.031 C 
ATOM     62  C   UNL A   1      48.842  29.431  27.179  1.00  0.00     0.029 A 
ATOM     63  C   UNL A   1      47.903  28.412  27.120  1.00  0.00     0.049 A 
ATOM     64  H   UNL A   1      45.823  28.504  27.458  1.00  0.00     0.167 HD
ATOM     65  C   UNL A   1      47.137  26.078  26.770  1.00  0.00     0.074 A 
ATOM     66  C   UNL A   1      47.360  24.685  26.440  1.00  0.00     0.031 C 
ATOM     67  C   UNL A   1      48.112  27.021  26.804  1.00  0.00     0.037 A 
BRANCH  54  68
ATOM     68  C   UNL A   1      46.107  32.702  28.226  1.00  0.00     0.058 A 
ATOM     69  C   UNL A   1      46.047  33.625  27.169  1.00  0.00     0.135 A 
ATOM     70  C   UNL A   1      46.462  33.187  29.495  1.00  0.00     0.135 A 
ATOM     71  F   UNL A   1      45.728  33.216  25.930  1.00  0.00    -0.206 F 
ATOM     72  C   UNL A   1      46.365  34.966  27.352  1.00  0.00     0.059 A 
ATOM     73  C   UNL A   1      46.749  34.532  29.710  1.00  0.00     0.059 A 
ATOM     74  F   UNL A   1      46.536  32.351  30.543  1.00  0.00    -0.206 F 
ATOM     75  C   UNL A   1      46.714  35.410  28.628  1.00  0.00     0.060 A 
BRANCH  75  76
ATOM     76  S   UNL A   1      47.122  37.156  28.848  1.00  0.00     0.124 S 
ATOM     77  O   UNL A   1      47.869  37.123  30.102  1.00  0.00    -0.237 OA
ATOM     78  O   UNL A   1      47.905  37.444  27.651  1.00  0.00    -0.237 OA
ATOM     79  O   UNL A   1      45.816  37.805  28.913  1.00  0.00    -0.744 OA
ENDBRANCH  75  76
ENDBRANCH  54  68
BRANCH  55  80
ATOM     80  C   UNL A   1      43.441  23.156  26.808  1.00  0.00     0.058 A 
ATOM     81  C   UNL A   1      43.377  22.625  25.511  1.00  0.00     0.135 A 
ATOM     82  C   UNL A   1      43.134  22.298  27.877  1.00  0.00     0.135 A 
ATOM     83  F   UNL A   1      43.654  23.403  24.454  1.00  0.00    -0.206 F 
ATOM     84  C   UNL A   1      43.006  21.304  25.279  1.00  0.00     0.059 A 
ATOM     85  C   UNL A   1      42.789  20.965  27.673  1.00  0.00     0.059 A 
ATOM     86  F   UNL A   1      43.195  22.749  29.141  1.00  0.00    -0.206 F 
ATOM     87  C   UNL A   1      42.717  20.480  26.368  1.00  0.00     0.060 A 
BRANCH  87  88
ATOM     88  S   UNL A   1      42.281  18.756  26.056  1.00  0.00     0.124 S 
ATOM     89  O   UNL A   1      43.188  18.415  24.966  1.00  0.00    -0.237 OA
ATOM     90  O   UNL A   1      42.566  18.132  27.344  1.00  0.00    -0.237 OA
ATOM     91  O   UNL A   1      40.866  18.826  25.702  1.00  0.00    -0.744 OA
ENDBRANCH  87  88
ENDBRANCH  55  80
BRANCH  67  92
ATOM     92  C   UNL A   1      49.521  26.574  26.521  1.00  0.00     0.058 A 
ATOM     93  C   UNL A   1      50.335  26.010  27.514  1.00  0.00     0.135 A 
ATOM     94  C   UNL A   1      50.040  26.659  25.218  1.00  0.00     0.135 A 
ATOM     95  F   UNL A   1      49.892  25.912  28.778  1.00  0.00    -0.206 F 
ATOM     96  C   UNL A   1      51.624  25.566  27.232  1.00  0.00     0.059 A 
ATOM     97  C   UNL A   1      51.312  26.190  24.906  1.00  0.00     0.059 A 
ATOM     98  F   UNL A   1      49.300  27.179  24.226  1.00  0.00    -0.206 F 
ATOM     99  C   UNL A   1      52.100  25.656  25.923  1.00  0.00     0.060 A 
BRANCH  99 100
ATOM    100  S   UNL A   1      53.758  25.038  25.564  1.00  0.00     0.124 S 
ATOM    101  O   UNL A   1      53.501  23.621  25.330  1.00  0.00    -0.237 OA
ATOM    102  O   UNL A   1      54.132  25.818  24.388  1.00  0.00    -0.237 OA
ATOM    103  O   UNL A   1      54.508  25.348  26.778  1.00  0.00    -0.744 OA
ENDBRANCH  99 100
ENDBRANCH  67  92
ENDBRANCH  41  42
ENDBRANCH  33  36
ENDBRANCH  31  32
ENDBRANCH   1  31
TORSDOF 16
ENDMDL
MODEL 3
REMARK VINA RESULT:     -13.0      4.782     10.996
REMARK SMILES O=C1[NH+]=C(Nc2ccc(C(=O)NCCCNC(=O)c3ccc(-c4c5nc(c(-c6c(F)cc(S(=O)(=O)[O-])cc6F)c6ccc([nH]6)c(-c6c(F)cc(S(=O)(=O)[O-])cc6F)c6nc(c(-c7c(F)cc(S(=O)(=O)[O-])cc7F)c7ccc4[nH]7)C=C6)C=C5)cc3)c(O)c2)S/C1=C\c1ccc[nH]1
REMARK SMILES IDX 14 1 13 2 12 3 10 4 11 5 9 7 6 8 7 9 87 10 8 11 85 12 5 13
REMARK SMILES IDX 1 14 2 15 3 16 89 17 4 18 88 20 90 21 91 23 92 24 95 25
REMARK SMILES IDX 93 26 94 27 86 29 15 31 16 32 17 33 18 35 19 36 20 37 84 38
REMARK SMILES IDX 21 39 83 40 22 41 23 42 24 43 77 44 25 45 82 46 76 47 78 48
REMARK SMILES IDX 26 49 81 50 75 51 74 52 27 54 61 55 40 56 60 57 41 58 44 59
REMARK SMILES IDX 59 60 79 61 42 62 43 63 58 65 80 66 45 67 28 68 29 69 38 70
REMARK SMILES IDX 30 71 31 72 37 73 39 74 32 75 33 76 34 77 35 78 36 79 62 80
REMARK SMILES IDX 63 81 72 82 64 83 65 84 71 85 73 86 66 87 67 88 68 89 69 90
REMARK SMILES IDX 70 91 46 92 47 93 56 94 48 95 49 96 55 97 57 98 50 99 51 100
REMARK SMILES IDX 52 101 53 102 54 103
REMARK H PARENT 12 6 3 19 5 22 95 28 86 30 16 34 78 53 44 64
REMARK Flexibility Score: inf
ROOT
ATOM      1  C   UNL A   1      32.618  28.333  25.714  1.00  0.00     0.042 C 
ENDROOT
BRANCH   1   2
ATOM      2  C   UNL A   1      33.207  28.944  24.455  1.00  0.00     0.118 C 
BRANCH   2   3
ATOM      3  N   UNL A   1      32.226  29.407  23.482  1.00  0.00    -0.352 N 
ATOM      4  C   UNL A   1      31.303  28.714  22.736  1.00  0.00     0.255 C 
ATOM      5  O   UNL A   1      30.572  29.341  21.972  1.00  0.00    -0.269 OA
ATOM      6  H   UNL A   1      32.225  30.381  23.334  1.00  0.00     0.163 HD
BRANCH   4   7
ATOM      7  C   UNL A   1      31.200  27.238  22.786  1.00  0.00     0.081 A 
ATOM      8  C   UNL A   1      31.336  24.420  22.936  1.00  0.00     0.129 A 
ATOM      9  C   UNL A   1      32.203  25.133  22.103  1.00  0.00     0.053 A 
ATOM     10  C   UNL A   1      30.354  25.131  23.635  1.00  0.00     0.098 A 
ATOM     11  C   UNL A   1      32.137  26.527  22.025  1.00  0.00     0.022 A 
ATOM     12  C   UNL A   1      30.256  26.519  23.521  1.00  0.00     0.132 A 
BRANCH   8  13
ATOM     13  N   UNL A   1      31.467  23.045  23.156  1.00  0.00    -0.234 N 
ATOM     14  O   UNL A   1      35.437  22.182  25.455  1.00  0.00    -0.240 OA
ATOM     15  C   UNL A   1      34.399  21.951  24.847  1.00  0.00     0.346 C 
ATOM     16  N   UNL A   1      33.569  22.905  24.308  1.00  0.00    -0.199 N 
ATOM     17  C   UNL A   1      33.895  20.572  24.588  1.00  0.00     0.111 C 
ATOM     18  C   UNL A   1      32.522  22.410  23.739  1.00  0.00     0.322 C 
ATOM     19  H   UNL A   1      33.755  23.871  24.352  1.00  0.00     0.316 HD
ATOM     20  S   UNL A   1      32.404  20.665  23.738  1.00  0.00     0.006 SA
ATOM     21  C   UNL A   1      34.555  19.481  24.997  1.00  0.00     0.050 C 
ATOM     22  H   UNL A   1      30.720  22.478  22.859  1.00  0.00     0.313 HD
BRANCH  21  23
ATOM     23  C   UNL A   1      34.127  18.171  24.675  1.00  0.00     0.039 A 
ATOM     24  C   UNL A   1      34.349  17.338  23.595  1.00  0.00     0.027 A 
ATOM     25  N   UNL A   1      33.313  17.502  25.555  1.00  0.00    -0.362 N 
ATOM     26  C   UNL A   1      33.621  16.147  23.817  1.00  0.00     0.020 A 
ATOM     27  C   UNL A   1      32.984  16.277  25.030  1.00  0.00     0.083 A 
ATOM     28  H   UNL A   1      33.012  17.848  26.426  1.00  0.00     0.166 HD
ENDBRANCH  21  23
ENDBRANCH   8  13
BRANCH  12  29
ATOM     29  O   UNL A   1      29.177  27.082  24.145  1.00  0.00    -0.507 OA
ATOM     30  H   UNL A   1      29.293  27.562  24.940  1.00  0.00     0.293 HD
ENDBRANCH  12  29
ENDBRANCH   4   7
ENDBRANCH   2   3
ENDBRANCH   1   2
BRANCH   1  31
ATOM     31  C   UNL A   1      33.431  28.540  26.982  1.00  0.00     0.118 C 
BRANCH  31  32
ATOM     32  N   UNL A   1      33.427  29.914  27.474  1.00  0.00    -0.352 N 
ATOM     33  C   UNL A   1      34.399  30.652  28.114  1.00  0.00     0.251 C 
ATOM     34  H   UNL A   1      32.584  30.397  27.321  1.00  0.00     0.163 HD
ATOM     35  O   UNL A   1      34.118  31.766  28.546  1.00  0.00    -0.269 OA
BRANCH  33  36
ATOM     36  C   UNL A   1      35.758  30.100  28.321  1.00  0.00     0.039 A 
ATOM     37  C   UNL A   1      36.674  30.124  27.265  1.00  0.00     0.014 A 
ATOM     38  C   UNL A   1      36.140  29.567  29.551  1.00  0.00     0.014 A 
ATOM     39  C   UNL A   1      37.995  29.717  27.482  1.00  0.00     0.010 A 
ATOM     40  C   UNL A   1      37.478  29.291  29.800  1.00  0.00     0.010 A 
ATOM     41  C   UNL A   1      38.424  29.354  28.768  1.00  0.00    -0.014 A 
BRANCH  41  42
ATOM     42  C   UNL A   1      39.845  29.023  29.061  1.00  0.00     0.031 A 
ATOM     43  C   UNL A   1      40.751  30.064  29.668  1.00  0.00     0.074 A 
ATOM     44  C   UNL A   1      40.341  27.818  28.710  1.00  0.00     0.049 A 
ATOM     45  N   UNL A   1      42.036  30.004  29.908  1.00  0.00    -0.248 NA
ATOM     46  C   UNL A   1      40.139  31.357  30.018  1.00  0.00     0.031 C 
ATOM     47  C   UNL A   1      39.583  26.742  28.068  1.00  0.00     0.029 A 
ATOM     48  N   UNL A   1      41.606  27.297  28.837  1.00  0.00    -0.354 N 
ATOM     49  C   UNL A   1      42.384  31.250  30.417  1.00  0.00     0.074 A 
ATOM     50  C   UNL A   1      41.194  32.070  30.382  1.00  0.00     0.031 C 
ATOM     51  C   UNL A   1      40.386  25.680  27.890  1.00  0.00     0.029 A 
ATOM     52  C   UNL A   1      41.727  26.013  28.356  1.00  0.00     0.049 A 
ATOM     53  H   UNL A   1      42.356  27.796  29.234  1.00  0.00     0.167 HD
ATOM     54  C   UNL A   1      43.578  31.666  30.904  1.00  0.00     0.037 A 
ATOM     55  C   UNL A   1      42.798  25.198  28.291  1.00  0.00     0.037 A 
ATOM     56  C   UNL A   1      44.754  30.837  30.959  1.00  0.00     0.049 A 
ATOM     57  C   UNL A   1      44.122  25.689  28.818  1.00  0.00     0.074 A 
ATOM     58  C   UNL A   1      45.998  31.144  31.478  1.00  0.00     0.029 A 
ATOM     59  N   UNL A   1      44.830  29.539  30.473  1.00  0.00    -0.354 N 
ATOM     60  N   UNL A   1      44.416  26.848  29.356  1.00  0.00    -0.248 NA
ATOM     61  C   UNL A   1      45.257  24.760  28.733  1.00  0.00     0.031 C 
ATOM     62  C   UNL A   1      46.843  30.051  31.259  1.00  0.00     0.029 A 
ATOM     63  C   UNL A   1      46.109  29.039  30.660  1.00  0.00     0.049 A 
ATOM     64  H   UNL A   1      44.087  29.046  30.058  1.00  0.00     0.167 HD
ATOM     65  C   UNL A   1      45.761  26.775  29.705  1.00  0.00     0.074 A 
ATOM     66  C   UNL A   1      46.217  25.454  29.326  1.00  0.00     0.031 C 
ATOM     67  C   UNL A   1      46.546  27.716  30.288  1.00  0.00     0.037 A 
BRANCH  54  68
ATOM     68  C   UNL A   1      43.669  33.079  31.418  1.00  0.00     0.058 A 
ATOM     69  C   UNL A   1      44.039  34.147  30.584  1.00  0.00     0.135 A 
ATOM     70  C   UNL A   1      43.357  33.375  32.755  1.00  0.00     0.135 A 
ATOM     71  F   UNL A   1      44.364  33.922  29.300  1.00  0.00    -0.206 F 
ATOM     72  C   UNL A   1      44.136  35.449  31.064  1.00  0.00     0.059 A 
ATOM     73  C   UNL A   1      43.412  34.676  33.249  1.00  0.00     0.059 A 
ATOM     74  F   UNL A   1      42.996  32.396  33.599  1.00  0.00    -0.206 F 
ATOM     75  C   UNL A   1      43.819  35.703  32.398  1.00  0.00     0.060 A 
BRANCH  75  76
ATOM     76  S   UNL A   1      43.949  37.399  33.003  1.00  0.00     0.124 S 
ATOM     77  O   UNL A   1      42.786  37.484  33.882  1.00  0.00    -0.237 OA
ATOM     78  O   UNL A   1      45.247  37.393  33.669  1.00  0.00    -0.237 OA
ATOM     79  O   UNL A   1      43.875  38.202  31.786  1.00  0.00    -0.744 OA
ENDBRANCH  75  76
ENDBRANCH  54  68
BRANCH  55  80
ATOM     80  C   UNL A   1      42.663  23.826  27.730  1.00  0.00     0.058 A 
ATOM     81  C   UNL A   1      42.741  23.600  26.348  1.00  0.00     0.135 A 
ATOM     82  C   UNL A   1      42.462  22.711  28.560  1.00  0.00     0.135 A 
ATOM     83  F   UNL A   1      42.925  24.631  25.510  1.00  0.00    -0.206 F 
ATOM     84  C   UNL A   1      42.606  22.325  25.806  1.00  0.00     0.059 A 
ATOM     85  C   UNL A   1      42.355  21.422  28.045  1.00  0.00     0.059 A 
ATOM     86  F   UNL A   1      42.396  22.867  29.893  1.00  0.00    -0.206 F 
ATOM     87  C   UNL A   1      42.417  21.241  26.664  1.00  0.00     0.060 A 
BRANCH  87  88
ATOM     88  S   UNL A   1      42.290  19.587  25.952  1.00  0.00     0.124 S 
ATOM     89  O   UNL A   1      43.250  19.663  24.857  1.00  0.00    -0.237 OA
ATOM     90  O   UNL A   1      42.671  18.740  27.079  1.00  0.00    -0.237 OA
ATOM     91  O   UNL A   1      40.887  19.498  25.557  1.00  0.00    -0.744 OA
ENDBRANCH  87  88
ENDBRANCH  55  80
BRANCH  67  92
ATOM     92  C   UNL A   1      47.970  27.341  30.596  1.00  0.00     0.058 A 
ATOM     93  C   UNL A   1      48.336  26.758  31.819  1.00  0.00     0.135 A 
ATOM     94  C   UNL A   1      48.972  27.513  29.627  1.00  0.00     0.135 A 
ATOM     95  F   UNL A   1      47.420  26.577  32.784  1.00  0.00    -0.206 F 
ATOM     96  C   UNL A   1      49.650  26.379  32.079  1.00  0.00     0.059 A 
ATOM     97  C   UNL A   1      50.284  27.112  29.852  1.00  0.00     0.059 A 
ATOM     98  F   UNL A   1      48.675  28.055  28.435  1.00  0.00    -0.206 F 
ATOM     99  C   UNL A   1      50.615  26.556  31.086  1.00  0.00     0.060 A 
BRANCH  99 100
ATOM    100  S   UNL A   1      52.307  26.023  31.423  1.00  0.00     0.124 S 
ATOM    101  O   UNL A   1      52.705  26.950  32.476  1.00  0.00    -0.237 OA
ATOM    102  O   UNL A   1      52.118  24.635  31.837  1.00  0.00    -0.237 OA
ATOM    103  O   UNL A   1      52.982  26.201  30.141  1.00  0.00    -0.744 OA
ENDBRANCH  99 100
ENDBRANCH  67  92
ENDBRANCH  41  42
ENDBRANCH  33  36
ENDBRANCH  31  32
ENDBRANCH   1  31
TORSDOF 16
ENDMDL
