MODEL 1
REMARK VINA RESULT:     -11.9      0.000      0.000
REMARK SMILES CCc1cc(C(=O)N2CCO[C@@H](CC(=O)NCCCNC(=O)c3ccc(-c4c5nc(c(-c6c(F)cc(S(=O)(=O)[O-])cc6F)c6ccc([nH]6)c(-c6c(F)cc(S(=O)(=O)[O-])cc6F)c6nc(c(-c7c(F)cc(S(=O)(=O)[O-])cc7F)c7ccc4[nH]7)C=C6)C=C5)cc3)C2)sc1C
REMARK SMILES IDX 17 1 16 2 14 3 15 4 13 6 12 7 8 8 9 9 89 10 10 11 11 12 6 13
REMARK SMILES IDX 7 14 5 15 3 16 4 17 91 18 90 19 92 20 2 21 1 22 18 23 19 24
REMARK SMILES IDX 20 25 21 26 22 28 23 29 24 30 88 31 25 32 87 33 26 34 27 35
REMARK SMILES IDX 28 36 81 37 29 38 86 39 80 40 82 41 30 42 85 43 79 44 78 45
REMARK SMILES IDX 31 47 65 48 44 49 64 50 45 51 48 52 63 53 83 54 46 55 47 56
REMARK SMILES IDX 62 58 84 59 49 60 32 61 33 62 42 63 34 64 35 65 41 66 43 67
REMARK SMILES IDX 36 68 37 69 38 70 39 71 40 72 66 73 67 74 76 75 68 76 69 77
REMARK SMILES IDX 75 78 77 79 70 80 71 81 72 82 73 83 74 84 50 85 51 86 60 87
REMARK SMILES IDX 52 88 53 89 59 90 61 91 54 92 55 93 56 94 57 95 58 96
REMARK H PARENT 16 5 20 27 82 46 48 57
REMARK Flexibility Score: inf
ROOT
ATOM      1  C   UNL A   1      34.284  29.885  27.063  1.00  0.00     0.117 C 
ENDROOT
BRANCH   1   2
ATOM      2  N   UNL A   1      33.253  29.069  27.693  1.00  0.00    -0.356 N 
ATOM      3  C   UNL A   1      32.097  28.536  27.205  1.00  0.00     0.222 C 
ATOM      4  O   UNL A   1      31.418  27.834  27.956  1.00  0.00    -0.275 OA
ATOM      5  H   UNL A   1      33.420  28.867  28.642  1.00  0.00     0.163 HD
BRANCH   3   6
ATOM      6  C   UNL A   1      31.618  28.841  25.802  1.00  0.00     0.133 C 
BRANCH   6   7
ATOM      7  C   UNL A   1      32.309  27.923  24.793  1.00  0.00     0.147 C 
ATOM      8  N   UNL A   1      32.009  25.821  23.522  1.00  0.00    -0.333 N 
ATOM      9  C   UNL A   1      32.338  26.517  22.283  1.00  0.00     0.148 C 
ATOM     10  C   UNL A   1      31.460  26.675  24.552  1.00  0.00     0.152 C 
ATOM     11  C   UNL A   1      33.137  27.796  22.569  1.00  0.00     0.182 C 
ATOM     12  O   UNL A   1      32.483  28.633  23.545  1.00  0.00    -0.374 OA
BRANCH   8  13
ATOM     13  C   UNL A   1      31.509  24.516  23.494  1.00  0.00     0.264 C 
ATOM     14  O   UNL A   1      30.306  24.331  23.301  1.00  0.00    -0.268 OA
BRANCH  13  15
ATOM     15  C   UNL A   1      32.448  23.478  23.888  1.00  0.00     0.093 A 
ATOM     16  C   UNL A   1      33.456  21.377  24.302  1.00  0.00    -0.034 A 
ATOM     17  C   UNL A   1      32.243  22.130  24.095  1.00  0.00     0.029 A 
ATOM     18  C   UNL A   1      34.557  22.224  24.268  1.00  0.00     0.005 A 
ATOM     19  S   UNL A   1      34.103  23.861  24.016  1.00  0.00    -0.135 S 
ATOM     20  C   UNL A   1      36.018  21.931  24.382  1.00  0.00     0.056 C 
BRANCH  16  21
ATOM     21  C   UNL A   1      33.394  19.883  24.506  1.00  0.00     0.033 C 
ATOM     22  C   UNL A   1      32.486  19.083  23.592  1.00  0.00     0.009 C 
ENDBRANCH  16  21
ENDBRANCH  13  15
ENDBRANCH   8  13
ENDBRANCH   6   7
ENDBRANCH   3   6
ENDBRANCH   1   2
BRANCH   1  23
ATOM     23  C   UNL A   1      34.362  31.312  27.611  1.00  0.00     0.042 C 
BRANCH  23  24
ATOM     24  C   UNL A   1      35.635  31.636  28.390  1.00  0.00     0.118 C 
BRANCH  24  25
ATOM     25  N   UNL A   1      35.526  31.222  29.779  1.00  0.00    -0.352 N 
ATOM     26  C   UNL A   1      36.386  30.463  30.537  1.00  0.00     0.251 C 
ATOM     27  H   UNL A   1      34.717  31.531  30.247  1.00  0.00     0.163 HD
ATOM     28  O   UNL A   1      35.973  29.991  31.597  1.00  0.00    -0.269 OA
BRANCH  26  29
ATOM     29  C   UNL A   1      37.788  30.206  30.117  1.00  0.00     0.039 A 
ATOM     30  C   UNL A   1      38.048  29.980  28.758  1.00  0.00     0.014 A 
ATOM     31  C   UNL A   1      38.825  30.071  31.045  1.00  0.00     0.014 A 
ATOM     32  C   UNL A   1      39.338  29.638  28.333  1.00  0.00     0.010 A 
ATOM     33  C   UNL A   1      40.123  29.774  30.614  1.00  0.00     0.010 A 
ATOM     34  C   UNL A   1      40.387  29.531  29.257  1.00  0.00    -0.014 A 
BRANCH  34  35
ATOM     35  C   UNL A   1      41.741  29.086  28.829  1.00  0.00     0.031 A 
ATOM     36  C   UNL A   1      42.886  30.066  28.819  1.00  0.00     0.074 A 
ATOM     37  C   UNL A   1      41.949  27.820  28.423  1.00  0.00     0.049 A 
ATOM     38  N   UNL A   1      44.116  29.898  28.405  1.00  0.00    -0.248 NA
ATOM     39  C   UNL A   1      42.601  31.419  29.322  1.00  0.00     0.031 C 
ATOM     40  C   UNL A   1      40.930  26.772  28.352  1.00  0.00     0.029 A 
ATOM     41  N   UNL A   1      43.095  27.200  27.989  1.00  0.00    -0.354 N 
ATOM     42  C   UNL A   1      44.739  31.132  28.554  1.00  0.00     0.074 A 
ATOM     43  C   UNL A   1      43.750  32.039  29.096  1.00  0.00     0.031 C 
ATOM     44  C   UNL A   1      41.501  25.634  27.920  1.00  0.00     0.029 A 
ATOM     45  C   UNL A   1      42.919  25.877  27.664  1.00  0.00     0.049 A 
ATOM     46  H   UNL A   1      43.963  27.661  27.917  1.00  0.00     0.167 HD
ATOM     47  C   UNL A   1      46.017  31.480  28.268  1.00  0.00     0.037 A 
ATOM     48  C   UNL A   1      43.799  24.962  27.214  1.00  0.00     0.037 A 
ATOM     49  C   UNL A   1      47.023  30.575  27.782  1.00  0.00     0.049 A 
ATOM     50  C   UNL A   1      45.236  25.346  27.000  1.00  0.00     0.074 A 
ATOM     51  C   UNL A   1      48.349  30.837  27.482  1.00  0.00     0.029 A 
ATOM     52  N   UNL A   1      46.819  29.226  27.545  1.00  0.00    -0.354 N 
ATOM     53  N   UNL A   1      45.805  26.518  27.143  1.00  0.00    -0.248 NA
ATOM     54  C   UNL A   1      46.153  24.279  26.568  1.00  0.00     0.031 C 
ATOM     55  C   UNL A   1      48.949  29.642  27.065  1.00  0.00     0.029 A 
ATOM     56  C   UNL A   1      47.998  28.637  27.117  1.00  0.00     0.049 A 
ATOM     57  H   UNL A   1      45.964  28.754  27.664  1.00  0.00     0.167 HD
ATOM     58  C   UNL A   1      47.145  26.329  26.827  1.00  0.00     0.074 A 
ATOM     59  C   UNL A   1      47.308  24.929  26.495  1.00  0.00     0.031 C 
ATOM     60  C   UNL A   1      48.149  27.239  26.807  1.00  0.00     0.037 A 
BRANCH  47  61
ATOM     61  C   UNL A   1      46.387  32.919  28.469  1.00  0.00     0.058 A 
ATOM     62  C   UNL A   1      46.931  33.374  29.680  1.00  0.00     0.135 A 
ATOM     63  C   UNL A   1      46.186  33.855  27.443  1.00  0.00     0.135 A 
ATOM     64  F   UNL A   1      47.125  32.519  30.697  1.00  0.00    -0.206 F 
ATOM     65  C   UNL A   1      47.234  34.717  29.879  1.00  0.00     0.059 A 
ATOM     66  C   UNL A   1      46.495  35.199  27.614  1.00  0.00     0.059 A 
ATOM     67  F   UNL A   1      45.666  33.467  26.267  1.00  0.00    -0.206 F 
ATOM     68  C   UNL A   1      47.001  35.625  28.844  1.00  0.00     0.060 A 
BRANCH  68  69
ATOM     69  S   UNL A   1      47.365  37.373  29.104  1.00  0.00     0.124 S 
ATOM     70  O   UNL A   1      46.532  37.672  30.265  1.00  0.00    -0.237 OA
ATOM     71  O   UNL A   1      48.805  37.374  29.342  1.00  0.00    -0.237 OA
ATOM     72  O   UNL A   1      46.942  37.990  27.850  1.00  0.00    -0.744 OA
ENDBRANCH  68  69
ENDBRANCH  47  61
BRANCH  48  73
ATOM     73  C   UNL A   1      43.347  23.572  26.965  1.00  0.00     0.058 A 
ATOM     74  C   UNL A   1      43.127  23.116  25.658  1.00  0.00     0.135 A 
ATOM     75  C   UNL A   1      43.147  22.673  28.022  1.00  0.00     0.135 A 
ATOM     76  F   UNL A   1      43.300  23.948  24.620  1.00  0.00    -0.206 F 
ATOM     77  C   UNL A   1      42.719  21.812  25.403  1.00  0.00     0.059 A 
ATOM     78  C   UNL A   1      42.750  21.359  27.791  1.00  0.00     0.059 A 
ATOM     79  F   UNL A   1      43.353  23.066  29.288  1.00  0.00    -0.206 F 
ATOM     80  C   UNL A   1      42.531  20.940  26.478  1.00  0.00     0.060 A 
BRANCH  80  81
ATOM     81  S   UNL A   1      42.060  19.228  26.149  1.00  0.00     0.124 S 
ATOM     82  O   UNL A   1      40.631  19.362  25.891  1.00  0.00    -0.237 OA
ATOM     83  O   UNL A   1      42.887  18.885  24.996  1.00  0.00    -0.237 OA
ATOM     84  O   UNL A   1      42.419  18.546  27.389  1.00  0.00    -0.744 OA
ENDBRANCH  80  81
ENDBRANCH  48  73
BRANCH  60  85
ATOM     85  C   UNL A   1      49.516  26.746  26.437  1.00  0.00     0.058 A 
ATOM     86  C   UNL A   1      50.370  26.186  27.397  1.00  0.00     0.135 A 
ATOM     87  C   UNL A   1      49.957  26.796  25.106  1.00  0.00     0.135 A 
ATOM     88  F   UNL A   1      49.992  26.121  28.683  1.00  0.00    -0.206 F 
ATOM     89  C   UNL A   1      51.628  25.700  27.052  1.00  0.00     0.059 A 
ATOM     90  C   UNL A   1      51.206  26.307  24.737  1.00  0.00     0.059 A 
ATOM     91  F   UNL A   1      49.171  27.320  24.153  1.00  0.00    -0.206 F 
ATOM     92  C   UNL A   1      52.039  25.769  25.719  1.00  0.00     0.060 A 
BRANCH  92  93
ATOM     93  S   UNL A   1      53.656  25.109  25.261  1.00  0.00     0.124 S 
ATOM     94  O   UNL A   1      53.396  23.673  25.255  1.00  0.00    -0.237 OA
ATOM     95  O   UNL A   1      53.893  25.714  23.953  1.00  0.00    -0.237 OA
ATOM     96  O   UNL A   1      54.526  25.589  26.330  1.00  0.00    -0.744 OA
ENDBRANCH  92  93
ENDBRANCH  60  85
ENDBRANCH  34  35
ENDBRANCH  26  29
ENDBRANCH  24  25
ENDBRANCH  23  24
ENDBRANCH   1  23
TORSDOF 17
ENDMDL
MODEL 2
REMARK VINA RESULT:     -11.8      6.440     12.074
REMARK SMILES CCc1cc(C(=O)N2CCO[C@@H](CC(=O)NCCCNC(=O)c3ccc(-c4c5nc(c(-c6c(F)cc(S(=O)(=O)[O-])cc6F)c6ccc([nH]6)c(-c6c(F)cc(S(=O)(=O)[O-])cc6F)c6nc(c(-c7c(F)cc(S(=O)(=O)[O-])cc7F)c7ccc4[nH]7)C=C6)C=C5)cc3)C2)sc1C
REMARK SMILES IDX 17 1 16 2 14 3 15 4 13 6 12 7 8 8 9 9 89 10 10 11 11 12 6 13
REMARK SMILES IDX 7 14 5 15 3 16 4 17 91 18 90 19 92 20 2 21 1 22 18 23 19 24
REMARK SMILES IDX 20 25 21 26 22 28 23 29 24 30 88 31 25 32 87 33 26 34 27 35
REMARK SMILES IDX 28 36 81 37 29 38 86 39 80 40 82 41 30 42 85 43 79 44 78 45
REMARK SMILES IDX 31 47 65 48 44 49 64 50 45 51 48 52 63 53 83 54 46 55 47 56
REMARK SMILES IDX 62 58 84 59 49 60 32 61 33 62 42 63 34 64 35 65 41 66 43 67
REMARK SMILES IDX 36 68 37 69 38 70 39 71 40 72 66 73 67 74 76 75 68 76 69 77
REMARK SMILES IDX 75 78 77 79 70 80 71 81 72 82 73 83 74 84 50 85 51 86 60 87
REMARK SMILES IDX 52 88 53 89 59 90 61 91 54 92 55 93 56 94 57 95 58 96
REMARK H PARENT 16 5 20 27 82 46 48 57
REMARK Flexibility Score: inf
ROOT
ATOM      1  C   UNL A   1      38.004  22.482  26.086  1.00  0.00     0.117 C 
ENDROOT
BRANCH   1   2
ATOM      2  N   UNL A   1      37.647  22.429  24.672  1.00  0.00    -0.356 N 
ATOM      3  C   UNL A   1      36.716  23.112  23.948  1.00  0.00     0.222 C 
ATOM      4  O   UNL A   1      36.654  22.901  22.736  1.00  0.00    -0.275 OA
ATOM      5  H   UNL A   1      38.172  21.783  24.147  1.00  0.00     0.163 HD
BRANCH   3   6
ATOM      6  C   UNL A   1      35.738  24.058  24.612  1.00  0.00     0.133 C 
BRANCH   6   7
ATOM      7  C   UNL A   1      34.640  23.272  25.328  1.00  0.00     0.147 C 
ATOM      8  N   UNL A   1      32.277  23.411  26.050  1.00  0.00    -0.333 N 
ATOM      9  C   UNL A   1      31.996  22.140  25.393  1.00  0.00     0.148 C 
ATOM     10  C   UNL A   1      33.389  24.139  25.479  1.00  0.00     0.152 C 
ATOM     11  C   UNL A   1      33.282  21.325  25.204  1.00  0.00     0.182 C 
ATOM     12  O   UNL A   1      34.316  22.094  24.555  1.00  0.00    -0.374 OA
BRANCH   8  13
ATOM     13  C   UNL A   1      31.236  24.201  26.548  1.00  0.00     0.264 C 
ATOM     14  O   UNL A   1      30.376  23.688  27.266  1.00  0.00    -0.268 OA
BRANCH  13  15
ATOM     15  C   UNL A   1      31.163  25.550  26.011  1.00  0.00     0.093 A 
ATOM     16  C   UNL A   1      31.629  27.816  25.514  1.00  0.00    -0.034 A 
ATOM     17  C   UNL A   1      31.820  26.697  26.403  1.00  0.00     0.029 A 
ATOM     18  C   UNL A   1      30.785  27.459  24.470  1.00  0.00     0.005 A 
ATOM     19  S   UNL A   1      30.246  25.835  24.604  1.00  0.00    -0.135 S 
ATOM     20  C   UNL A   1      30.319  28.236  23.281  1.00  0.00     0.056 C 
BRANCH  16  21
ATOM     21  C   UNL A   1      32.316  29.131  25.792  1.00  0.00     0.033 C 
ATOM     22  C   UNL A   1      31.473  30.390  25.751  1.00  0.00     0.009 C 
ENDBRANCH  16  21
ENDBRANCH  13  15
ENDBRANCH   8  13
ENDBRANCH   6   7
ENDBRANCH   3   6
ENDBRANCH   1   2
BRANCH   1  23
ATOM     23  C   UNL A   1      39.440  22.037  26.376  1.00  0.00     0.042 C 
BRANCH  23  24
ATOM     24  C   UNL A   1      40.324  23.096  27.029  1.00  0.00     0.118 C 
BRANCH  24  25
ATOM     25  N   UNL A   1      41.101  23.821  26.039  1.00  0.00    -0.352 N 
ATOM     26  C   UNL A   1      41.475  25.145  26.016  1.00  0.00     0.251 C 
ATOM     27  H   UNL A   1      41.407  23.287  25.270  1.00  0.00     0.163 HD
ATOM     28  O   UNL A   1      41.883  25.621  24.956  1.00  0.00    -0.269 OA
BRANCH  26  29
ATOM     29  C   UNL A   1      41.407  26.003  27.227  1.00  0.00     0.039 A 
ATOM     30  C   UNL A   1      40.311  25.857  28.088  1.00  0.00     0.014 A 
ATOM     31  C   UNL A   1      42.335  27.021  27.465  1.00  0.00     0.014 A 
ATOM     32  C   UNL A   1      40.157  26.712  29.187  1.00  0.00     0.010 A 
ATOM     33  C   UNL A   1      42.206  27.845  28.589  1.00  0.00     0.010 A 
ATOM     34  C   UNL A   1      41.103  27.715  29.446  1.00  0.00    -0.014 A 
BRANCH  34  35
ATOM     35  C   UNL A   1      40.906  28.682  30.560  1.00  0.00     0.031 A 
ATOM     36  C   UNL A   1      41.794  28.619  31.776  1.00  0.00     0.074 A 
ATOM     37  C   UNL A   1      39.921  29.598  30.505  1.00  0.00     0.049 A 
ATOM     38  N   UNL A   1      41.732  29.315  32.882  1.00  0.00    -0.248 NA
ATOM     39  C   UNL A   1      42.880  27.628  31.749  1.00  0.00     0.031 C 
ATOM     40  C   UNL A   1      38.967  29.755  29.406  1.00  0.00     0.029 A 
ATOM     41  N   UNL A   1      39.558  30.572  31.403  1.00  0.00    -0.354 N 
ATOM     42  C   UNL A   1      42.740  28.817  33.701  1.00  0.00     0.074 A 
ATOM     43  C   UNL A   1      43.396  27.759  32.963  1.00  0.00     0.031 C 
ATOM     44  C   UNL A   1      38.142  30.779  29.686  1.00  0.00     0.029 A 
ATOM     45  C   UNL A   1      38.493  31.335  30.991  1.00  0.00     0.049 A 
ATOM     46  H   UNL A   1      40.019  30.711  32.263  1.00  0.00     0.167 HD
ATOM     47  C   UNL A   1      43.089  29.204  34.952  1.00  0.00     0.037 A 
ATOM     48  C   UNL A   1      37.871  32.367  31.593  1.00  0.00     0.037 A 
ATOM     49  C   UNL A   1      42.482  30.288  35.673  1.00  0.00     0.049 A 
ATOM     50  C   UNL A   1      38.342  32.844  32.938  1.00  0.00     0.074 A 
ATOM     51  C   UNL A   1      42.784  30.761  36.940  1.00  0.00     0.029 A 
ATOM     52  N   UNL A   1      41.460  31.085  35.183  1.00  0.00    -0.354 N 
ATOM     53  N   UNL A   1      39.293  32.358  33.697  1.00  0.00    -0.248 NA
ATOM     54  C   UNL A   1      37.656  34.015  33.507  1.00  0.00     0.031 C 
ATOM     55  C   UNL A   1      41.945  31.849  37.214  1.00  0.00     0.029 A 
ATOM     56  C   UNL A   1      41.130  32.057  36.114  1.00  0.00     0.049 A 
ATOM     57  H   UNL A   1      41.032  30.978  34.304  1.00  0.00     0.167 HD
ATOM     58  C   UNL A   1      39.326  33.166  34.827  1.00  0.00     0.074 A 
ATOM     59  C   UNL A   1      38.308  34.180  34.651  1.00  0.00     0.031 C 
ATOM     60  C   UNL A   1      40.126  33.070  35.917  1.00  0.00     0.037 A 
BRANCH  47  61
ATOM     61  C   UNL A   1      44.183  28.425  35.620  1.00  0.00     0.058 A 
ATOM     62  C   UNL A   1      45.533  28.769  35.457  1.00  0.00     0.135 A 
ATOM     63  C   UNL A   1      43.877  27.316  36.423  1.00  0.00     0.135 A 
ATOM     64  F   UNL A   1      45.876  29.812  34.683  1.00  0.00    -0.206 F 
ATOM     65  C   UNL A   1      46.548  28.021  36.043  1.00  0.00     0.059 A 
ATOM     66  C   UNL A   1      44.875  26.561  37.030  1.00  0.00     0.059 A 
ATOM     67  F   UNL A   1      42.600  26.946  36.607  1.00  0.00    -0.206 F 
ATOM     68  C   UNL A   1      46.209  26.910  36.818  1.00  0.00     0.060 A 
BRANCH  68  69
ATOM     69  S   UNL A   1      47.521  25.916  37.558  1.00  0.00     0.124 S 
ATOM     70  O   UNL A   1      48.478  26.946  37.951  1.00  0.00    -0.237 OA
ATOM     71  O   UNL A   1      46.837  25.239  38.655  1.00  0.00    -0.237 OA
ATOM     72  O   UNL A   1      47.943  25.051  36.461  1.00  0.00    -0.744 OA
ENDBRANCH  68  69
ENDBRANCH  47  61
BRANCH  48  73
ATOM     73  C   UNL A   1      36.746  33.045  30.906  1.00  0.00     0.058 A 
ATOM     74  C   UNL A   1      35.424  32.825  31.314  1.00  0.00     0.135 A 
ATOM     75  C   UNL A   1      36.972  33.937  29.848  1.00  0.00     0.135 A 
ATOM     76  F   UNL A   1      35.164  31.974  32.318  1.00  0.00    -0.206 F 
ATOM     77  C   UNL A   1      34.356  33.464  30.694  1.00  0.00     0.059 A 
ATOM     78  C   UNL A   1      35.921  34.596  29.219  1.00  0.00     0.059 A 
ATOM     79  F   UNL A   1      38.223  34.181  29.430  1.00  0.00    -0.206 F 
ATOM     80  C   UNL A   1      34.615  34.348  29.645  1.00  0.00     0.060 A 
BRANCH  80  81
ATOM     81  S   UNL A   1      33.238  35.227  28.875  1.00  0.00     0.124 S 
ATOM     82  O   UNL A   1      33.933  36.297  28.168  1.00  0.00    -0.237 OA
ATOM     83  O   UNL A   1      32.632  34.198  28.035  1.00  0.00    -0.237 OA
ATOM     84  O   UNL A   1      32.433  35.641  30.020  1.00  0.00    -0.744 OA
ENDBRANCH  80  81
ENDBRANCH  48  73
BRANCH  60  85
ATOM     85  C   UNL A   1      39.949  34.100  36.992  1.00  0.00     0.058 A 
ATOM     86  C   UNL A   1      40.581  35.349  36.912  1.00  0.00     0.135 A 
ATOM     87  C   UNL A   1      39.108  33.852  38.087  1.00  0.00     0.135 A 
ATOM     88  F   UNL A   1      41.397  35.629  35.884  1.00  0.00    -0.206 F 
ATOM     89  C   UNL A   1      40.395  36.319  37.893  1.00  0.00     0.059 A 
ATOM     90  C   UNL A   1      38.901  34.811  39.074  1.00  0.00     0.059 A 
ATOM     91  F   UNL A   1      38.479  32.672  38.203  1.00  0.00    -0.206 F 
ATOM     92  C   UNL A   1      39.556  36.039  38.973  1.00  0.00     0.060 A 
BRANCH  92  93
ATOM     93  S   UNL A   1      39.286  37.306  40.231  1.00  0.00     0.124 S 
ATOM     94  O   UNL A   1      38.469  38.272  39.503  1.00  0.00    -0.237 OA
ATOM     95  O   UNL A   1      38.601  36.570  41.290  1.00  0.00    -0.237 OA
ATOM     96  O   UNL A   1      40.640  37.743  40.558  1.00  0.00    -0.744 OA
ENDBRANCH  92  93
ENDBRANCH  60  85
ENDBRANCH  34  35
ENDBRANCH  26  29
ENDBRANCH  24  25
ENDBRANCH  23  24
ENDBRANCH   1  23
TORSDOF 17
ENDMDL
MODEL 3
REMARK VINA RESULT:     -11.8      6.599     11.742
REMARK SMILES CCc1cc(C(=O)N2CCO[C@@H](CC(=O)NCCCNC(=O)c3ccc(-c4c5nc(c(-c6c(F)cc(S(=O)(=O)[O-])cc6F)c6ccc([nH]6)c(-c6c(F)cc(S(=O)(=O)[O-])cc6F)c6nc(c(-c7c(F)cc(S(=O)(=O)[O-])cc7F)c7ccc4[nH]7)C=C6)C=C5)cc3)C2)sc1C
REMARK SMILES IDX 17 1 16 2 14 3 15 4 13 6 12 7 8 8 9 9 89 10 10 11 11 12 6 13
REMARK SMILES IDX 7 14 5 15 3 16 4 17 91 18 90 19 92 20 2 21 1 22 18 23 19 24
REMARK SMILES IDX 20 25 21 26 22 28 23 29 24 30 88 31 25 32 87 33 26 34 27 35
REMARK SMILES IDX 28 36 81 37 29 38 86 39 80 40 82 41 30 42 85 43 79 44 78 45
REMARK SMILES IDX 31 47 65 48 44 49 64 50 45 51 48 52 63 53 83 54 46 55 47 56
REMARK SMILES IDX 62 58 84 59 49 60 32 61 33 62 42 63 34 64 35 65 41 66 43 67
REMARK SMILES IDX 36 68 37 69 38 70 39 71 40 72 66 73 67 74 76 75 68 76 69 77
REMARK SMILES IDX 75 78 77 79 70 80 71 81 72 82 73 83 74 84 50 85 51 86 60 87
REMARK SMILES IDX 52 88 53 89 59 90 61 91 54 92 55 93 56 94 57 95 58 96
REMARK H PARENT 16 5 20 27 82 46 48 57
REMARK Flexibility Score: inf
ROOT
ATOM      1  C   UNL A   1      37.707  22.260  25.770  1.00  0.00     0.117 C 
ENDROOT
BRANCH   1   2
ATOM      2  N   UNL A   1      37.383  22.306  24.349  1.00  0.00    -0.356 N 
ATOM      3  C   UNL A   1      36.496  23.065  23.647  1.00  0.00     0.222 C 
ATOM      4  O   UNL A   1      36.457  22.930  22.423  1.00  0.00    -0.275 OA
ATOM      5  H   UNL A   1      37.898  21.674  23.796  1.00  0.00     0.163 HD
BRANCH   3   6
ATOM      6  C   UNL A   1      35.537  24.006  24.344  1.00  0.00     0.133 C 
BRANCH   6   7
ATOM      7  C   UNL A   1      34.521  23.215  25.168  1.00  0.00     0.147 C 
ATOM      8  N   UNL A   1      32.193  23.280  26.006  1.00  0.00    -0.333 N 
ATOM      9  C   UNL A   1      31.951  21.954  25.450  1.00  0.00     0.148 C 
ATOM     10  C   UNL A   1      33.233  24.023  25.330  1.00  0.00     0.152 C 
ATOM     11  C   UNL A   1      33.269  21.196  25.246  1.00  0.00     0.182 C 
ATOM     12  O   UNL A   1      34.225  21.971  24.493  1.00  0.00    -0.374 OA
BRANCH   8  13
ATOM     13  C   UNL A   1      31.137  24.046  26.507  1.00  0.00     0.264 C 
ATOM     14  O   UNL A   1      30.340  23.538  27.297  1.00  0.00    -0.268 OA
BRANCH  13  15
ATOM     15  C   UNL A   1      30.966  25.353  25.893  1.00  0.00     0.093 A 
ATOM     16  C   UNL A   1      31.218  27.637  25.324  1.00  0.00    -0.034 A 
ATOM     17  C   UNL A   1      31.440  26.587  26.288  1.00  0.00     0.029 A 
ATOM     18  C   UNL A   1      30.541  27.137  24.219  1.00  0.00     0.005 A 
ATOM     19  S   UNL A   1      30.182  25.466  24.385  1.00  0.00    -0.135 S 
ATOM     20  C   UNL A   1      30.121  27.802  22.948  1.00  0.00     0.056 C 
BRANCH  16  21
ATOM     21  C   UNL A   1      31.714  29.035  25.601  1.00  0.00     0.033 C 
ATOM     22  C   UNL A   1      31.955  29.425  27.046  1.00  0.00     0.009 C 
ENDBRANCH  16  21
ENDBRANCH  13  15
ENDBRANCH   8  13
ENDBRANCH   6   7
ENDBRANCH   3   6
ENDBRANCH   1   2
BRANCH   1  23
ATOM     23  C   UNL A   1      38.306  23.562  26.308  1.00  0.00     0.042 C 
BRANCH  23  24
ATOM     24  C   UNL A   1      39.694  23.425  26.929  1.00  0.00     0.118 C 
BRANCH  24  25
ATOM     25  N   UNL A   1      40.710  24.053  26.101  1.00  0.00    -0.352 N 
ATOM     26  C   UNL A   1      41.165  25.350  26.106  1.00  0.00     0.251 C 
ATOM     27  H   UNL A   1      41.135  23.462  25.439  1.00  0.00     0.163 HD
ATOM     28  O   UNL A   1      41.819  25.746  25.141  1.00  0.00    -0.269 OA
BRANCH  26  29
ATOM     29  C   UNL A   1      40.898  26.274  27.239  1.00  0.00     0.039 A 
ATOM     30  C   UNL A   1      41.628  27.468  27.314  1.00  0.00     0.014 A 
ATOM     31  C   UNL A   1      40.032  25.933  28.282  1.00  0.00     0.014 A 
ATOM     32  C   UNL A   1      41.479  28.320  28.416  1.00  0.00     0.010 A 
ATOM     33  C   UNL A   1      39.849  26.807  29.361  1.00  0.00     0.010 A 
ATOM     34  C   UNL A   1      40.588  27.996  29.450  1.00  0.00    -0.014 A 
BRANCH  34  35
ATOM     35  C   UNL A   1      40.483  28.849  30.664  1.00  0.00     0.031 A 
ATOM     36  C   UNL A   1      39.415  29.909  30.748  1.00  0.00     0.074 A 
ATOM     37  C   UNL A   1      41.353  28.703  31.681  1.00  0.00     0.049 A 
ATOM     38  N   UNL A   1      39.209  30.805  31.680  1.00  0.00    -0.248 NA
ATOM     39  C   UNL A   1      38.468  29.982  29.625  1.00  0.00     0.031 C 
ATOM     40  C   UNL A   1      42.455  27.741  31.725  1.00  0.00     0.029 A 
ATOM     41  N   UNL A   1      41.446  29.371  32.878  1.00  0.00    -0.354 N 
ATOM     42  C   UNL A   1      38.141  31.576  31.236  1.00  0.00     0.074 A 
ATOM     43  C   UNL A   1      37.743  31.042  29.951  1.00  0.00     0.031 C 
ATOM     44  C   UNL A   1      43.100  27.867  32.898  1.00  0.00     0.029 A 
ATOM     45  C   UNL A   1      42.473  28.931  33.678  1.00  0.00     0.049 A 
ATOM     46  H   UNL A   1      40.834  30.097  33.138  1.00  0.00     0.167 HD
ATOM     47  C   UNL A   1      37.544  32.631  31.841  1.00  0.00     0.037 A 
ATOM     48  C   UNL A   1      42.863  29.337  34.902  1.00  0.00     0.037 A 
ATOM     49  C   UNL A   1      37.894  33.136  33.140  1.00  0.00     0.049 A 
ATOM     50  C   UNL A   1      42.120  30.443  35.597  1.00  0.00     0.074 A 
ATOM     51  C   UNL A   1      37.330  34.191  33.839  1.00  0.00     0.029 A 
ATOM     52  N   UNL A   1      38.887  32.607  33.949  1.00  0.00    -0.354 N 
ATOM     53  N   UNL A   1      41.116  31.162  35.160  1.00  0.00    -0.248 NA
ATOM     54  C   UNL A   1      42.564  30.790  36.956  1.00  0.00     0.031 C 
ATOM     55  C   UNL A   1      37.983  34.297  35.074  1.00  0.00     0.029 A 
ATOM     56  C   UNL A   1      38.943  33.302  35.146  1.00  0.00     0.049 A 
ATOM     57  H   UNL A   1      39.466  31.849  33.709  1.00  0.00     0.167 HD
ATOM     58  C   UNL A   1      40.801  32.039  36.190  1.00  0.00     0.074 A 
ATOM     59  C   UNL A   1      41.713  31.757  37.279  1.00  0.00     0.031 C 
ATOM     60  C   UNL A   1      39.845  32.999  36.227  1.00  0.00     0.037 A 
BRANCH  47  61
ATOM     61  C   UNL A   1      36.448  33.316  31.080  1.00  0.00     0.058 A 
ATOM     62  C   UNL A   1      36.723  34.130  29.971  1.00  0.00     0.135 A 
ATOM     63  C   UNL A   1      35.109  33.165  31.471  1.00  0.00     0.135 A 
ATOM     64  F   UNL A   1      37.991  34.319  29.570  1.00  0.00    -0.206 F 
ATOM     65  C   UNL A   1      35.710  34.798  29.292  1.00  0.00     0.059 A 
ATOM     66  C   UNL A   1      34.077  33.811  30.799  1.00  0.00     0.059 A 
ATOM     67  F   UNL A   1      34.796  32.397  32.527  1.00  0.00    -0.206 F 
ATOM     68  C   UNL A   1      34.391  34.642  29.722  1.00  0.00     0.060 A 
BRANCH  68  69
ATOM     69  S   UNL A   1      33.072  35.528  28.865  1.00  0.00     0.124 S 
ATOM     70  O   UNL A   1      32.442  34.449  28.110  1.00  0.00    -0.237 OA
ATOM     71  O   UNL A   1      32.282  36.077  29.962  1.00  0.00    -0.237 OA
ATOM     72  O   UNL A   1      33.797  36.514  28.068  1.00  0.00    -0.744 OA
ENDBRANCH  68  69
ENDBRANCH  47  61
BRANCH  48  73
ATOM     73  C   UNL A   1      44.004  28.663  35.566  1.00  0.00     0.058 A 
ATOM     74  C   UNL A   1      43.789  27.584  36.434  1.00  0.00     0.135 A 
ATOM     75  C   UNL A   1      45.325  29.071  35.333  1.00  0.00     0.135 A 
ATOM     76  F   UNL A   1      42.539  27.167  36.689  1.00  0.00    -0.206 F 
ATOM     77  C   UNL A   1      44.847  26.928  37.054  1.00  0.00     0.059 A 
ATOM     78  C   UNL A   1      46.400  28.425  35.934  1.00  0.00     0.059 A 
ATOM     79  F   UNL A   1      45.576  30.097  34.505  1.00  0.00    -0.206 F 
ATOM     80  C   UNL A   1      46.150  27.358  36.798  1.00  0.00     0.060 A 
BRANCH  80  81
ATOM     81  S   UNL A   1      47.532  26.472  37.553  1.00  0.00     0.124 S 
ATOM     82  O   UNL A   1      47.543  27.040  38.897  1.00  0.00    -0.237 OA
ATOM     83  O   UNL A   1      47.110  25.078  37.453  1.00  0.00    -0.237 OA
ATOM     84  O   UNL A   1      48.660  26.837  36.701  1.00  0.00    -0.744 OA
ENDBRANCH  80  81
ENDBRANCH  48  73
BRANCH  60  85
ATOM     85  C   UNL A   1      39.720  33.797  37.490  1.00  0.00     0.058 A 
ATOM     86  C   UNL A   1      40.421  34.998  37.663  1.00  0.00     0.135 A 
ATOM     87  C   UNL A   1      38.859  33.378  38.516  1.00  0.00     0.135 A 
ATOM     88  F   UNL A   1      41.258  35.435  36.709  1.00  0.00    -0.206 F 
ATOM     89  C   UNL A   1      40.285  35.757  38.822  1.00  0.00     0.059 A 
ATOM     90  C   UNL A   1      38.700  34.125  39.679  1.00  0.00     0.059 A 
ATOM     91  F   UNL A   1      38.165  32.236  38.393  1.00  0.00    -0.206 F 
ATOM     92  C   UNL A   1      39.424  35.309  39.827  1.00  0.00     0.060 A 
BRANCH  92  93
ATOM     93  S   UNL A   1      39.218  36.307  41.318  1.00  0.00     0.124 S 
ATOM     94  O   UNL A   1      38.040  35.693  41.921  1.00  0.00    -0.237 OA
ATOM     95  O   UNL A   1      40.477  36.092  42.027  1.00  0.00    -0.237 OA
ATOM     96  O   UNL A   1      39.029  37.656  40.792  1.00  0.00    -0.744 OA
ENDBRANCH  92  93
ENDBRANCH  60  85
ENDBRANCH  34  35
ENDBRANCH  26  29
ENDBRANCH  24  25
ENDBRANCH  23  24
ENDBRANCH   1  23
TORSDOF 17
ENDMDL
