MODEL 1
REMARK VINA RESULT:     -10.8      0.000      0.000
REMARK SMILES CC(C)C[C@@H](C(=O)NCCCNC(=O)c1ccc(-c2c3nc(c(-c4c(F)cc(S(=O)(=O)[O-])cc4F)c4ccc([nH]4)c(-c4c(F)cc(S(=O)(=O)[O-])cc4F)c4nc(c(-c5c(F)cc(S(=O)(=O)[O-])cc5F)c5ccc2[nH]5)C=C4)C=C3)cc1)[C@@H]1CCC[C@@H](C)C1
REMARK SMILES IDX 10 1 9 2 8 3 6 4 7 5 5 7 4 8 2 9 1 10 3 11 81 12 82 13 87 14
REMARK SMILES IDX 83 15 85 16 84 17 86 18 11 19 12 20 13 21 14 23 15 24 16 25
REMARK SMILES IDX 80 26 17 27 79 28 18 29 19 30 20 31 73 32 21 33 78 34 72 35
REMARK SMILES IDX 74 36 22 37 77 38 71 39 70 40 23 42 57 43 36 44 56 45 37 46
REMARK SMILES IDX 40 47 55 48 75 49 38 50 39 51 54 53 76 54 41 55 24 56 25 57
REMARK SMILES IDX 34 58 26 59 27 60 33 61 35 62 28 63 29 64 30 65 31 66 32 67
REMARK SMILES IDX 58 68 59 69 68 70 60 71 61 72 67 73 69 74 62 75 63 76 64 77
REMARK SMILES IDX 65 78 66 79 42 80 43 81 52 82 44 83 45 84 51 85 53 86 46 87
REMARK SMILES IDX 47 88 48 89 49 90 50 91
REMARK H PARENT 8 6 12 22 74 41 40 52
REMARK Flexibility Score: inf
ROOT
ATOM      1  C   UNL A   1      33.534  27.663  25.253  1.00  0.00     0.042 C 
ENDROOT
BRANCH   1   2
ATOM      2  C   UNL A   1      33.282  26.209  24.882  1.00  0.00     0.117 C 
BRANCH   2   3
ATOM      3  N   UNL A   1      32.451  25.545  25.868  1.00  0.00    -0.356 N 
ATOM      4  C   UNL A   1      32.361  24.277  26.325  1.00  0.00     0.223 C 
ATOM      5  O   UNL A   1      31.596  24.120  27.287  1.00  0.00    -0.275 OA
ATOM      6  H   UNL A   1      31.811  26.154  26.300  1.00  0.00     0.163 HD
BRANCH   4   7
ATOM      7  C   UNL A   1      33.113  23.063  25.759  1.00  0.00     0.082 C 
BRANCH   7   8
ATOM      8  C   UNL A   1      32.242  21.850  25.335  1.00  0.00     0.016 C 
BRANCH   8   9
ATOM      9  C   UNL A   1      32.089  21.443  23.862  1.00  0.00    -0.017 C 
ATOM     10  C   UNL A   1      32.881  22.355  22.921  1.00  0.00     0.007 C 
ATOM     11  C   UNL A   1      32.586  20.007  23.646  1.00  0.00     0.007 C 
ENDBRANCH   8   9
ENDBRANCH   7   8
BRANCH   7  12
ATOM     12  C   UNL A   1      34.623  22.937  26.162  1.00  0.00     0.002 C 
ATOM     13  C   UNL A   1      35.557  23.970  25.503  1.00  0.00     0.004 C 
ATOM     14  C   UNL A   1      35.308  21.568  26.179  1.00  0.00     0.007 C 
ATOM     15  C   UNL A   1      36.153  23.516  24.174  1.00  0.00     0.001 C 
ATOM     16  C   UNL A   1      35.854  21.094  24.829  1.00  0.00    -0.014 C 
ATOM     17  C   UNL A   1      36.813  22.143  24.261  1.00  0.00     0.003 C 
ATOM     18  C   UNL A   1      36.533  19.726  24.940  1.00  0.00     0.007 C 
ENDBRANCH   7  12
ENDBRANCH   4   7
ENDBRANCH   2   3
ENDBRANCH   1   2
BRANCH   1  19
ATOM     19  C   UNL A   1      33.928  27.888  26.701  1.00  0.00     0.118 C 
BRANCH  19  20
ATOM     20  N   UNL A   1      33.590  29.196  27.239  1.00  0.00    -0.352 N 
ATOM     21  C   UNL A   1      34.338  30.166  27.872  1.00  0.00     0.251 C 
ATOM     22  H   UNL A   1      32.641  29.437  27.130  1.00  0.00     0.163 HD
ATOM     23  O   UNL A   1      33.769  31.200  28.211  1.00  0.00    -0.269 OA
BRANCH  21  24
ATOM     24  C   UNL A   1      35.774  29.975  28.204  1.00  0.00     0.039 A 
ATOM     25  C   UNL A   1      36.112  29.542  29.493  1.00  0.00     0.014 A 
ATOM     26  C   UNL A   1      36.797  30.211  27.291  1.00  0.00     0.014 A 
ATOM     27  C   UNL A   1      37.445  29.260  29.818  1.00  0.00     0.010 A 
ATOM     28  C   UNL A   1      38.092  29.784  27.562  1.00  0.00     0.010 A 
ATOM     29  C   UNL A   1      38.443  29.319  28.835  1.00  0.00    -0.014 A 
BRANCH  29  30
ATOM     30  C   UNL A   1      39.859  28.942  29.099  1.00  0.00     0.031 A 
ATOM     31  C   UNL A   1      40.813  29.964  29.672  1.00  0.00     0.074 A 
ATOM     32  C   UNL A   1      40.321  27.730  28.729  1.00  0.00     0.049 A 
ATOM     33  N   UNL A   1      42.115  29.915  29.782  1.00  0.00    -0.248 NA
ATOM     34  C   UNL A   1      40.225  31.236  30.127  1.00  0.00     0.031 C 
ATOM     35  C   UNL A   1      39.527  26.666  28.109  1.00  0.00     0.029 A 
ATOM     36  N   UNL A   1      41.583  27.193  28.806  1.00  0.00    -0.354 N 
ATOM     37  C   UNL A   1      42.503  31.165  30.255  1.00  0.00     0.074 A 
ATOM     38  C   UNL A   1      41.304  31.968  30.358  1.00  0.00     0.031 C 
ATOM     39  C   UNL A   1      40.309  25.596  27.897  1.00  0.00     0.029 A 
ATOM     40  C   UNL A   1      41.670  25.911  28.314  1.00  0.00     0.049 A 
ATOM     41  H   UNL A   1      42.353  27.680  29.178  1.00  0.00     0.167 HD
ATOM     42  C   UNL A   1      43.738  31.599  30.602  1.00  0.00     0.037 A 
ATOM     43  C   UNL A   1      42.728  25.085  28.204  1.00  0.00     0.037 A 
ATOM     44  C   UNL A   1      44.912  30.767  30.585  1.00  0.00     0.049 A 
ATOM     45  C   UNL A   1      44.079  25.559  28.663  1.00  0.00     0.074 A 
ATOM     46  C   UNL A   1      46.194  31.077  31.002  1.00  0.00     0.029 A 
ATOM     47  N   UNL A   1      44.941  29.452  30.144  1.00  0.00    -0.354 N 
ATOM     48  N   UNL A   1      44.421  26.732  29.143  1.00  0.00    -0.248 NA
ATOM     49  C   UNL A   1      45.188  24.601  28.569  1.00  0.00     0.031 C 
ATOM     50  C   UNL A   1      47.004  29.955  30.794  1.00  0.00     0.029 A 
ATOM     51  C   UNL A   1      46.218  28.936  30.278  1.00  0.00     0.049 A 
ATOM     52  H   UNL A   1      44.166  28.959  29.788  1.00  0.00     0.167 HD
ATOM     53  C   UNL A   1      45.778  26.645  29.429  1.00  0.00     0.074 A 
ATOM     54  C   UNL A   1      46.192  25.301  29.079  1.00  0.00     0.031 C 
ATOM     55  C   UNL A   1      46.607  27.591  29.935  1.00  0.00     0.037 A 
BRANCH  42  56
ATOM     56  C   UNL A   1      43.873  33.030  31.049  1.00  0.00     0.058 A 
ATOM     57  C   UNL A   1      43.654  33.413  32.383  1.00  0.00     0.135 A 
ATOM     58  C   UNL A   1      44.226  34.034  30.132  1.00  0.00     0.135 A 
ATOM     59  F   UNL A   1      43.302  32.497  33.299  1.00  0.00    -0.206 F 
ATOM     60  C   UNL A   1      43.729  34.743  32.781  1.00  0.00     0.059 A 
ATOM     61  C   UNL A   1      44.338  35.368  30.517  1.00  0.00     0.059 A 
ATOM     62  F   UNL A   1      44.452  33.727  28.846  1.00  0.00    -0.206 F 
ATOM     63  C   UNL A   1      44.064  35.715  31.839  1.00  0.00     0.060 A 
BRANCH  63  64
ATOM     64  S   UNL A   1      44.136  37.440  32.365  1.00  0.00     0.124 S 
ATOM     65  O   UNL A   1      43.950  38.137  31.096  1.00  0.00    -0.237 OA
ATOM     66  O   UNL A   1      43.023  37.530  33.304  1.00  0.00    -0.237 OA
ATOM     67  O   UNL A   1      45.464  37.559  32.958  1.00  0.00    -0.744 OA
ENDBRANCH  63  64
ENDBRANCH  42  56
BRANCH  43  68
ATOM     68  C   UNL A   1      42.541  23.709  27.671  1.00  0.00     0.058 A 
ATOM     69  C   UNL A   1      42.497  23.480  26.287  1.00  0.00     0.135 A 
ATOM     70  C   UNL A   1      42.439  22.598  28.522  1.00  0.00     0.135 A 
ATOM     71  F   UNL A   1      42.584  24.512  25.435  1.00  0.00    -0.206 F 
ATOM     72  C   UNL A   1      42.351  22.199  25.765  1.00  0.00     0.059 A 
ATOM     73  C   UNL A   1      42.315  21.304  28.023  1.00  0.00     0.059 A 
ATOM     74  F   UNL A   1      42.495  22.763  29.853  1.00  0.00    -0.206 F 
ATOM     75  C   UNL A   1      42.265  21.116  26.641  1.00  0.00     0.060 A 
BRANCH  75  76
ATOM     76  S   UNL A   1      42.142  19.452  25.950  1.00  0.00     0.124 S 
ATOM     77  O   UNL A   1      40.707  19.335  25.718  1.00  0.00    -0.237 OA
ATOM     78  O   UNL A   1      42.976  19.553  24.756  1.00  0.00    -0.237 OA
ATOM     79  O   UNL A   1      42.683  18.608  27.011  1.00  0.00    -0.744 OA
ENDBRANCH  75  76
ENDBRANCH  43  68
BRANCH  55  80
ATOM     80  C   UNL A   1      48.036  27.199  30.174  1.00  0.00     0.058 A 
ATOM     81  C   UNL A   1      49.041  27.476  29.235  1.00  0.00     0.135 A 
ATOM     82  C   UNL A   1      48.412  26.592  31.382  1.00  0.00     0.135 A 
ATOM     83  F   UNL A   1      48.731  28.050  28.062  1.00  0.00    -0.206 F 
ATOM     84  C   UNL A   1      50.370  27.148  29.480  1.00  0.00     0.059 A 
ATOM     85  C   UNL A   1      49.738  26.276  31.657  1.00  0.00     0.059 A 
ATOM     86  F   UNL A   1      47.488  26.317  32.317  1.00  0.00    -0.206 F 
ATOM     87  C   UNL A   1      50.709  26.549  30.695  1.00  0.00     0.060 A 
BRANCH  87  88
ATOM     88  S   UNL A   1      52.443  26.164  31.018  1.00  0.00     0.124 S 
ATOM     89  O   UNL A   1      52.860  27.322  31.800  1.00  0.00    -0.237 OA
ATOM     90  O   UNL A   1      52.353  24.902  31.748  1.00  0.00    -0.237 OA
ATOM     91  O   UNL A   1      53.022  26.066  29.681  1.00  0.00    -0.744 OA
ENDBRANCH  87  88
ENDBRANCH  55  80
ENDBRANCH  29  30
ENDBRANCH  21  24
ENDBRANCH  19  20
ENDBRANCH   1  19
TORSDOF 16
ENDMDL
MODEL 2
REMARK VINA RESULT:     -10.8      4.983     10.584
REMARK SMILES CC(C)C[C@@H](C(=O)NCCCNC(=O)c1ccc(-c2c3nc(c(-c4c(F)cc(S(=O)(=O)[O-])cc4F)c4ccc([nH]4)c(-c4c(F)cc(S(=O)(=O)[O-])cc4F)c4nc(c(-c5c(F)cc(S(=O)(=O)[O-])cc5F)c5ccc2[nH]5)C=C4)C=C3)cc1)[C@@H]1CCC[C@@H](C)C1
REMARK SMILES IDX 10 1 9 2 8 3 6 4 7 5 5 7 4 8 2 9 1 10 3 11 81 12 82 13 87 14
REMARK SMILES IDX 83 15 85 16 84 17 86 18 11 19 12 20 13 21 14 23 15 24 16 25
REMARK SMILES IDX 80 26 17 27 79 28 18 29 19 30 20 31 73 32 21 33 78 34 72 35
REMARK SMILES IDX 74 36 22 37 77 38 71 39 70 40 23 42 57 43 36 44 56 45 37 46
REMARK SMILES IDX 40 47 55 48 75 49 38 50 39 51 54 53 76 54 41 55 24 56 25 57
REMARK SMILES IDX 34 58 26 59 27 60 33 61 35 62 28 63 29 64 30 65 31 66 32 67
REMARK SMILES IDX 58 68 59 69 68 70 60 71 61 72 67 73 69 74 62 75 63 76 64 77
REMARK SMILES IDX 65 78 66 79 42 80 43 81 52 82 44 83 45 84 51 85 53 86 46 87
REMARK SMILES IDX 47 88 48 89 49 90 50 91
REMARK H PARENT 8 6 12 22 74 41 40 52
REMARK Flexibility Score: inf
ROOT
ATOM      1  C   UNL A   1      37.425  23.753  25.552  1.00  0.00     0.042 C 
ENDROOT
BRANCH   1   2
ATOM      2  C   UNL A   1      36.445  22.591  25.479  1.00  0.00     0.117 C 
BRANCH   2   3
ATOM      3  N   UNL A   1      35.594  22.537  26.653  1.00  0.00    -0.356 N 
ATOM      4  C   UNL A   1      34.309  22.869  26.901  1.00  0.00     0.223 C 
ATOM      5  O   UNL A   1      33.893  22.550  28.025  1.00  0.00    -0.275 OA
ATOM      6  H   UNL A   1      36.057  22.178  27.443  1.00  0.00     0.163 HD
BRANCH   4   7
ATOM      7  C   UNL A   1      33.362  23.585  25.927  1.00  0.00     0.082 C 
BRANCH   7   8
ATOM      8  C   UNL A   1      32.490  22.676  25.019  1.00  0.00     0.016 C 
BRANCH   8   9
ATOM      9  C   UNL A   1      33.112  21.794  23.927  1.00  0.00    -0.017 C 
ATOM     10  C   UNL A   1      33.371  20.364  24.411  1.00  0.00     0.007 C 
ATOM     11  C   UNL A   1      32.184  21.712  22.707  1.00  0.00     0.007 C 
ENDBRANCH   8   9
ENDBRANCH   7   8
BRANCH   7  12
ATOM     12  C   UNL A   1      33.744  25.060  25.552  1.00  0.00     0.002 C 
ATOM     13  C   UNL A   1      32.872  26.142  26.217  1.00  0.00     0.004 C 
ATOM     14  C   UNL A   1      34.010  25.444  24.094  1.00  0.00     0.007 C 
ATOM     15  C   UNL A   1      31.643  26.540  25.406  1.00  0.00     0.001 C 
ATOM     16  C   UNL A   1      32.765  25.788  23.272  1.00  0.00    -0.014 C 
ATOM     17  C   UNL A   1      31.979  26.904  23.963  1.00  0.00     0.003 C 
ATOM     18  C   UNL A   1      33.124  26.172  21.833  1.00  0.00     0.007 C 
ENDBRANCH   7  12
ENDBRANCH   4   7
ENDBRANCH   2   3
ENDBRANCH   1   2
BRANCH   1  19
ATOM     19  C   UNL A   1      38.496  23.612  26.619  1.00  0.00     0.118 C 
BRANCH  19  20
ATOM     20  N   UNL A   1      39.863  23.767  26.149  1.00  0.00    -0.352 N 
ATOM     21  C   UNL A   1      40.867  24.655  26.474  1.00  0.00     0.251 C 
ATOM     22  H   UNL A   1      40.123  23.110  25.463  1.00  0.00     0.163 HD
ATOM     23  O   UNL A   1      41.949  24.531  25.907  1.00  0.00    -0.269 OA
BRANCH  21  24
ATOM     24  C   UNL A   1      40.662  25.774  27.430  1.00  0.00     0.039 A 
ATOM     25  C   UNL A   1      39.736  25.608  28.468  1.00  0.00     0.014 A 
ATOM     26  C   UNL A   1      41.349  26.981  27.337  1.00  0.00     0.014 A 
ATOM     27  C   UNL A   1      39.581  26.599  29.444  1.00  0.00     0.010 A 
ATOM     28  C   UNL A   1      41.312  27.891  28.387  1.00  0.00     0.010 A 
ATOM     29  C   UNL A   1      40.414  27.727  29.449  1.00  0.00    -0.014 A 
BRANCH  29  30
ATOM     30  C   UNL A   1      40.359  28.768  30.513  1.00  0.00     0.031 A 
ATOM     31  C   UNL A   1      41.274  28.665  31.711  1.00  0.00     0.074 A 
ATOM     32  C   UNL A   1      39.423  29.738  30.467  1.00  0.00     0.049 A 
ATOM     33  N   UNL A   1      41.248  29.332  32.836  1.00  0.00    -0.248 NA
ATOM     34  C   UNL A   1      42.322  27.631  31.657  1.00  0.00     0.031 C 
ATOM     35  C   UNL A   1      38.435  29.922  29.401  1.00  0.00     0.029 A 
ATOM     36  N   UNL A   1      39.139  30.748  31.354  1.00  0.00    -0.354 N 
ATOM     37  C   UNL A   1      42.226  28.757  33.640  1.00  0.00     0.074 A 
ATOM     38  C   UNL A   1      42.790  27.652  32.895  1.00  0.00     0.031 C 
ATOM     39  C   UNL A   1      37.681  30.998  29.677  1.00  0.00     0.029 A 
ATOM     40  C   UNL A   1      38.093  31.551  30.962  1.00  0.00     0.049 A 
ATOM     41  H   UNL A   1      39.638  30.885  32.191  1.00  0.00     0.167 HD
ATOM     42  C   UNL A   1      42.643  29.130  34.873  1.00  0.00     0.037 A 
ATOM     43  C   UNL A   1      37.523  32.607  31.573  1.00  0.00     0.037 A 
ATOM     44  C   UNL A   1      42.143  30.285  35.571  1.00  0.00     0.049 A 
ATOM     45  C   UNL A   1      38.048  33.051  32.910  1.00  0.00     0.074 A 
ATOM     46  C   UNL A   1      42.558  30.807  36.783  1.00  0.00     0.029 A 
ATOM     47  N   UNL A   1      41.129  31.110  35.105  1.00  0.00    -0.354 N 
ATOM     48  N   UNL A   1      39.000  32.519  33.639  1.00  0.00    -0.248 NA
ATOM     49  C   UNL A   1      37.426  34.241  33.507  1.00  0.00     0.031 C 
ATOM     50  C   UNL A   1      41.781  31.937  37.061  1.00  0.00     0.029 A 
ATOM     51  C   UNL A   1      40.905  32.137  36.006  1.00  0.00     0.049 A 
ATOM     52  H   UNL A   1      40.642  30.984  34.259  1.00  0.00     0.167 HD
ATOM     53  C   UNL A   1      39.106  33.320  34.770  1.00  0.00     0.074 A 
ATOM     54  C   UNL A   1      38.129  34.380  34.623  1.00  0.00     0.031 C 
ATOM     55  C   UNL A   1      39.935  33.190  35.835  1.00  0.00     0.037 A 
BRANCH  42  56
ATOM     56  C   UNL A   1      43.704  28.291  35.534  1.00  0.00     0.058 A 
ATOM     57  C   UNL A   1      45.072  28.499  35.288  1.00  0.00     0.135 A 
ATOM     58  C   UNL A   1      43.351  27.264  36.424  1.00  0.00     0.135 A 
ATOM     59  F   UNL A   1      45.466  29.459  34.435  1.00  0.00    -0.206 F 
ATOM     60  C   UNL A   1      46.047  27.689  35.859  1.00  0.00     0.059 A 
ATOM     61  C   UNL A   1      44.313  26.461  37.032  1.00  0.00     0.059 A 
ATOM     62  F   UNL A   1      42.061  27.021  36.700  1.00  0.00    -0.206 F 
ATOM     63  C   UNL A   1      45.657  26.666  36.724  1.00  0.00     0.060 A 
BRANCH  63  64
ATOM     64  S   UNL A   1      46.932  25.608  37.440  1.00  0.00     0.124 S 
ATOM     65  O   UNL A   1      47.992  25.718  36.443  1.00  0.00    -0.237 OA
ATOM     66  O   UNL A   1      47.199  26.257  38.720  1.00  0.00    -0.237 OA
ATOM     67  O   UNL A   1      46.282  24.304  37.525  1.00  0.00    -0.744 OA
ENDBRANCH  63  64
ENDBRANCH  42  56
BRANCH  43  68
ATOM     68  C   UNL A   1      36.417  33.341  30.903  1.00  0.00     0.058 A 
ATOM     69  C   UNL A   1      35.109  33.276  31.407  1.00  0.00     0.135 A 
ATOM     70  C   UNL A   1      36.644  34.148  29.777  1.00  0.00     0.135 A 
ATOM     71  F   UNL A   1      34.842  32.513  32.478  1.00  0.00    -0.206 F 
ATOM     72  C   UNL A   1      34.063  33.975  30.815  1.00  0.00     0.059 A 
ATOM     73  C   UNL A   1      35.618  34.875  29.180  1.00  0.00     0.059 A 
ATOM     74  F   UNL A   1      37.881  34.259  29.268  1.00  0.00    -0.206 F 
ATOM     75  C   UNL A   1      34.328  34.777  29.704  1.00  0.00     0.060 A 
BRANCH  75  76
ATOM     76  S   UNL A   1      32.976  35.732  28.983  1.00  0.00     0.124 S 
ATOM     77  O   UNL A   1      32.202  36.087  30.167  1.00  0.00    -0.237 OA
ATOM     78  O   UNL A   1      33.687  36.829  28.333  1.00  0.00    -0.237 OA
ATOM     79  O   UNL A   1      32.341  34.783  28.074  1.00  0.00    -0.744 OA
ENDBRANCH  75  76
ENDBRANCH  43  68
BRANCH  55  80
ATOM     80  C   UNL A   1      39.850  34.237  36.907  1.00  0.00     0.058 A 
ATOM     81  C   UNL A   1      40.519  35.464  36.790  1.00  0.00     0.135 A 
ATOM     82  C   UNL A   1      39.044  34.029  38.037  1.00  0.00     0.135 A 
ATOM     83  F   UNL A   1      41.307  35.707  35.731  1.00  0.00    -0.206 F 
ATOM     84  C   UNL A   1      40.403  36.447  37.768  1.00  0.00     0.059 A 
ATOM     85  C   UNL A   1      38.896  35.007  39.015  1.00  0.00     0.059 A 
ATOM     86  F   UNL A   1      38.376  32.875  38.189  1.00  0.00    -0.206 F 
ATOM     87  C   UNL A   1      39.588  36.209  38.876  1.00  0.00     0.060 A 
BRANCH  87  88
ATOM     88  S   UNL A   1      39.415  37.507  40.119  1.00  0.00     0.124 S 
ATOM     89  O   UNL A   1      38.405  38.365  39.509  1.00  0.00    -0.237 OA
ATOM     90  O   UNL A   1      38.985  36.759  41.297  1.00  0.00    -0.237 OA
ATOM     91  O   UNL A   1      40.757  38.077  40.202  1.00  0.00    -0.744 OA
ENDBRANCH  87  88
ENDBRANCH  55  80
ENDBRANCH  29  30
ENDBRANCH  21  24
ENDBRANCH  19  20
ENDBRANCH   1  19
TORSDOF 16
ENDMDL
MODEL 3
REMARK VINA RESULT:     -10.4      3.100      9.524
REMARK SMILES CC(C)C[C@@H](C(=O)NCCCNC(=O)c1ccc(-c2c3nc(c(-c4c(F)cc(S(=O)(=O)[O-])cc4F)c4ccc([nH]4)c(-c4c(F)cc(S(=O)(=O)[O-])cc4F)c4nc(c(-c5c(F)cc(S(=O)(=O)[O-])cc5F)c5ccc2[nH]5)C=C4)C=C3)cc1)[C@@H]1CCC[C@@H](C)C1
REMARK SMILES IDX 10 1 9 2 8 3 6 4 7 5 5 7 4 8 2 9 1 10 3 11 81 12 82 13 87 14
REMARK SMILES IDX 83 15 85 16 84 17 86 18 11 19 12 20 13 21 14 23 15 24 16 25
REMARK SMILES IDX 80 26 17 27 79 28 18 29 19 30 20 31 73 32 21 33 78 34 72 35
REMARK SMILES IDX 74 36 22 37 77 38 71 39 70 40 23 42 57 43 36 44 56 45 37 46
REMARK SMILES IDX 40 47 55 48 75 49 38 50 39 51 54 53 76 54 41 55 24 56 25 57
REMARK SMILES IDX 34 58 26 59 27 60 33 61 35 62 28 63 29 64 30 65 31 66 32 67
REMARK SMILES IDX 58 68 59 69 68 70 60 71 61 72 67 73 69 74 62 75 63 76 64 77
REMARK SMILES IDX 65 78 66 79 42 80 43 81 52 82 44 83 45 84 51 85 53 86 46 87
REMARK SMILES IDX 47 88 48 89 49 90 50 91
REMARK H PARENT 8 6 12 22 74 41 40 52
REMARK Flexibility Score: inf
ROOT
ATOM      1  C   UNL A   1      35.103  23.622  26.559  1.00  0.00     0.042 C 
ENDROOT
BRANCH   1   2
ATOM      2  C   UNL A   1      33.907  23.033  25.826  1.00  0.00     0.117 C 
BRANCH   2   3
ATOM      3  N   UNL A   1      32.685  23.187  26.592  1.00  0.00    -0.356 N 
ATOM      4  C   UNL A   1      31.659  24.066  26.563  1.00  0.00     0.223 C 
ATOM      5  O   UNL A   1      30.710  23.788  27.310  1.00  0.00    -0.275 OA
ATOM      6  H   UNL A   1      32.578  22.497  27.285  1.00  0.00     0.163 HD
BRANCH   4   7
ATOM      7  C   UNL A   1      31.589  25.337  25.702  1.00  0.00     0.082 C 
BRANCH   7   8
ATOM      8  C   UNL A   1      32.004  26.662  26.396  1.00  0.00     0.016 C 
BRANCH   8   9
ATOM      9  C   UNL A   1      33.422  27.234  26.259  1.00  0.00    -0.017 C 
ATOM     10  C   UNL A   1      33.709  27.745  24.844  1.00  0.00     0.007 C 
ATOM     11  C   UNL A   1      33.627  28.407  27.228  1.00  0.00     0.007 C 
ENDBRANCH   8   9
ENDBRANCH   7   8
BRANCH   7  12
ATOM     12  C   UNL A   1      30.629  25.279  24.464  1.00  0.00     0.002 C 
ATOM     13  C   UNL A   1      31.293  24.821  23.151  1.00  0.00     0.004 C 
ATOM     14  C   UNL A   1      29.670  26.438  24.173  1.00  0.00     0.007 C 
ATOM     15  C   UNL A   1      31.869  25.958  22.312  1.00  0.00     0.001 C 
ATOM     16  C   UNL A   1      30.272  27.600  23.379  1.00  0.00    -0.014 C 
ATOM     17  C   UNL A   1      30.864  27.079  22.067  1.00  0.00     0.003 C 
ATOM     18  C   UNL A   1      29.244  28.705  23.123  1.00  0.00     0.007 C 
ENDBRANCH   7  12
ENDBRANCH   4   7
ENDBRANCH   2   3
ENDBRANCH   1   2
BRANCH   1  19
ATOM     19  C   UNL A   1      36.249  24.050  25.660  1.00  0.00     0.118 C 
BRANCH  19  20
ATOM     20  N   UNL A   1      37.326  23.081  25.526  1.00  0.00    -0.352 N 
ATOM     21  C   UNL A   1      38.613  23.043  26.019  1.00  0.00     0.251 C 
ATOM     22  H   UNL A   1      37.090  22.300  24.975  1.00  0.00     0.163 HD
ATOM     23  O   UNL A   1      39.304  22.067  25.743  1.00  0.00    -0.269 OA
BRANCH  21  24
ATOM     24  C   UNL A   1      39.197  24.157  26.811  1.00  0.00     0.039 A 
ATOM     25  C   UNL A   1      39.997  25.099  26.152  1.00  0.00     0.014 A 
ATOM     26  C   UNL A   1      38.986  24.301  28.179  1.00  0.00     0.014 A 
ATOM     27  C   UNL A   1      40.489  26.215  26.842  1.00  0.00     0.010 A 
ATOM     28  C   UNL A   1      39.339  25.482  28.822  1.00  0.00     0.010 A 
ATOM     29  C   UNL A   1      40.113  26.450  28.172  1.00  0.00    -0.014 A 
BRANCH  29  30
ATOM     30  C   UNL A   1      40.529  27.665  28.926  1.00  0.00     0.031 A 
ATOM     31  C   UNL A   1      41.864  27.688  29.633  1.00  0.00     0.074 A 
ATOM     32  C   UNL A   1      39.677  28.701  29.072  1.00  0.00     0.049 A 
ATOM     33  N   UNL A   1      42.328  28.545  30.505  1.00  0.00    -0.248 NA
ATOM     34  C   UNL A   1      42.774  26.561  29.365  1.00  0.00     0.031 C 
ATOM     35  C   UNL A   1      38.333  28.789  28.496  1.00  0.00     0.029 A 
ATOM     36  N   UNL A   1      39.812  29.877  29.770  1.00  0.00    -0.354 N 
ATOM     37  C   UNL A   1      43.546  28.028  30.934  1.00  0.00     0.074 A 
ATOM     38  C   UNL A   1      43.724  26.756  30.267  1.00  0.00     0.031 C 
ATOM     39  C   UNL A   1      37.784  29.967  28.831  1.00  0.00     0.029 A 
ATOM     40  C   UNL A   1      38.710  30.697  29.689  1.00  0.00     0.049 A 
ATOM     41  H   UNL A   1      40.621  30.111  30.279  1.00  0.00     0.167 HD
ATOM     42  C   UNL A   1      44.452  28.572  31.780  1.00  0.00     0.037 A 
ATOM     43  C   UNL A   1      38.469  31.898  30.249  1.00  0.00     0.037 A 
ATOM     44  C   UNL A   1      44.313  29.878  32.370  1.00  0.00     0.049 A 
ATOM     45  C   UNL A   1      39.518  32.519  31.129  1.00  0.00     0.074 A 
ATOM     46  C   UNL A   1      45.211  30.564  33.167  1.00  0.00     0.029 A 
ATOM     47  N   UNL A   1      43.210  30.703  32.205  1.00  0.00    -0.354 N 
ATOM     48  N   UNL A   1      40.682  32.033  31.493  1.00  0.00    -0.248 NA
ATOM     49  C   UNL A   1      39.227  33.853  31.672  1.00  0.00     0.031 C 
ATOM     50  C   UNL A   1      44.643  31.798  33.503  1.00  0.00     0.029 A 
ATOM     51  C   UNL A   1      43.405  31.892  32.887  1.00  0.00     0.049 A 
ATOM     52  H   UNL A   1      42.408  30.477  31.681  1.00  0.00     0.167 HD
ATOM     53  C   UNL A   1      41.269  33.009  32.289  1.00  0.00     0.074 A 
ATOM     54  C   UNL A   1      40.339  34.118  32.344  1.00  0.00     0.031 C 
ATOM     55  C   UNL A   1      42.470  32.989  32.919  1.00  0.00     0.037 A 
BRANCH  42  56
ATOM     56  C   UNL A   1      45.680  27.762  32.101  1.00  0.00     0.058 A 
ATOM     57  C   UNL A   1      46.793  27.734  31.243  1.00  0.00     0.135 A 
ATOM     58  C   UNL A   1      45.748  27.004  33.281  1.00  0.00     0.135 A 
ATOM     59  F   UNL A   1      46.778  28.429  30.094  1.00  0.00    -0.206 F 
ATOM     60  C   UNL A   1      47.904  26.945  31.516  1.00  0.00     0.059 A 
ATOM     61  C   UNL A   1      46.865  26.232  33.591  1.00  0.00     0.059 A 
ATOM     62  F   UNL A   1      44.718  26.996  34.141  1.00  0.00    -0.206 F 
ATOM     63  C   UNL A   1      47.928  26.190  32.689  1.00  0.00     0.060 A 
BRANCH  63  64
ATOM     64  S   UNL A   1      49.368  25.153  33.020  1.00  0.00     0.124 S 
ATOM     65  O   UNL A   1      48.757  24.028  33.724  1.00  0.00    -0.237 OA
ATOM     66  O   UNL A   1      49.864  24.865  31.679  1.00  0.00    -0.237 OA
ATOM     67  O   UNL A   1      50.224  26.011  33.832  1.00  0.00    -0.744 OA
ENDBRANCH  63  64
ENDBRANCH  42  56
BRANCH  43  68
ATOM     68  C   UNL A   1      37.195  32.607  29.960  1.00  0.00     0.058 A 
ATOM     69  C   UNL A   1      36.045  32.346  30.721  1.00  0.00     0.135 A 
ATOM     70  C   UNL A   1      37.106  33.580  28.952  1.00  0.00     0.135 A 
ATOM     71  F   UNL A   1      36.080  31.421  31.691  1.00  0.00    -0.206 F 
ATOM     72  C   UNL A   1      34.848  33.016  30.488  1.00  0.00     0.059 A 
ATOM     73  C   UNL A   1      35.926  34.280  28.716  1.00  0.00     0.059 A 
ATOM     74  F   UNL A   1      38.183  33.879  28.210  1.00  0.00    -0.206 F 
ATOM     75  C   UNL A   1      34.800  33.986  29.486  1.00  0.00     0.060 A 
BRANCH  75  76
ATOM     76  S   UNL A   1      33.261  34.897  29.236  1.00  0.00     0.124 S 
ATOM     77  O   UNL A   1      33.752  36.169  28.722  1.00  0.00    -0.237 OA
ATOM     78  O   UNL A   1      32.554  34.051  28.279  1.00  0.00    -0.237 OA
ATOM     79  O   UNL A   1      32.676  34.938  30.573  1.00  0.00    -0.744 OA
ENDBRANCH  75  76
ENDBRANCH  43  68
BRANCH  55  80
ATOM     80  C   UNL A   1      42.864  34.215  33.692  1.00  0.00     0.058 A 
ATOM     81  C   UNL A   1      42.580  34.343  35.059  1.00  0.00     0.135 A 
ATOM     82  C   UNL A   1      43.584  35.245  33.068  1.00  0.00     0.135 A 
ATOM     83  F   UNL A   1      41.888  33.387  35.699  1.00  0.00    -0.206 F 
ATOM     84  C   UNL A   1      42.983  35.462  35.780  1.00  0.00     0.059 A 
ATOM     85  C   UNL A   1      44.017  36.362  33.775  1.00  0.00     0.059 A 
ATOM     86  F   UNL A   1      43.889  35.163  31.763  1.00  0.00    -0.206 F 
ATOM     87  C   UNL A   1      43.703  36.466  35.129  1.00  0.00     0.060 A 
BRANCH  87  88
ATOM     88  S   UNL A   1      44.255  37.895  36.084  1.00  0.00     0.124 S 
ATOM     89  O   UNL A   1      45.674  37.605  36.251  1.00  0.00    -0.237 OA
ATOM     90  O   UNL A   1      43.935  39.009  35.195  1.00  0.00    -0.237 OA
ATOM     91  O   UNL A   1      43.450  37.821  37.299  1.00  0.00    -0.744 OA
ENDBRANCH  87  88
ENDBRANCH  55  80
ENDBRANCH  29  30
ENDBRANCH  21  24
ENDBRANCH  19  20
ENDBRANCH   1  19
TORSDOF 16
ENDMDL
