MODEL 1
REMARK VINA RESULT:     -10.7      0.000      0.000
REMARK SMILES C[C@@H](Oc1cncc(C(=O)NCCCNC(=O)c2ccc(-c3c4nc(c(-c5c(F)cc(S(=O)(=O)[O-])cc5F)c5ccc([nH]5)c(-c5c(F)cc(S(=O)(=O)[O-])cc5F)c5nc(c(-c6c(F)cc(S(=O)(=O)[O-])cc6F)c6ccc3[nH]6)C=C5)C=C4)cc2)n1)C(F)(F)F
REMARK SMILES IDX 13 1 12 2 11 3 9 4 10 5 8 7 4 8 5 9 84 10 6 11 7 12 3 13
REMARK SMILES IDX 2 14 1 15 85 16 86 17 87 18 88 19 14 20 15 21 16 22 17 24
REMARK SMILES IDX 18 25 19 26 83 27 20 28 82 29 21 30 22 31 23 32 76 33 24 34
REMARK SMILES IDX 81 35 75 36 77 37 25 38 80 39 74 40 73 41 26 43 60 44 39 45
REMARK SMILES IDX 59 46 40 47 43 48 58 49 78 50 41 51 42 52 57 54 79 55 44 56
REMARK SMILES IDX 27 57 28 58 37 59 29 60 30 61 36 62 38 63 31 64 32 65 33 66
REMARK SMILES IDX 34 67 35 68 61 69 62 70 71 71 63 72 64 73 70 74 72 75 65 76
REMARK SMILES IDX 66 77 67 78 68 79 69 80 45 81 46 82 55 83 47 84 48 85 54 86
REMARK SMILES IDX 56 87 49 88 50 89 51 90 52 91 53 92
REMARK H PARENT 11 6 15 23 77 42 43 53
REMARK Flexibility Score: inf
ROOT
ATOM      1  C   UNL A   1      40.944  21.172  27.554  1.00  0.00     0.042 C 
ENDROOT
BRANCH   1   2
ATOM      2  C   UNL A   1      42.250  20.407  27.740  1.00  0.00     0.118 C 
BRANCH   2   3
ATOM      3  N   UNL A   1      42.184  19.094  27.121  1.00  0.00    -0.351 N 
ATOM      4  C   UNL A   1      42.892  18.527  26.091  1.00  0.00     0.271 C 
ATOM      5  O   UNL A   1      42.576  17.382  25.756  1.00  0.00    -0.267 OA
ATOM      6  H   UNL A   1      41.503  18.500  27.513  1.00  0.00     0.163 HD
BRANCH   4   7
ATOM      7  C   UNL A   1      44.043  19.186  25.408  1.00  0.00     0.150 A 
ATOM      8  C   UNL A   1      45.050  20.971  24.383  1.00  0.00     0.233 A 
ATOM      9  C   UNL A   1      46.286  20.348  24.518  1.00  0.00     0.179 A 
ATOM     10  N   UNL A   1      43.906  20.409  24.827  1.00  0.00    -0.205 NA
ATOM     11  N   UNL A   1      46.430  19.106  25.034  1.00  0.00    -0.257 NA
ATOM     12  C   UNL A   1      45.278  18.545  25.483  1.00  0.00     0.145 A 
BRANCH   8  13
ATOM     13  O   UNL A   1      44.974  22.288  24.019  1.00  0.00    -0.464 OA
BRANCH  13  14
ATOM     14  C   UNL A   1      44.814  23.191  25.134  1.00  0.00     0.277 C 
ATOM     15  C   UNL A   1      43.492  23.950  24.993  1.00  0.00     0.063 C 
BRANCH  14  16
ATOM     16  C   UNL A   1      45.973  24.196  25.117  1.00  0.00     0.425 C 
ATOM     17  F   UNL A   1      45.543  25.423  24.740  1.00  0.00    -0.167 F 
ATOM     18  F   UNL A   1      46.542  24.323  26.335  1.00  0.00    -0.167 F 
ATOM     19  F   UNL A   1      46.937  23.824  24.244  1.00  0.00    -0.167 F 
ENDBRANCH  14  16
ENDBRANCH  13  14
ENDBRANCH   8  13
ENDBRANCH   4   7
ENDBRANCH   2   3
ENDBRANCH   1   2
BRANCH   1  20
ATOM     20  C   UNL A   1      40.696  21.613  26.111  1.00  0.00     0.118 C 
BRANCH  20  21
ATOM     21  N   UNL A   1      39.280  21.815  25.822  1.00  0.00    -0.352 N 
ATOM     22  C   UNL A   1      38.454  22.867  26.131  1.00  0.00     0.251 C 
ATOM     23  H   UNL A   1      38.849  21.081  25.328  1.00  0.00     0.163 HD
ATOM     24  O   UNL A   1      37.239  22.748  25.984  1.00  0.00    -0.269 OA
BRANCH  22  25
ATOM     25  C   UNL A   1      39.015  24.130  26.652  1.00  0.00     0.039 A 
ATOM     26  C   UNL A   1      38.883  24.421  28.013  1.00  0.00     0.014 A 
ATOM     27  C   UNL A   1      39.664  25.029  25.803  1.00  0.00     0.014 A 
ATOM     28  C   UNL A   1      39.484  25.567  28.537  1.00  0.00     0.010 A 
ATOM     29  C   UNL A   1      40.321  26.134  26.337  1.00  0.00     0.010 A 
ATOM     30  C   UNL A   1      40.254  26.404  27.712  1.00  0.00    -0.014 A 
BRANCH  30  31
ATOM     31  C   UNL A   1      41.041  27.535  28.269  1.00  0.00     0.031 A 
ATOM     32  C   UNL A   1      40.344  28.736  28.844  1.00  0.00     0.074 A 
ATOM     33  C   UNL A   1      42.386  27.511  28.174  1.00  0.00     0.049 A 
ATOM     34  N   UNL A   1      40.854  29.871  29.248  1.00  0.00    -0.248 NA
ATOM     35  C   UNL A   1      38.879  28.660  28.965  1.00  0.00     0.031 C 
ATOM     36  C   UNL A   1      43.176  26.413  27.610  1.00  0.00     0.029 A 
ATOM     37  N   UNL A   1      43.330  28.444  28.528  1.00  0.00    -0.354 N 
ATOM     38  C   UNL A   1      39.777  30.644  29.668  1.00  0.00     0.074 A 
ATOM     39  C   UNL A   1      38.580  29.868  29.424  1.00  0.00     0.031 C 
ATOM     40  C   UNL A   1      44.480  26.731  27.667  1.00  0.00     0.029 A 
ATOM     41  C   UNL A   1      44.618  28.074  28.219  1.00  0.00     0.049 A 
ATOM     42  H   UNL A   1      43.105  29.298  28.963  1.00  0.00     0.167 HD
ATOM     43  C   UNL A   1      39.791  31.877  30.228  1.00  0.00     0.037 A 
ATOM     44  C   UNL A   1      45.777  28.750  28.337  1.00  0.00     0.037 A 
ATOM     45  C   UNL A   1      40.988  32.639  30.476  1.00  0.00     0.049 A 
ATOM     46  C   UNL A   1      45.753  30.146  28.902  1.00  0.00     0.074 A 
ATOM     47  C   UNL A   1      41.107  33.884  31.067  1.00  0.00     0.029 A 
ATOM     48  N   UNL A   1      42.272  32.230  30.146  1.00  0.00    -0.354 N 
ATOM     49  N   UNL A   1      44.731  30.840  29.342  1.00  0.00    -0.248 NA
ATOM     50  C   UNL A   1      47.040  30.853  28.983  1.00  0.00     0.031 C 
ATOM     51  C   UNL A   1      42.456  34.251  31.051  1.00  0.00     0.029 A 
ATOM     52  C   UNL A   1      43.186  33.212  30.497  1.00  0.00     0.049 A 
ATOM     53  H   UNL A   1      42.501  31.370  29.724  1.00  0.00     0.167 HD
ATOM     54  C   UNL A   1      45.255  32.054  29.774  1.00  0.00     0.074 A 
ATOM     55  C   UNL A   1      46.686  31.991  29.565  1.00  0.00     0.031 C 
ATOM     56  C   UNL A   1      44.610  33.128  30.293  1.00  0.00     0.037 A 
BRANCH  43  57
ATOM     57  C   UNL A   1      38.475  32.484  30.630  1.00  0.00     0.058 A 
ATOM     58  C   UNL A   1      37.698  33.216  29.717  1.00  0.00     0.135 A 
ATOM     59  C   UNL A   1      37.944  32.264  31.912  1.00  0.00     0.135 A 
ATOM     60  F   UNL A   1      38.164  33.471  28.484  1.00  0.00    -0.206 F 
ATOM     61  C   UNL A   1      36.447  33.716  30.063  1.00  0.00     0.059 A 
ATOM     62  C   UNL A   1      36.682  32.731  32.270  1.00  0.00     0.059 A 
ATOM     63  F   UNL A   1      38.645  31.573  32.824  1.00  0.00    -0.206 F 
ATOM     64  C   UNL A   1      35.943  33.462  31.340  1.00  0.00     0.060 A 
BRANCH  64  65
ATOM     65  S   UNL A   1      34.301  34.083  31.754  1.00  0.00     0.124 S 
ATOM     66  O   UNL A   1      34.622  35.354  32.397  1.00  0.00    -0.237 OA
ATOM     67  O   UNL A   1      33.667  34.180  30.443  1.00  0.00    -0.237 OA
ATOM     68  O   UNL A   1      33.759  33.055  32.636  1.00  0.00    -0.744 OA
ENDBRANCH  64  65
ENDBRANCH  43  57
BRANCH  44  69
ATOM     69  C   UNL A   1      47.061  28.136  27.898  1.00  0.00     0.058 A 
ATOM     70  C   UNL A   1      47.567  28.366  26.610  1.00  0.00     0.135 A 
ATOM     71  C   UNL A   1      47.788  27.279  28.739  1.00  0.00     0.135 A 
ATOM     72  F   UNL A   1      46.906  29.172  25.765  1.00  0.00    -0.206 F 
ATOM     73  C   UNL A   1      48.723  27.739  26.157  1.00  0.00     0.059 A 
ATOM     74  C   UNL A   1      48.965  26.666  28.321  1.00  0.00     0.059 A 
ATOM     75  F   UNL A   1      47.360  27.037  29.988  1.00  0.00    -0.206 F 
ATOM     76  C   UNL A   1      49.413  26.886  27.019  1.00  0.00     0.060 A 
BRANCH  76  77
ATOM     77  S   UNL A   1      50.912  26.075  26.423  1.00  0.00     0.124 S 
ATOM     78  O   UNL A   1      50.625  25.942  24.999  1.00  0.00    -0.237 OA
ATOM     79  O   UNL A   1      51.946  27.041  26.778  1.00  0.00    -0.237 OA
ATOM     80  O   UNL A   1      50.943  24.828  27.180  1.00  0.00    -0.744 OA
ENDBRANCH  76  77
ENDBRANCH  44  69
BRANCH  56  81
ATOM     81  C   UNL A   1      45.446  34.313  30.695  1.00  0.00     0.058 A 
ATOM     82  C   UNL A   1      46.016  34.407  31.973  1.00  0.00     0.135 A 
ATOM     83  C   UNL A   1      45.728  35.333  29.774  1.00  0.00     0.135 A 
ATOM     84  F   UNL A   1      45.770  33.463  32.897  1.00  0.00    -0.206 F 
ATOM     85  C   UNL A   1      46.824  35.482  32.331  1.00  0.00     0.059 A 
ATOM     86  C   UNL A   1      46.558  36.402  30.097  1.00  0.00     0.059 A 
ATOM     87  F   UNL A   1      45.212  35.287  28.534  1.00  0.00    -0.206 F 
ATOM     88  C   UNL A   1      47.095  36.471  31.383  1.00  0.00     0.060 A 
BRANCH  88  89
ATOM     89  S   UNL A   1      48.186  37.832  31.845  1.00  0.00     0.124 S 
ATOM     90  O   UNL A   1      47.867  37.998  33.260  1.00  0.00    -0.237 OA
ATOM     91  O   UNL A   1      49.507  37.284  31.553  1.00  0.00    -0.237 OA
ATOM     92  O   UNL A   1      47.761  38.922  30.973  1.00  0.00    -0.744 OA
ENDBRANCH  88  89
ENDBRANCH  56  81
ENDBRANCH  30  31
ENDBRANCH  22  25
ENDBRANCH  20  21
ENDBRANCH   1  20
TORSDOF 16
ENDMDL
MODEL 2
REMARK VINA RESULT:     -10.5      0.881      8.468
REMARK SMILES C[C@@H](Oc1cncc(C(=O)NCCCNC(=O)c2ccc(-c3c4nc(c(-c5c(F)cc(S(=O)(=O)[O-])cc5F)c5ccc([nH]5)c(-c5c(F)cc(S(=O)(=O)[O-])cc5F)c5nc(c(-c6c(F)cc(S(=O)(=O)[O-])cc6F)c6ccc3[nH]6)C=C5)C=C4)cc2)n1)C(F)(F)F
REMARK SMILES IDX 13 1 12 2 11 3 9 4 10 5 8 7 4 8 5 9 84 10 6 11 7 12 3 13
REMARK SMILES IDX 2 14 1 15 85 16 86 17 87 18 88 19 14 20 15 21 16 22 17 24
REMARK SMILES IDX 18 25 19 26 83 27 20 28 82 29 21 30 22 31 23 32 76 33 24 34
REMARK SMILES IDX 81 35 75 36 77 37 25 38 80 39 74 40 73 41 26 43 60 44 39 45
REMARK SMILES IDX 59 46 40 47 43 48 58 49 78 50 41 51 42 52 57 54 79 55 44 56
REMARK SMILES IDX 27 57 28 58 37 59 29 60 30 61 36 62 38 63 31 64 32 65 33 66
REMARK SMILES IDX 34 67 35 68 61 69 62 70 71 71 63 72 64 73 70 74 72 75 65 76
REMARK SMILES IDX 66 77 67 78 68 79 69 80 45 81 46 82 55 83 47 84 48 85 54 86
REMARK SMILES IDX 56 87 49 88 50 89 51 90 52 91 53 92
REMARK H PARENT 11 6 15 23 77 42 43 53
REMARK Flexibility Score: inf
ROOT
ATOM      1  C   UNL A   1      40.740  21.200  27.479  1.00  0.00     0.042 C 
ENDROOT
BRANCH   1   2
ATOM      2  C   UNL A   1      42.068  20.471  27.652  1.00  0.00     0.118 C 
BRANCH   2   3
ATOM      3  N   UNL A   1      42.025  19.149  27.052  1.00  0.00    -0.351 N 
ATOM      4  C   UNL A   1      42.775  18.566  26.062  1.00  0.00     0.271 C 
ATOM      5  O   UNL A   1      42.471  17.416  25.731  1.00  0.00    -0.267 OA
ATOM      6  H   UNL A   1      41.328  18.562  27.424  1.00  0.00     0.163 HD
BRANCH   4   7
ATOM      7  C   UNL A   1      43.955  19.213  25.417  1.00  0.00     0.150 A 
ATOM      8  C   UNL A   1      45.004  20.976  24.399  1.00  0.00     0.233 A 
ATOM      9  C   UNL A   1      46.233  20.361  24.604  1.00  0.00     0.179 A 
ATOM     10  N   UNL A   1      43.842  20.421  24.803  1.00  0.00    -0.205 NA
ATOM     11  N   UNL A   1      46.356  19.132  25.154  1.00  0.00    -0.257 NA
ATOM     12  C   UNL A   1      45.187  18.577  25.563  1.00  0.00     0.145 A 
BRANCH   8  13
ATOM     13  O   UNL A   1      44.942  22.284  24.001  1.00  0.00    -0.464 OA
BRANCH  13  14
ATOM     14  C   UNL A   1      44.901  23.223  25.097  1.00  0.00     0.277 C 
ATOM     15  C   UNL A   1      43.655  24.104  24.971  1.00  0.00     0.063 C 
BRANCH  14  16
ATOM     16  C   UNL A   1      46.150  24.112  25.025  1.00  0.00     0.425 C 
ATOM     17  F   UNL A   1      46.924  23.773  23.968  1.00  0.00    -0.167 F 
ATOM     18  F   UNL A   1      45.828  25.416  24.891  1.00  0.00    -0.167 F 
ATOM     19  F   UNL A   1      46.912  23.984  26.137  1.00  0.00    -0.167 F 
ENDBRANCH  14  16
ENDBRANCH  13  14
ENDBRANCH   8  13
ENDBRANCH   4   7
ENDBRANCH   2   3
ENDBRANCH   1   2
BRANCH   1  20
ATOM     20  C   UNL A   1      40.497  21.694  26.053  1.00  0.00     0.118 C 
BRANCH  20  21
ATOM     21  N   UNL A   1      39.133  22.171  25.849  1.00  0.00    -0.352 N 
ATOM     22  C   UNL A   1      38.541  23.351  26.228  1.00  0.00     0.251 C 
ATOM     23  H   UNL A   1      38.544  21.550  25.364  1.00  0.00     0.163 HD
ATOM     24  O   UNL A   1      37.319  23.470  26.148  1.00  0.00    -0.269 OA
BRANCH  22  25
ATOM     25  C   UNL A   1      39.360  24.466  26.745  1.00  0.00     0.039 A 
ATOM     26  C   UNL A   1      40.042  25.283  25.839  1.00  0.00     0.014 A 
ATOM     27  C   UNL A   1      39.462  24.702  28.118  1.00  0.00     0.014 A 
ATOM     28  C   UNL A   1      40.750  26.393  26.306  1.00  0.00     0.010 A 
ATOM     29  C   UNL A   1      40.109  25.848  28.576  1.00  0.00     0.010 A 
ATOM     30  C   UNL A   1      40.743  26.715  27.673  1.00  0.00    -0.014 A 
BRANCH  30  31
ATOM     31  C   UNL A   1      41.343  27.977  28.179  1.00  0.00     0.031 A 
ATOM     32  C   UNL A   1      42.837  28.140  28.232  1.00  0.00     0.074 A 
ATOM     33  C   UNL A   1      40.537  28.939  28.672  1.00  0.00     0.049 A 
ATOM     34  N   UNL A   1      43.542  29.104  28.764  1.00  0.00    -0.248 NA
ATOM     35  C   UNL A   1      43.644  27.071  27.622  1.00  0.00     0.031 C 
ATOM     36  C   UNL A   1      39.072  28.883  28.702  1.00  0.00     0.029 A 
ATOM     37  N   UNL A   1      40.830  30.143  29.263  1.00  0.00    -0.354 N 
ATOM     38  C   UNL A   1      44.874  28.761  28.556  1.00  0.00     0.074 A 
ATOM     39  C   UNL A   1      44.879  27.474  27.894  1.00  0.00     0.031 C 
ATOM     40  C   UNL A   1      38.599  30.004  29.269  1.00  0.00     0.029 A 
ATOM     41  C   UNL A   1      39.721  30.834  29.693  1.00  0.00     0.049 A 
ATOM     42  H   UNL A   1      41.749  30.480  29.368  1.00  0.00     0.167 HD
ATOM     43  C   UNL A   1      45.986  29.466  28.869  1.00  0.00     0.037 A 
ATOM     44  C   UNL A   1      39.618  31.989  30.378  1.00  0.00     0.037 A 
ATOM     45  C   UNL A   1      45.972  30.751  29.520  1.00  0.00     0.049 A 
ATOM     46  C   UNL A   1      40.876  32.719  30.770  1.00  0.00     0.074 A 
ATOM     47  C   UNL A   1      47.046  31.559  29.851  1.00  0.00     0.029 A 
ATOM     48  N   UNL A   1      44.829  31.415  29.942  1.00  0.00    -0.354 N 
ATOM     49  N   UNL A   1      42.125  32.404  30.520  1.00  0.00    -0.248 NA
ATOM     50  C   UNL A   1      40.713  33.959  31.543  1.00  0.00     0.031 C 
ATOM     51  C   UNL A   1      46.557  32.688  30.516  1.00  0.00     0.029 A 
ATOM     52  C   UNL A   1      45.175  32.609  30.554  1.00  0.00     0.049 A 
ATOM     53  H   UNL A   1      43.909  31.086  29.824  1.00  0.00     0.167 HD
ATOM     54  C   UNL A   1      42.891  33.419  31.081  1.00  0.00     0.074 A 
ATOM     55  C   UNL A   1      41.967  34.369  31.664  1.00  0.00     0.031 C 
ATOM     56  C   UNL A   1      44.241  33.551  31.118  1.00  0.00     0.037 A 
BRANCH  43  57
ATOM     57  C   UNL A   1      47.321  28.879  28.500  1.00  0.00     0.058 A 
ATOM     58  C   UNL A   1      48.016  28.033  29.380  1.00  0.00     0.135 A 
ATOM     59  C   UNL A   1      47.873  29.095  27.227  1.00  0.00     0.135 A 
ATOM     60  F   UNL A   1      47.542  27.806  30.615  1.00  0.00    -0.206 F 
ATOM     61  C   UNL A   1      49.215  27.429  29.014  1.00  0.00     0.059 A 
ATOM     62  C   UNL A   1      49.058  28.479  26.830  1.00  0.00     0.059 A 
ATOM     63  F   UNL A   1      47.252  29.896  26.348  1.00  0.00    -0.206 F 
ATOM     64  C   UNL A   1      49.724  27.652  27.734  1.00  0.00     0.060 A 
BRANCH  64  65
ATOM     65  S   UNL A   1      51.258  26.826  27.265  1.00  0.00     0.124 S 
ATOM     66  O   UNL A   1      50.926  25.427  27.515  1.00  0.00    -0.237 OA
ATOM     67  O   UNL A   1      51.396  27.202  25.861  1.00  0.00    -0.237 OA
ATOM     68  O   UNL A   1      52.248  27.406  28.168  1.00  0.00    -0.744 OA
ENDBRANCH  64  65
ENDBRANCH  43  57
BRANCH  44  69
ATOM     69  C   UNL A   1      38.284  32.528  30.760  1.00  0.00     0.058 A 
ATOM     70  C   UNL A   1      37.566  33.363  29.890  1.00  0.00     0.135 A 
ATOM     71  C   UNL A   1      37.714  32.251  32.013  1.00  0.00     0.135 A 
ATOM     72  F   UNL A   1      38.070  33.664  28.683  1.00  0.00    -0.206 F 
ATOM     73  C   UNL A   1      36.355  33.937  30.261  1.00  0.00     0.059 A 
ATOM     74  C   UNL A   1      36.487  32.786  32.395  1.00  0.00     0.059 A 
ATOM     75  F   UNL A   1      38.348  31.443  32.878  1.00  0.00    -0.206 F 
ATOM     76  C   UNL A   1      35.826  33.646  31.520  1.00  0.00     0.060 A 
BRANCH  76  77
ATOM     77  S   UNL A   1      34.253  34.395  31.995  1.00  0.00     0.124 S 
ATOM     78  O   UNL A   1      34.697  35.651  32.590  1.00  0.00    -0.237 OA
ATOM     79  O   UNL A   1      33.566  34.504  30.713  1.00  0.00    -0.237 OA
ATOM     80  O   UNL A   1      33.686  33.423  32.923  1.00  0.00    -0.744 OA
ENDBRANCH  76  77
ENDBRANCH  44  69
BRANCH  56  81
ATOM     81  C   UNL A   1      44.801  34.778  31.786  1.00  0.00     0.058 A 
ATOM     82  C   UNL A   1      45.155  34.778  33.143  1.00  0.00     0.135 A 
ATOM     83  C   UNL A   1      45.042  35.945  31.045  1.00  0.00     0.135 A 
ATOM     84  F   UNL A   1      44.935  33.690  33.900  1.00  0.00    -0.206 F 
ATOM     85  C   UNL A   1      45.712  35.899  33.748  1.00  0.00     0.059 A 
ATOM     86  C   UNL A   1      45.627  37.069  31.620  1.00  0.00     0.059 A 
ATOM     87  F   UNL A   1      44.729  35.996  29.740  1.00  0.00    -0.206 F 
ATOM     88  C   UNL A   1      45.952  37.038  32.977  1.00  0.00     0.060 A 
BRANCH  88  89
ATOM     89  S   UNL A   1      46.723  38.467  33.765  1.00  0.00     0.124 S 
ATOM     90  O   UNL A   1      45.563  39.296  34.074  1.00  0.00    -0.237 OA
ATOM     91  O   UNL A   1      47.395  37.863  34.912  1.00  0.00    -0.237 OA
ATOM     92  O   UNL A   1      47.611  38.990  32.730  1.00  0.00    -0.744 OA
ENDBRANCH  88  89
ENDBRANCH  56  81
ENDBRANCH  30  31
ENDBRANCH  22  25
ENDBRANCH  20  21
ENDBRANCH   1  20
TORSDOF 16
ENDMDL
MODEL 3
REMARK VINA RESULT:     -10.4      5.074      9.570
REMARK SMILES C[C@@H](Oc1cncc(C(=O)NCCCNC(=O)c2ccc(-c3c4nc(c(-c5c(F)cc(S(=O)(=O)[O-])cc5F)c5ccc([nH]5)c(-c5c(F)cc(S(=O)(=O)[O-])cc5F)c5nc(c(-c6c(F)cc(S(=O)(=O)[O-])cc6F)c6ccc3[nH]6)C=C5)C=C4)cc2)n1)C(F)(F)F
REMARK SMILES IDX 13 1 12 2 11 3 9 4 10 5 8 7 4 8 5 9 84 10 6 11 7 12 3 13
REMARK SMILES IDX 2 14 1 15 85 16 86 17 87 18 88 19 14 20 15 21 16 22 17 24
REMARK SMILES IDX 18 25 19 26 83 27 20 28 82 29 21 30 22 31 23 32 76 33 24 34
REMARK SMILES IDX 81 35 75 36 77 37 25 38 80 39 74 40 73 41 26 43 60 44 39 45
REMARK SMILES IDX 59 46 40 47 43 48 58 49 78 50 41 51 42 52 57 54 79 55 44 56
REMARK SMILES IDX 27 57 28 58 37 59 29 60 30 61 36 62 38 63 31 64 32 65 33 66
REMARK SMILES IDX 34 67 35 68 61 69 62 70 71 71 63 72 64 73 70 74 72 75 65 76
REMARK SMILES IDX 66 77 67 78 68 79 69 80 45 81 46 82 55 83 47 84 48 85 54 86
REMARK SMILES IDX 56 87 49 88 50 89 51 90 52 91 53 92
REMARK H PARENT 11 6 15 23 77 42 43 53
REMARK Flexibility Score: inf
ROOT
ATOM      1  C   UNL A   1      40.750  21.392  27.000  1.00  0.00     0.042 C 
ENDROOT
BRANCH   1   2
ATOM      2  C   UNL A   1      41.901  20.567  27.566  1.00  0.00     0.118 C 
BRANCH   2   3
ATOM      3  N   UNL A   1      41.935  19.238  26.978  1.00  0.00    -0.351 N 
ATOM      4  C   UNL A   1      42.775  18.662  26.059  1.00  0.00     0.271 C 
ATOM      5  O   UNL A   1      42.523  17.503  25.718  1.00  0.00    -0.267 OA
ATOM      6  H   UNL A   1      41.222  18.640  27.299  1.00  0.00     0.163 HD
BRANCH   4   7
ATOM      7  C   UNL A   1      43.990  19.329  25.506  1.00  0.00     0.150 A 
ATOM      8  C   UNL A   1      45.472  21.071  25.372  1.00  0.00     0.233 A 
ATOM      9  C   UNL A   1      46.367  20.254  24.691  1.00  0.00     0.179 A 
ATOM     10  N   UNL A   1      44.270  20.628  25.797  1.00  0.00    -0.205 NA
ATOM     11  N   UNL A   1      46.077  18.982  24.338  1.00  0.00    -0.257 NA
ATOM     12  C   UNL A   1      44.870  18.538  24.770  1.00  0.00     0.145 A 
BRANCH   8  13
ATOM     13  O   UNL A   1      45.873  22.286  25.856  1.00  0.00    -0.464 OA
BRANCH  13  14
ATOM     14  C   UNL A   1      45.522  23.397  25.003  1.00  0.00     0.277 C 
ATOM     15  C   UNL A   1      46.790  23.981  24.374  1.00  0.00     0.063 C 
BRANCH  14  16
ATOM     16  C   UNL A   1      44.847  24.476  25.860  1.00  0.00     0.425 C 
ATOM     17  F   UNL A   1      44.049  23.917  26.800  1.00  0.00    -0.167 F 
ATOM     18  F   UNL A   1      45.752  25.245  26.501  1.00  0.00    -0.167 F 
ATOM     19  F   UNL A   1      44.069  25.289  25.107  1.00  0.00    -0.167 F 
ENDBRANCH  14  16
ENDBRANCH  13  14
ENDBRANCH   8  13
ENDBRANCH   4   7
ENDBRANCH   2   3
ENDBRANCH   1   2
BRANCH   1  20
ATOM     20  C   UNL A   1      40.812  22.870  27.387  1.00  0.00     0.118 C 
BRANCH  20  21
ATOM     21  N   UNL A   1      40.994  23.744  26.232  1.00  0.00    -0.352 N 
ATOM     22  C   UNL A   1      40.970  25.114  26.144  1.00  0.00     0.251 C 
ATOM     23  H   UNL A   1      41.161  23.277  25.382  1.00  0.00     0.163 HD
ATOM     24  O   UNL A   1      40.934  25.650  25.038  1.00  0.00    -0.269 OA
BRANCH  22  25
ATOM     25  C   UNL A   1      40.970  25.941  27.367  1.00  0.00     0.039 A 
ATOM     26  C   UNL A   1      42.082  26.740  27.646  1.00  0.00     0.014 A 
ATOM     27  C   UNL A   1      39.881  25.925  28.242  1.00  0.00     0.014 A 
ATOM     28  C   UNL A   1      42.062  27.594  28.751  1.00  0.00     0.010 A 
ATOM     29  C   UNL A   1      39.833  26.826  29.303  1.00  0.00     0.010 A 
ATOM     30  C   UNL A   1      40.915  27.682  29.557  1.00  0.00    -0.014 A 
BRANCH  30  31
ATOM     31  C   UNL A   1      40.798  28.698  30.636  1.00  0.00     0.031 A 
ATOM     32  C   UNL A   1      41.640  28.587  31.877  1.00  0.00     0.074 A 
ATOM     33  C   UNL A   1      39.869  29.668  30.530  1.00  0.00     0.049 A 
ATOM     34  N   UNL A   1      41.583  29.292  32.978  1.00  0.00    -0.248 NA
ATOM     35  C   UNL A   1      42.670  27.535  31.891  1.00  0.00     0.031 C 
ATOM     36  C   UNL A   1      38.972  29.862  29.387  1.00  0.00     0.029 A 
ATOM     37  N   UNL A   1      39.504  30.664  31.403  1.00  0.00    -0.354 N 
ATOM     38  C   UNL A   1      42.563  28.771  33.815  1.00  0.00     0.074 A 
ATOM     39  C   UNL A   1      43.168  27.658  33.114  1.00  0.00     0.031 C 
ATOM     40  C   UNL A   1      38.173  30.914  29.624  1.00  0.00     0.029 A 
ATOM     41  C   UNL A   1      38.458  31.438  30.955  1.00  0.00     0.049 A 
ATOM     42  H   UNL A   1      39.950  30.811  32.268  1.00  0.00     0.167 HD
ATOM     43  C   UNL A   1      42.939  29.199  35.043  1.00  0.00     0.037 A 
ATOM     44  C   UNL A   1      37.785  32.437  31.558  1.00  0.00     0.037 A 
ATOM     45  C   UNL A   1      42.337  30.313  35.730  1.00  0.00     0.049 A 
ATOM     46  C   UNL A   1      38.182  32.847  32.952  1.00  0.00     0.074 A 
ATOM     47  C   UNL A   1      42.669  30.843  36.964  1.00  0.00     0.029 A 
ATOM     48  N   UNL A   1      41.280  31.069  35.244  1.00  0.00    -0.354 N 
ATOM     49  N   UNL A   1      39.146  32.377  33.707  1.00  0.00    -0.248 NA
ATOM     50  C   UNL A   1      37.397  33.921  33.579  1.00  0.00     0.031 C 
ATOM     51  C   UNL A   1      41.783  31.886  37.247  1.00  0.00     0.029 A 
ATOM     52  C   UNL A   1      40.930  32.042  36.167  1.00  0.00     0.049 A 
ATOM     53  H   UNL A   1      40.842  30.933  34.372  1.00  0.00     0.167 HD
ATOM     54  C   UNL A   1      39.099  33.114  34.885  1.00  0.00     0.074 A 
ATOM     55  C   UNL A   1      38.027  34.076  34.734  1.00  0.00     0.031 C 
ATOM     56  C   UNL A   1      39.868  33.001  35.996  1.00  0.00     0.037 A 
BRANCH  43  57
ATOM     57  C   UNL A   1      44.064  28.474  35.729  1.00  0.00     0.058 A 
ATOM     58  C   UNL A   1      45.401  28.864  35.549  1.00  0.00     0.135 A 
ATOM     59  C   UNL A   1      43.802  27.436  36.638  1.00  0.00     0.135 A 
ATOM     60  F   UNL A   1      45.711  29.840  34.680  1.00  0.00    -0.206 F 
ATOM     61  C   UNL A   1      46.439  28.244  36.238  1.00  0.00     0.059 A 
ATOM     62  C   UNL A   1      44.823  26.820  37.359  1.00  0.00     0.059 A 
ATOM     63  F   UNL A   1      42.543  27.022  36.846  1.00  0.00    -0.206 F 
ATOM     64  C   UNL A   1      46.139  27.228  37.147  1.00  0.00     0.060 A 
BRANCH  64  65
ATOM     65  S   UNL A   1      47.496  26.467  38.061  1.00  0.00     0.124 S 
ATOM     66  O   UNL A   1      46.788  25.864  39.187  1.00  0.00    -0.237 OA
ATOM     67  O   UNL A   1      48.041  25.530  37.083  1.00  0.00    -0.237 OA
ATOM     68  O   UNL A   1      48.359  27.595  38.395  1.00  0.00    -0.744 OA
ENDBRANCH  64  65
ENDBRANCH  43  57
BRANCH  44  69
ATOM     69  C   UNL A   1      36.651  33.112  30.867  1.00  0.00     0.058 A 
ATOM     70  C   UNL A   1      36.882  34.058  29.858  1.00  0.00     0.135 A 
ATOM     71  C   UNL A   1      35.318  32.854  31.225  1.00  0.00     0.135 A 
ATOM     72  F   UNL A   1      38.139  34.345  29.483  1.00  0.00    -0.206 F 
ATOM     73  C   UNL A   1      35.839  34.754  29.257  1.00  0.00     0.059 A 
ATOM     74  C   UNL A   1      34.255  33.513  30.615  1.00  0.00     0.059 A 
ATOM     75  F   UNL A   1      35.038  31.945  32.172  1.00  0.00    -0.206 F 
ATOM     76  C   UNL A   1      34.527  34.478  29.646  1.00  0.00     0.060 A 
BRANCH  76  77
ATOM     77  S   UNL A   1      33.179  35.386  28.862  1.00  0.00     0.124 S 
ATOM     78  O   UNL A   1      32.466  35.909  30.022  1.00  0.00    -0.237 OA
ATOM     79  O   UNL A   1      33.897  36.369  28.058  1.00  0.00    -0.237 OA
ATOM     80  O   UNL A   1      32.478  34.356  28.102  1.00  0.00    -0.744 OA
ENDBRANCH  76  77
ENDBRANCH  44  69
BRANCH  56  81
ATOM     81  C   UNL A   1      39.601  33.958  37.126  1.00  0.00     0.058 A 
ATOM     82  C   UNL A   1      38.855  33.574  38.251  1.00  0.00     0.135 A 
ATOM     83  C   UNL A   1      40.147  35.250  37.111  1.00  0.00     0.135 A 
ATOM     84  F   UNL A   1      38.301  32.352  38.311  1.00  0.00    -0.206 F 
ATOM     85  C   UNL A   1      38.644  34.446  39.314  1.00  0.00     0.059 A 
ATOM     86  C   UNL A   1      39.977  36.129  38.176  1.00  0.00     0.059 A 
ATOM     87  F   UNL A   1      40.876  35.666  36.062  1.00  0.00    -0.206 F 
ATOM     88  C   UNL A   1      39.216  35.719  39.272  1.00  0.00     0.060 A 
BRANCH  88  89
ATOM     89  S   UNL A   1      38.977  36.819  40.682  1.00  0.00     0.124 S 
ATOM     90  O   UNL A   1      38.300  37.953  40.061  1.00  0.00    -0.237 OA
ATOM     91  O   UNL A   1      38.160  36.004  41.576  1.00  0.00    -0.237 OA
ATOM     92  O   UNL A   1      40.336  37.078  41.147  1.00  0.00    -0.744 OA
ENDBRANCH  88  89
ENDBRANCH  56  81
ENDBRANCH  30  31
ENDBRANCH  22  25
ENDBRANCH  20  21
ENDBRANCH   1  20
TORSDOF 16
ENDMDL
