MODEL 1
REMARK VINA RESULT:     -11.6      0.000      0.000
REMARK SMILES C[C@@H](C(=O)NCCCNC(=O)c1ccc(-c2c3nc(c(-c4c(F)cc(S(=O)(=O)[O-])cc4F)c4ccc([nH]4)c(-c4c(F)cc(S(=O)(=O)[O-])cc4F)c4nc(c(-c5c(F)cc(S(=O)(=O)[O-])cc5F)c5ccc2[nH]5)C=C4)C=C3)cc1)N(C)C(=O)NC[C@H]1C[N@@H+]2CCC[C@@H]2CO1
REMARK SMILES IDX 6 1 5 2 3 3 4 4 2 6 1 7 78 8 79 9 80 10 81 11 82 12 83 14
REMARK SMILES IDX 84 15 85 16 92 17 86 18 91 19 87 20 90 21 88 23 89 24 7 25
REMARK SMILES IDX 8 26 9 27 10 28 11 30 12 31 13 32 77 33 14 34 76 35 15 36
REMARK SMILES IDX 16 37 17 38 70 39 18 40 75 41 69 42 71 43 19 44 74 45 68 46
REMARK SMILES IDX 67 47 20 49 54 50 33 51 53 52 34 53 37 54 52 55 72 56 35 57
REMARK SMILES IDX 36 58 51 60 73 61 38 62 21 63 22 64 31 65 23 66 24 67 30 68
REMARK SMILES IDX 32 69 25 70 26 71 27 72 28 73 29 74 55 75 56 76 65 77 57 78
REMARK SMILES IDX 58 79 64 80 66 81 59 82 60 83 61 84 62 85 63 86 39 87 40 88
REMARK SMILES IDX 49 89 41 90 42 91 48 92 50 93 43 94 44 95 45 96 46 97 47 98
REMARK H PARENT 5 5 82 13 86 22 9 29 71 48 37 59
REMARK Flexibility Score: inf
ROOT
ATOM      1  C   UNL A   1      38.208  22.025  25.737  1.00  0.00     0.117 C 
ENDROOT
BRANCH   1   2
ATOM      2  N   UNL A   1      37.522  22.440  24.533  1.00  0.00    -0.354 N 
ATOM      3  C   UNL A   1      36.201  22.355  24.197  1.00  0.00     0.242 C 
ATOM      4  O   UNL A   1      35.858  22.994  23.198  1.00  0.00    -0.273 OA
ATOM      5  H   UNL A   1      38.097  22.851  23.848  1.00  0.00     0.163 HD
BRANCH   3   6
ATOM      6  C   UNL A   1      35.206  21.566  25.096  1.00  0.00     0.172 C 
ATOM      7  C   UNL A   1      35.274  20.045  24.942  1.00  0.00     0.042 C 
BRANCH   6   8
ATOM      8  N   UNL A   1      33.834  22.104  24.928  1.00  0.00    -0.316 N 
ATOM      9  C   UNL A   1      32.992  21.390  23.992  1.00  0.00     0.149 C 
BRANCH   8  10
ATOM     10  C   UNL A   1      33.407  23.059  25.813  1.00  0.00     0.317 C 
ATOM     11  O   UNL A   1      33.688  23.021  27.014  1.00  0.00    -0.249 OA
ATOM     12  N   UNL A   1      32.661  24.111  25.439  1.00  0.00    -0.335 N 
ATOM     13  H   UNL A   1      32.294  24.583  26.220  1.00  0.00     0.165 HD
BRANCH  12  14
ATOM     14  C   UNL A   1      32.249  24.744  24.199  1.00  0.00     0.155 C 
BRANCH  14  15
ATOM     15  C   UNL A   1      31.240  25.904  24.375  1.00  0.00     0.192 C 
ATOM     16  C   UNL A   1      31.156  26.466  25.822  1.00  0.00     0.296 C 
ATOM     17  O   UNL A   1      31.415  26.892  23.341  1.00  0.00    -0.364 OA
ATOM     18  N   UNL A   1      32.024  27.610  26.108  1.00  0.00    -0.328 N 
ATOM     19  C   UNL A   1      31.165  28.223  23.792  1.00  0.00     0.225 C 
ATOM     20  C   UNL A   1      31.660  28.313  27.342  1.00  0.00     0.262 C 
ATOM     21  C   UNL A   1      32.048  28.588  24.997  1.00  0.00     0.210 C 
ATOM     22  H   UNL A   1      32.953  27.204  26.226  1.00  0.00     0.348 HD
ATOM     23  C   UNL A   1      32.014  29.765  27.078  1.00  0.00     0.068 C 
ATOM     24  C   UNL A   1      31.658  29.930  25.614  1.00  0.00     0.073 C 
ENDBRANCH  14  15
ENDBRANCH  12  14
ENDBRANCH   8  10
ENDBRANCH   6   8
ENDBRANCH   3   6
ENDBRANCH   1   2
BRANCH   1  25
ATOM     25  C   UNL A   1      38.604  23.201  26.623  1.00  0.00     0.042 C 
BRANCH  25  26
ATOM     26  C   UNL A   1      40.081  23.243  27.010  1.00  0.00     0.118 C 
BRANCH  26  27
ATOM     27  N   UNL A   1      40.891  24.007  26.073  1.00  0.00    -0.352 N 
ATOM     28  C   UNL A   1      41.319  25.310  26.110  1.00  0.00     0.251 C 
ATOM     29  H   UNL A   1      41.180  23.504  25.277  1.00  0.00     0.163 HD
ATOM     30  O   UNL A   1      41.855  25.782  25.108  1.00  0.00    -0.269 OA
BRANCH  28  31
ATOM     31  C   UNL A   1      41.133  26.157  27.312  1.00  0.00     0.039 A 
ATOM     32  C   UNL A   1      42.166  27.027  27.674  1.00  0.00     0.014 A 
ATOM     33  C   UNL A   1      39.992  26.070  28.115  1.00  0.00     0.014 A 
ATOM     34  C   UNL A   1      42.030  27.846  28.798  1.00  0.00     0.010 A 
ATOM     35  C   UNL A   1      39.828  26.937  29.197  1.00  0.00     0.010 A 
ATOM     36  C   UNL A   1      40.845  27.833  29.552  1.00  0.00    -0.014 A 
BRANCH  36  37
ATOM     37  C   UNL A   1      40.664  28.774  30.690  1.00  0.00     0.031 A 
ATOM     38  C   UNL A   1      41.510  28.661  31.929  1.00  0.00     0.074 A 
ATOM     39  C   UNL A   1      39.706  29.719  30.614  1.00  0.00     0.049 A 
ATOM     40  N   UNL A   1      41.490  29.397  33.012  1.00  0.00    -0.248 NA
ATOM     41  C   UNL A   1      42.492  27.565  31.970  1.00  0.00     0.031 C 
ATOM     42  C   UNL A   1      38.778  29.893  29.494  1.00  0.00     0.029 A 
ATOM     43  N   UNL A   1      39.350  30.710  31.494  1.00  0.00    -0.354 N 
ATOM     44  C   UNL A   1      42.451  28.859  33.859  1.00  0.00     0.074 A 
ATOM     45  C   UNL A   1      42.999  27.699  33.188  1.00  0.00     0.031 C 
ATOM     46  C   UNL A   1      37.977  30.940  29.743  1.00  0.00     0.029 A 
ATOM     47  C   UNL A   1      38.314  31.497  31.050  1.00  0.00     0.049 A 
ATOM     48  H   UNL A   1      39.794  30.844  32.363  1.00  0.00     0.167 HD
ATOM     49  C   UNL A   1      42.858  29.302  35.074  1.00  0.00     0.037 A 
ATOM     50  C   UNL A   1      37.702  32.549  31.627  1.00  0.00     0.037 A 
ATOM     51  C   UNL A   1      42.318  30.464  35.735  1.00  0.00     0.049 A 
ATOM     52  C   UNL A   1      38.183  33.034  32.966  1.00  0.00     0.074 A 
ATOM     53  C   UNL A   1      42.697  31.022  36.944  1.00  0.00     0.029 A 
ATOM     54  N   UNL A   1      41.285  31.248  35.242  1.00  0.00    -0.354 N 
ATOM     55  N   UNL A   1      39.139  32.549  33.723  1.00  0.00    -0.248 NA
ATOM     56  C   UNL A   1      37.513  34.216  33.523  1.00  0.00     0.031 C 
ATOM     57  C   UNL A   1      41.869  32.121  37.200  1.00  0.00     0.029 A 
ATOM     58  C   UNL A   1      41.003  32.275  36.130  1.00  0.00     0.049 A 
ATOM     59  H   UNL A   1      40.820  31.098  34.388  1.00  0.00     0.167 HD
ATOM     60  C   UNL A   1      39.192  33.374  34.841  1.00  0.00     0.074 A 
ATOM     61  C   UNL A   1      38.190  34.403  34.647  1.00  0.00     0.031 C 
ATOM     62  C   UNL A   1      39.994  33.285  35.931  1.00  0.00     0.037 A 
BRANCH  49  63
ATOM     63  C   UNL A   1      43.952  28.533  35.764  1.00  0.00     0.058 A 
ATOM     64  C   UNL A   1      45.306  28.838  35.553  1.00  0.00     0.135 A 
ATOM     65  C   UNL A   1      43.647  27.511  36.676  1.00  0.00     0.135 A 
ATOM     66  F   UNL A   1      45.655  29.798  34.681  1.00  0.00    -0.206 F 
ATOM     67  C   UNL A   1      46.320  28.139  36.199  1.00  0.00     0.059 A 
ATOM     68  C   UNL A   1      44.646  26.815  37.355  1.00  0.00     0.059 A 
ATOM     69  F   UNL A   1      42.370  27.178  36.918  1.00  0.00    -0.206 F 
ATOM     70  C   UNL A   1      45.980  27.128  37.098  1.00  0.00     0.060 A 
BRANCH  70  71
ATOM     71  S   UNL A   1      47.307  26.234  37.937  1.00  0.00     0.124 S 
ATOM     72  O   UNL A   1      48.487  26.944  37.449  1.00  0.00    -0.237 OA
ATOM     73  O   UNL A   1      46.982  26.446  39.346  1.00  0.00    -0.237 OA
ATOM     74  O   UNL A   1      47.153  24.868  37.460  1.00  0.00    -0.744 OA
ENDBRANCH  70  71
ENDBRANCH  49  63
BRANCH  50  75
ATOM     75  C   UNL A   1      36.581  33.228  30.925  1.00  0.00     0.058 A 
ATOM     76  C   UNL A   1      35.259  33.088  31.370  1.00  0.00     0.135 A 
ATOM     77  C   UNL A   1      36.814  34.047  29.810  1.00  0.00     0.135 A 
ATOM     78  F   UNL A   1      34.986  32.311  32.429  1.00  0.00    -0.206 F 
ATOM     79  C   UNL A   1      34.202  33.722  30.724  1.00  0.00     0.059 A 
ATOM     80  C   UNL A   1      35.778  34.711  29.162  1.00  0.00     0.059 A 
ATOM     81  F   UNL A   1      38.065  34.229  29.357  1.00  0.00    -0.206 F 
ATOM     82  C   UNL A   1      34.473  34.535  29.621  1.00  0.00     0.060 A 
BRANCH  82  83
ATOM     83  S   UNL A   1      33.103  35.400  28.823  1.00  0.00     0.124 S 
ATOM     84  O   UNL A   1      32.489  34.328  28.049  1.00  0.00    -0.237 OA
ATOM     85  O   UNL A   1      32.335  35.884  29.967  1.00  0.00    -0.237 OA
ATOM     86  O   UNL A   1      33.772  36.439  28.046  1.00  0.00    -0.744 OA
ENDBRANCH  82  83
ENDBRANCH  50  75
BRANCH  62  87
ATOM     87  C   UNL A   1      39.823  34.338  36.991  1.00  0.00     0.058 A 
ATOM     88  C   UNL A   1      38.967  34.144  38.086  1.00  0.00     0.135 A 
ATOM     89  C   UNL A   1      40.530  35.549  36.916  1.00  0.00     0.135 A 
ATOM     90  F   UNL A   1      38.264  33.007  38.201  1.00  0.00    -0.206 F 
ATOM     91  C   UNL A   1      38.788  35.131  39.051  1.00  0.00     0.059 A 
ATOM     92  C   UNL A   1      40.386  36.538  37.885  1.00  0.00     0.059 A 
ATOM     93  F   UNL A   1      41.371  35.780  35.895  1.00  0.00    -0.206 F 
ATOM     94  C   UNL A   1      39.498  36.327  38.939  1.00  0.00     0.060 A 
BRANCH  94  95
ATOM     95  S   UNL A   1      39.257  37.601  40.195  1.00  0.00     0.124 S 
ATOM     96  O   UNL A   1      40.577  38.223  40.238  1.00  0.00    -0.237 OA
ATOM     97  O   UNL A   1      38.191  38.414  39.620  1.00  0.00    -0.237 OA
ATOM     98  O   UNL A   1      38.883  36.839  41.383  1.00  0.00    -0.744 OA
ENDBRANCH  94  95
ENDBRANCH  62  87
ENDBRANCH  36  37
ENDBRANCH  28  31
ENDBRANCH  26  27
ENDBRANCH  25  26
ENDBRANCH   1  25
TORSDOF 17
ENDMDL
MODEL 2
REMARK VINA RESULT:     -11.6      6.515     12.178
REMARK SMILES C[C@@H](C(=O)NCCCNC(=O)c1ccc(-c2c3nc(c(-c4c(F)cc(S(=O)(=O)[O-])cc4F)c4ccc([nH]4)c(-c4c(F)cc(S(=O)(=O)[O-])cc4F)c4nc(c(-c5c(F)cc(S(=O)(=O)[O-])cc5F)c5ccc2[nH]5)C=C4)C=C3)cc1)N(C)C(=O)NC[C@H]1C[N@@H+]2CCC[C@@H]2CO1
REMARK SMILES IDX 6 1 5 2 3 3 4 4 2 6 1 7 78 8 79 9 80 10 81 11 82 12 83 14
REMARK SMILES IDX 84 15 85 16 92 17 86 18 91 19 87 20 90 21 88 23 89 24 7 25
REMARK SMILES IDX 8 26 9 27 10 28 11 30 12 31 13 32 77 33 14 34 76 35 15 36
REMARK SMILES IDX 16 37 17 38 70 39 18 40 75 41 69 42 71 43 19 44 74 45 68 46
REMARK SMILES IDX 67 47 20 49 54 50 33 51 53 52 34 53 37 54 52 55 72 56 35 57
REMARK SMILES IDX 36 58 51 60 73 61 38 62 21 63 22 64 31 65 23 66 24 67 30 68
REMARK SMILES IDX 32 69 25 70 26 71 27 72 28 73 29 74 55 75 56 76 65 77 57 78
REMARK SMILES IDX 58 79 64 80 66 81 59 82 60 83 61 84 62 85 63 86 39 87 40 88
REMARK SMILES IDX 49 89 41 90 42 91 48 92 50 93 43 94 44 95 45 96 46 97 47 98
REMARK H PARENT 5 5 82 13 86 22 9 29 71 48 37 59
REMARK Flexibility Score: inf
ROOT
ATOM      1  C   UNL A   1      33.785  30.912  27.475  1.00  0.00     0.117 C 
ENDROOT
BRANCH   1   2
ATOM      2  N   UNL A   1      32.615  31.167  26.662  1.00  0.00    -0.354 N 
ATOM      3  C   UNL A   1      31.942  30.346  25.803  1.00  0.00     0.242 C 
ATOM      4  O   UNL A   1      30.845  30.757  25.415  1.00  0.00    -0.273 OA
ATOM      5  H   UNL A   1      32.244  32.075  26.743  1.00  0.00     0.163 HD
BRANCH   3   6
ATOM      6  C   UNL A   1      32.517  28.948  25.433  1.00  0.00     0.172 C 
ATOM      7  C   UNL A   1      33.262  28.897  24.097  1.00  0.00     0.042 C 
BRANCH   6   8
ATOM      8  N   UNL A   1      31.455  27.918  25.542  1.00  0.00    -0.316 N 
ATOM      9  C   UNL A   1      30.634  27.737  24.364  1.00  0.00     0.149 C 
BRANCH   8  10
ATOM     10  C   UNL A   1      31.481  27.083  26.628  1.00  0.00     0.317 C 
ATOM     11  O   UNL A   1      31.321  27.492  27.781  1.00  0.00    -0.249 OA
ATOM     12  N   UNL A   1      31.672  25.758  26.518  1.00  0.00    -0.335 N 
ATOM     13  H   UNL A   1      31.847  25.350  27.396  1.00  0.00     0.165 HD
BRANCH  12  14
ATOM     14  C   UNL A   1      31.690  24.764  25.460  1.00  0.00     0.155 C 
BRANCH  14  15
ATOM     15  C   UNL A   1      32.878  24.894  24.477  1.00  0.00     0.192 C 
ATOM     16  C   UNL A   1      34.266  25.034  25.165  1.00  0.00     0.296 C 
ATOM     17  O   UNL A   1      32.801  23.888  23.449  1.00  0.00    -0.364 OA
ATOM     18  N   UNL A   1      34.997  23.782  25.374  1.00  0.00    -0.328 N 
ATOM     19  C   UNL A   1      34.081  23.419  23.027  1.00  0.00     0.225 C 
ATOM     20  C   UNL A   1      36.414  23.990  25.690  1.00  0.00     0.262 C 
ATOM     21  C   UNL A   1      34.902  22.875  24.207  1.00  0.00     0.210 C 
ATOM     22  H   UNL A   1      34.543  23.351  26.179  1.00  0.00     0.348 HD
ATOM     23  C   UNL A   1      37.124  22.792  25.087  1.00  0.00     0.068 C 
ATOM     24  C   UNL A   1      36.341  22.553  23.811  1.00  0.00     0.073 C 
ENDBRANCH  14  15
ENDBRANCH  12  14
ENDBRANCH   8  10
ENDBRANCH   6   8
ENDBRANCH   3   6
ENDBRANCH   1   2
BRANCH   1  25
ATOM     25  C   UNL A   1      34.441  32.193  27.977  1.00  0.00     0.042 C 
BRANCH  25  26
ATOM     26  C   UNL A   1      35.771  31.991  28.700  1.00  0.00     0.118 C 
BRANCH  26  27
ATOM     27  N   UNL A   1      35.627  31.281  29.963  1.00  0.00    -0.352 N 
ATOM     28  C   UNL A   1      36.444  30.366  30.577  1.00  0.00     0.251 C 
ATOM     29  H   UNL A   1      34.805  31.494  30.461  1.00  0.00     0.163 HD
ATOM     30  O   UNL A   1      36.021  29.772  31.569  1.00  0.00    -0.269 OA
BRANCH  28  31
ATOM     31  C   UNL A   1      37.802  30.066  30.064  1.00  0.00     0.039 A 
ATOM     32  C   UNL A   1      38.847  29.952  30.986  1.00  0.00     0.014 A 
ATOM     33  C   UNL A   1      38.072  29.951  28.698  1.00  0.00     0.014 A 
ATOM     34  C   UNL A   1      40.142  29.666  30.545  1.00  0.00     0.010 A 
ATOM     35  C   UNL A   1      39.352  29.597  28.263  1.00  0.00     0.010 A 
ATOM     36  C   UNL A   1      40.401  29.452  29.181  1.00  0.00    -0.014 A 
BRANCH  36  37
ATOM     37  C   UNL A   1      41.759  29.053  28.724  1.00  0.00     0.031 A 
ATOM     38  C   UNL A   1      42.877  30.058  28.652  1.00  0.00     0.074 A 
ATOM     39  C   UNL A   1      41.975  27.779  28.342  1.00  0.00     0.049 A 
ATOM     40  N   UNL A   1      44.121  29.883  28.282  1.00  0.00    -0.248 NA
ATOM     41  C   UNL A   1      42.553  31.445  29.023  1.00  0.00     0.031 C 
ATOM     42  C   UNL A   1      40.958  26.724  28.305  1.00  0.00     0.029 A 
ATOM     43  N   UNL A   1      43.116  27.152  27.909  1.00  0.00    -0.354 N 
ATOM     44  C   UNL A   1      44.726  31.130  28.374  1.00  0.00     0.074 A 
ATOM     45  C   UNL A   1      43.700  32.066  28.783  1.00  0.00     0.031 C 
ATOM     46  C   UNL A   1      41.526  25.579  27.899  1.00  0.00     0.029 A 
ATOM     47  C   UNL A   1      42.938  25.821  27.619  1.00  0.00     0.049 A 
ATOM     48  H   UNL A   1      43.981  27.613  27.815  1.00  0.00     0.167 HD
ATOM     49  C   UNL A   1      46.024  31.463  28.162  1.00  0.00     0.037 A 
ATOM     50  C   UNL A   1      43.812  24.894  27.178  1.00  0.00     0.037 A 
ATOM     51  C   UNL A   1      47.046  30.526  27.766  1.00  0.00     0.049 A 
ATOM     52  C   UNL A   1      45.248  25.283  26.968  1.00  0.00     0.074 A 
ATOM     53  C   UNL A   1      48.397  30.757  27.573  1.00  0.00     0.029 A 
ATOM     54  N   UNL A   1      46.831  29.181  27.503  1.00  0.00    -0.354 N 
ATOM     55  N   UNL A   1      45.816  26.455  27.123  1.00  0.00    -0.248 NA
ATOM     56  C   UNL A   1      46.166  24.220  26.536  1.00  0.00     0.031 C 
ATOM     57  C   UNL A   1      48.993  29.559  27.159  1.00  0.00     0.029 A 
ATOM     58  C   UNL A   1      48.021  28.573  27.135  1.00  0.00     0.049 A 
ATOM     59  H   UNL A   1      45.961  28.726  27.569  1.00  0.00     0.167 HD
ATOM     60  C   UNL A   1      47.160  26.268  26.819  1.00  0.00     0.074 A 
ATOM     61  C   UNL A   1      47.323  24.865  26.497  1.00  0.00     0.031 C 
ATOM     62  C   UNL A   1      48.167  27.177  26.804  1.00  0.00     0.037 A 
BRANCH  49  63
ATOM     63  C   UNL A   1      46.416  32.901  28.368  1.00  0.00     0.058 A 
ATOM     64  C   UNL A   1      46.299  33.846  27.336  1.00  0.00     0.135 A 
ATOM     65  C   UNL A   1      46.873  33.350  29.617  1.00  0.00     0.135 A 
ATOM     66  F   UNL A   1      45.880  33.469  26.118  1.00  0.00    -0.206 F 
ATOM     67  C   UNL A   1      46.648  35.180  27.526  1.00  0.00     0.059 A 
ATOM     68  C   UNL A   1      47.203  34.686  29.837  1.00  0.00     0.059 A 
ATOM     69  F   UNL A   1      47.002  32.490  30.639  1.00  0.00    -0.206 F 
ATOM     70  C   UNL A   1      47.099  35.590  28.781  1.00  0.00     0.060 A 
BRANCH  70  71
ATOM     71  S   UNL A   1      47.540  37.326  29.016  1.00  0.00     0.124 S 
ATOM     72  O   UNL A   1      48.212  37.627  27.754  1.00  0.00    -0.237 OA
ATOM     73  O   UNL A   1      46.234  37.956  29.200  1.00  0.00    -0.237 OA
ATOM     74  O   UNL A   1      48.394  37.304  30.194  1.00  0.00    -0.744 OA
ENDBRANCH  70  71
ENDBRANCH  49  63
BRANCH  50  75
ATOM     75  C   UNL A   1      43.351  23.503  26.929  1.00  0.00     0.058 A 
ATOM     76  C   UNL A   1      43.155  23.029  25.625  1.00  0.00     0.135 A 
ATOM     77  C   UNL A   1      43.119  22.615  27.991  1.00  0.00     0.135 A 
ATOM     78  F   UNL A   1      43.359  23.842  24.577  1.00  0.00    -0.206 F 
ATOM     79  C   UNL A   1      42.728  21.728  25.379  1.00  0.00     0.059 A 
ATOM     80  C   UNL A   1      42.716  21.302  27.771  1.00  0.00     0.059 A 
ATOM     81  F   UNL A   1      43.311  23.016  29.258  1.00  0.00    -0.206 F 
ATOM     82  C   UNL A   1      42.514  20.870  26.460  1.00  0.00     0.060 A 
BRANCH  82  83
ATOM     83  S   UNL A   1      42.015  19.166  26.131  1.00  0.00     0.124 S 
ATOM     84  O   UNL A   1      42.895  18.810  25.024  1.00  0.00    -0.237 OA
ATOM     85  O   UNL A   1      42.294  18.511  27.406  1.00  0.00    -0.237 OA
ATOM     86  O   UNL A   1      40.599  19.291  25.799  1.00  0.00    -0.744 OA
ENDBRANCH  82  83
ENDBRANCH  50  75
BRANCH  62  87
ATOM     87  C   UNL A   1      49.534  26.674  26.435  1.00  0.00     0.058 A 
ATOM     88  C   UNL A   1      50.359  26.034  27.374  1.00  0.00     0.135 A 
ATOM     89  C   UNL A   1      50.022  26.823  25.126  1.00  0.00     0.135 A 
ATOM     90  F   UNL A   1      49.943  25.872  28.639  1.00  0.00    -0.206 F 
ATOM     91  C   UNL A   1      51.636  25.594  27.038  1.00  0.00     0.059 A 
ATOM     92  C   UNL A   1      51.286  26.366  24.763  1.00  0.00     0.059 A 
ATOM     93  F   UNL A   1      49.269  27.418  24.187  1.00  0.00    -0.206 F 
ATOM     94  C   UNL A   1      52.093  25.770  25.731  1.00  0.00     0.060 A 
BRANCH  94  95
ATOM     95  S   UNL A   1      53.752  25.197  25.306  1.00  0.00     0.124 S 
ATOM     96  O   UNL A   1      54.561  25.868  26.319  1.00  0.00    -0.237 OA
ATOM     97  O   UNL A   1      53.631  23.750  25.447  1.00  0.00    -0.237 OA
ATOM     98  O   UNL A   1      53.935  25.675  23.939  1.00  0.00    -0.744 OA
ENDBRANCH  94  95
ENDBRANCH  62  87
ENDBRANCH  36  37
ENDBRANCH  28  31
ENDBRANCH  26  27
ENDBRANCH  25  26
ENDBRANCH   1  25
TORSDOF 17
ENDMDL
MODEL 3
REMARK VINA RESULT:     -11.5      2.808      8.882
REMARK SMILES C[C@@H](C(=O)NCCCNC(=O)c1ccc(-c2c3nc(c(-c4c(F)cc(S(=O)(=O)[O-])cc4F)c4ccc([nH]4)c(-c4c(F)cc(S(=O)(=O)[O-])cc4F)c4nc(c(-c5c(F)cc(S(=O)(=O)[O-])cc5F)c5ccc2[nH]5)C=C4)C=C3)cc1)N(C)C(=O)NC[C@H]1C[N@@H+]2CCC[C@@H]2CO1
REMARK SMILES IDX 6 1 5 2 3 3 4 4 2 6 1 7 78 8 79 9 80 10 81 11 82 12 83 14
REMARK SMILES IDX 84 15 85 16 92 17 86 18 91 19 87 20 90 21 88 23 89 24 7 25
REMARK SMILES IDX 8 26 9 27 10 28 11 30 12 31 13 32 77 33 14 34 76 35 15 36
REMARK SMILES IDX 16 37 17 38 70 39 18 40 75 41 69 42 71 43 19 44 74 45 68 46
REMARK SMILES IDX 67 47 20 49 54 50 33 51 53 52 34 53 37 54 52 55 72 56 35 57
REMARK SMILES IDX 36 58 51 60 73 61 38 62 21 63 22 64 31 65 23 66 24 67 30 68
REMARK SMILES IDX 32 69 25 70 26 71 27 72 28 73 29 74 55 75 56 76 65 77 57 78
REMARK SMILES IDX 58 79 64 80 66 81 59 82 60 83 61 84 62 85 63 86 39 87 40 88
REMARK SMILES IDX 49 89 41 90 42 91 48 92 50 93 43 94 44 95 45 96 46 97 47 98
REMARK H PARENT 5 5 82 13 86 22 9 29 71 48 37 59
REMARK Flexibility Score: inf
ROOT
ATOM      1  C   UNL A   1      31.856  30.696  26.142  1.00  0.00     0.117 C 
ENDROOT
BRANCH   1   2
ATOM      2  N   UNL A   1      32.905  29.854  26.675  1.00  0.00    -0.354 N 
ATOM      3  C   UNL A   1      33.234  28.562  26.380  1.00  0.00     0.242 C 
ATOM      4  O   UNL A   1      34.316  28.167  26.823  1.00  0.00    -0.273 OA
ATOM      5  H   UNL A   1      33.473  30.279  27.358  1.00  0.00     0.163 HD
BRANCH   3   6
ATOM      6  C   UNL A   1      32.317  27.703  25.460  1.00  0.00     0.172 C 
ATOM      7  C   UNL A   1      31.869  26.372  26.070  1.00  0.00     0.042 C 
BRANCH   6   8
ATOM      8  N   UNL A   1      32.941  27.547  24.124  1.00  0.00    -0.316 N 
ATOM      9  C   UNL A   1      33.504  26.243  23.844  1.00  0.00     0.149 C 
BRANCH   8  10
ATOM     10  C   UNL A   1      32.738  28.540  23.202  1.00  0.00     0.317 C 
ATOM     11  O   UNL A   1      33.631  29.321  22.863  1.00  0.00    -0.249 OA
ATOM     12  N   UNL A   1      31.558  28.729  22.590  1.00  0.00    -0.335 N 
ATOM     13  H   UNL A   1      31.539  29.587  22.110  1.00  0.00     0.165 HD
BRANCH  12  14
ATOM     14  C   UNL A   1      30.302  28.014  22.443  1.00  0.00     0.155 C 
BRANCH  14  15
ATOM     15  C   UNL A   1      29.040  28.894  22.613  1.00  0.00     0.192 C 
ATOM     16  C   UNL A   1      29.189  30.032  23.661  1.00  0.00     0.296 C 
ATOM     17  O   UNL A   1      28.529  29.304  21.329  1.00  0.00    -0.364 OA
ATOM     18  N   UNL A   1      29.624  31.327  23.132  1.00  0.00    -0.328 N 
ATOM     19  C   UNL A   1      27.956  30.611  21.347  1.00  0.00     0.225 C 
ATOM     20  C   UNL A   1      29.411  32.433  24.072  1.00  0.00     0.262 C 
ATOM     21  C   UNL A   1      28.959  31.661  21.852  1.00  0.00     0.210 C 
ATOM     22  H   UNL A   1      30.626  31.218  22.978  1.00  0.00     0.348 HD
ATOM     23  C   UNL A   1      29.116  33.635  23.193  1.00  0.00     0.068 C 
ATOM     24  C   UNL A   1      28.308  33.027  22.064  1.00  0.00     0.073 C 
ENDBRANCH  14  15
ENDBRANCH  12  14
ENDBRANCH   8  10
ENDBRANCH   6   8
ENDBRANCH   3   6
ENDBRANCH   1   2
BRANCH   1  25
ATOM     25  C   UNL A   1      31.663  31.974  26.951  1.00  0.00     0.042 C 
BRANCH  25  26
ATOM     26  C   UNL A   1      32.944  32.760  27.224  1.00  0.00     0.118 C 
BRANCH  26  27
ATOM     27  N   UNL A   1      32.689  34.101  27.731  1.00  0.00    -0.352 N 
ATOM     28  C   UNL A   1      33.253  34.788  28.776  1.00  0.00     0.251 C 
ATOM     29  H   UNL A   1      31.994  34.598  27.242  1.00  0.00     0.163 HD
ATOM     30  O   UNL A   1      32.747  35.855  29.120  1.00  0.00    -0.269 OA
BRANCH  28  31
ATOM     31  C   UNL A   1      34.435  34.267  29.503  1.00  0.00     0.039 A 
ATOM     32  C   UNL A   1      34.222  33.542  30.680  1.00  0.00     0.014 A 
ATOM     33  C   UNL A   1      35.742  34.527  29.081  1.00  0.00     0.014 A 
ATOM     34  C   UNL A   1      35.308  33.031  31.394  1.00  0.00     0.010 A 
ATOM     35  C   UNL A   1      36.824  33.958  29.757  1.00  0.00     0.010 A 
ATOM     36  C   UNL A   1      36.619  33.205  30.922  1.00  0.00    -0.014 A 
BRANCH  36  37
ATOM     37  C   UNL A   1      37.767  32.579  31.631  1.00  0.00     0.031 A 
ATOM     38  C   UNL A   1      38.235  33.105  32.961  1.00  0.00     0.074 A 
ATOM     39  C   UNL A   1      38.411  31.546  31.052  1.00  0.00     0.049 A 
ATOM     40  N   UNL A   1      39.213  32.677  33.719  1.00  0.00    -0.248 NA
ATOM     41  C   UNL A   1      37.526  34.276  33.502  1.00  0.00     0.031 C 
ATOM     42  C   UNL A   1      38.095  30.984  29.736  1.00  0.00     0.029 A 
ATOM     43  N   UNL A   1      39.465  30.784  31.492  1.00  0.00    -0.354 N 
ATOM     44  C   UNL A   1      39.239  33.522  34.822  1.00  0.00     0.074 A 
ATOM     45  C   UNL A   1      38.213  34.521  34.610  1.00  0.00     0.031 C 
ATOM     46  C   UNL A   1      38.920  29.954  29.488  1.00  0.00     0.029 A 
ATOM     47  C   UNL A   1      39.839  29.798  30.611  1.00  0.00     0.049 A 
ATOM     48  H   UNL A   1      39.911  30.931  32.357  1.00  0.00     0.167 HD
ATOM     49  C   UNL A   1      40.028  33.458  35.923  1.00  0.00     0.037 A 
ATOM     50  C   UNL A   1      40.812  28.870  30.694  1.00  0.00     0.037 A 
ATOM     51  C   UNL A   1      41.041  32.455  36.137  1.00  0.00     0.049 A 
ATOM     52  C   UNL A   1      41.662  28.808  31.932  1.00  0.00     0.074 A 
ATOM     53  C   UNL A   1      41.859  32.278  37.240  1.00  0.00     0.029 A 
ATOM     54  N   UNL A   1      41.376  31.459  35.230  1.00  0.00    -0.354 N 
ATOM     55  N   UNL A   1      41.627  29.577  32.995  1.00  0.00    -0.248 NA
ATOM     56  C   UNL A   1      42.672  27.743  31.989  1.00  0.00     0.031 C 
ATOM     57  C   UNL A   1      42.712  31.197  36.986  1.00  0.00     0.029 A 
ATOM     58  C   UNL A   1      42.397  30.674  35.742  1.00  0.00     0.049 A 
ATOM     59  H   UNL A   1      40.950  31.330  34.353  1.00  0.00     0.167 HD
ATOM     60  C   UNL A   1      42.604  29.081  33.852  1.00  0.00     0.074 A 
ATOM     61  C   UNL A   1      43.192  27.932  33.194  1.00  0.00     0.031 C 
ATOM     62  C   UNL A   1      42.982  29.540  35.071  1.00  0.00     0.037 A 
BRANCH  49  63
ATOM     63  C   UNL A   1      39.818  34.498  36.991  1.00  0.00     0.058 A 
ATOM     64  C   UNL A   1      38.902  34.298  38.036  1.00  0.00     0.135 A 
ATOM     65  C   UNL A   1      40.565  35.686  36.995  1.00  0.00     0.135 A 
ATOM     66  F   UNL A   1      38.151  33.185  38.074  1.00  0.00    -0.206 F 
ATOM     67  C   UNL A   1      38.714  35.250  39.032  1.00  0.00     0.059 A 
ATOM     68  C   UNL A   1      40.412  36.642  37.997  1.00  0.00     0.059 A 
ATOM     69  F   UNL A   1      41.456  35.929  36.021  1.00  0.00    -0.206 F 
ATOM     70  C   UNL A   1      39.473  36.420  39.004  1.00  0.00     0.060 A 
BRANCH  70  71
ATOM     71  S   UNL A   1      39.225  37.644  40.309  1.00  0.00     0.124 S 
ATOM     72  O   UNL A   1      38.963  36.786  41.463  1.00  0.00    -0.237 OA
ATOM     73  O   UNL A   1      40.507  38.346  40.325  1.00  0.00    -0.237 OA
ATOM     74  O   UNL A   1      38.092  38.424  39.835  1.00  0.00    -0.744 OA
ENDBRANCH  70  71
ENDBRANCH  49  63
BRANCH  50  75
ATOM     75  C   UNL A   1      41.016  27.911  29.577  1.00  0.00     0.058 A 
ATOM     76  C   UNL A   1      42.119  28.024  28.719  1.00  0.00     0.135 A 
ATOM     77  C   UNL A   1      40.124  26.850  29.360  1.00  0.00     0.135 A 
ATOM     78  F   UNL A   1      42.998  29.026  28.883  1.00  0.00    -0.206 F 
ATOM     79  C   UNL A   1      42.323  27.130  27.673  1.00  0.00     0.059 A 
ATOM     80  C   UNL A   1      40.319  25.929  28.336  1.00  0.00     0.059 A 
ATOM     81  F   UNL A   1      39.063  26.687  30.166  1.00  0.00    -0.206 F 
ATOM     82  C   UNL A   1      41.418  26.083  27.491  1.00  0.00     0.060 A 
BRANCH  82  83
ATOM     83  S   UNL A   1      41.721  24.893  26.167  1.00  0.00     0.124 S 
ATOM     84  O   UNL A   1      41.456  25.699  24.981  1.00  0.00    -0.237 OA
ATOM     85  O   UNL A   1      43.116  24.527  26.394  1.00  0.00    -0.237 OA
ATOM     86  O   UNL A   1      40.753  23.834  26.442  1.00  0.00    -0.744 OA
ENDBRANCH  82  83
ENDBRANCH  50  75
BRANCH  62  87
ATOM     87  C   UNL A   1      44.078  28.787  35.773  1.00  0.00     0.058 A 
ATOM     88  C   UNL A   1      43.798  27.708  36.626  1.00  0.00     0.135 A 
ATOM     89  C   UNL A   1      45.424  29.141  35.583  1.00  0.00     0.135 A 
ATOM     90  F   UNL A   1      42.528  27.333  36.846  1.00  0.00    -0.206 F 
ATOM     91  C   UNL A   1      44.811  27.030  37.297  1.00  0.00     0.059 A 
ATOM     92  C   UNL A   1      46.454  28.460  36.224  1.00  0.00     0.059 A 
ATOM     93  F   UNL A   1      45.747  30.159  34.769  1.00  0.00    -0.206 F 
ATOM     94  C   UNL A   1      46.136  27.418  37.094  1.00  0.00     0.060 A 
BRANCH  94  95
ATOM     95  S   UNL A   1      47.443  26.533  37.971  1.00  0.00     0.124 S 
ATOM     96  O   UNL A   1      46.770  26.174  39.215  1.00  0.00    -0.237 OA
ATOM     97  O   UNL A   1      47.736  25.427  37.066  1.00  0.00    -0.237 OA
ATOM     98  O   UNL A   1      48.503  27.530  38.094  1.00  0.00    -0.744 OA
ENDBRANCH  94  95
ENDBRANCH  62  87
ENDBRANCH  36  37
ENDBRANCH  28  31
ENDBRANCH  26  27
ENDBRANCH  25  26
ENDBRANCH   1  25
TORSDOF 17
ENDMDL
