MODEL 1
REMARK VINA RESULT:     -10.5      0.000      0.000
REMARK SMILES Cc1cc(F)ccc1CCNc1ccc(Cl)c(C(=O)NCCCNC(=O)c2ccc(-c3c4nc(c(-c5c(F)cc(S(=O)(=O)[O-])cc5F)c5ccc([nH]5)c(-c5c(F)cc(S(=O)(=O)[O-])cc5F)c5nc(c(-c6c(F)cc(S(=O)(=O)[O-])cc6F)c6ccc3[nH]6)C=C5)C=C4)cc2)n1
REMARK SMILES IDX 21 1 20 2 18 3 19 4 17 6 12 7 13 8 93 9 14 10 15 11 16 12
REMARK SMILES IDX 11 13 10 15 9 16 8 17 1 18 2 19 3 20 4 21 7 22 5 23 6 24
REMARK SMILES IDX 22 25 23 26 24 27 25 28 26 30 27 31 28 32 92 33 29 34 91 35
REMARK SMILES IDX 30 36 31 37 32 38 85 39 33 40 90 41 84 42 86 43 34 44 89 45
REMARK SMILES IDX 83 46 82 47 35 49 69 50 48 51 68 52 49 53 52 54 67 55 87 56
REMARK SMILES IDX 50 57 51 58 66 60 88 61 53 62 36 63 37 64 46 65 38 66 39 67
REMARK SMILES IDX 45 68 47 69 40 70 41 71 42 72 43 73 44 74 70 75 71 76 80 77
REMARK SMILES IDX 72 78 73 79 79 80 81 81 74 82 75 83 76 84 77 85 78 86 54 87
REMARK SMILES IDX 55 88 64 89 56 90 57 91 63 92 65 93 58 94 59 95 60 96 61 97
REMARK SMILES IDX 62 98
REMARK H PARENT 20 5 11 14 24 29 86 48 52 59
REMARK Flexibility Score: inf
ROOT
ATOM      1  C   UNL A   1      34.831  34.960  28.553  1.00  0.00     0.118 C 
ENDROOT
BRANCH   1   2
ATOM      2  N   UNL A   1      33.778  35.639  29.259  1.00  0.00    -0.351 N 
ATOM      3  C   UNL A   1      33.517  35.968  30.562  1.00  0.00     0.271 C 
ATOM      4  O   UNL A   1      32.602  36.801  30.669  1.00  0.00    -0.267 OA
ATOM      5  H   UNL A   1      33.064  35.942  28.652  1.00  0.00     0.163 HD
BRANCH   3   6
ATOM      6  C   UNL A   1      34.108  35.398  31.837  1.00  0.00     0.149 A 
ATOM      7  C   UNL A   1      34.954  33.328  32.596  1.00  0.00     0.126 A 
ATOM      8  C   UNL A   1      35.293  33.863  33.816  1.00  0.00     0.048 A 
ATOM      9  N   UNL A   1      34.465  34.089  31.608  1.00  0.00    -0.224 NA
ATOM     10  C   UNL A   1      34.957  35.181  34.071  1.00  0.00     0.027 A 
ATOM     11  C   UNL A   1      34.271  35.937  33.112  1.00  0.00     0.072 A 
ATOM     12  Cl  UNL A   1      33.520  37.319  33.802  1.00  0.00    -0.082 Cl
BRANCH   7  13
ATOM     13  N   UNL A   1      35.012  31.973  32.345  1.00  0.00    -0.370 N 
ATOM     14  H   UNL A   1      34.220  31.481  32.029  1.00  0.00     0.162 HD
BRANCH  13  15
ATOM     15  C   UNL A   1      36.290  31.288  32.563  1.00  0.00     0.119 C 
BRANCH  15  16
ATOM     16  C   UNL A   1      37.440  31.933  31.765  1.00  0.00     0.057 C 
BRANCH  16  17
ATOM     17  C   UNL A   1      38.446  32.635  32.658  1.00  0.00    -0.043 A 
ATOM     18  C   UNL A   1      38.673  34.706  31.137  1.00  0.00     0.045 C 
ATOM     19  C   UNL A   1      39.055  33.866  32.326  1.00  0.00    -0.045 A 
ATOM     20  C   UNL A   1      40.050  34.382  33.176  1.00  0.00     0.043 A 
ATOM     21  C   UNL A   1      40.438  33.691  34.318  1.00  0.00     0.123 A 
ATOM     22  C   UNL A   1      38.829  31.980  33.848  1.00  0.00     0.007 A 
ATOM     23  F   UNL A   1      41.406  34.193  35.095  1.00  0.00    -0.207 F 
ATOM     24  C   UNL A   1      39.830  32.497  34.665  1.00  0.00     0.039 A 
ENDBRANCH  16  17
ENDBRANCH  15  16
ENDBRANCH  13  15
ENDBRANCH   7  13
ENDBRANCH   3   6
ENDBRANCH   1   2
BRANCH   1  25
ATOM     25  C   UNL A   1      34.424  33.641  27.924  1.00  0.00     0.042 C 
BRANCH  25  26
ATOM     26  C   UNL A   1      34.550  32.477  28.896  1.00  0.00     0.118 C 
BRANCH  26  27
ATOM     27  N   UNL A   1      33.950  31.248  28.377  1.00  0.00    -0.352 N 
ATOM     28  C   UNL A   1      34.516  30.079  27.947  1.00  0.00     0.251 C 
ATOM     29  H   UNL A   1      32.966  31.265  28.328  1.00  0.00     0.163 HD
ATOM     30  O   UNL A   1      33.816  29.261  27.347  1.00  0.00    -0.269 OA
BRANCH  28  31
ATOM     31  C   UNL A   1      35.939  29.795  28.198  1.00  0.00     0.039 A 
ATOM     32  C   UNL A   1      36.873  30.057  27.192  1.00  0.00     0.014 A 
ATOM     33  C   UNL A   1      36.352  29.223  29.403  1.00  0.00     0.014 A 
ATOM     34  C   UNL A   1      38.219  29.772  27.410  1.00  0.00     0.010 A 
ATOM     35  C   UNL A   1      37.703  29.059  29.667  1.00  0.00     0.010 A 
ATOM     36  C   UNL A   1      38.646  29.287  28.658  1.00  0.00    -0.014 A 
BRANCH  36  37
ATOM     37  C   UNL A   1      40.062  28.930  28.906  1.00  0.00     0.031 A 
ATOM     38  C   UNL A   1      40.991  29.961  29.496  1.00  0.00     0.074 A 
ATOM     39  C   UNL A   1      40.515  27.711  28.558  1.00  0.00     0.049 A 
ATOM     40  N   UNL A   1      42.274  29.877  29.733  1.00  0.00    -0.248 NA
ATOM     41  C   UNL A   1      40.410  31.275  29.829  1.00  0.00     0.031 C 
ATOM     42  C   UNL A   1      39.717  26.658  27.926  1.00  0.00     0.029 A 
ATOM     43  N   UNL A   1      41.761  27.154  28.682  1.00  0.00    -0.354 N 
ATOM     44  C   UNL A   1      42.651  31.125  30.215  1.00  0.00     0.074 A 
ATOM     45  C   UNL A   1      41.481  31.971  30.171  1.00  0.00     0.031 C 
ATOM     46  C   UNL A   1      40.485  25.570  27.750  1.00  0.00     0.029 A 
ATOM     47  C   UNL A   1      41.835  25.861  28.220  1.00  0.00     0.049 A 
ATOM     48  H   UNL A   1      42.529  27.633  29.068  1.00  0.00     0.167 HD
ATOM     49  C   UNL A   1      43.855  31.520  30.688  1.00  0.00     0.037 A 
ATOM     50  C   UNL A   1      42.878  25.011  28.181  1.00  0.00     0.037 A 
ATOM     51  C   UNL A   1      45.000  30.653  30.769  1.00  0.00     0.049 A 
ATOM     52  C   UNL A   1      44.200  25.464  28.740  1.00  0.00     0.074 A 
ATOM     53  C   UNL A   1      46.254  30.928  31.282  1.00  0.00     0.029 A 
ATOM     54  N   UNL A   1      45.025  29.337  30.331  1.00  0.00    -0.354 N 
ATOM     55  N   UNL A   1      44.527  26.630  29.248  1.00  0.00    -0.248 NA
ATOM     56  C   UNL A   1      45.291  24.481  28.741  1.00  0.00     0.031 C 
ATOM     57  C   UNL A   1      47.051  29.791  31.113  1.00  0.00     0.029 A 
ATOM     58  C   UNL A   1      46.276  28.788  30.553  1.00  0.00     0.049 A 
ATOM     59  H   UNL A   1      44.265  28.863  29.923  1.00  0.00     0.167 HD
ATOM     60  C   UNL A   1      45.847  26.507  29.666  1.00  0.00     0.074 A 
ATOM     61  C   UNL A   1      46.254  25.151  29.358  1.00  0.00     0.031 C 
ATOM     62  C   UNL A   1      46.650  27.429  30.256  1.00  0.00     0.037 A 
BRANCH  49  63
ATOM     63  C   UNL A   1      43.991  32.941  31.167  1.00  0.00     0.058 A 
ATOM     64  C   UNL A   1      44.363  33.983  30.302  1.00  0.00     0.135 A 
ATOM     65  C   UNL A   1      43.711  33.273  32.503  1.00  0.00     0.135 A 
ATOM     66  F   UNL A   1      44.663  33.723  29.019  1.00  0.00    -0.206 F 
ATOM     67  C   UNL A   1      44.481  35.295  30.748  1.00  0.00     0.059 A 
ATOM     68  C   UNL A   1      43.790  34.584  32.964  1.00  0.00     0.059 A 
ATOM     69  F   UNL A   1      43.356  32.319  33.377  1.00  0.00    -0.206 F 
ATOM     70  C   UNL A   1      44.187  35.588  32.080  1.00  0.00     0.060 A 
BRANCH  70  71
ATOM     71  S   UNL A   1      44.321  37.299  32.636  1.00  0.00     0.124 S 
ATOM     72  O   UNL A   1      45.586  37.270  33.365  1.00  0.00    -0.237 OA
ATOM     73  O   UNL A   1      44.333  38.035  31.375  1.00  0.00    -0.237 OA
ATOM     74  O   UNL A   1      43.129  37.486  33.456  1.00  0.00    -0.744 OA
ENDBRANCH  70  71
ENDBRANCH  49  63
BRANCH  50  75
ATOM     75  C   UNL A   1      42.704  23.640  27.631  1.00  0.00     0.058 A 
ATOM     76  C   UNL A   1      42.441  22.550  28.474  1.00  0.00     0.135 A 
ATOM     77  C   UNL A   1      42.795  23.391  26.253  1.00  0.00     0.135 A 
ATOM     78  F   UNL A   1      42.344  22.736  29.800  1.00  0.00    -0.206 F 
ATOM     79  C   UNL A   1      42.303  21.258  27.977  1.00  0.00     0.059 A 
ATOM     80  C   UNL A   1      42.632  22.113  25.728  1.00  0.00     0.059 A 
ATOM     81  F   UNL A   1      43.021  24.402  25.399  1.00  0.00    -0.206 F 
ATOM     82  C   UNL A   1      42.401  21.049  26.600  1.00  0.00     0.060 A 
BRANCH  82  83
ATOM     83  S   UNL A   1      42.194  19.374  25.961  1.00  0.00     0.124 S 
ATOM     84  O   UNL A   1      42.673  18.572  27.081  1.00  0.00    -0.237 OA
ATOM     85  O   UNL A   1      40.758  19.320  25.704  1.00  0.00    -0.237 OA
ATOM     86  O   UNL A   1      43.037  19.362  24.770  1.00  0.00    -0.744 OA
ENDBRANCH  82  83
ENDBRANCH  50  75
BRANCH  62  87
ATOM     87  C   UNL A   1      48.025  26.981  30.670  1.00  0.00     0.058 A 
ATOM     88  C   UNL A   1      49.139  27.117  29.828  1.00  0.00     0.135 A 
ATOM     89  C   UNL A   1      48.229  26.436  31.948  1.00  0.00     0.135 A 
ATOM     90  F   UNL A   1      48.998  27.631  28.596  1.00  0.00    -0.206 F 
ATOM     91  C   UNL A   1      50.402  26.690  30.224  1.00  0.00     0.059 A 
ATOM     92  C   UNL A   1      49.489  26.035  32.378  1.00  0.00     0.059 A 
ATOM     93  F   UNL A   1      47.199  26.299  32.799  1.00  0.00    -0.206 F 
ATOM     94  C   UNL A   1      50.566  26.148  31.501  1.00  0.00     0.060 A 
BRANCH  94  95
ATOM     95  S   UNL A   1      52.211  25.604  32.004  1.00  0.00     0.124 S 
ATOM     96  O   UNL A   1      51.986  24.184  32.254  1.00  0.00    -0.237 OA
ATOM     97  O   UNL A   1      53.019  25.921  30.831  1.00  0.00    -0.237 OA
ATOM     98  O   UNL A   1      52.489  26.413  33.187  1.00  0.00    -0.744 OA
ENDBRANCH  94  95
ENDBRANCH  62  87
ENDBRANCH  36  37
ENDBRANCH  28  31
ENDBRANCH  26  27
ENDBRANCH  25  26
ENDBRANCH   1  25
TORSDOF 17
ENDMDL
MODEL 2
REMARK VINA RESULT:      -9.9      7.378     11.579
REMARK SMILES Cc1cc(F)ccc1CCNc1ccc(Cl)c(C(=O)NCCCNC(=O)c2ccc(-c3c4nc(c(-c5c(F)cc(S(=O)(=O)[O-])cc5F)c5ccc([nH]5)c(-c5c(F)cc(S(=O)(=O)[O-])cc5F)c5nc(c(-c6c(F)cc(S(=O)(=O)[O-])cc6F)c6ccc3[nH]6)C=C5)C=C4)cc2)n1
REMARK SMILES IDX 21 1 20 2 18 3 19 4 17 6 12 7 13 8 93 9 14 10 15 11 16 12
REMARK SMILES IDX 11 13 10 15 9 16 8 17 1 18 2 19 3 20 4 21 7 22 5 23 6 24
REMARK SMILES IDX 22 25 23 26 24 27 25 28 26 30 27 31 28 32 92 33 29 34 91 35
REMARK SMILES IDX 30 36 31 37 32 38 85 39 33 40 90 41 84 42 86 43 34 44 89 45
REMARK SMILES IDX 83 46 82 47 35 49 69 50 48 51 68 52 49 53 52 54 67 55 87 56
REMARK SMILES IDX 50 57 51 58 66 60 88 61 53 62 36 63 37 64 46 65 38 66 39 67
REMARK SMILES IDX 45 68 47 69 40 70 41 71 42 72 43 73 44 74 70 75 71 76 80 77
REMARK SMILES IDX 72 78 73 79 79 80 81 81 74 82 75 83 76 84 77 85 78 86 54 87
REMARK SMILES IDX 55 88 64 89 56 90 57 91 63 92 65 93 58 94 59 95 60 96 61 97
REMARK SMILES IDX 62 98
REMARK H PARENT 20 5 11 14 24 29 86 48 52 59
REMARK Flexibility Score: inf
ROOT
ATOM      1  C   UNL A   1      44.518  39.560  26.871  1.00  0.00     0.118 C 
ENDROOT
BRANCH   1   2
ATOM      2  N   UNL A   1      43.198  40.026  26.543  1.00  0.00    -0.351 N 
ATOM      3  C   UNL A   1      42.664  40.963  25.699  1.00  0.00     0.271 C 
ATOM      4  O   UNL A   1      41.439  40.830  25.552  1.00  0.00    -0.267 OA
ATOM      5  H   UNL A   1      42.502  39.553  27.054  1.00  0.00     0.163 HD
BRANCH   3   6
ATOM      6  C   UNL A   1      43.333  42.150  25.030  1.00  0.00     0.149 A 
ATOM      7  C   UNL A   1      43.592  43.001  22.843  1.00  0.00     0.126 A 
ATOM      8  C   UNL A   1      44.267  44.106  23.305  1.00  0.00     0.048 A 
ATOM      9  N   UNL A   1      43.062  42.102  23.681  1.00  0.00    -0.224 NA
ATOM     10  C   UNL A   1      44.544  44.188  24.659  1.00  0.00     0.027 A 
ATOM     11  C   UNL A   1      44.160  43.156  25.525  1.00  0.00     0.072 A 
ATOM     12  Cl  UNL A   1      45.026  43.206  27.007  1.00  0.00    -0.082 Cl
BRANCH   7  13
ATOM     13  N   UNL A   1      43.496  42.707  21.498  1.00  0.00    -0.370 N 
ATOM     14  H   UNL A   1      43.906  41.892  21.127  1.00  0.00     0.162 HD
BRANCH  13  15
ATOM     15  C   UNL A   1      42.767  43.645  20.640  1.00  0.00     0.119 C 
BRANCH  15  16
ATOM     16  C   UNL A   1      43.197  43.537  19.163  1.00  0.00     0.057 C 
BRANCH  16  17
ATOM     17  C   UNL A   1      42.920  44.807  18.382  1.00  0.00    -0.043 A 
ATOM     18  C   UNL A   1      40.403  44.328  18.081  1.00  0.00     0.045 C 
ATOM     19  C   UNL A   1      41.657  45.123  17.832  1.00  0.00    -0.045 A 
ATOM     20  C   UNL A   1      41.531  46.278  17.039  1.00  0.00     0.043 A 
ATOM     21  C   UNL A   1      42.630  47.091  16.788  1.00  0.00     0.123 A 
ATOM     22  C   UNL A   1      44.005  45.678  18.148  1.00  0.00     0.007 A 
ATOM     23  F   UNL A   1      42.487  48.170  16.009  1.00  0.00    -0.207 F 
ATOM     24  C   UNL A   1      43.865  46.805  17.343  1.00  0.00     0.039 A 
ENDBRANCH  16  17
ENDBRANCH  15  16
ENDBRANCH  13  15
ENDBRANCH   7  13
ENDBRANCH   3   6
ENDBRANCH   1   2
BRANCH   1  25
ATOM     25  C   UNL A   1      44.563  38.181  27.502  1.00  0.00     0.042 C 
BRANCH  25  26
ATOM     26  C   UNL A   1      45.491  38.129  28.707  1.00  0.00     0.118 C 
BRANCH  26  27
ATOM     27  N   UNL A   1      46.903  38.109  28.325  1.00  0.00    -0.352 N 
ATOM     28  C   UNL A   1      47.778  37.072  28.154  1.00  0.00     0.251 C 
ATOM     29  H   UNL A   1      47.293  39.000  28.162  1.00  0.00     0.163 HD
ATOM     30  O   UNL A   1      48.981  37.316  28.040  1.00  0.00    -0.269 OA
BRANCH  28  31
ATOM     31  C   UNL A   1      47.295  35.681  28.103  1.00  0.00     0.039 A 
ATOM     32  C   UNL A   1      47.370  34.892  29.253  1.00  0.00     0.014 A 
ATOM     33  C   UNL A   1      46.815  35.135  26.910  1.00  0.00     0.014 A 
ATOM     34  C   UNL A   1      46.936  33.568  29.210  1.00  0.00     0.010 A 
ATOM     35  C   UNL A   1      46.268  33.862  26.900  1.00  0.00     0.010 A 
ATOM     36  C   UNL A   1      46.365  33.049  28.036  1.00  0.00    -0.014 A 
BRANCH  36  37
ATOM     37  C   UNL A   1      45.937  31.634  27.944  1.00  0.00     0.031 A 
ATOM     38  C   UNL A   1      44.526  31.262  28.322  1.00  0.00     0.074 A 
ATOM     39  C   UNL A   1      46.824  30.691  27.572  1.00  0.00     0.049 A 
ATOM     40  N   UNL A   1      43.969  30.081  28.375  1.00  0.00    -0.248 NA
ATOM     41  C   UNL A   1      43.632  32.360  28.735  1.00  0.00     0.031 C 
ATOM     42  C   UNL A   1      48.230  30.932  27.240  1.00  0.00     0.029 A 
ATOM     43  N   UNL A   1      46.673  29.338  27.415  1.00  0.00    -0.354 N 
ATOM     44  C   UNL A   1      42.678  30.293  28.845  1.00  0.00     0.074 A 
ATOM     45  C   UNL A   1      42.555  31.702  29.132  1.00  0.00     0.031 C 
ATOM     46  C   UNL A   1      48.803  29.770  26.887  1.00  0.00     0.029 A 
ATOM     47  C   UNL A   1      47.819  28.700  27.003  1.00  0.00     0.049 A 
ATOM     48  H   UNL A   1      45.824  28.868  27.581  1.00  0.00     0.167 HD
ATOM     49  C   UNL A   1      41.673  29.398  28.989  1.00  0.00     0.037 A 
ATOM     50  C   UNL A   1      48.044  27.397  26.749  1.00  0.00     0.037 A 
ATOM     51  C   UNL A   1      41.797  28.004  28.656  1.00  0.00     0.049 A 
ATOM     52  C   UNL A   1      46.902  26.427  26.888  1.00  0.00     0.074 A 
ATOM     53  C   UNL A   1      40.830  27.018  28.707  1.00  0.00     0.029 A 
ATOM     54  N   UNL A   1      42.961  27.403  28.199  1.00  0.00    -0.354 N 
ATOM     55  N   UNL A   1      45.669  26.652  27.278  1.00  0.00    -0.248 NA
ATOM     56  C   UNL A   1      47.176  25.028  26.534  1.00  0.00     0.031 C 
ATOM     57  C   UNL A   1      41.422  25.810  28.324  1.00  0.00     0.029 A 
ATOM     58  C   UNL A   1      42.740  26.056  27.974  1.00  0.00     0.049 A 
ATOM     59  H   UNL A   1      43.818  27.866  28.056  1.00  0.00     0.167 HD
ATOM     60  C   UNL A   1      45.009  25.432  27.176  1.00  0.00     0.074 A 
ATOM     61  C   UNL A   1      45.979  24.477  26.680  1.00  0.00     0.031 C 
ATOM     62  C   UNL A   1      43.717  25.129  27.461  1.00  0.00     0.037 A 
BRANCH  49  63
ATOM     63  C   UNL A   1      40.355  29.901  29.513  1.00  0.00     0.058 A 
ATOM     64  C   UNL A   1      39.240  30.071  28.675  1.00  0.00     0.135 A 
ATOM     65  C   UNL A   1      40.191  30.186  30.879  1.00  0.00     0.135 A 
ATOM     66  F   UNL A   1      39.342  29.835  27.357  1.00  0.00    -0.206 F 
ATOM     67  C   UNL A   1      38.022  30.530  29.165  1.00  0.00     0.059 A 
ATOM     68  C   UNL A   1      38.973  30.614  31.397  1.00  0.00     0.059 A 
ATOM     69  F   UNL A   1      41.223  30.047  31.726  1.00  0.00    -0.206 F 
ATOM     70  C   UNL A   1      37.896  30.794  30.529  1.00  0.00     0.060 A 
BRANCH  70  71
ATOM     71  S   UNL A   1      36.302  31.366  31.152  1.00  0.00     0.124 S 
ATOM     72  O   UNL A   1      35.428  31.081  30.017  1.00  0.00    -0.237 OA
ATOM     73  O   UNL A   1      36.108  30.524  32.328  1.00  0.00    -0.237 OA
ATOM     74  O   UNL A   1      36.530  32.780  31.428  1.00  0.00    -0.744 OA
ENDBRANCH  70  71
ENDBRANCH  49  63
BRANCH  50  75
ATOM     75  C   UNL A   1      49.389  26.946  26.300  1.00  0.00     0.058 A 
ATOM     76  C   UNL A   1      49.758  27.004  24.948  1.00  0.00     0.135 A 
ATOM     77  C   UNL A   1      50.332  26.450  27.213  1.00  0.00     0.135 A 
ATOM     78  F   UNL A   1      48.892  27.471  24.036  1.00  0.00    -0.206 F 
ATOM     79  C   UNL A   1      51.001  26.559  24.511  1.00  0.00     0.059 A 
ATOM     80  C   UNL A   1      51.593  26.026  26.804  1.00  0.00     0.059 A 
ATOM     81  F   UNL A   1      50.039  26.395  28.522  1.00  0.00    -0.206 F 
ATOM     82  C   UNL A   1      51.913  26.071  25.448  1.00  0.00     0.060 A 
BRANCH  82  83
ATOM     83  S   UNL A   1      53.535  25.522  24.874  1.00  0.00     0.124 S 
ATOM     84  O   UNL A   1      53.454  24.083  25.099  1.00  0.00    -0.237 OA
ATOM     85  O   UNL A   1      53.528  25.953  23.480  1.00  0.00    -0.237 OA
ATOM     86  O   UNL A   1      54.460  26.246  25.742  1.00  0.00    -0.744 OA
ENDBRANCH  82  83
ENDBRANCH  50  75
BRANCH  62  87
ATOM     87  C   UNL A   1      43.260  23.724  27.177  1.00  0.00     0.058 A 
ATOM     88  C   UNL A   1      43.091  22.775  28.197  1.00  0.00     0.135 A 
ATOM     89  C   UNL A   1      42.956  23.338  25.862  1.00  0.00     0.135 A 
ATOM     90  F   UNL A   1      43.370  23.093  29.471  1.00  0.00    -0.206 F 
ATOM     91  C   UNL A   1      42.675  21.478  27.916  1.00  0.00     0.059 A 
ATOM     92  C   UNL A   1      42.505  22.058  25.562  1.00  0.00     0.059 A 
ATOM     93  F   UNL A   1      43.085  24.214  24.852  1.00  0.00    -0.206 F 
ATOM     94  C   UNL A   1      42.387  21.128  26.594  1.00  0.00     0.060 A 
BRANCH  94  95
ATOM     95  S   UNL A   1      41.842  19.445  26.244  1.00  0.00     0.124 S 
ATOM     96  O   UNL A   1      40.399  19.624  26.116  1.00  0.00    -0.237 OA
ATOM     97  O   UNL A   1      42.554  19.135  25.008  1.00  0.00    -0.237 OA
ATOM     98  O   UNL A   1      42.280  18.695  27.417  1.00  0.00    -0.744 OA
ENDBRANCH  94  95
ENDBRANCH  62  87
ENDBRANCH  36  37
ENDBRANCH  28  31
ENDBRANCH  26  27
ENDBRANCH  25  26
ENDBRANCH   1  25
TORSDOF 17
ENDMDL
MODEL 3
REMARK VINA RESULT:      -9.9      4.304      7.164
REMARK SMILES Cc1cc(F)ccc1CCNc1ccc(Cl)c(C(=O)NCCCNC(=O)c2ccc(-c3c4nc(c(-c5c(F)cc(S(=O)(=O)[O-])cc5F)c5ccc([nH]5)c(-c5c(F)cc(S(=O)(=O)[O-])cc5F)c5nc(c(-c6c(F)cc(S(=O)(=O)[O-])cc6F)c6ccc3[nH]6)C=C5)C=C4)cc2)n1
REMARK SMILES IDX 21 1 20 2 18 3 19 4 17 6 12 7 13 8 93 9 14 10 15 11 16 12
REMARK SMILES IDX 11 13 10 15 9 16 8 17 1 18 2 19 3 20 4 21 7 22 5 23 6 24
REMARK SMILES IDX 22 25 23 26 24 27 25 28 26 30 27 31 28 32 92 33 29 34 91 35
REMARK SMILES IDX 30 36 31 37 32 38 85 39 33 40 90 41 84 42 86 43 34 44 89 45
REMARK SMILES IDX 83 46 82 47 35 49 69 50 48 51 68 52 49 53 52 54 67 55 87 56
REMARK SMILES IDX 50 57 51 58 66 60 88 61 53 62 36 63 37 64 46 65 38 66 39 67
REMARK SMILES IDX 45 68 47 69 40 70 41 71 42 72 43 73 44 74 70 75 71 76 80 77
REMARK SMILES IDX 72 78 73 79 79 80 81 81 74 82 75 83 76 84 77 85 78 86 54 87
REMARK SMILES IDX 55 88 64 89 56 90 57 91 63 92 65 93 58 94 59 95 60 96 61 97
REMARK SMILES IDX 62 98
REMARK H PARENT 20 5 11 14 24 29 86 48 52 59
REMARK Flexibility Score: inf
ROOT
ATOM      1  C   UNL A   1      34.243  29.803  27.146  1.00  0.00     0.118 C 
ENDROOT
BRANCH   1   2
ATOM      2  N   UNL A   1      34.017  29.662  25.733  1.00  0.00    -0.351 N 
ATOM      3  C   UNL A   1      33.227  28.881  24.933  1.00  0.00     0.271 C 
ATOM      4  O   UNL A   1      33.167  29.300  23.766  1.00  0.00    -0.267 OA
ATOM      5  H   UNL A   1      34.571  30.284  25.208  1.00  0.00     0.163 HD
BRANCH   3   6
ATOM      6  C   UNL A   1      32.528  27.573  25.252  1.00  0.00     0.149 A 
ATOM      7  C   UNL A   1      31.871  25.619  24.100  1.00  0.00     0.126 A 
ATOM      8  C   UNL A   1      31.403  25.040  25.256  1.00  0.00     0.048 A 
ATOM      9  N   UNL A   1      32.495  26.803  24.111  1.00  0.00    -0.224 NA
ATOM     10  C   UNL A   1      31.434  25.786  26.422  1.00  0.00     0.027 A 
ATOM     11  C   UNL A   1      31.912  27.103  26.410  1.00  0.00     0.072 A 
ATOM     12  Cl  UNL A   1      31.393  27.986  27.789  1.00  0.00    -0.082 Cl
BRANCH   7  13
ATOM     13  N   UNL A   1      31.649  25.062  22.857  1.00  0.00    -0.370 N 
ATOM     14  H   UNL A   1      30.768  24.693  22.616  1.00  0.00     0.162 HD
BRANCH  13  15
ATOM     15  C   UNL A   1      32.764  25.036  21.907  1.00  0.00     0.119 C 
BRANCH  15  16
ATOM     16  C   UNL A   1      33.278  23.605  21.652  1.00  0.00     0.057 C 
BRANCH  16  17
ATOM     17  C   UNL A   1      33.844  22.958  22.902  1.00  0.00    -0.043 A 
ATOM     18  C   UNL A   1      32.152  21.011  22.919  1.00  0.00     0.045 C 
ATOM     19  C   UNL A   1      33.278  21.816  23.511  1.00  0.00    -0.045 A 
ATOM     20  C   UNL A   1      33.819  21.354  24.724  1.00  0.00     0.043 A 
ATOM     21  C   UNL A   1      34.886  22.015  25.323  1.00  0.00     0.123 A 
ATOM     22  C   UNL A   1      34.956  23.579  23.511  1.00  0.00     0.007 A 
ATOM     23  F   UNL A   1      35.365  21.569  26.491  1.00  0.00    -0.207 F 
ATOM     24  C   UNL A   1      35.464  23.120  24.723  1.00  0.00     0.039 A 
ENDBRANCH  16  17
ENDBRANCH  15  16
ENDBRANCH  13  15
ENDBRANCH   7  13
ENDBRANCH   3   6
ENDBRANCH   1   2
BRANCH   1  25
ATOM     25  C   UNL A   1      34.357  31.236  27.629  1.00  0.00     0.042 C 
BRANCH  25  26
ATOM     26  C   UNL A   1      35.674  31.500  28.345  1.00  0.00     0.118 C 
BRANCH  26  27
ATOM     27  N   UNL A   1      35.596  31.223  29.780  1.00  0.00    -0.352 N 
ATOM     28  C   UNL A   1      36.416  30.504  30.605  1.00  0.00     0.251 C 
ATOM     29  H   UNL A   1      34.817  31.624  30.229  1.00  0.00     0.163 HD
ATOM     30  O   UNL A   1      36.026  30.229  31.742  1.00  0.00    -0.269 OA
BRANCH  28  31
ATOM     31  C   UNL A   1      37.746  30.064  30.150  1.00  0.00     0.039 A 
ATOM     32  C   UNL A   1      38.665  29.593  31.090  1.00  0.00     0.014 A 
ATOM     33  C   UNL A   1      38.108  30.162  28.805  1.00  0.00     0.014 A 
ATOM     34  C   UNL A   1      39.934  29.194  30.673  1.00  0.00     0.010 A 
ATOM     35  C   UNL A   1      39.321  29.648  28.374  1.00  0.00     0.010 A 
ATOM     36  C   UNL A   1      40.264  29.203  29.307  1.00  0.00    -0.014 A 
BRANCH  36  37
ATOM     37  C   UNL A   1      41.618  28.829  28.837  1.00  0.00     0.031 A 
ATOM     38  C   UNL A   1      42.694  29.884  28.769  1.00  0.00     0.074 A 
ATOM     39  C   UNL A   1      41.860  27.570  28.428  1.00  0.00     0.049 A 
ATOM     40  N   UNL A   1      43.921  29.784  28.329  1.00  0.00    -0.248 NA
ATOM     41  C   UNL A   1      42.332  31.240  29.220  1.00  0.00     0.031 C 
ATOM     42  C   UNL A   1      40.876  26.485  28.396  1.00  0.00     0.029 A 
ATOM     43  N   UNL A   1      43.010  26.989  27.958  1.00  0.00    -0.354 N 
ATOM     44  C   UNL A   1      44.462  31.062  28.429  1.00  0.00     0.074 A 
ATOM     45  C   UNL A   1      43.413  31.933  28.901  1.00  0.00     0.031 C 
ATOM     46  C   UNL A   1      41.473  25.363  27.962  1.00  0.00     0.029 A 
ATOM     47  C   UNL A   1      42.868  25.656  27.651  1.00  0.00     0.049 A 
ATOM     48  H   UNL A   1      43.856  27.480  27.851  1.00  0.00     0.167 HD
ATOM     49  C   UNL A   1      45.730  31.464  28.184  1.00  0.00     0.037 A 
ATOM     50  C   UNL A   1      43.766  24.776  27.171  1.00  0.00     0.037 A 
ATOM     51  C   UNL A   1      46.777  30.574  27.758  1.00  0.00     0.049 A 
ATOM     52  C   UNL A   1      45.178  25.241  26.936  1.00  0.00     0.074 A 
ATOM     53  C   UNL A   1      48.111  30.859  27.534  1.00  0.00     0.029 A 
ATOM     54  N   UNL A   1      46.607  29.222  27.499  1.00  0.00    -0.354 N 
ATOM     55  N   UNL A   1      45.690  26.440  27.090  1.00  0.00    -0.248 NA
ATOM     56  C   UNL A   1      46.141  24.230  26.480  1.00  0.00     0.031 C 
ATOM     57  C   UNL A   1      48.738  29.688  27.097  1.00  0.00     0.029 A 
ATOM     58  C   UNL A   1      47.809  28.660  27.109  1.00  0.00     0.049 A 
ATOM     59  H   UNL A   1      45.756  28.734  27.582  1.00  0.00     0.167 HD
ATOM     60  C   UNL A   1      47.043  26.318  26.791  1.00  0.00     0.074 A 
ATOM     61  C   UNL A   1      47.268  24.927  26.454  1.00  0.00     0.031 C 
ATOM     62  C   UNL A   1      48.012  27.268  26.798  1.00  0.00     0.037 A 
BRANCH  49  63
ATOM     63  C   UNL A   1      46.057  32.919  28.386  1.00  0.00     0.058 A 
ATOM     64  C   UNL A   1      46.506  33.414  29.622  1.00  0.00     0.135 A 
ATOM     65  C   UNL A   1      45.952  33.829  27.321  1.00  0.00     0.135 A 
ATOM     66  F   UNL A   1      46.606  32.596  30.683  1.00  0.00    -0.206 F 
ATOM     67  C   UNL A   1      46.813  34.758  29.802  1.00  0.00     0.059 A 
ATOM     68  C   UNL A   1      46.285  35.172  27.469  1.00  0.00     0.059 A 
ATOM     69  F   UNL A   1      45.524  33.415  26.118  1.00  0.00    -0.206 F 
ATOM     70  C   UNL A   1      46.704  35.630  28.718  1.00  0.00     0.060 A 
BRANCH  70  71
ATOM     71  S   UNL A   1      47.129  37.366  28.963  1.00  0.00     0.124 S 
ATOM     72  O   UNL A   1      46.845  37.924  27.644  1.00  0.00    -0.237 OA
ATOM     73  O   UNL A   1      46.215  37.763  30.029  1.00  0.00    -0.237 OA
ATOM     74  O   UNL A   1      48.539  37.323  29.335  1.00  0.00    -0.744 OA
ENDBRANCH  70  71
ENDBRANCH  49  63
BRANCH  50  75
ATOM     75  C   UNL A   1      43.369  23.364  26.924  1.00  0.00     0.058 A 
ATOM     76  C   UNL A   1      43.132  22.896  25.623  1.00  0.00     0.135 A 
ATOM     77  C   UNL A   1      43.220  22.453  27.981  1.00  0.00     0.135 A 
ATOM     78  F   UNL A   1      43.262  23.727  24.577  1.00  0.00    -0.206 F 
ATOM     79  C   UNL A   1      42.733  21.586  25.379  1.00  0.00     0.059 A 
ATOM     80  C   UNL A   1      42.850  21.130  27.760  1.00  0.00     0.059 A 
ATOM     81  F   UNL A   1      43.458  22.843  29.244  1.00  0.00    -0.206 F 
ATOM     82  C   UNL A   1      42.594  20.710  26.456  1.00  0.00     0.060 A 
BRANCH  82  83
ATOM     83  S   UNL A   1      42.103  19.004  26.127  1.00  0.00     0.124 S 
ATOM     84  O   UNL A   1      40.701  19.168  25.759  1.00  0.00    -0.237 OA
ATOM     85  O   UNL A   1      43.008  18.628  25.046  1.00  0.00    -0.237 OA
ATOM     86  O   UNL A   1      42.347  18.333  27.401  1.00  0.00    -0.744 OA
ENDBRANCH  82  83
ENDBRANCH  50  75
BRANCH  62  87
ATOM     87  C   UNL A   1      49.417  26.820  26.499  1.00  0.00     0.058 A 
ATOM     88  C   UNL A   1      50.281  26.355  27.502  1.00  0.00     0.135 A 
ATOM     89  C   UNL A   1      49.889  26.827  25.176  1.00  0.00     0.135 A 
ATOM     90  F   UNL A   1      49.879  26.330  28.783  1.00  0.00    -0.206 F 
ATOM     91  C   UNL A   1      51.579  25.953  27.210  1.00  0.00     0.059 A 
ATOM     92  C   UNL A   1      51.170  26.396  24.856  1.00  0.00     0.059 A 
ATOM     93  F   UNL A   1      49.096  27.247  24.177  1.00  0.00    -0.206 F 
ATOM     94  C   UNL A   1      52.016  25.979  25.883  1.00  0.00     0.060 A 
BRANCH  94  95
ATOM     95  S   UNL A   1      53.700  25.448  25.516  1.00  0.00     0.124 S 
ATOM     96  O   UNL A   1      54.283  25.376  26.852  1.00  0.00    -0.237 OA
ATOM     97  O   UNL A   1      53.487  24.167  24.848  1.00  0.00    -0.237 OA
ATOM     98  O   UNL A   1      54.215  26.514  24.663  1.00  0.00    -0.744 OA
ENDBRANCH  94  95
ENDBRANCH  62  87
ENDBRANCH  36  37
ENDBRANCH  28  31
ENDBRANCH  26  27
ENDBRANCH  25  26
ENDBRANCH   1  25
TORSDOF 17
ENDMDL
