MODEL 1
REMARK VINA RESULT:     -12.0      0.000      0.000
REMARK SMILES Cc1sc(NC(=O)C[C@@H]2CCCCO2)c(C(=O)NCCCNC(=O)c2ccc(-c3c4nc(c(-c5c(F)cc(S(=O)(=O)[O-])cc5F)c5ccc([nH]5)c(-c5c(F)cc(S(=O)(=O)[O-])cc5F)c5nc(c(-c6c(F)cc(S(=O)(=O)[O-])cc6F)c6ccc3[nH]6)C=C5)C=C4)cc2)c1C
REMARK SMILES IDX 20 1 19 2 18 3 16 4 17 5 15 7 1 8 2 9 3 10 91 11 4 12 92 13
REMARK SMILES IDX 5 14 6 15 7 17 8 18 9 19 10 20 14 21 11 22 13 23 12 24 21 25
REMARK SMILES IDX 22 26 23 27 24 29 25 30 26 31 90 32 27 33 89 34 28 35 29 36
REMARK SMILES IDX 30 37 83 38 31 39 88 40 82 41 84 42 32 43 87 44 81 45 80 46
REMARK SMILES IDX 33 48 67 49 46 50 66 51 47 52 50 53 65 54 85 55 48 56 49 57
REMARK SMILES IDX 64 59 86 60 51 61 34 62 35 63 44 64 36 65 37 66 43 67 45 68
REMARK SMILES IDX 38 69 39 70 40 71 41 72 42 73 68 74 69 75 78 76 70 77 71 78
REMARK SMILES IDX 77 79 79 80 72 81 73 82 74 83 75 84 76 85 52 86 53 87 62 88
REMARK SMILES IDX 54 89 55 90 61 91 63 92 56 93 57 94 58 95 59 96 60 97
REMARK H PARENT 18 6 5 16 22 28 84 47 50 58
REMARK Flexibility Score: inf
ROOT
ATOM      1  C   UNL A   1      34.297  30.808  27.520  1.00  0.00     0.042 C 
ENDROOT
BRANCH   1   2
ATOM      2  C   UNL A   1      34.213  29.275  27.373  1.00  0.00     0.118 C 
BRANCH   2   3
ATOM      3  N   UNL A   1      32.855  28.750  27.647  1.00  0.00    -0.352 N 
ATOM      4  C   UNL A   1      31.805  27.942  27.308  1.00  0.00     0.254 C 
ATOM      5  O   UNL A   1      31.008  27.987  28.263  1.00  0.00    -0.269 OA
ATOM      6  H   UNL A   1      32.570  29.204  28.473  1.00  0.00     0.163 HD
BRANCH   4   7
ATOM      7  C   UNL A   1      31.409  27.084  26.139  1.00  0.00     0.077 A 
ATOM      8  C   UNL A   1      31.321  26.959  22.257  1.00  0.00     0.057 C 
ATOM      9  C   UNL A   1      31.107  26.857  23.733  1.00  0.00     0.007 A 
ATOM     10  S   UNL A   1      30.259  25.548  24.378  1.00  0.00    -0.122 S 
ATOM     11  C   UNL A   1      31.442  27.731  24.754  1.00  0.00    -0.022 A 
ATOM     12  C   UNL A   1      31.033  25.759  25.908  1.00  0.00     0.108 A 
ATOM     13  C   UNL A   1      31.910  29.133  24.461  1.00  0.00     0.046 C 
BRANCH  12  14
ATOM     14  N   UNL A   1      31.104  24.478  26.405  1.00  0.00    -0.317 N 
ATOM     15  C   UNL A   1      32.159  23.628  26.238  1.00  0.00     0.227 C 
ATOM     16  H   UNL A   1      30.333  24.147  26.921  1.00  0.00     0.170 HD
ATOM     17  O   UNL A   1      31.956  22.419  26.133  1.00  0.00    -0.275 OA
BRANCH  15  18
ATOM     18  C   UNL A   1      33.528  24.187  26.320  1.00  0.00     0.132 C 
BRANCH  18  19
ATOM     19  C   UNL A   1      34.293  24.780  25.138  1.00  0.00     0.127 C 
ATOM     20  C   UNL A   1      33.928  24.458  23.701  1.00  0.00     0.033 C 
ATOM     21  O   UNL A   1      35.698  24.565  25.330  1.00  0.00    -0.378 OA
ATOM     22  C   UNL A   1      34.314  23.046  23.317  1.00  0.00     0.005 C 
ATOM     23  C   UNL A   1      36.078  23.206  25.116  1.00  0.00     0.160 C 
ATOM     24  C   UNL A   1      35.768  22.786  23.685  1.00  0.00     0.029 C 
ENDBRANCH  18  19
ENDBRANCH  15  18
ENDBRANCH  12  14
ENDBRANCH   4   7
ENDBRANCH   2   3
ENDBRANCH   1   2
BRANCH   1  25
ATOM     25  C   UNL A   1      35.411  31.394  28.380  1.00  0.00     0.118 C 
BRANCH  25  26
ATOM     26  N   UNL A   1      35.426  30.940  29.757  1.00  0.00    -0.352 N 
ATOM     27  C   UNL A   1      36.397  30.336  30.523  1.00  0.00     0.251 C 
ATOM     28  H   UNL A   1      34.579  31.094  30.235  1.00  0.00     0.163 HD
ATOM     29  O   UNL A   1      36.108  30.070  31.690  1.00  0.00    -0.269 OA
BRANCH  27  30
ATOM     30  C   UNL A   1      37.746  29.968  30.007  1.00  0.00     0.039 A 
ATOM     31  C   UNL A   1      38.723  29.562  30.929  1.00  0.00     0.014 A 
ATOM     32  C   UNL A   1      38.102  30.045  28.661  1.00  0.00     0.014 A 
ATOM     33  C   UNL A   1      40.010  29.208  30.500  1.00  0.00     0.010 A 
ATOM     34  C   UNL A   1      39.333  29.559  28.220  1.00  0.00     0.010 A 
ATOM     35  C   UNL A   1      40.322  29.170  29.132  1.00  0.00    -0.014 A 
BRANCH  35  36
ATOM     36  C   UNL A   1      41.681  28.792  28.644  1.00  0.00     0.031 A 
ATOM     37  C   UNL A   1      42.780  29.830  28.572  1.00  0.00     0.074 A 
ATOM     38  C   UNL A   1      41.919  27.533  28.220  1.00  0.00     0.049 A 
ATOM     39  N   UNL A   1      44.007  29.714  28.130  1.00  0.00    -0.248 NA
ATOM     40  C   UNL A   1      42.441  31.195  29.009  1.00  0.00     0.031 C 
ATOM     41  C   UNL A   1      40.926  26.457  28.158  1.00  0.00     0.029 A 
ATOM     42  N   UNL A   1      43.071  26.939  27.764  1.00  0.00    -0.354 N 
ATOM     43  C   UNL A   1      44.563  30.987  28.206  1.00  0.00     0.074 A 
ATOM     44  C   UNL A   1      43.518  31.877  28.653  1.00  0.00     0.031 C 
ATOM     45  C   UNL A   1      41.521  25.327  27.746  1.00  0.00     0.029 A 
ATOM     46  C   UNL A   1      42.928  25.601  27.477  1.00  0.00     0.049 A 
ATOM     47  H   UNL A   1      43.919  27.426  27.653  1.00  0.00     0.167 HD
ATOM     48  C   UNL A   1      45.840  31.378  27.969  1.00  0.00     0.037 A 
ATOM     49  C   UNL A   1      43.832  24.694  27.055  1.00  0.00     0.037 A 
ATOM     50  C   UNL A   1      46.890  30.472  27.585  1.00  0.00     0.049 A 
ATOM     51  C   UNL A   1      45.257  25.136  26.858  1.00  0.00     0.074 A 
ATOM     52  C   UNL A   1      48.233  30.740  27.391  1.00  0.00     0.029 A 
ATOM     53  N   UNL A   1      46.713  29.117  27.351  1.00  0.00    -0.354 N 
ATOM     54  N   UNL A   1      45.779  26.333  26.999  1.00  0.00    -0.248 NA
ATOM     55  C   UNL A   1      46.222  24.103  26.459  1.00  0.00     0.031 C 
ATOM     56  C   UNL A   1      48.861  29.551  27.000  1.00  0.00     0.029 A 
ATOM     57  C   UNL A   1      47.920  28.534  27.003  1.00  0.00     0.049 A 
ATOM     58  H   UNL A   1      45.856  28.638  27.421  1.00  0.00     0.167 HD
ATOM     59  C   UNL A   1      47.135  26.192  26.731  1.00  0.00     0.074 A 
ATOM     60  C   UNL A   1      47.357  24.788  26.444  1.00  0.00     0.031 C 
ATOM     61  C   UNL A   1      48.112  27.134  26.719  1.00  0.00     0.037 A 
BRANCH  48  62
ATOM     62  C   UNL A   1      46.171  32.840  28.146  1.00  0.00     0.058 A 
ATOM     63  C   UNL A   1      46.048  33.760  27.090  1.00  0.00     0.135 A 
ATOM     64  C   UNL A   1      46.599  33.334  29.389  1.00  0.00     0.135 A 
ATOM     65  F   UNL A   1      45.658  33.346  25.874  1.00  0.00    -0.206 F 
ATOM     66  C   UNL A   1      46.378  35.102  27.248  1.00  0.00     0.059 A 
ATOM     67  C   UNL A   1      46.902  34.681  29.579  1.00  0.00     0.059 A 
ATOM     68  F   UNL A   1      46.734  32.506  30.437  1.00  0.00    -0.206 F 
ATOM     69  C   UNL A   1      46.804  35.554  28.496  1.00  0.00     0.060 A 
BRANCH  69  70
ATOM     70  S   UNL A   1      47.224  37.300  28.686  1.00  0.00     0.124 S 
ATOM     71  O   UNL A   1      47.382  37.715  27.293  1.00  0.00    -0.237 OA
ATOM     72  O   UNL A   1      46.044  37.831  29.370  1.00  0.00    -0.237 OA
ATOM     73  O   UNL A   1      48.445  37.276  29.476  1.00  0.00    -0.744 OA
ENDBRANCH  69  70
ENDBRANCH  48  62
BRANCH  49  74
ATOM     74  C   UNL A   1      43.429  23.275  26.847  1.00  0.00     0.058 A 
ATOM     75  C   UNL A   1      43.318  22.738  25.555  1.00  0.00     0.135 A 
ATOM     76  C   UNL A   1      43.165  22.421  27.929  1.00  0.00     0.135 A 
ATOM     77  F   UNL A   1      43.557  23.512  24.485  1.00  0.00    -0.206 F 
ATOM     78  C   UNL A   1      42.941  21.415  25.340  1.00  0.00     0.059 A 
ATOM     79  C   UNL A   1      42.814  21.086  27.741  1.00  0.00     0.059 A 
ATOM     80  F   UNL A   1      43.274  22.876  29.186  1.00  0.00    -0.206 F 
ATOM     81  C   UNL A   1      42.694  20.595  26.442  1.00  0.00     0.060 A 
BRANCH  81  82
ATOM     82  S   UNL A   1      42.248  18.868  26.153  1.00  0.00     0.124 S 
ATOM     83  O   UNL A   1      42.511  18.274  27.458  1.00  0.00    -0.237 OA
ATOM     84  O   UNL A   1      40.844  18.974  25.769  1.00  0.00    -0.237 OA
ATOM     85  O   UNL A   1      43.154  18.463  25.081  1.00  0.00    -0.744 OA
ENDBRANCH  81  82
ENDBRANCH  49  74
BRANCH  61  86
ATOM     86  C   UNL A   1      49.508  26.666  26.415  1.00  0.00     0.058 A 
ATOM     87  C   UNL A   1      50.358  26.176  27.419  1.00  0.00     0.135 A 
ATOM     88  C   UNL A   1      49.995  26.692  25.097  1.00  0.00     0.135 A 
ATOM     89  F   UNL A   1      49.941  26.130  28.695  1.00  0.00    -0.206 F 
ATOM     90  C   UNL A   1      51.659  25.777  27.136  1.00  0.00     0.059 A 
ATOM     91  C   UNL A   1      51.281  26.265  24.787  1.00  0.00     0.059 A 
ATOM     92  F   UNL A   1      49.217  27.133  24.096  1.00  0.00    -0.206 F 
ATOM     93  C   UNL A   1      52.113  25.831  25.817  1.00  0.00     0.060 A 
BRANCH  93  94
ATOM     94  S   UNL A   1      53.808  25.320  25.465  1.00  0.00     0.124 S 
ATOM     95  O   UNL A   1      54.565  26.168  26.379  1.00  0.00    -0.237 OA
ATOM     96  O   UNL A   1      53.781  23.898  25.794  1.00  0.00    -0.237 OA
ATOM     97  O   UNL A   1      53.966  25.626  24.046  1.00  0.00    -0.744 OA
ENDBRANCH  93  94
ENDBRANCH  61  86
ENDBRANCH  35  36
ENDBRANCH  27  30
ENDBRANCH  25  26
ENDBRANCH   1  25
TORSDOF 16
ENDMDL
MODEL 2
REMARK VINA RESULT:     -11.8      6.507     12.157
REMARK SMILES Cc1sc(NC(=O)C[C@@H]2CCCCO2)c(C(=O)NCCCNC(=O)c2ccc(-c3c4nc(c(-c5c(F)cc(S(=O)(=O)[O-])cc5F)c5ccc([nH]5)c(-c5c(F)cc(S(=O)(=O)[O-])cc5F)c5nc(c(-c6c(F)cc(S(=O)(=O)[O-])cc6F)c6ccc3[nH]6)C=C5)C=C4)cc2)c1C
REMARK SMILES IDX 20 1 19 2 18 3 16 4 17 5 15 7 1 8 2 9 3 10 91 11 4 12 92 13
REMARK SMILES IDX 5 14 6 15 7 17 8 18 9 19 10 20 14 21 11 22 13 23 12 24 21 25
REMARK SMILES IDX 22 26 23 27 24 29 25 30 26 31 90 32 27 33 89 34 28 35 29 36
REMARK SMILES IDX 30 37 83 38 31 39 88 40 82 41 84 42 32 43 87 44 81 45 80 46
REMARK SMILES IDX 33 48 67 49 46 50 66 51 47 52 50 53 65 54 85 55 48 56 49 57
REMARK SMILES IDX 64 59 86 60 51 61 34 62 35 63 44 64 36 65 37 66 43 67 45 68
REMARK SMILES IDX 38 69 39 70 40 71 41 72 42 73 68 74 69 75 78 76 70 77 71 78
REMARK SMILES IDX 77 79 79 80 72 81 73 82 74 83 75 84 76 85 52 86 53 87 62 88
REMARK SMILES IDX 54 89 55 90 61 91 63 92 56 93 57 94 58 95 59 96 60 97
REMARK H PARENT 18 6 5 16 22 28 84 47 50 58
REMARK Flexibility Score: inf
ROOT
ATOM      1  C   UNL A   1      39.229  22.146  26.237  1.00  0.00     0.042 C 
ENDROOT
BRANCH   1   2
ATOM      2  C   UNL A   1      37.839  22.691  25.850  1.00  0.00     0.118 C 
BRANCH   2   3
ATOM      3  N   UNL A   1      36.868  21.615  25.552  1.00  0.00    -0.352 N 
ATOM      4  C   UNL A   1      35.614  21.218  25.174  1.00  0.00     0.254 C 
ATOM      5  O   UNL A   1      35.673  19.987  25.006  1.00  0.00    -0.269 OA
ATOM      6  H   UNL A   1      37.366  20.777  25.694  1.00  0.00     0.163 HD
BRANCH   4   7
ATOM      7  C   UNL A   1      34.278  21.868  24.943  1.00  0.00     0.077 A 
ATOM      8  C   UNL A   1      31.199  23.388  26.759  1.00  0.00     0.057 C 
ATOM      9  C   UNL A   1      32.188  22.714  25.865  1.00  0.00     0.007 A 
ATOM     10  S   UNL A   1      31.882  22.578  24.211  1.00  0.00    -0.122 S 
ATOM     11  C   UNL A   1      33.378  22.068  26.163  1.00  0.00    -0.022 A 
ATOM     12  C   UNL A   1      33.571  22.427  23.878  1.00  0.00     0.108 A 
ATOM     13  C   UNL A   1      33.752  21.737  27.584  1.00  0.00     0.046 C 
BRANCH  12  14
ATOM     14  N   UNL A   1      33.699  23.005  22.635  1.00  0.00    -0.317 N 
ATOM     15  C   UNL A   1      33.510  24.329  22.361  1.00  0.00     0.227 C 
ATOM     16  H   UNL A   1      33.947  22.418  21.884  1.00  0.00     0.170 HD
ATOM     17  O   UNL A   1      33.039  24.664  21.275  1.00  0.00    -0.275 OA
BRANCH  15  18
ATOM     18  C   UNL A   1      34.003  25.324  23.341  1.00  0.00     0.132 C 
BRANCH  18  19
ATOM     19  C   UNL A   1      33.109  26.130  24.281  1.00  0.00     0.127 C 
ATOM     20  C   UNL A   1      31.642  26.376  23.981  1.00  0.00     0.033 C 
ATOM     21  O   UNL A   1      33.746  27.378  24.584  1.00  0.00    -0.378 OA
ATOM     22  C   UNL A   1      31.448  27.366  22.854  1.00  0.00     0.005 C 
ATOM     23  C   UNL A   1      33.710  28.291  23.488  1.00  0.00     0.160 C 
ATOM     24  C   UNL A   1      32.270  28.621  23.117  1.00  0.00     0.029 C 
ENDBRANCH  18  19
ENDBRANCH  15  18
ENDBRANCH  12  14
ENDBRANCH   4   7
ENDBRANCH   2   3
ENDBRANCH   1   2
BRANCH   1  25
ATOM     25  C   UNL A   1      40.214  23.088  26.921  1.00  0.00     0.118 C 
BRANCH  25  26
ATOM     26  N   UNL A   1      41.010  23.901  26.022  1.00  0.00    -0.352 N 
ATOM     27  C   UNL A   1      41.512  25.179  26.127  1.00  0.00     0.251 C 
ATOM     28  H   UNL A   1      41.235  23.452  25.175  1.00  0.00     0.163 HD
ATOM     29  O   UNL A   1      42.173  25.602  25.178  1.00  0.00    -0.269 OA
BRANCH  27  30
ATOM     30  C   UNL A   1      41.270  26.067  27.299  1.00  0.00     0.039 A 
ATOM     31  C   UNL A   1      42.106  27.181  27.472  1.00  0.00     0.014 A 
ATOM     32  C   UNL A   1      40.284  25.828  28.255  1.00  0.00     0.014 A 
ATOM     33  C   UNL A   1      41.927  28.049  28.558  1.00  0.00     0.010 A 
ATOM     34  C   UNL A   1      40.016  26.766  29.253  1.00  0.00     0.010 A 
ATOM     35  C   UNL A   1      40.856  27.870  29.446  1.00  0.00    -0.014 A 
BRANCH  35  36
ATOM     36  C   UNL A   1      40.635  28.781  30.608  1.00  0.00     0.031 A 
ATOM     37  C   UNL A   1      41.491  28.650  31.850  1.00  0.00     0.074 A 
ATOM     38  C   UNL A   1      39.640  29.692  30.573  1.00  0.00     0.049 A 
ATOM     39  N   UNL A   1      41.422  29.307  32.981  1.00  0.00    -0.248 NA
ATOM     40  C   UNL A   1      42.531  27.606  31.841  1.00  0.00     0.031 C 
ATOM     41  C   UNL A   1      38.690  29.866  29.471  1.00  0.00     0.029 A 
ATOM     42  N   UNL A   1      39.261  30.647  31.484  1.00  0.00    -0.354 N 
ATOM     43  C   UNL A   1      42.379  28.735  33.815  1.00  0.00     0.074 A 
ATOM     44  C   UNL A   1      42.954  27.623  33.095  1.00  0.00     0.031 C 
ATOM     45  C   UNL A   1      37.877  30.898  29.745  1.00  0.00     0.029 A 
ATOM     46  C   UNL A   1      38.219  31.438  31.057  1.00  0.00     0.049 A 
ATOM     47  H   UNL A   1      39.695  30.756  32.361  1.00  0.00     0.167 HD
ATOM     48  C   UNL A   1      42.779  29.123  35.050  1.00  0.00     0.037 A 
ATOM     49  C   UNL A   1      37.615  32.486  31.650  1.00  0.00     0.037 A 
ATOM     50  C   UNL A   1      42.244  30.271  35.734  1.00  0.00     0.049 A 
ATOM     51  C   UNL A   1      38.115  32.939  32.996  1.00  0.00     0.074 A 
ATOM     52  C   UNL A   1      42.622  30.803  36.953  1.00  0.00     0.029 A 
ATOM     53  N   UNL A   1      41.223  31.072  35.246  1.00  0.00    -0.354 N 
ATOM     54  N   UNL A   1      39.067  32.426  33.740  1.00  0.00    -0.248 NA
ATOM     55  C   UNL A   1      37.471  34.124  33.577  1.00  0.00     0.031 C 
ATOM     56  C   UNL A   1      41.800  31.905  37.221  1.00  0.00     0.029 A 
ATOM     57  C   UNL A   1      40.948  32.090  36.144  1.00  0.00     0.049 A 
ATOM     58  H   UNL A   1      40.760  30.938  34.387  1.00  0.00     0.167 HD
ATOM     59  C   UNL A   1      39.153  33.238  34.864  1.00  0.00     0.074 A 
ATOM     60  C   UNL A   1      38.173  34.291  34.690  1.00  0.00     0.031 C 
ATOM     61  C   UNL A   1      39.964  33.125  35.947  1.00  0.00     0.037 A 
BRANCH  48  62
ATOM     62  C   UNL A   1      43.861  28.316  35.725  1.00  0.00     0.058 A 
ATOM     63  C   UNL A   1      43.559  27.272  36.617  1.00  0.00     0.135 A 
ATOM     64  C   UNL A   1      45.217  28.573  35.465  1.00  0.00     0.135 A 
ATOM     65  F   UNL A   1      42.282  26.987  36.918  1.00  0.00    -0.206 F 
ATOM     66  C   UNL A   1      44.557  26.545  37.257  1.00  0.00     0.059 A 
ATOM     67  C   UNL A   1      46.234  27.835  36.068  1.00  0.00     0.059 A 
ATOM     68  F   UNL A   1      45.570  29.556  34.621  1.00  0.00    -0.206 F 
ATOM     69  C   UNL A   1      45.892  26.834  36.977  1.00  0.00     0.060 A 
BRANCH  69  70
ATOM     70  S   UNL A   1      47.177  25.879  37.813  1.00  0.00     0.124 S 
ATOM     71  O   UNL A   1      46.903  24.530  37.322  1.00  0.00    -0.237 OA
ATOM     72  O   UNL A   1      48.403  26.496  37.303  1.00  0.00    -0.237 OA
ATOM     73  O   UNL A   1      46.908  26.101  39.224  1.00  0.00    -0.744 OA
ENDBRANCH  69  70
ENDBRANCH  48  62
BRANCH  49  74
ATOM     74  C   UNL A   1      36.514  33.210  30.954  1.00  0.00     0.058 A 
ATOM     75  C   UNL A   1      35.187  33.107  31.399  1.00  0.00     0.135 A 
ATOM     76  C   UNL A   1      36.763  34.031  29.844  1.00  0.00     0.135 A 
ATOM     77  F   UNL A   1      34.893  32.331  32.455  1.00  0.00    -0.206 F 
ATOM     78  C   UNL A   1      34.144  33.772  30.760  1.00  0.00     0.059 A 
ATOM     79  C   UNL A   1      35.742  34.731  29.205  1.00  0.00     0.059 A 
ATOM     80  F   UNL A   1      38.015  34.182  29.386  1.00  0.00    -0.206 F 
ATOM     81  C   UNL A   1      34.433  34.586  29.664  1.00  0.00     0.060 A 
BRANCH  81  82
ATOM     82  S   UNL A   1      33.080  35.481  28.870  1.00  0.00     0.124 S 
ATOM     83  O   UNL A   1      32.315  35.942  30.022  1.00  0.00    -0.237 OA
ATOM     84  O   UNL A   1      33.792  36.513  28.121  1.00  0.00    -0.237 OA
ATOM     85  O   UNL A   1      32.435  34.457  28.051  1.00  0.00    -0.744 OA
ENDBRANCH  81  82
ENDBRANCH  49  74
BRANCH  61  86
ATOM     86  C   UNL A   1      39.841  34.186  37.004  1.00  0.00     0.058 A 
ATOM     87  C   UNL A   1      39.118  33.968  38.189  1.00  0.00     0.135 A 
ATOM     88  C   UNL A   1      40.469  35.431  36.838  1.00  0.00     0.135 A 
ATOM     89  F   UNL A   1      38.500  32.795  38.397  1.00  0.00    -0.206 F 
ATOM     90  C   UNL A   1      38.981  34.966  39.147  1.00  0.00     0.059 A 
ATOM     91  C   UNL A   1      40.373  36.431  37.799  1.00  0.00     0.059 A 
ATOM     92  F   UNL A   1      41.188  35.685  35.733  1.00  0.00    -0.206 F 
ATOM     93  C   UNL A   1      39.607  36.196  38.940  1.00  0.00     0.060 A 
BRANCH  93  94
ATOM     94  S   UNL A   1      39.411  37.487  40.186  1.00  0.00     0.124 S 
ATOM     95  O   UNL A   1      38.496  38.404  39.516  1.00  0.00    -0.237 OA
ATOM     96  O   UNL A   1      38.855  36.748  41.317  1.00  0.00    -0.237 OA
ATOM     97  O   UNL A   1      40.770  37.983  40.377  1.00  0.00    -0.744 OA
ENDBRANCH  93  94
ENDBRANCH  61  86
ENDBRANCH  35  36
ENDBRANCH  27  30
ENDBRANCH  25  26
ENDBRANCH   1  25
TORSDOF 16
ENDMDL
MODEL 3
REMARK VINA RESULT:     -11.8      5.038      6.488
REMARK SMILES Cc1sc(NC(=O)C[C@@H]2CCCCO2)c(C(=O)NCCCNC(=O)c2ccc(-c3c4nc(c(-c5c(F)cc(S(=O)(=O)[O-])cc5F)c5ccc([nH]5)c(-c5c(F)cc(S(=O)(=O)[O-])cc5F)c5nc(c(-c6c(F)cc(S(=O)(=O)[O-])cc6F)c6ccc3[nH]6)C=C5)C=C4)cc2)c1C
REMARK SMILES IDX 20 1 19 2 18 3 16 4 17 5 15 7 1 8 2 9 3 10 91 11 4 12 92 13
REMARK SMILES IDX 5 14 6 15 7 17 8 18 9 19 10 20 14 21 11 22 13 23 12 24 21 25
REMARK SMILES IDX 22 26 23 27 24 29 25 30 26 31 90 32 27 33 89 34 28 35 29 36
REMARK SMILES IDX 30 37 83 38 31 39 88 40 82 41 84 42 32 43 87 44 81 45 80 46
REMARK SMILES IDX 33 48 67 49 46 50 66 51 47 52 50 53 65 54 85 55 48 56 49 57
REMARK SMILES IDX 64 59 86 60 51 61 34 62 35 63 44 64 36 65 37 66 43 67 45 68
REMARK SMILES IDX 38 69 39 70 40 71 41 72 42 73 68 74 69 75 78 76 70 77 71 78
REMARK SMILES IDX 77 79 79 80 72 81 73 82 74 83 75 84 76 85 52 86 53 87 62 88
REMARK SMILES IDX 54 89 55 90 61 91 63 92 56 93 57 94 58 95 59 96 60 97
REMARK H PARENT 18 6 5 16 22 28 84 47 50 58
REMARK Flexibility Score: inf
ROOT
ATOM      1  C   UNL A   1      33.393  27.583  26.467  1.00  0.00     0.042 C 
ENDROOT
BRANCH   1   2
ATOM      2  C   UNL A   1      32.071  27.774  27.239  1.00  0.00     0.118 C 
BRANCH   2   3
ATOM      3  N   UNL A   1      31.037  26.788  26.851  1.00  0.00    -0.352 N 
ATOM      4  C   UNL A   1      30.650  25.700  26.117  1.00  0.00     0.254 C 
ATOM      5  O   UNL A   1      29.525  25.377  26.537  1.00  0.00    -0.269 OA
ATOM      6  H   UNL A   1      30.242  27.036  27.375  1.00  0.00     0.163 HD
BRANCH   4   7
ATOM      7  C   UNL A   1      31.216  24.871  24.997  1.00  0.00     0.077 A 
ATOM      8  C   UNL A   1      32.781  25.083  21.448  1.00  0.00     0.057 C 
ATOM      9  C   UNL A   1      32.061  24.754  22.716  1.00  0.00     0.007 A 
ATOM     10  S   UNL A   1      31.745  23.147  23.119  1.00  0.00    -0.122 S 
ATOM     11  C   UNL A   1      31.501  25.583  23.675  1.00  0.00    -0.022 A 
ATOM     12  C   UNL A   1      31.632  23.554  24.794  1.00  0.00     0.108 A 
ATOM     13  C   UNL A   1      31.333  27.060  23.429  1.00  0.00     0.046 C 
BRANCH  12  14
ATOM     14  N   UNL A   1      32.085  22.418  25.426  1.00  0.00    -0.317 N 
ATOM     15  C   UNL A   1      33.379  22.187  25.795  1.00  0.00     0.227 C 
ATOM     16  H   UNL A   1      31.424  21.716  25.627  1.00  0.00     0.170 HD
ATOM     17  O   UNL A   1      33.826  21.042  25.762  1.00  0.00    -0.275 OA
BRANCH  15  18
ATOM     18  C   UNL A   1      34.161  23.316  26.349  1.00  0.00     0.132 C 
BRANCH  18  19
ATOM     19  C   UNL A   1      35.220  24.099  25.574  1.00  0.00     0.127 C 
ATOM     20  C   UNL A   1      35.256  24.117  24.057  1.00  0.00     0.033 C 
ATOM     21  O   UNL A   1      36.519  23.758  26.076  1.00  0.00    -0.378 OA
ATOM     22  C   UNL A   1      35.725  22.799  23.481  1.00  0.00     0.005 C 
ATOM     23  C   UNL A   1      36.937  22.455  25.670  1.00  0.00     0.160 C 
ATOM     24  C   UNL A   1      37.025  22.373  24.151  1.00  0.00     0.029 C 
ENDBRANCH  18  19
ENDBRANCH  15  18
ENDBRANCH  12  14
ENDBRANCH   4   7
ENDBRANCH   2   3
ENDBRANCH   1   2
BRANCH   1  25
ATOM     25  C   UNL A   1      34.030  28.801  25.807  1.00  0.00     0.118 C 
BRANCH  25  26
ATOM     26  N   UNL A   1      33.672  30.076  26.399  1.00  0.00    -0.352 N 
ATOM     27  C   UNL A   1      34.298  30.873  27.331  1.00  0.00     0.251 C 
ATOM     28  H   UNL A   1      32.819  30.440  26.070  1.00  0.00     0.163 HD
ATOM     29  O   UNL A   1      33.738  31.927  27.635  1.00  0.00    -0.269 OA
BRANCH  27  30
ATOM     30  C   UNL A   1      35.580  30.512  28.000  1.00  0.00     0.039 A 
ATOM     31  C   UNL A   1      35.533  29.647  29.104  1.00  0.00     0.014 A 
ATOM     32  C   UNL A   1      36.819  31.020  27.612  1.00  0.00     0.014 A 
ATOM     33  C   UNL A   1      36.707  29.276  29.774  1.00  0.00     0.010 A 
ATOM     34  C   UNL A   1      37.997  30.541  28.188  1.00  0.00     0.010 A 
ATOM     35  C   UNL A   1      37.961  29.694  29.302  1.00  0.00    -0.014 A 
BRANCH  35  36
ATOM     36  C   UNL A   1      39.229  29.311  29.990  1.00  0.00     0.031 A 
ATOM     37  C   UNL A   1      39.639  30.005  31.271  1.00  0.00     0.074 A 
ATOM     38  C   UNL A   1      40.037  28.378  29.444  1.00  0.00     0.049 A 
ATOM     39  N   UNL A   1      40.724  29.854  31.989  1.00  0.00    -0.248 NA
ATOM     40  C   UNL A   1      38.734  31.045  31.789  1.00  0.00     0.031 C 
ATOM     41  C   UNL A   1      39.801  27.692  28.171  1.00  0.00     0.029 A 
ATOM     42  N   UNL A   1      41.219  27.839  29.891  1.00  0.00    -0.354 N 
ATOM     43  C   UNL A   1      40.641  30.795  33.011  1.00  0.00     0.074 A 
ATOM     44  C   UNL A   1      39.447  31.570  32.773  1.00  0.00     0.031 C 
ATOM     45  C   UNL A   1      40.773  26.789  27.967  1.00  0.00     0.029 A 
ATOM     46  C   UNL A   1      41.723  26.854  29.072  1.00  0.00     0.049 A 
ATOM     47  H   UNL A   1      41.665  28.130  30.719  1.00  0.00     0.167 HD
ATOM     48  C   UNL A   1      41.457  30.973  34.078  1.00  0.00     0.037 A 
ATOM     49  C   UNL A   1      42.820  26.082  29.203  1.00  0.00     0.037 A 
ATOM     50  C   UNL A   1      42.611  30.154  34.341  1.00  0.00     0.049 A 
ATOM     51  C   UNL A   1      43.680  26.254  30.427  1.00  0.00     0.074 A 
ATOM     52  C   UNL A   1      43.468  30.192  35.426  1.00  0.00     0.029 A 
ATOM     53  N   UNL A   1      43.059  29.136  33.512  1.00  0.00    -0.354 N 
ATOM     54  N   UNL A   1      43.548  27.106  31.418  1.00  0.00    -0.248 NA
ATOM     55  C   UNL A   1      44.830  25.350  30.561  1.00  0.00     0.031 C 
ATOM     56  C   UNL A   1      44.459  29.222  35.232  1.00  0.00     0.029 A 
ATOM     57  C   UNL A   1      44.187  28.545  34.054  1.00  0.00     0.049 A 
ATOM     58  H   UNL A   1      42.637  28.872  32.662  1.00  0.00     0.167 HD
ATOM     59  C   UNL A   1      44.580  26.825  32.303  1.00  0.00     0.074 A 
ATOM     60  C   UNL A   1      45.314  25.707  31.743  1.00  0.00     0.031 C 
ATOM     61  C   UNL A   1      44.901  27.435  33.473  1.00  0.00     0.037 A 
BRANCH  48  62
ATOM     62  C   UNL A   1      41.114  32.076  35.049  1.00  0.00     0.058 A 
ATOM     63  C   UNL A   1      40.178  31.889  36.082  1.00  0.00     0.135 A 
ATOM     64  C   UNL A   1      41.738  33.331  34.960  1.00  0.00     0.135 A 
ATOM     65  F   UNL A   1      39.537  30.716  36.210  1.00  0.00    -0.206 F 
ATOM     66  C   UNL A   1      39.845  32.914  36.961  1.00  0.00     0.059 A 
ATOM     67  C   UNL A   1      41.444  34.362  35.851  1.00  0.00     0.059 A 
ATOM     68  F   UNL A   1      42.642  33.571  33.997  1.00  0.00    -0.206 F 
ATOM     69  C   UNL A   1      40.482  34.148  36.838  1.00  0.00     0.060 A 
BRANCH  69  70
ATOM     70  S   UNL A   1      40.041  35.468  37.988  1.00  0.00     0.124 S 
ATOM     71  O   UNL A   1      39.759  36.571  37.072  1.00  0.00    -0.237 OA
ATOM     72  O   UNL A   1      38.876  34.906  38.673  1.00  0.00    -0.237 OA
ATOM     73  O   UNL A   1      41.232  35.622  38.809  1.00  0.00    -0.744 OA
ENDBRANCH  69  70
ENDBRANCH  48  62
BRANCH  49  74
ATOM     74  C   UNL A   1      43.135  25.045  28.181  1.00  0.00     0.058 A 
ATOM     75  C   UNL A   1      42.767  23.705  28.374  1.00  0.00     0.135 A 
ATOM     76  C   UNL A   1      43.792  25.371  26.984  1.00  0.00     0.135 A 
ATOM     77  F   UNL A   1      42.139  23.338  29.502  1.00  0.00    -0.206 F 
ATOM     78  C   UNL A   1      43.055  22.721  27.431  1.00  0.00     0.059 A 
ATOM     79  C   UNL A   1      44.066  24.411  26.013  1.00  0.00     0.059 A 
ATOM     80  F   UNL A   1      44.151  26.640  26.738  1.00  0.00    -0.206 F 
ATOM     81  C   UNL A   1      43.703  23.086  26.250  1.00  0.00     0.060 A 
BRANCH  81  82
ATOM     82  S   UNL A   1      44.032  21.811  25.014  1.00  0.00     0.124 S 
ATOM     83  O   UNL A   1      43.793  22.536  23.772  1.00  0.00    -0.237 OA
ATOM     84  O   UNL A   1      45.422  21.464  25.294  1.00  0.00    -0.237 OA
ATOM     85  O   UNL A   1      43.057  20.772  25.337  1.00  0.00    -0.744 OA
ENDBRANCH  81  82
ENDBRANCH  49  74
BRANCH  61  86
ATOM     86  C   UNL A   1      46.074  26.881  34.232  1.00  0.00     0.058 A 
ATOM     87  C   UNL A   1      47.378  27.363  34.031  1.00  0.00     0.135 A 
ATOM     88  C   UNL A   1      45.889  25.867  35.186  1.00  0.00     0.135 A 
ATOM     89  F   UNL A   1      47.609  28.332  33.131  1.00  0.00    -0.206 F 
ATOM     90  C   UNL A   1      48.463  26.823  34.711  1.00  0.00     0.059 A 
ATOM     91  C   UNL A   1      46.956  25.336  35.903  1.00  0.00     0.059 A 
ATOM     92  F   UNL A   1      44.661  25.384  35.431  1.00  0.00    -0.206 F 
ATOM     93  C   UNL A   1      48.242  25.805  35.641  1.00  0.00     0.060 A 
BRANCH  93  94
ATOM     94  S   UNL A   1      49.660  25.105  36.510  1.00  0.00     0.124 S 
ATOM     95  O   UNL A   1      50.713  25.242  35.510  1.00  0.00    -0.237 OA
ATOM     96  O   UNL A   1      49.775  25.977  37.676  1.00  0.00    -0.237 OA
ATOM     97  O   UNL A   1      49.240  23.737  36.797  1.00  0.00    -0.744 OA
ENDBRANCH  93  94
ENDBRANCH  61  86
ENDBRANCH  35  36
ENDBRANCH  27  30
ENDBRANCH  25  26
ENDBRANCH   1  25
TORSDOF 16
ENDMDL
