MODEL 1
REMARK VINA RESULT:     -11.4      0.000      0.000
REMARK SMILES C[C@H](NC1=[NH+]S(=O)(=O)c2ccccc21)C(=O)NCCCNC(=O)c1ccc(-c2c3nc(c(-c4c(F)cc(S(=O)(=O)[O-])cc4F)c4ccc([nH]4)c(-c4c(F)cc(S(=O)(=O)[O-])cc4F)c4nc(c(-c5c(F)cc(S(=O)(=O)[O-])cc5F)c5ccc2[nH]5)C=C4)C=C3)cc1
REMARK SMILES IDX 20 1 19 2 18 3 17 4 15 5 16 6 2 8 1 9 3 10 4 11 5 13 14 14
REMARK SMILES IDX 6 15 9 17 13 18 7 19 8 20 10 21 12 22 11 23 21 24 22 25
REMARK SMILES IDX 23 27 24 28 25 29 89 30 26 31 88 32 27 33 28 34 29 35 82 36
REMARK SMILES IDX 30 37 87 38 81 39 83 40 31 41 86 42 80 43 79 44 32 46 66 47
REMARK SMILES IDX 45 48 65 49 46 50 49 51 64 52 84 53 47 54 48 55 63 57 85 58
REMARK SMILES IDX 50 59 33 60 34 61 43 62 35 63 36 64 42 65 44 66 37 67 38 68
REMARK SMILES IDX 39 69 40 70 41 71 67 72 68 73 77 74 69 75 70 76 76 77 78 78
REMARK SMILES IDX 71 79 72 80 73 81 74 82 75 83 51 84 52 85 61 86 53 87 54 88
REMARK SMILES IDX 60 89 62 90 55 91 56 92 57 93 58 94 59 95
REMARK H PARENT 17 7 3 12 5 16 21 26 83 45 49 56
REMARK Flexibility Score: inf
ROOT
ATOM      1  C   UNL A   1      34.975  33.005  28.258  1.00  0.00     0.118 C 
ENDROOT
BRANCH   1   2
ATOM      2  C   UNL A   1      34.281  34.330  27.956  1.00  0.00     0.042 C 
BRANCH   2   3
ATOM      3  C   UNL A   1      33.077  34.624  28.845  1.00  0.00     0.118 C 
BRANCH   3   4
ATOM      4  N   UNL A   1      33.145  35.959  29.414  1.00  0.00    -0.352 N 
ATOM      5  C   UNL A   1      33.048  36.401  30.703  1.00  0.00     0.264 C 
ATOM      6  O   UNL A   1      33.178  37.614  30.889  1.00  0.00    -0.270 OA
ATOM      7  H   UNL A   1      33.288  36.674  28.753  1.00  0.00     0.163 HD
BRANCH   5   8
ATOM      8  C   UNL A   1      32.844  35.436  31.881  1.00  0.00     0.258 C 
ATOM      9  C   UNL A   1      31.504  35.730  32.559  1.00  0.00     0.069 C 
BRANCH   8  10
ATOM     10  N   UNL A   1      33.947  35.503  32.841  1.00  0.00    -0.262 N 
ATOM     11  C   UNL A   1      35.158  34.904  32.621  1.00  0.00     0.292 C 
ATOM     12  H   UNL A   1      33.813  36.001  33.680  1.00  0.00     0.306 HD
ATOM     13  N   UNL A   1      35.638  34.661  31.436  1.00  0.00    -0.162 N 
ATOM     14  C   UNL A   1      35.966  34.400  33.752  1.00  0.00     0.087 A 
ATOM     15  S   UNL A   1      37.061  33.852  31.533  1.00  0.00     0.329 S 
ATOM     16  H   UNL A   1      35.204  34.928  30.593  1.00  0.00     0.327 HD
ATOM     17  C   UNL A   1      37.065  33.719  33.265  1.00  0.00     0.124 A 
ATOM     18  C   UNL A   1      35.692  34.413  35.109  1.00  0.00     0.018 A 
ATOM     19  O   UNL A   1      38.159  34.710  31.161  1.00  0.00    -0.179 OA
ATOM     20  O   UNL A   1      36.902  32.511  31.000  1.00  0.00    -0.179 OA
ATOM     21  C   UNL A   1      37.923  32.993  34.067  1.00  0.00     0.025 A 
ATOM     22  C   UNL A   1      36.553  33.701  35.954  1.00  0.00     0.001 A 
ATOM     23  C   UNL A   1      37.654  32.989  35.435  1.00  0.00     0.002 A 
ENDBRANCH   8  10
ENDBRANCH   5   8
ENDBRANCH   3   4
ENDBRANCH   2   3
ENDBRANCH   1   2
BRANCH   1  24
ATOM     24  N   UNL A   1      34.115  31.854  28.026  1.00  0.00    -0.352 N 
ATOM     25  C   UNL A   1      34.438  30.524  27.901  1.00  0.00     0.251 C 
ATOM     26  H   UNL A   1      33.156  32.059  27.945  1.00  0.00     0.163 HD
ATOM     27  O   UNL A   1      33.578  29.729  27.531  1.00  0.00    -0.269 OA
BRANCH  25  28
ATOM     28  C   UNL A   1      35.812  30.053  28.185  1.00  0.00     0.039 A 
ATOM     29  C   UNL A   1      36.772  30.125  27.172  1.00  0.00     0.014 A 
ATOM     30  C   UNL A   1      36.152  29.522  29.432  1.00  0.00     0.014 A 
ATOM     31  C   UNL A   1      38.088  29.733  27.431  1.00  0.00     0.010 A 
ATOM     32  C   UNL A   1      37.478  29.198  29.711  1.00  0.00     0.010 A 
ATOM     33  C   UNL A   1      38.459  29.299  28.713  1.00  0.00    -0.014 A 
BRANCH  33  34
ATOM     34  C   UNL A   1      39.865  28.941  29.034  1.00  0.00     0.031 A 
ATOM     35  C   UNL A   1      40.786  29.966  29.641  1.00  0.00     0.074 A 
ATOM     36  C   UNL A   1      40.335  27.721  28.708  1.00  0.00     0.049 A 
ATOM     37  N   UNL A   1      42.067  29.881  29.889  1.00  0.00    -0.248 NA
ATOM     38  C   UNL A   1      40.191  31.267  29.987  1.00  0.00     0.031 C 
ATOM     39  C   UNL A   1      39.557  26.654  28.074  1.00  0.00     0.029 A 
ATOM     40  N   UNL A   1      41.586  27.176  28.851  1.00  0.00    -0.354 N 
ATOM     41  C   UNL A   1      42.437  31.122  30.395  1.00  0.00     0.074 A 
ATOM     42  C   UNL A   1      41.254  31.954  30.380  1.00  0.00     0.031 C 
ATOM     43  C   UNL A   1      40.343  25.581  27.897  1.00  0.00     0.029 A 
ATOM     44  C   UNL A   1      41.689  25.892  28.370  1.00  0.00     0.049 A 
ATOM     45  H   UNL A   1      42.341  27.659  29.259  1.00  0.00     0.167 HD
ATOM     46  C   UNL A   1      43.648  31.525  30.850  1.00  0.00     0.037 A 
ATOM     47  C   UNL A   1      42.747  25.062  28.309  1.00  0.00     0.037 A 
ATOM     48  C   UNL A   1      44.813  30.682  30.901  1.00  0.00     0.049 A 
ATOM     49  C   UNL A   1      44.076  25.523  28.842  1.00  0.00     0.074 A 
ATOM     50  C   UNL A   1      46.069  30.978  31.403  1.00  0.00     0.029 A 
ATOM     51  N   UNL A   1      44.866  29.375  30.440  1.00  0.00    -0.354 N 
ATOM     52  N   UNL A   1      44.396  26.683  29.361  1.00  0.00    -0.248 NA
ATOM     53  C   UNL A   1      45.186  24.561  28.784  1.00  0.00     0.031 C 
ATOM     54  C   UNL A   1      46.889  29.859  31.219  1.00  0.00     0.029 A 
ATOM     55  C   UNL A   1      46.134  28.853  30.635  1.00  0.00     0.049 A 
ATOM     56  H   UNL A   1      44.111  28.889  30.035  1.00  0.00     0.167 HD
ATOM     57  C   UNL A   1      45.737  26.585  29.714  1.00  0.00     0.074 A 
ATOM     58  C   UNL A   1      46.166  25.248  29.357  1.00  0.00     0.031 C 
ATOM     59  C   UNL A   1      46.540  27.517  30.281  1.00  0.00     0.037 A 
BRANCH  46  60
ATOM     60  C   UNL A   1      43.769  32.942  31.337  1.00  0.00     0.058 A 
ATOM     61  C   UNL A   1      44.018  34.004  30.454  1.00  0.00     0.135 A 
ATOM     62  C   UNL A   1      43.613  33.244  32.699  1.00  0.00     0.135 A 
ATOM     63  F   UNL A   1      44.190  33.768  29.143  1.00  0.00    -0.206 F 
ATOM     64  C   UNL A   1      44.141  35.313  30.907  1.00  0.00     0.059 A 
ATOM     65  C   UNL A   1      43.708  34.550  33.172  1.00  0.00     0.059 A 
ATOM     66  F   UNL A   1      43.374  32.266  33.587  1.00  0.00    -0.206 F 
ATOM     67  C   UNL A   1      43.989  35.575  32.269  1.00  0.00     0.060 A 
BRANCH  67  68
ATOM     68  S   UNL A   1      44.159  37.278  32.846  1.00  0.00     0.124 S 
ATOM     69  O   UNL A   1      45.454  37.227  33.519  1.00  0.00    -0.237 OA
ATOM     70  O   UNL A   1      44.123  38.037  31.601  1.00  0.00    -0.237 OA
ATOM     71  O   UNL A   1      43.004  37.457  33.720  1.00  0.00    -0.744 OA
ENDBRANCH  67  68
ENDBRANCH  46  60
BRANCH  47  72
ATOM     72  C   UNL A   1      42.587  23.698  27.740  1.00  0.00     0.058 A 
ATOM     73  C   UNL A   1      42.652  23.486  26.355  1.00  0.00     0.135 A 
ATOM     74  C   UNL A   1      42.389  22.582  28.566  1.00  0.00     0.135 A 
ATOM     75  F   UNL A   1      42.836  24.525  25.526  1.00  0.00    -0.206 F 
ATOM     76  C   UNL A   1      42.516  22.216  25.805  1.00  0.00     0.059 A 
ATOM     77  C   UNL A   1      42.269  21.298  28.042  1.00  0.00     0.059 A 
ATOM     78  F   UNL A   1      42.338  22.731  29.898  1.00  0.00    -0.206 F 
ATOM     79  C   UNL A   1      42.327  21.127  26.659  1.00  0.00     0.060 A 
BRANCH  79  80
ATOM     80  S   UNL A   1      42.214  19.472  25.943  1.00  0.00     0.124 S 
ATOM     81  O   UNL A   1      43.096  19.591  24.789  1.00  0.00    -0.237 OA
ATOM     82  O   UNL A   1      42.698  18.631  27.035  1.00  0.00    -0.237 OA
ATOM     83  O   UNL A   1      40.792  19.336  25.644  1.00  0.00    -0.744 OA
ENDBRANCH  79  80
ENDBRANCH  47  72
BRANCH  59  84
ATOM     84  C   UNL A   1      47.957  27.117  30.579  1.00  0.00     0.058 A 
ATOM     85  C   UNL A   1      49.001  27.385  29.681  1.00  0.00     0.135 A 
ATOM     86  C   UNL A   1      48.280  26.504  31.801  1.00  0.00     0.135 A 
ATOM     87  F   UNL A   1      48.741  27.962  28.497  1.00  0.00    -0.206 F 
ATOM     88  C   UNL A   1      50.316  27.042  29.975  1.00  0.00     0.059 A 
ATOM     89  C   UNL A   1      49.591  26.172  32.124  1.00  0.00     0.059 A 
ATOM     90  F   UNL A   1      47.318  26.236  32.697  1.00  0.00    -0.206 F 
ATOM     91  C   UNL A   1      50.601  26.435  31.200  1.00  0.00     0.060 A 
BRANCH  91  92
ATOM     92  S   UNL A   1      52.317  26.026  31.588  1.00  0.00     0.124 S 
ATOM     93  O   UNL A   1      52.666  27.088  32.525  1.00  0.00    -0.237 OA
ATOM     94  O   UNL A   1      52.201  24.688  32.159  1.00  0.00    -0.237 OA
ATOM     95  O   UNL A   1      52.981  26.090  30.289  1.00  0.00    -0.744 OA
ENDBRANCH  91  92
ENDBRANCH  59  84
ENDBRANCH  33  34
ENDBRANCH  25  28
ENDBRANCH   1  24
TORSDOF 14
ENDMDL
MODEL 2
REMARK VINA RESULT:     -11.4      5.341     12.155
REMARK SMILES C[C@H](NC1=[NH+]S(=O)(=O)c2ccccc21)C(=O)NCCCNC(=O)c1ccc(-c2c3nc(c(-c4c(F)cc(S(=O)(=O)[O-])cc4F)c4ccc([nH]4)c(-c4c(F)cc(S(=O)(=O)[O-])cc4F)c4nc(c(-c5c(F)cc(S(=O)(=O)[O-])cc5F)c5ccc2[nH]5)C=C4)C=C3)cc1
REMARK SMILES IDX 20 1 19 2 18 3 17 4 15 5 16 6 2 8 1 9 3 10 4 11 5 13 14 14
REMARK SMILES IDX 6 15 9 17 13 18 7 19 8 20 10 21 12 22 11 23 21 24 22 25
REMARK SMILES IDX 23 27 24 28 25 29 89 30 26 31 88 32 27 33 28 34 29 35 82 36
REMARK SMILES IDX 30 37 87 38 81 39 83 40 31 41 86 42 80 43 79 44 32 46 66 47
REMARK SMILES IDX 45 48 65 49 46 50 49 51 64 52 84 53 47 54 48 55 63 57 85 58
REMARK SMILES IDX 50 59 33 60 34 61 43 62 35 63 36 64 42 65 44 66 37 67 38 68
REMARK SMILES IDX 39 69 40 70 41 71 67 72 68 73 77 74 69 75 70 76 76 77 78 78
REMARK SMILES IDX 71 79 72 80 73 81 74 82 75 83 51 84 52 85 61 86 53 87 54 88
REMARK SMILES IDX 60 89 62 90 55 91 56 92 57 93 58 94 59 95
REMARK H PARENT 17 7 3 12 5 16 21 26 83 45 49 56
REMARK Flexibility Score: inf
ROOT
ATOM      1  C   UNL A   1      38.366  24.138  26.388  1.00  0.00     0.118 C 
ENDROOT
BRANCH   1   2
ATOM      2  C   UNL A   1      37.510  22.951  25.959  1.00  0.00     0.042 C 
BRANCH   2   3
ATOM      3  C   UNL A   1      37.031  23.013  24.512  1.00  0.00     0.118 C 
BRANCH   3   4
ATOM      4  N   UNL A   1      35.934  22.091  24.271  1.00  0.00    -0.352 N 
ATOM      5  C   UNL A   1      34.601  22.174  24.553  1.00  0.00     0.264 C 
ATOM      6  O   UNL A   1      33.893  21.228  24.195  1.00  0.00    -0.270 OA
ATOM      7  H   UNL A   1      36.199  21.255  23.823  1.00  0.00     0.163 HD
BRANCH   5   8
ATOM      8  C   UNL A   1      33.988  23.409  25.234  1.00  0.00     0.258 C 
ATOM      9  C   UNL A   1      33.824  23.140  26.731  1.00  0.00     0.069 C 
BRANCH   8  10
ATOM     10  N   UNL A   1      32.716  23.795  24.623  1.00  0.00    -0.262 N 
ATOM     11  C   UNL A   1      32.623  24.738  23.636  1.00  0.00     0.292 C 
ATOM     12  H   UNL A   1      31.890  23.358  24.937  1.00  0.00     0.306 HD
ATOM     13  N   UNL A   1      33.593  25.019  22.814  1.00  0.00    -0.162 N 
ATOM     14  C   UNL A   1      31.414  25.579  23.507  1.00  0.00     0.087 A 
ATOM     15  S   UNL A   1      33.182  26.257  21.822  1.00  0.00     0.329 S 
ATOM     16  H   UNL A   1      34.459  24.549  22.792  1.00  0.00     0.327 HD
ATOM     17  C   UNL A   1      31.623  26.538  22.534  1.00  0.00     0.124 A 
ATOM     18  C   UNL A   1      30.265  25.598  24.278  1.00  0.00     0.018 A 
ATOM     19  O   UNL A   1      32.964  25.780  20.477  1.00  0.00    -0.179 OA
ATOM     20  O   UNL A   1      34.003  27.417  22.115  1.00  0.00    -0.179 OA
ATOM     21  C   UNL A   1      30.744  27.575  22.293  1.00  0.00     0.025 A 
ATOM     22  C   UNL A   1      29.342  26.626  24.046  1.00  0.00     0.001 A 
ATOM     23  C   UNL A   1      29.585  27.612  23.068  1.00  0.00     0.002 A 
ENDBRANCH   8  10
ENDBRANCH   5   8
ENDBRANCH   3   4
ENDBRANCH   2   3
ENDBRANCH   1   2
BRANCH   1  24
ATOM     24  N   UNL A   1      39.782  23.937  26.122  1.00  0.00    -0.352 N 
ATOM     25  C   UNL A   1      40.869  24.667  26.538  1.00  0.00     0.251 C 
ATOM     26  H   UNL A   1      39.993  23.160  25.555  1.00  0.00     0.163 HD
ATOM     27  O   UNL A   1      41.973  24.429  26.055  1.00  0.00    -0.269 OA
BRANCH  25  28
ATOM     28  C   UNL A   1      40.714  25.745  27.540  1.00  0.00     0.039 A 
ATOM     29  C   UNL A   1      39.750  25.600  28.543  1.00  0.00     0.014 A 
ATOM     30  C   UNL A   1      41.494  26.903  27.484  1.00  0.00     0.014 A 
ATOM     31  C   UNL A   1      39.619  26.581  29.528  1.00  0.00     0.010 A 
ATOM     32  C   UNL A   1      41.411  27.846  28.506  1.00  0.00     0.010 A 
ATOM     33  C   UNL A   1      40.472  27.695  29.538  1.00  0.00    -0.014 A 
BRANCH  33  34
ATOM     34  C   UNL A   1      40.400  28.719  30.613  1.00  0.00     0.031 A 
ATOM     35  C   UNL A   1      41.287  28.607  31.824  1.00  0.00     0.074 A 
ATOM     36  C   UNL A   1      39.483  29.704  30.537  1.00  0.00     0.049 A 
ATOM     37  N   UNL A   1      41.295  29.332  32.912  1.00  0.00    -0.248 NA
ATOM     38  C   UNL A   1      42.276  27.517  31.821  1.00  0.00     0.031 C 
ATOM     39  C   UNL A   1      38.533  29.895  29.438  1.00  0.00     0.029 A 
ATOM     40  N   UNL A   1      39.188  30.721  31.409  1.00  0.00    -0.354 N 
ATOM     41  C   UNL A   1      42.268  28.772  33.732  1.00  0.00     0.074 A 
ATOM     42  C   UNL A   1      42.800  27.623  33.033  1.00  0.00     0.031 C 
ATOM     43  C   UNL A   1      37.774  30.971  29.696  1.00  0.00     0.029 A 
ATOM     44  C   UNL A   1      38.154  31.526  30.991  1.00  0.00     0.049 A 
ATOM     45  H   UNL A   1      39.670  30.861  32.256  1.00  0.00     0.167 HD
ATOM     46  C   UNL A   1      42.693  29.190  34.949  1.00  0.00     0.037 A 
ATOM     47  C   UNL A   1      37.573  32.584  31.587  1.00  0.00     0.037 A 
ATOM     48  C   UNL A   1      42.190  30.358  35.624  1.00  0.00     0.049 A 
ATOM     49  C   UNL A   1      38.078  33.044  32.927  1.00  0.00     0.074 A 
ATOM     50  C   UNL A   1      42.601  30.899  36.830  1.00  0.00     0.029 A 
ATOM     51  N   UNL A   1      41.170  31.168  35.149  1.00  0.00    -0.354 N 
ATOM     52  N   UNL A   1      39.032  32.532  33.666  1.00  0.00    -0.248 NA
ATOM     53  C   UNL A   1      37.432  34.228  33.510  1.00  0.00     0.031 C 
ATOM     54  C   UNL A   1      41.809  32.021  37.098  1.00  0.00     0.029 A 
ATOM     55  C   UNL A   1      40.929  32.200  36.042  1.00  0.00     0.049 A 
ATOM     56  H   UNL A   1      40.688  31.031  34.301  1.00  0.00     0.167 HD
ATOM     57  C   UNL A   1      39.117  33.343  34.792  1.00  0.00     0.074 A 
ATOM     58  C   UNL A   1      38.123  34.386  34.632  1.00  0.00     0.031 C 
ATOM     59  C   UNL A   1      39.942  33.233  35.862  1.00  0.00     0.037 A 
BRANCH  46  60
ATOM     60  C   UNL A   1      43.764  28.380  35.624  1.00  0.00     0.058 A 
ATOM     61  C   UNL A   1      45.127  28.612  35.376  1.00  0.00     0.135 A 
ATOM     62  C   UNL A   1      43.427  27.375  36.545  1.00  0.00     0.135 A 
ATOM     63  F   UNL A   1      45.503  29.551  34.493  1.00  0.00    -0.206 F 
ATOM     64  C   UNL A   1      46.117  27.855  35.991  1.00  0.00     0.059 A 
ATOM     65  C   UNL A   1      44.403  26.621  37.191  1.00  0.00     0.059 A 
ATOM     66  F   UNL A   1      42.140  27.112  36.818  1.00  0.00    -0.206 F 
ATOM     67  C   UNL A   1      45.745  26.858  36.894  1.00  0.00     0.060 A 
BRANCH  67  68
ATOM     68  S   UNL A   1      47.040  25.876  37.681  1.00  0.00     0.124 S 
ATOM     69  O   UNL A   1      47.905  25.575  36.544  1.00  0.00    -0.237 OA
ATOM     70  O   UNL A   1      47.587  26.807  38.662  1.00  0.00    -0.237 OA
ATOM     71  O   UNL A   1      46.314  24.739  38.237  1.00  0.00    -0.744 OA
ENDBRANCH  67  68
ENDBRANCH  46  60
BRANCH  47  72
ATOM     72  C   UNL A   1      36.460  33.298  30.907  1.00  0.00     0.058 A 
ATOM     73  C   UNL A   1      35.150  33.224  31.404  1.00  0.00     0.135 A 
ATOM     74  C   UNL A   1      36.685  34.082  29.766  1.00  0.00     0.135 A 
ATOM     75  F   UNL A   1      34.888  32.481  32.491  1.00  0.00    -0.206 F 
ATOM     76  C   UNL A   1      34.099  33.893  30.788  1.00  0.00     0.059 A 
ATOM     77  C   UNL A   1      35.653  34.777  29.143  1.00  0.00     0.059 A 
ATOM     78  F   UNL A   1      37.924  34.199  29.264  1.00  0.00    -0.206 F 
ATOM     79  C   UNL A   1      34.361  34.670  29.659  1.00  0.00     0.060 A 
BRANCH  79  80
ATOM     80  S   UNL A   1      33.003  35.588  28.901  1.00  0.00     0.124 S 
ATOM     81  O   UNL A   1      32.226  35.980  30.070  1.00  0.00    -0.237 OA
ATOM     82  O   UNL A   1      33.706  36.665  28.210  1.00  0.00    -0.237 OA
ATOM     83  O   UNL A   1      32.380  34.598  28.027  1.00  0.00    -0.744 OA
ENDBRANCH  79  80
ENDBRANCH  47  72
BRANCH  59  84
ATOM     84  C   UNL A   1      39.828  34.283  36.930  1.00  0.00     0.058 A 
ATOM     85  C   UNL A   1      40.491  35.515  36.823  1.00  0.00     0.135 A 
ATOM     86  C   UNL A   1      39.005  34.073  38.048  1.00  0.00     0.135 A 
ATOM     87  F   UNL A   1      41.296  35.760  35.776  1.00  0.00    -0.206 F 
ATOM     88  C   UNL A   1      40.358  36.498  37.797  1.00  0.00     0.059 A 
ATOM     89  C   UNL A   1      38.840  35.051  39.023  1.00  0.00     0.059 A 
ATOM     90  F   UNL A   1      38.342  32.915  38.191  1.00  0.00    -0.206 F 
ATOM     91  C   UNL A   1      39.529  36.255  38.895  1.00  0.00     0.060 A 
BRANCH  91  92
ATOM     92  S   UNL A   1      39.333  37.551  40.138  1.00  0.00     0.124 S 
ATOM     93  O   UNL A   1      38.975  36.773  41.318  1.00  0.00    -0.237 OA
ATOM     94  O   UNL A   1      40.657  38.167  40.162  1.00  0.00    -0.237 OA
ATOM     95  O   UNL A   1      38.270  38.388  39.589  1.00  0.00    -0.744 OA
ENDBRANCH  91  92
ENDBRANCH  59  84
ENDBRANCH  33  34
ENDBRANCH  25  28
ENDBRANCH   1  24
TORSDOF 14
ENDMDL
MODEL 3
REMARK VINA RESULT:     -11.4      4.833      7.956
REMARK SMILES C[C@H](NC1=[NH+]S(=O)(=O)c2ccccc21)C(=O)NCCCNC(=O)c1ccc(-c2c3nc(c(-c4c(F)cc(S(=O)(=O)[O-])cc4F)c4ccc([nH]4)c(-c4c(F)cc(S(=O)(=O)[O-])cc4F)c4nc(c(-c5c(F)cc(S(=O)(=O)[O-])cc5F)c5ccc2[nH]5)C=C4)C=C3)cc1
REMARK SMILES IDX 20 1 19 2 18 3 17 4 15 5 16 6 2 8 1 9 3 10 4 11 5 13 14 14
REMARK SMILES IDX 6 15 9 17 13 18 7 19 8 20 10 21 12 22 11 23 21 24 22 25
REMARK SMILES IDX 23 27 24 28 25 29 89 30 26 31 88 32 27 33 28 34 29 35 82 36
REMARK SMILES IDX 30 37 87 38 81 39 83 40 31 41 86 42 80 43 79 44 32 46 66 47
REMARK SMILES IDX 45 48 65 49 46 50 49 51 64 52 84 53 47 54 48 55 63 57 85 58
REMARK SMILES IDX 50 59 33 60 34 61 43 62 35 63 36 64 42 65 44 66 37 67 38 68
REMARK SMILES IDX 39 69 40 70 41 71 67 72 68 73 77 74 69 75 70 76 76 77 78 78
REMARK SMILES IDX 71 79 72 80 73 81 74 82 75 83 51 84 52 85 61 86 53 87 54 88
REMARK SMILES IDX 60 89 62 90 55 91 56 92 57 93 58 94 59 95
REMARK H PARENT 17 7 3 12 5 16 21 26 83 45 49 56
REMARK Flexibility Score: inf
ROOT
ATOM      1  C   UNL A   1      32.846  33.260  27.465  1.00  0.00     0.118 C 
ENDROOT
BRANCH   1   2
ATOM      2  C   UNL A   1      31.629  32.651  26.774  1.00  0.00     0.042 C 
BRANCH   2   3
ATOM      3  C   UNL A   1      31.708  31.139  26.583  1.00  0.00     0.118 C 
BRANCH   3   4
ATOM      4  N   UNL A   1      32.914  30.586  27.175  1.00  0.00    -0.352 N 
ATOM      5  C   UNL A   1      33.475  29.344  27.096  1.00  0.00     0.264 C 
ATOM      6  O   UNL A   1      34.541  29.173  27.695  1.00  0.00    -0.270 OA
ATOM      7  H   UNL A   1      33.419  31.222  27.732  1.00  0.00     0.163 HD
BRANCH   5   8
ATOM      8  C   UNL A   1      32.847  28.219  26.258  1.00  0.00     0.258 C 
ATOM      9  C   UNL A   1      31.781  27.497  27.085  1.00  0.00     0.069 C 
BRANCH   8  10
ATOM     10  N   UNL A   1      33.854  27.281  25.760  1.00  0.00    -0.262 N 
ATOM     11  C   UNL A   1      33.685  26.549  24.616  1.00  0.00     0.292 C 
ATOM     12  H   UNL A   1      34.689  27.170  26.271  1.00  0.00     0.306 HD
ATOM     13  N   UNL A   1      32.925  26.924  23.627  1.00  0.00    -0.162 N 
ATOM     14  C   UNL A   1      34.299  25.212  24.477  1.00  0.00     0.087 A 
ATOM     15  S   UNL A   1      32.874  25.775  22.459  1.00  0.00     0.329 S 
ATOM     16  H   UNL A   1      32.445  27.783  23.587  1.00  0.00     0.327 HD
ATOM     17  C   UNL A   1      33.867  24.626  23.302  1.00  0.00     0.124 A 
ATOM     18  C   UNL A   1      35.070  24.496  25.378  1.00  0.00     0.018 A 
ATOM     19  O   UNL A   1      33.606  26.205  21.291  1.00  0.00    -0.179 OA
ATOM     20  O   UNL A   1      31.539  25.211  22.379  1.00  0.00    -0.179 OA
ATOM     21  C   UNL A   1      34.134  23.314  22.968  1.00  0.00     0.025 A 
ATOM     22  C   UNL A   1      35.375  23.166  25.060  1.00  0.00     0.001 A 
ATOM     23  C   UNL A   1      34.902  22.578  23.870  1.00  0.00     0.002 A 
ENDBRANCH   8  10
ENDBRANCH   5   8
ENDBRANCH   3   4
ENDBRANCH   2   3
ENDBRANCH   1   2
BRANCH   1  24
ATOM     24  N   UNL A   1      32.580  34.582  28.010  1.00  0.00    -0.352 N 
ATOM     25  C   UNL A   1      33.103  35.199  29.121  1.00  0.00     0.251 C 
ATOM     26  H   UNL A   1      31.925  35.117  27.506  1.00  0.00     0.163 HD
ATOM     27  O   UNL A   1      32.612  36.256  29.508  1.00  0.00    -0.269 OA
BRANCH  25  28
ATOM     28  C   UNL A   1      34.229  34.587  29.862  1.00  0.00     0.039 A 
ATOM     29  C   UNL A   1      33.984  34.022  31.116  1.00  0.00     0.014 A 
ATOM     30  C   UNL A   1      35.524  34.588  29.338  1.00  0.00     0.014 A 
ATOM     31  C   UNL A   1      35.021  33.395  31.811  1.00  0.00     0.010 A 
ATOM     32  C   UNL A   1      36.541  33.902  29.998  1.00  0.00     0.010 A 
ATOM     33  C   UNL A   1      36.300  33.299  31.242  1.00  0.00    -0.014 A 
BRANCH  33  34
ATOM     34  C   UNL A   1      37.403  32.578  31.929  1.00  0.00     0.031 A 
ATOM     35  C   UNL A   1      37.929  33.081  33.247  1.00  0.00     0.074 A 
ATOM     36  C   UNL A   1      37.984  31.519  31.331  1.00  0.00     0.049 A 
ATOM     37  N   UNL A   1      38.952  32.660  33.944  1.00  0.00    -0.248 NA
ATOM     38  C   UNL A   1      37.227  34.229  33.844  1.00  0.00     0.031 C 
ATOM     39  C   UNL A   1      37.598  30.962  30.032  1.00  0.00     0.029 A 
ATOM     40  N   UNL A   1      39.035  30.731  31.729  1.00  0.00    -0.354 N 
ATOM     41  C   UNL A   1      39.032  33.503  35.045  1.00  0.00     0.074 A 
ATOM     42  C   UNL A   1      37.980  34.486  34.903  1.00  0.00     0.031 C 
ATOM     43  C   UNL A   1      38.390  29.915  29.750  1.00  0.00     0.029 A 
ATOM     44  C   UNL A   1      39.362  29.748  30.826  1.00  0.00     0.049 A 
ATOM     45  H   UNL A   1      39.510  30.859  32.582  1.00  0.00     0.167 HD
ATOM     46  C   UNL A   1      39.893  33.452  36.091  1.00  0.00     0.037 A 
ATOM     47  C   UNL A   1      40.339  28.821  30.857  1.00  0.00     0.037 A 
ATOM     48  C   UNL A   1      40.912  32.449  36.250  1.00  0.00     0.049 A 
ATOM     49  C   UNL A   1      41.267  28.768  32.039  1.00  0.00     0.074 A 
ATOM     50  C   UNL A   1      41.792  32.274  37.304  1.00  0.00     0.029 A 
ATOM     51  N   UNL A   1      41.186  31.446  35.332  1.00  0.00    -0.354 N 
ATOM     52  N   UNL A   1      41.297  29.544  33.095  1.00  0.00    -0.248 NA
ATOM     53  C   UNL A   1      42.288  27.712  32.036  1.00  0.00     0.031 C 
ATOM     54  C   UNL A   1      42.617  31.182  37.010  1.00  0.00     0.029 A 
ATOM     55  C   UNL A   1      42.227  30.655  35.789  1.00  0.00     0.049 A 
ATOM     56  H   UNL A   1      40.709  31.315  34.480  1.00  0.00     0.167 HD
ATOM     57  C   UNL A   1      42.326  29.057  33.894  1.00  0.00     0.074 A 
ATOM     58  C   UNL A   1      42.887  27.914  33.203  1.00  0.00     0.031 C 
ATOM     59  C   UNL A   1      42.766  29.516  35.091  1.00  0.00     0.037 A 
BRANCH  46  60
ATOM     60  C   UNL A   1      39.759  34.509  37.151  1.00  0.00     0.058 A 
ATOM     61  C   UNL A   1      38.965  34.310  38.291  1.00  0.00     0.135 A 
ATOM     62  C   UNL A   1      40.448  35.727  37.036  1.00  0.00     0.135 A 
ATOM     63  F   UNL A   1      38.272  33.170  38.443  1.00  0.00    -0.206 F 
ATOM     64  C   UNL A   1      38.832  35.293  39.265  1.00  0.00     0.059 A 
ATOM     65  C   UNL A   1      40.349  36.716  38.011  1.00  0.00     0.059 A 
ATOM     66  F   UNL A   1      41.220  35.970  35.966  1.00  0.00    -0.206 F 
ATOM     67  C   UNL A   1      39.525  36.495  39.114  1.00  0.00     0.060 A 
BRANCH  67  68
ATOM     68  S   UNL A   1      39.338  37.768  40.382  1.00  0.00     0.124 S 
ATOM     69  O   UNL A   1      39.145  36.954  41.579  1.00  0.00    -0.237 OA
ATOM     70  O   UNL A   1      40.607  38.482  40.300  1.00  0.00    -0.237 OA
ATOM     71  O   UNL A   1      38.169  38.520  39.938  1.00  0.00    -0.744 OA
ENDBRANCH  67  68
ENDBRANCH  46  60
BRANCH  47  72
ATOM     72  C   UNL A   1      40.475  27.851  29.739  1.00  0.00     0.058 A 
ATOM     73  C   UNL A   1      39.604  26.756  29.628  1.00  0.00     0.135 A 
ATOM     74  C   UNL A   1      41.458  28.009  28.751  1.00  0.00     0.135 A 
ATOM     75  F   UNL A   1      38.652  26.562  30.554  1.00  0.00    -0.206 F 
ATOM     76  C   UNL A   1      39.709  25.845  28.584  1.00  0.00     0.059 A 
ATOM     77  C   UNL A   1      41.571  27.122  27.685  1.00  0.00     0.059 A 
ATOM     78  F   UNL A   1      42.302  29.051  28.803  1.00  0.00    -0.206 F 
ATOM     79  C   UNL A   1      40.695  26.039  27.614  1.00  0.00     0.060 A 
BRANCH  79  80
ATOM     80  S   UNL A   1      40.785  24.888  26.225  1.00  0.00     0.124 S 
ATOM     81  O   UNL A   1      41.308  25.744  25.168  1.00  0.00    -0.237 OA
ATOM     82  O   UNL A   1      41.698  23.866  26.731  1.00  0.00    -0.237 OA
ATOM     83  O   UNL A   1      39.401  24.452  26.065  1.00  0.00    -0.744 OA
ENDBRANCH  79  80
ENDBRANCH  47  72
BRANCH  59  84
ATOM     84  C   UNL A   1      43.890  28.764  35.746  1.00  0.00     0.058 A 
ATOM     85  C   UNL A   1      43.648  27.672  36.592  1.00  0.00     0.135 A 
ATOM     86  C   UNL A   1      45.225  29.110  35.481  1.00  0.00     0.135 A 
ATOM     87  F   UNL A   1      42.389  27.308  36.882  1.00  0.00    -0.206 F 
ATOM     88  C   UNL A   1      44.692  26.958  37.171  1.00  0.00     0.059 A 
ATOM     89  C   UNL A   1      46.284  28.396  36.031  1.00  0.00     0.059 A 
ATOM     90  F   UNL A   1      45.508  30.141  34.670  1.00  0.00    -0.206 F 
ATOM     91  C   UNL A   1      46.008  27.329  36.884  1.00  0.00     0.060 A 
BRANCH  91  92
ATOM     92  S   UNL A   1      47.357  26.373  37.611  1.00  0.00     0.124 S 
ATOM     93  O   UNL A   1      48.027  27.383  38.422  1.00  0.00    -0.237 OA
ATOM     94  O   UNL A   1      46.645  25.335  38.350  1.00  0.00    -0.237 OA
ATOM     95  O   UNL A   1      48.104  25.903  36.447  1.00  0.00    -0.744 OA
ENDBRANCH  91  92
ENDBRANCH  59  84
ENDBRANCH  33  34
ENDBRANCH  25  28
ENDBRANCH   1  24
TORSDOF 14
ENDMDL
