MODEL 1
REMARK VINA RESULT:     -11.8      0.000      0.000
REMARK SMILES C[C@H](Nc1cccc(F)c1C(=O)NCCCNC(=O)c1ccc(-c2c3nc(c(-c4c(F)cc(S(=O)(=O)[O-])cc4F)c4ccc([nH]4)c(-c4c(F)cc(S(=O)(=O)[O-])cc4F)c4nc(c(-c5c(F)cc(S(=O)(=O)[O-])cc5F)c5ccc2[nH]5)C=C4)C=C3)cc1)c1nccs1
REMARK SMILES IDX 15 1 14 2 13 3 11 4 12 5 10 7 4 8 5 9 6 10 8 11 7 12 9 13
REMARK SMILES IDX 3 14 2 16 1 17 86 18 87 19 90 20 88 21 89 22 16 23 17 24
REMARK SMILES IDX 18 25 19 27 20 28 21 29 85 30 22 31 84 32 23 33 24 34 25 35
REMARK SMILES IDX 78 36 26 37 83 38 77 39 79 40 27 41 82 42 76 43 75 44 28 46
REMARK SMILES IDX 62 47 41 48 61 49 42 50 45 51 60 52 80 53 43 54 44 55 59 57
REMARK SMILES IDX 81 58 46 59 29 60 30 61 39 62 31 63 32 64 38 65 40 66 33 67
REMARK SMILES IDX 34 68 35 69 36 70 37 71 63 72 64 73 73 74 65 75 66 76 72 77
REMARK SMILES IDX 74 78 67 79 68 80 69 81 70 82 71 83 47 84 48 85 57 86 49 87
REMARK SMILES IDX 50 88 56 89 58 90 51 91 52 92 53 93 54 94 55 95
REMARK H PARENT 13 6 3 15 17 26 79 45 45 56
REMARK Flexibility Score: inf
ROOT
ATOM      1  C   UNL A   1      34.123  29.815  26.544  1.00  0.00     0.042 C 
ENDROOT
BRANCH   1   2
ATOM      2  C   UNL A   1      32.745  30.172  27.106  1.00  0.00     0.118 C 
BRANCH   2   3
ATOM      3  N   UNL A   1      31.948  28.980  27.324  1.00  0.00    -0.352 N 
ATOM      4  C   UNL A   1      31.678  27.847  26.601  1.00  0.00     0.256 C 
ATOM      5  O   UNL A   1      30.902  27.066  27.166  1.00  0.00    -0.269 OA
ATOM      6  H   UNL A   1      31.494  28.986  28.197  1.00  0.00     0.163 HD
BRANCH   4   7
ATOM      7  C   UNL A   1      32.254  27.465  25.268  1.00  0.00     0.098 A 
ATOM      8  C   UNL A   1      31.655  28.007  24.089  1.00  0.00     0.050 A 
ATOM      9  C   UNL A   1      32.183  27.671  22.825  1.00  0.00     0.027 A 
ATOM     10  C   UNL A   1      33.251  26.793  22.691  1.00  0.00     0.005 A 
ATOM     11  C   UNL A   1      33.362  26.628  25.097  1.00  0.00     0.138 A 
ATOM     12  C   UNL A   1      33.832  26.265  23.831  1.00  0.00     0.040 A 
ATOM     13  F   UNL A   1      34.075  26.158  26.124  1.00  0.00    -0.206 F 
BRANCH   8  14
ATOM     14  N   UNL A   1      30.503  28.797  24.130  1.00  0.00    -0.375 N 
ATOM     15  H   UNL A   1      30.285  29.274  24.964  1.00  0.00     0.161 HD
BRANCH  14  16
ATOM     16  C   UNL A   1      29.605  28.941  22.977  1.00  0.00     0.135 C 
ATOM     17  C   UNL A   1      28.407  27.993  23.157  1.00  0.00     0.039 C 
BRANCH  16  18
ATOM     18  C   UNL A   1      29.108  30.370  22.756  1.00  0.00     0.115 A 
ATOM     19  N   UNL A   1      29.178  31.345  23.644  1.00  0.00    -0.247 NA
ATOM     20  S   UNL A   1      28.401  30.823  21.244  1.00  0.00    -0.125 S 
ATOM     21  C   UNL A   1      28.628  32.500  23.128  1.00  0.00     0.123 A 
ATOM     22  C   UNL A   1      28.123  32.398  21.852  1.00  0.00     0.087 A 
ENDBRANCH  16  18
ENDBRANCH  14  16
ENDBRANCH   8  14
ENDBRANCH   4   7
ENDBRANCH   2   3
ENDBRANCH   1   2
BRANCH   1  23
ATOM     23  C   UNL A   1      35.092  29.287  27.601  1.00  0.00     0.118 C 
BRANCH  23  24
ATOM     24  N   UNL A   1      35.157  30.161  28.767  1.00  0.00    -0.352 N 
ATOM     25  C   UNL A   1      36.184  30.383  29.652  1.00  0.00     0.251 C 
ATOM     26  H   UNL A   1      34.335  30.672  28.948  1.00  0.00     0.163 HD
ATOM     27  O   UNL A   1      35.954  30.964  30.708  1.00  0.00    -0.269 OA
BRANCH  25  28
ATOM     28  C   UNL A   1      37.555  29.929  29.336  1.00  0.00     0.039 A 
ATOM     29  C   UNL A   1      37.967  29.887  28.000  1.00  0.00     0.014 A 
ATOM     30  C   UNL A   1      38.417  29.502  30.347  1.00  0.00     0.014 A 
ATOM     31  C   UNL A   1      39.263  29.469  27.687  1.00  0.00     0.010 A 
ATOM     32  C   UNL A   1      39.732  29.161  30.042  1.00  0.00     0.010 A 
ATOM     33  C   UNL A   1      40.166  29.132  28.709  1.00  0.00    -0.014 A 
BRANCH  33  34
ATOM     34  C   UNL A   1      41.564  28.729  28.412  1.00  0.00     0.031 A 
ATOM     35  C   UNL A   1      42.659  29.762  28.422  1.00  0.00     0.074 A 
ATOM     36  C   UNL A   1      41.834  27.455  28.067  1.00  0.00     0.049 A 
ATOM     37  N   UNL A   1      43.915  29.637  28.080  1.00  0.00    -0.248 NA
ATOM     38  C   UNL A   1      42.287  31.123  28.846  1.00  0.00     0.031 C 
ATOM     39  C   UNL A   1      40.850  26.372  27.996  1.00  0.00     0.029 A 
ATOM     40  N   UNL A   1      43.014  26.852  27.706  1.00  0.00    -0.354 N 
ATOM     41  C   UNL A   1      44.477  30.899  28.236  1.00  0.00     0.074 A 
ATOM     42  C   UNL A   1      43.413  31.790  28.644  1.00  0.00     0.031 C 
ATOM     43  C   UNL A   1      41.470  25.235  27.642  1.00  0.00     0.029 A 
ATOM     44  C   UNL A   1      42.885  25.514  27.414  1.00  0.00     0.049 A 
ATOM     45  H   UNL A   1      43.871  27.334  27.658  1.00  0.00     0.167 HD
ATOM     46  C   UNL A   1      45.768  31.274  28.081  1.00  0.00     0.037 A 
ATOM     47  C   UNL A   1      43.801  24.616  27.002  1.00  0.00     0.037 A 
ATOM     48  C   UNL A   1      46.824  30.372  27.703  1.00  0.00     0.049 A 
ATOM     49  C   UNL A   1      45.225  25.062  26.811  1.00  0.00     0.074 A 
ATOM     50  C   UNL A   1      48.172  30.644  27.552  1.00  0.00     0.029 A 
ATOM     51  N   UNL A   1      46.653  29.025  27.421  1.00  0.00    -0.354 N 
ATOM     52  N   UNL A   1      45.746  26.253  26.992  1.00  0.00    -0.248 NA
ATOM     53  C   UNL A   1      46.188  24.048  26.361  1.00  0.00     0.031 C 
ATOM     54  C   UNL A   1      48.809  29.472  27.137  1.00  0.00     0.029 A 
ATOM     55  C   UNL A   1      47.868  28.455  27.084  1.00  0.00     0.049 A 
ATOM     56  H   UNL A   1      45.794  28.544  27.456  1.00  0.00     0.167 HD
ATOM     57  C   UNL A   1      47.100  26.123  26.710  1.00  0.00     0.074 A 
ATOM     58  C   UNL A   1      47.322  24.738  26.351  1.00  0.00     0.031 C 
ATOM     59  C   UNL A   1      48.073  27.068  26.746  1.00  0.00     0.037 A 
BRANCH  46  60
ATOM     60  C   UNL A   1      46.121  32.713  28.342  1.00  0.00     0.058 A 
ATOM     61  C   UNL A   1      46.107  33.656  27.301  1.00  0.00     0.135 A 
ATOM     62  C   UNL A   1      46.537  33.148  29.611  1.00  0.00     0.135 A 
ATOM     63  F   UNL A   1      45.712  33.300  26.070  1.00  0.00    -0.206 F 
ATOM     64  C   UNL A   1      46.509  34.972  27.506  1.00  0.00     0.059 A 
ATOM     65  C   UNL A   1      46.915  34.467  29.845  1.00  0.00     0.059 A 
ATOM     66  F   UNL A   1      46.550  32.294  30.647  1.00  0.00    -0.206 F 
ATOM     67  C   UNL A   1      46.913  35.368  28.782  1.00  0.00     0.060 A 
BRANCH  67  68
ATOM     68  S   UNL A   1      47.410  37.085  29.035  1.00  0.00     0.124 S 
ATOM     69  O   UNL A   1      46.946  37.336  30.395  1.00  0.00    -0.237 OA
ATOM     70  O   UNL A   1      48.857  37.013  28.858  1.00  0.00    -0.237 OA
ATOM     71  O   UNL A   1      46.694  37.803  27.983  1.00  0.00    -0.744 OA
ENDBRANCH  67  68
ENDBRANCH  46  60
BRANCH  47  72
ATOM     72  C   UNL A   1      43.401  23.199  26.781  1.00  0.00     0.058 A 
ATOM     73  C   UNL A   1      43.122  22.338  27.854  1.00  0.00     0.135 A 
ATOM     74  C   UNL A   1      43.330  22.668  25.484  1.00  0.00     0.135 A 
ATOM     75  F   UNL A   1      43.187  22.791  29.116  1.00  0.00    -0.206 F 
ATOM     76  C   UNL A   1      42.809  20.998  27.651  1.00  0.00     0.059 A 
ATOM     77  C   UNL A   1      42.993  21.337  25.254  1.00  0.00     0.059 A 
ATOM     78  F   UNL A   1      43.578  23.454  24.425  1.00  0.00    -0.206 F 
ATOM     79  C   UNL A   1      42.751  20.506  26.346  1.00  0.00     0.060 A 
BRANCH  79  80
ATOM     80  S   UNL A   1      42.356  18.760  26.106  1.00  0.00     0.124 S 
ATOM     81  O   UNL A   1      40.941  18.828  25.752  1.00  0.00    -0.237 OA
ATOM     82  O   UNL A   1      43.264  18.388  25.027  1.00  0.00    -0.237 OA
ATOM     83  O   UNL A   1      42.650  18.164  27.405  1.00  0.00    -0.744 OA
ENDBRANCH  79  80
ENDBRANCH  47  72
BRANCH  59  84
ATOM     84  C   UNL A   1      49.480  26.642  26.428  1.00  0.00     0.058 A 
ATOM     85  C   UNL A   1      49.896  26.522  25.092  1.00  0.00     0.135 A 
ATOM     86  C   UNL A   1      50.376  26.251  27.434  1.00  0.00     0.135 A 
ATOM     87  F   UNL A   1      49.075  26.876  24.092  1.00  0.00    -0.206 F 
ATOM     88  C   UNL A   1      51.141  25.998  24.763  1.00  0.00     0.059 A 
ATOM     89  C   UNL A   1      51.639  25.753  27.128  1.00  0.00     0.059 A 
ATOM     90  F   UNL A   1      50.030  26.359  28.726  1.00  0.00    -0.206 F 
ATOM     91  C   UNL A   1      52.004  25.610  25.788  1.00  0.00     0.060 A 
BRANCH  91  92
ATOM     92  S   UNL A   1      53.610  24.920  25.342  1.00  0.00     0.124 S 
ATOM     93  O   UNL A   1      53.898  25.614  24.091  1.00  0.00    -0.237 OA
ATOM     94  O   UNL A   1      54.437  25.300  26.484  1.00  0.00    -0.237 OA
ATOM     95  O   UNL A   1      53.344  23.490  25.219  1.00  0.00    -0.744 OA
ENDBRANCH  91  92
ENDBRANCH  59  84
ENDBRANCH  33  34
ENDBRANCH  25  28
ENDBRANCH  23  24
ENDBRANCH   1  23
TORSDOF 16
ENDMDL
MODEL 2
REMARK VINA RESULT:     -11.8      7.194     12.623
REMARK SMILES C[C@H](Nc1cccc(F)c1C(=O)NCCCNC(=O)c1ccc(-c2c3nc(c(-c4c(F)cc(S(=O)(=O)[O-])cc4F)c4ccc([nH]4)c(-c4c(F)cc(S(=O)(=O)[O-])cc4F)c4nc(c(-c5c(F)cc(S(=O)(=O)[O-])cc5F)c5ccc2[nH]5)C=C4)C=C3)cc1)c1nccs1
REMARK SMILES IDX 15 1 14 2 13 3 11 4 12 5 10 7 4 8 5 9 6 10 8 11 7 12 9 13
REMARK SMILES IDX 3 14 2 16 1 17 86 18 87 19 90 20 88 21 89 22 16 23 17 24
REMARK SMILES IDX 18 25 19 27 20 28 21 29 85 30 22 31 84 32 23 33 24 34 25 35
REMARK SMILES IDX 78 36 26 37 83 38 77 39 79 40 27 41 82 42 76 43 75 44 28 46
REMARK SMILES IDX 62 47 41 48 61 49 42 50 45 51 60 52 80 53 43 54 44 55 59 57
REMARK SMILES IDX 81 58 46 59 29 60 30 61 39 62 31 63 32 64 38 65 40 66 33 67
REMARK SMILES IDX 34 68 35 69 36 70 37 71 63 72 64 73 73 74 65 75 66 76 72 77
REMARK SMILES IDX 74 78 67 79 68 80 69 81 70 82 71 83 47 84 48 85 57 86 49 87
REMARK SMILES IDX 50 88 56 89 58 90 51 91 52 92 53 93 54 94 55 95
REMARK H PARENT 13 6 3 15 17 26 79 45 45 56
REMARK Flexibility Score: inf
ROOT
ATOM      1  C   UNL A   1      37.398  23.302  26.521  1.00  0.00     0.042 C 
ENDROOT
BRANCH   1   2
ATOM      2  C   UNL A   1      37.431  22.216  25.444  1.00  0.00     0.118 C 
BRANCH   2   3
ATOM      3  N   UNL A   1      36.764  22.662  24.236  1.00  0.00    -0.352 N 
ATOM      4  C   UNL A   1      35.496  23.081  23.925  1.00  0.00     0.256 C 
ATOM      5  O   UNL A   1      35.340  23.356  22.728  1.00  0.00    -0.269 OA
ATOM      6  H   UNL A   1      37.363  22.665  23.455  1.00  0.00     0.163 HD
BRANCH   4   7
ATOM      7  C   UNL A   1      34.348  23.275  24.873  1.00  0.00     0.098 A 
ATOM      8  C   UNL A   1      33.495  22.161  25.143  1.00  0.00     0.050 A 
ATOM      9  C   UNL A   1      32.415  22.314  26.037  1.00  0.00     0.027 A 
ATOM     10  C   UNL A   1      32.134  23.535  26.638  1.00  0.00     0.005 A 
ATOM     11  C   UNL A   1      34.067  24.473  25.539  1.00  0.00     0.138 A 
ATOM     12  C   UNL A   1      32.957  24.616  26.378  1.00  0.00     0.040 A 
ATOM     13  F   UNL A   1      34.861  25.545  25.459  1.00  0.00    -0.206 F 
BRANCH   8  14
ATOM     14  N   UNL A   1      33.634  20.936  24.486  1.00  0.00    -0.375 N 
ATOM     15  H   UNL A   1      34.538  20.625  24.248  1.00  0.00     0.161 HD
BRANCH  14  16
ATOM     16  C   UNL A   1      32.481  20.094  24.136  1.00  0.00     0.135 C 
ATOM     17  C   UNL A   1      32.208  20.228  22.628  1.00  0.00     0.039 C 
BRANCH  16  18
ATOM     18  C   UNL A   1      32.659  18.621  24.503  1.00  0.00     0.115 A 
ATOM     19  N   UNL A   1      32.388  18.093  25.683  1.00  0.00    -0.247 NA
ATOM     20  S   UNL A   1      33.244  17.494  23.329  1.00  0.00    -0.125 S 
ATOM     21  C   UNL A   1      32.675  16.744  25.679  1.00  0.00     0.123 A 
ATOM     22  C   UNL A   1      33.182  16.248  24.500  1.00  0.00     0.087 A 
ENDBRANCH  16  18
ENDBRANCH  14  16
ENDBRANCH   8  14
ENDBRANCH   4   7
ENDBRANCH   2   3
ENDBRANCH   1   2
BRANCH   1  23
ATOM     23  C   UNL A   1      38.294  24.499  26.205  1.00  0.00     0.118 C 
BRANCH  23  24
ATOM     24  N   UNL A   1      39.683  24.103  26.003  1.00  0.00    -0.352 N 
ATOM     25  C   UNL A   1      40.842  24.662  26.484  1.00  0.00     0.251 C 
ATOM     26  H   UNL A   1      39.809  23.311  25.432  1.00  0.00     0.163 HD
ATOM     27  O   UNL A   1      41.918  24.331  25.995  1.00  0.00    -0.269 OA
BRANCH  25  28
ATOM     28  C   UNL A   1      40.796  25.652  27.582  1.00  0.00     0.039 A 
ATOM     29  C   UNL A   1      41.785  26.638  27.649  1.00  0.00     0.014 A 
ATOM     30  C   UNL A   1      39.811  25.580  28.568  1.00  0.00     0.014 A 
ATOM     31  C   UNL A   1      41.750  27.586  28.675  1.00  0.00     0.010 A 
ATOM     32  C   UNL A   1      39.731  26.570  29.543  1.00  0.00     0.010 A 
ATOM     33  C   UNL A   1      40.704  27.578  29.613  1.00  0.00    -0.014 A 
BRANCH  33  34
ATOM     34  C   UNL A   1      40.613  28.599  30.687  1.00  0.00     0.031 A 
ATOM     35  C   UNL A   1      41.522  28.510  31.884  1.00  0.00     0.074 A 
ATOM     36  C   UNL A   1      39.671  29.560  30.618  1.00  0.00     0.049 A 
ATOM     37  N   UNL A   1      41.523  29.230  32.975  1.00  0.00    -0.248 NA
ATOM     38  C   UNL A   1      42.549  27.454  31.862  1.00  0.00     0.031 C 
ATOM     39  C   UNL A   1      38.715  29.730  29.521  1.00  0.00     0.029 A 
ATOM     40  N   UNL A   1      39.354  30.572  31.490  1.00  0.00    -0.354 N 
ATOM     41  C   UNL A   1      42.536  28.708  33.771  1.00  0.00     0.074 A 
ATOM     42  C   UNL A   1      43.088  27.573  33.066  1.00  0.00     0.031 C 
ATOM     43  C   UNL A   1      37.940  30.797  29.773  1.00  0.00     0.029 A 
ATOM     44  C   UNL A   1      38.309  31.360  31.068  1.00  0.00     0.049 A 
ATOM     45  H   UNL A   1      39.831  30.719  32.339  1.00  0.00     0.167 HD
ATOM     46  C   UNL A   1      42.983  29.154  34.969  1.00  0.00     0.037 A 
ATOM     47  C   UNL A   1      37.709  32.411  31.661  1.00  0.00     0.037 A 
ATOM     48  C   UNL A   1      42.444  30.302  35.648  1.00  0.00     0.049 A 
ATOM     49  C   UNL A   1      38.206  32.871  33.004  1.00  0.00     0.074 A 
ATOM     50  C   UNL A   1      42.850  30.857  36.849  1.00  0.00     0.029 A 
ATOM     51  N   UNL A   1      41.389  31.074  35.185  1.00  0.00    -0.354 N 
ATOM     52  N   UNL A   1      39.186  32.385  33.731  1.00  0.00    -0.248 NA
ATOM     53  C   UNL A   1      37.523  34.020  33.612  1.00  0.00     0.031 C 
ATOM     54  C   UNL A   1      42.012  31.938  37.134  1.00  0.00     0.029 A 
ATOM     55  C   UNL A   1      41.120  32.093  36.083  1.00  0.00     0.049 A 
ATOM     56  H   UNL A   1      40.903  30.921  34.343  1.00  0.00     0.167 HD
ATOM     57  C   UNL A   1      39.255  33.188  34.863  1.00  0.00     0.074 A 
ATOM     58  C   UNL A   1      38.224  34.194  34.726  1.00  0.00     0.031 C 
ATOM     59  C   UNL A   1      40.099  33.099  35.921  1.00  0.00     0.037 A 
BRANCH  46  60
ATOM     60  C   UNL A   1      44.125  28.416  35.614  1.00  0.00     0.058 A 
ATOM     61  C   UNL A   1      43.884  27.402  36.556  1.00  0.00     0.135 A 
ATOM     62  C   UNL A   1      45.462  28.757  35.349  1.00  0.00     0.135 A 
ATOM     63  F   UNL A   1      42.628  27.029  36.844  1.00  0.00    -0.206 F 
ATOM     64  C   UNL A   1      44.926  26.766  37.222  1.00  0.00     0.059 A 
ATOM     65  C   UNL A   1      46.521  28.113  35.983  1.00  0.00     0.059 A 
ATOM     66  F   UNL A   1      45.750  29.704  34.442  1.00  0.00    -0.206 F 
ATOM     67  C   UNL A   1      46.242  27.130  36.930  1.00  0.00     0.060 A 
BRANCH  67  68
ATOM     68  S   UNL A   1      47.583  26.278  37.789  1.00  0.00     0.124 S 
ATOM     69  O   UNL A   1      48.615  27.307  37.831  1.00  0.00    -0.237 OA
ATOM     70  O   UNL A   1      46.963  25.944  39.067  1.00  0.00    -0.237 OA
ATOM     71  O   UNL A   1      47.867  25.136  36.923  1.00  0.00    -0.744 OA
ENDBRANCH  67  68
ENDBRANCH  46  60
BRANCH  47  72
ATOM     72  C   UNL A   1      36.598  33.118  30.967  1.00  0.00     0.058 A 
ATOM     73  C   UNL A   1      36.832  33.935  29.850  1.00  0.00     0.135 A 
ATOM     74  C   UNL A   1      35.280  33.019  31.438  1.00  0.00     0.135 A 
ATOM     75  F   UNL A   1      38.075  34.074  29.364  1.00  0.00    -0.206 F 
ATOM     76  C   UNL A   1      35.804  34.645  29.239  1.00  0.00     0.059 A 
ATOM     77  C   UNL A   1      34.231  33.699  30.827  1.00  0.00     0.059 A 
ATOM     78  F   UNL A   1      35.004  32.243  32.497  1.00  0.00    -0.206 F 
ATOM     79  C   UNL A   1      34.506  34.524  29.737  1.00  0.00     0.060 A 
BRANCH  79  80
ATOM     80  S   UNL A   1      33.189  35.465  28.937  1.00  0.00     0.124 S 
ATOM     81  O   UNL A   1      33.953  36.474  28.209  1.00  0.00    -0.237 OA
ATOM     82  O   UNL A   1      32.540  34.446  28.119  1.00  0.00    -0.237 OA
ATOM     83  O   UNL A   1      32.399  35.964  30.059  1.00  0.00    -0.744 OA
ENDBRANCH  79  80
ENDBRANCH  47  72
BRANCH  59  84
ATOM     84  C   UNL A   1      39.981  34.134  37.005  1.00  0.00     0.058 A 
ATOM     85  C   UNL A   1      39.199  33.877  38.144  1.00  0.00     0.135 A 
ATOM     86  C   UNL A   1      40.547  35.411  36.869  1.00  0.00     0.135 A 
ATOM     87  F   UNL A   1      38.631  32.675  38.318  1.00  0.00    -0.206 F 
ATOM     88  C   UNL A   1      38.957  34.862  39.095  1.00  0.00     0.059 A 
ATOM     89  C   UNL A   1      40.341  36.401  37.825  1.00  0.00     0.059 A 
ATOM     90  F   UNL A   1      41.312  35.701  35.805  1.00  0.00    -0.206 F 
ATOM     91  C   UNL A   1      39.527  36.123  38.924  1.00  0.00     0.060 A 
BRANCH  91  92
ATOM     92  S   UNL A   1      39.189  37.392  40.162  1.00  0.00     0.124 S 
ATOM     93  O   UNL A   1      38.336  38.315  39.420  1.00  0.00    -0.237 OA
ATOM     94  O   UNL A   1      38.530  36.626  41.216  1.00  0.00    -0.237 OA
ATOM     95  O   UNL A   1      40.516  37.898  40.501  1.00  0.00    -0.744 OA
ENDBRANCH  91  92
ENDBRANCH  59  84
ENDBRANCH  33  34
ENDBRANCH  25  28
ENDBRANCH  23  24
ENDBRANCH   1  23
TORSDOF 16
ENDMDL
MODEL 3
REMARK VINA RESULT:     -11.6      6.612     13.900
REMARK SMILES C[C@H](Nc1cccc(F)c1C(=O)NCCCNC(=O)c1ccc(-c2c3nc(c(-c4c(F)cc(S(=O)(=O)[O-])cc4F)c4ccc([nH]4)c(-c4c(F)cc(S(=O)(=O)[O-])cc4F)c4nc(c(-c5c(F)cc(S(=O)(=O)[O-])cc5F)c5ccc2[nH]5)C=C4)C=C3)cc1)c1nccs1
REMARK SMILES IDX 15 1 14 2 13 3 11 4 12 5 10 7 4 8 5 9 6 10 8 11 7 12 9 13
REMARK SMILES IDX 3 14 2 16 1 17 86 18 87 19 90 20 88 21 89 22 16 23 17 24
REMARK SMILES IDX 18 25 19 27 20 28 21 29 85 30 22 31 84 32 23 33 24 34 25 35
REMARK SMILES IDX 78 36 26 37 83 38 77 39 79 40 27 41 82 42 76 43 75 44 28 46
REMARK SMILES IDX 62 47 41 48 61 49 42 50 45 51 60 52 80 53 43 54 44 55 59 57
REMARK SMILES IDX 81 58 46 59 29 60 30 61 39 62 31 63 32 64 38 65 40 66 33 67
REMARK SMILES IDX 34 68 35 69 36 70 37 71 63 72 64 73 73 74 65 75 66 76 72 77
REMARK SMILES IDX 74 78 67 79 68 80 69 81 70 82 71 83 47 84 48 85 57 86 49 87
REMARK SMILES IDX 50 88 56 89 58 90 51 91 52 92 53 93 54 94 55 95
REMARK H PARENT 13 6 3 15 17 26 79 45 45 56
REMARK Flexibility Score: inf
ROOT
ATOM      1  C   UNL A   1      44.384  25.662  24.970  1.00  0.00     0.042 C 
ENDROOT
BRANCH   1   2
ATOM      2  C   UNL A   1      45.452  26.527  25.644  1.00  0.00     0.118 C 
BRANCH   2   3
ATOM      3  N   UNL A   1      46.485  25.704  26.243  1.00  0.00    -0.352 N 
ATOM      4  C   UNL A   1      46.544  24.839  27.305  1.00  0.00     0.256 C 
ATOM      5  O   UNL A   1      47.666  24.349  27.489  1.00  0.00    -0.269 OA
ATOM      6  H   UNL A   1      47.348  25.786  25.776  1.00  0.00     0.163 HD
BRANCH   4   7
ATOM      7  C   UNL A   1      45.409  24.413  28.190  1.00  0.00     0.098 A 
ATOM      8  C   UNL A   1      44.753  23.176  27.906  1.00  0.00     0.050 A 
ATOM      9  C   UNL A   1      43.690  22.748  28.728  1.00  0.00     0.027 A 
ATOM     10  C   UNL A   1      43.234  23.520  29.789  1.00  0.00     0.005 A 
ATOM     11  C   UNL A   1      44.958  25.136  29.300  1.00  0.00     0.138 A 
ATOM     12  C   UNL A   1      43.865  24.720  30.066  1.00  0.00     0.040 A 
ATOM     13  F   UNL A   1      45.567  26.244  29.733  1.00  0.00    -0.206 F 
BRANCH   8  14
ATOM     14  N   UNL A   1      45.068  22.402  26.785  1.00  0.00    -0.375 N 
ATOM     15  H   UNL A   1      45.966  22.002  26.723  1.00  0.00     0.161 HD
BRANCH  14  16
ATOM     16  C   UNL A   1      44.110  22.165  25.697  1.00  0.00     0.135 C 
ATOM     17  C   UNL A   1      44.859  22.219  24.355  1.00  0.00     0.039 C 
BRANCH  16  18
ATOM     18  C   UNL A   1      43.355  20.842  25.818  1.00  0.00     0.115 A 
ATOM     19  N   UNL A   1      42.159  20.695  26.360  1.00  0.00    -0.247 NA
ATOM     20  S   UNL A   1      44.052  19.381  25.207  1.00  0.00    -0.125 S 
ATOM     21  C   UNL A   1      41.778  19.370  26.320  1.00  0.00     0.123 A 
ATOM     22  C   UNL A   1      42.691  18.505  25.762  1.00  0.00     0.087 A 
ENDBRANCH  16  18
ENDBRANCH  14  16
ENDBRANCH   8  14
ENDBRANCH   4   7
ENDBRANCH   2   3
ENDBRANCH   1   2
BRANCH   1  23
ATOM     23  C   UNL A   1      42.968  26.214  25.125  1.00  0.00     0.118 C 
BRANCH  23  24
ATOM     24  N   UNL A   1      41.995  25.157  25.375  1.00  0.00    -0.352 N 
ATOM     25  C   UNL A   1      41.271  24.870  26.507  1.00  0.00     0.251 C 
ATOM     26  H   UNL A   1      41.831  24.556  24.613  1.00  0.00     0.163 HD
ATOM     27  O   UNL A   1      40.695  23.790  26.594  1.00  0.00    -0.269 OA
BRANCH  25  28
ATOM     28  C   UNL A   1      41.184  25.851  27.610  1.00  0.00     0.039 A 
ATOM     29  C   UNL A   1      42.161  26.845  27.714  1.00  0.00     0.014 A 
ATOM     30  C   UNL A   1      40.170  25.764  28.565  1.00  0.00     0.014 A 
ATOM     31  C   UNL A   1      42.088  27.785  28.746  1.00  0.00     0.010 A 
ATOM     32  C   UNL A   1      40.052  26.746  29.544  1.00  0.00     0.010 A 
ATOM     33  C   UNL A   1      41.014  27.761  29.651  1.00  0.00    -0.014 A 
BRANCH  33  34
ATOM     34  C   UNL A   1      40.881  28.773  30.729  1.00  0.00     0.031 A 
ATOM     35  C   UNL A   1      41.786  28.709  31.931  1.00  0.00     0.074 A 
ATOM     36  C   UNL A   1      39.907  29.702  30.659  1.00  0.00     0.049 A 
ATOM     37  N   UNL A   1      41.755  29.423  33.025  1.00  0.00    -0.248 NA
ATOM     38  C   UNL A   1      42.848  27.689  31.911  1.00  0.00     0.031 C 
ATOM     39  C   UNL A   1      38.953  29.844  29.557  1.00  0.00     0.029 A 
ATOM     40  N   UNL A   1      39.551  30.698  31.534  1.00  0.00    -0.354 N 
ATOM     41  C   UNL A   1      42.781  28.933  33.826  1.00  0.00     0.074 A 
ATOM     42  C   UNL A   1      43.376  27.821  33.118  1.00  0.00     0.031 C 
ATOM     43  C   UNL A   1      38.141  30.883  29.808  1.00  0.00     0.029 A 
ATOM     44  C   UNL A   1      38.482  31.452  31.109  1.00  0.00     0.049 A 
ATOM     45  H   UNL A   1      40.017  30.857  32.386  1.00  0.00     0.167 HD
ATOM     46  C   UNL A   1      43.206  29.387  35.028  1.00  0.00     0.037 A 
ATOM     47  C   UNL A   1      37.843  32.478  31.703  1.00  0.00     0.037 A 
ATOM     48  C   UNL A   1      42.624  30.513  35.709  1.00  0.00     0.049 A 
ATOM     49  C   UNL A   1      38.316  32.949  33.051  1.00  0.00     0.074 A 
ATOM     50  C   UNL A   1      43.002  31.076  36.915  1.00  0.00     0.029 A 
ATOM     51  N   UNL A   1      41.545  31.251  35.243  1.00  0.00    -0.354 N 
ATOM     52  N   UNL A   1      39.307  32.493  33.781  1.00  0.00    -0.248 NA
ATOM     53  C   UNL A   1      37.590  34.071  33.660  1.00  0.00     0.031 C 
ATOM     54  C   UNL A   1      42.126  32.127  37.200  1.00  0.00     0.029 A 
ATOM     55  C   UNL A   1      41.236  32.256  36.144  1.00  0.00     0.049 A 
ATOM     56  H   UNL A   1      41.070  31.086  34.397  1.00  0.00     0.167 HD
ATOM     57  C   UNL A   1      39.342  33.292  34.918  1.00  0.00     0.074 A 
ATOM     58  C   UNL A   1      38.278  34.264  34.779  1.00  0.00     0.031 C 
ATOM     59  C   UNL A   1      40.183  33.227  35.981  1.00  0.00     0.037 A 
BRANCH  46  60
ATOM     60  C   UNL A   1      44.368  28.686  35.677  1.00  0.00     0.058 A 
ATOM     61  C   UNL A   1      44.157  27.644  36.595  1.00  0.00     0.135 A 
ATOM     62  C   UNL A   1      45.693  29.089  35.440  1.00  0.00     0.135 A 
ATOM     63  F   UNL A   1      42.913  27.213  36.855  1.00  0.00    -0.206 F 
ATOM     64  C   UNL A   1      45.215  27.039  37.265  1.00  0.00     0.059 A 
ATOM     65  C   UNL A   1      46.769  28.478  36.078  1.00  0.00     0.059 A 
ATOM     66  F   UNL A   1      45.954  30.066  34.557  1.00  0.00    -0.206 F 
ATOM     67  C   UNL A   1      46.518  27.465  37.001  1.00  0.00     0.060 A 
BRANCH  67  68
ATOM     68  S   UNL A   1      47.881  26.654  37.864  1.00  0.00     0.124 S 
ATOM     69  O   UNL A   1      47.616  25.246  37.591  1.00  0.00    -0.237 OA
ATOM     70  O   UNL A   1      49.047  27.225  37.196  1.00  0.00    -0.237 OA
ATOM     71  O   UNL A   1      47.699  27.071  39.252  1.00  0.00    -0.744 OA
ENDBRANCH  67  68
ENDBRANCH  46  60
BRANCH  47  72
ATOM     72  C   UNL A   1      36.713  33.150  31.006  1.00  0.00     0.058 A 
ATOM     73  C   UNL A   1      36.924  33.972  29.887  1.00  0.00     0.135 A 
ATOM     74  C   UNL A   1      35.397  33.013  31.474  1.00  0.00     0.135 A 
ATOM     75  F   UNL A   1      38.164  34.148  29.404  1.00  0.00    -0.206 F 
ATOM     76  C   UNL A   1      35.876  34.650  29.272  1.00  0.00     0.059 A 
ATOM     77  C   UNL A   1      34.329  33.660  30.859  1.00  0.00     0.059 A 
ATOM     78  F   UNL A   1      35.143  32.230  32.534  1.00  0.00    -0.206 F 
ATOM     79  C   UNL A   1      34.581  34.491  29.769  1.00  0.00     0.060 A 
BRANCH  79  80
ATOM     80  S   UNL A   1      33.238  35.390  28.964  1.00  0.00     0.124 S 
ATOM     81  O   UNL A   1      33.975  36.394  28.202  1.00  0.00    -0.237 OA
ATOM     82  O   UNL A   1      32.596  34.341  28.180  1.00  0.00    -0.237 OA
ATOM     83  O   UNL A   1      32.456  35.903  30.084  1.00  0.00    -0.744 OA
ENDBRANCH  79  80
ENDBRANCH  47  72
BRANCH  59  84
ATOM     84  C   UNL A   1      40.023  34.252  37.068  1.00  0.00     0.058 A 
ATOM     85  C   UNL A   1      39.105  34.038  38.111  1.00  0.00     0.135 A 
ATOM     86  C   UNL A   1      40.691  35.485  37.023  1.00  0.00     0.135 A 
ATOM     87  F   UNL A   1      38.435  32.879  38.196  1.00  0.00    -0.206 F 
ATOM     88  C   UNL A   1      38.833  35.024  39.052  1.00  0.00     0.059 A 
ATOM     89  C   UNL A   1      40.455  36.474  37.973  1.00  0.00     0.059 A 
ATOM     90  F   UNL A   1      41.586  35.733  36.054  1.00  0.00    -0.206 F 
ATOM     91  C   UNL A   1      39.508  36.242  38.972  1.00  0.00     0.060 A 
BRANCH  91  92
ATOM     92  S   UNL A   1      39.130  37.514  40.194  1.00  0.00     0.124 S 
ATOM     93  O   UNL A   1      38.610  36.721  41.302  1.00  0.00    -0.237 OA
ATOM     94  O   UNL A   1      40.436  38.130  40.412  1.00  0.00    -0.237 OA
ATOM     95  O   UNL A   1      38.153  38.360  39.515  1.00  0.00    -0.744 OA
ENDBRANCH  91  92
ENDBRANCH  59  84
ENDBRANCH  33  34
ENDBRANCH  25  28
ENDBRANCH  23  24
ENDBRANCH   1  23
TORSDOF 16
ENDMDL
