MODEL 1
REMARK VINA RESULT:     -10.3      0.000      0.000
REMARK SMILES O=C(Cc1c(F)cc(Cl)cc1F)NCCCNC(=O)c1ccc(-c2c3nc(c(-c4c(F)cc(S(=O)(=O)[O-])cc4F)c4ccc([nH]4)c(-c4c(F)cc(S(=O)(=O)[O-])cc4F)c4nc(c(-c5c(F)cc(S(=O)(=O)[O-])cc5F)c5ccc2[nH]5)C=C4)C=C3)cc1
REMARK SMILES IDX 16 1 15 2 14 3 13 4 1 5 2 6 3 8 4 9 5 10 11 11 6 12 7 13
REMARK SMILES IDX 10 14 12 15 8 16 9 17 17 18 18 19 19 21 20 22 21 23 85 24
REMARK SMILES IDX 22 25 84 26 23 27 24 28 25 29 78 30 26 31 83 32 77 33 79 34
REMARK SMILES IDX 27 35 82 36 76 37 75 38 28 40 62 41 41 42 61 43 42 44 45 45
REMARK SMILES IDX 60 46 80 47 43 48 44 49 59 51 81 52 46 53 29 54 30 55 39 56
REMARK SMILES IDX 31 57 32 58 38 59 40 60 33 61 34 62 35 63 36 64 37 65 63 66
REMARK SMILES IDX 64 67 73 68 65 69 66 70 72 71 74 72 67 73 68 74 69 75 70 76
REMARK SMILES IDX 71 77 47 78 48 79 57 80 49 81 50 82 56 83 58 84 51 85 52 86
REMARK SMILES IDX 53 87 54 88 55 89
REMARK H PARENT 13 7 17 20 79 39 45 50
REMARK Flexibility Score: inf
ROOT
ATOM      1  C   UNL A   1      40.689  21.655  26.404  1.00  0.00     0.118 C 
ENDROOT
BRANCH   1   2
ATOM      2  C   UNL A   1      40.842  20.143  26.540  1.00  0.00     0.042 C 
BRANCH   2   3
ATOM      3  C   UNL A   1      42.104  19.574  25.908  1.00  0.00     0.117 C 
BRANCH   3   4
ATOM      4  N   UNL A   1      43.282  20.365  26.200  1.00  0.00    -0.356 N 
ATOM      5  O   UNL A   1      44.334  19.997  24.185  1.00  0.00    -0.275 OA
ATOM      6  C   UNL A   1      44.273  20.580  25.263  1.00  0.00     0.224 C 
ATOM      7  H   UNL A   1      43.379  20.762  27.096  1.00  0.00     0.163 HD
BRANCH   6   8
ATOM      8  C   UNL A   1      45.318  21.594  25.686  1.00  0.00     0.141 C 
BRANCH   8   9
ATOM      9  C   UNL A   1      44.866  23.034  25.761  1.00  0.00     0.033 A 
ATOM     10  C   UNL A   1      45.419  23.851  26.753  1.00  0.00     0.131 A 
ATOM     11  C   UNL A   1      43.956  23.629  24.881  1.00  0.00     0.131 A 
ATOM     12  F   UNL A   1      46.322  23.340  27.601  1.00  0.00    -0.207 F 
ATOM     13  C   UNL A   1      45.064  25.190  26.892  1.00  0.00     0.060 A 
ATOM     14  C   UNL A   1      43.575  24.962  25.011  1.00  0.00     0.060 A 
ATOM     15  F   UNL A   1      43.412  22.930  23.878  1.00  0.00    -0.207 F 
ATOM     16  C   UNL A   1      44.132  25.740  26.019  1.00  0.00     0.046 A 
ATOM     17  Cl  UNL A   1      43.674  27.389  26.180  1.00  0.00    -0.084 Cl
ENDBRANCH   8   9
ENDBRANCH   6   8
ENDBRANCH   3   4
ENDBRANCH   2   3
ENDBRANCH   1   2
BRANCH   1  18
ATOM     18  N   UNL A   1      39.458  22.052  25.737  1.00  0.00    -0.352 N 
ATOM     19  C   UNL A   1      38.708  23.194  25.879  1.00  0.00     0.251 C 
ATOM     20  H   UNL A   1      39.110  21.403  25.083  1.00  0.00     0.163 HD
ATOM     21  O   UNL A   1      37.616  23.272  25.316  1.00  0.00    -0.269 OA
BRANCH  19  22
ATOM     22  C   UNL A   1      39.189  24.315  26.716  1.00  0.00     0.039 A 
ATOM     23  C   UNL A   1      40.011  25.287  26.134  1.00  0.00     0.014 A 
ATOM     24  C   UNL A   1      38.858  24.405  28.071  1.00  0.00     0.014 A 
ATOM     25  C   UNL A   1      40.448  26.376  26.892  1.00  0.00     0.010 A 
ATOM     26  C   UNL A   1      39.234  25.528  28.805  1.00  0.00     0.010 A 
ATOM     27  C   UNL A   1      40.038  26.521  28.227  1.00  0.00    -0.014 A 
BRANCH  27  28
ATOM     28  C   UNL A   1      40.461  27.684  29.050  1.00  0.00     0.031 A 
ATOM     29  C   UNL A   1      41.784  27.651  29.765  1.00  0.00     0.074 A 
ATOM     30  C   UNL A   1      39.638  28.740  29.198  1.00  0.00     0.049 A 
ATOM     31  N   UNL A   1      42.286  28.506  30.619  1.00  0.00    -0.248 NA
ATOM     32  C   UNL A   1      42.650  26.491  29.500  1.00  0.00     0.031 C 
ATOM     33  C   UNL A   1      38.327  28.889  28.563  1.00  0.00     0.029 A 
ATOM     34  N   UNL A   1      39.779  29.887  29.939  1.00  0.00    -0.354 N 
ATOM     35  C   UNL A   1      43.519  27.986  30.996  1.00  0.00     0.074 A 
ATOM     36  C   UNL A   1      43.665  26.715  30.322  1.00  0.00     0.031 C 
ATOM     37  C   UNL A   1      37.793  30.066  28.926  1.00  0.00     0.029 A 
ATOM     38  C   UNL A   1      38.699  30.735  29.855  1.00  0.00     0.049 A 
ATOM     39  H   UNL A   1      40.578  30.084  30.479  1.00  0.00     0.167 HD
ATOM     40  C   UNL A   1      44.453  28.531  31.811  1.00  0.00     0.037 A 
ATOM     41  C   UNL A   1      38.461  31.912  30.468  1.00  0.00     0.037 A 
ATOM     42  C   UNL A   1      44.307  29.803  32.471  1.00  0.00     0.049 A 
ATOM     43  C   UNL A   1      39.495  32.471  31.409  1.00  0.00     0.074 A 
ATOM     44  C   UNL A   1      45.206  30.450  33.300  1.00  0.00     0.029 A 
ATOM     45  N   UNL A   1      43.192  30.624  32.374  1.00  0.00    -0.354 N 
ATOM     46  N   UNL A   1      40.661  31.974  31.744  1.00  0.00    -0.248 NA
ATOM     47  C   UNL A   1      39.179  33.754  32.053  1.00  0.00     0.031 C 
ATOM     48  C   UNL A   1      44.617  31.639  33.743  1.00  0.00     0.029 A 
ATOM     49  C   UNL A   1      43.373  31.761  33.146  1.00  0.00     0.049 A 
ATOM     50  H   UNL A   1      42.391  30.427  31.838  1.00  0.00     0.167 HD
ATOM     51  C   UNL A   1      41.228  32.893  32.623  1.00  0.00     0.074 A 
ATOM     52  C   UNL A   1      40.284  33.985  32.747  1.00  0.00     0.031 C 
ATOM     53  C   UNL A   1      42.419  32.837  33.269  1.00  0.00     0.037 A 
BRANCH  40  54
ATOM     54  C   UNL A   1      45.723  27.754  32.033  1.00  0.00     0.058 A 
ATOM     55  C   UNL A   1      46.884  28.013  31.286  1.00  0.00     0.135 A 
ATOM     56  C   UNL A   1      45.796  26.770  33.034  1.00  0.00     0.135 A 
ATOM     57  F   UNL A   1      46.864  28.927  30.304  1.00  0.00    -0.206 F 
ATOM     58  C   UNL A   1      48.065  27.312  31.508  1.00  0.00     0.059 A 
ATOM     59  C   UNL A   1      46.976  26.078  33.293  1.00  0.00     0.059 A 
ATOM     60  F   UNL A   1      44.716  26.478  33.775  1.00  0.00    -0.206 F 
ATOM     61  C   UNL A   1      48.102  26.350  32.517  1.00  0.00     0.060 A 
BRANCH  61  62
ATOM     62  S   UNL A   1      49.649  25.463  32.801  1.00  0.00     0.124 S 
ATOM     63  O   UNL A   1      49.222  24.420  33.729  1.00  0.00    -0.237 OA
ATOM     64  O   UNL A   1      49.998  25.012  31.458  1.00  0.00    -0.237 OA
ATOM     65  O   UNL A   1      50.529  26.482  33.366  1.00  0.00    -0.744 OA
ENDBRANCH  61  62
ENDBRANCH  40  54
BRANCH  41  66
ATOM     66  C   UNL A   1      37.197  32.650  30.197  1.00  0.00     0.058 A 
ATOM     67  C   UNL A   1      36.059  32.440  30.989  1.00  0.00     0.135 A 
ATOM     68  C   UNL A   1      37.104  33.588  29.156  1.00  0.00     0.135 A 
ATOM     69  F   UNL A   1      36.094  31.545  31.988  1.00  0.00    -0.206 F 
ATOM     70  C   UNL A   1      34.871  33.126  30.756  1.00  0.00     0.059 A 
ATOM     71  C   UNL A   1      35.936  34.306  28.921  1.00  0.00     0.059 A 
ATOM     72  F   UNL A   1      38.168  33.834  28.376  1.00  0.00    -0.206 F 
ATOM     73  C   UNL A   1      34.822  34.063  29.724  1.00  0.00     0.060 A 
BRANCH  73  74
ATOM     74  S   UNL A   1      33.292  34.989  29.473  1.00  0.00     0.124 S 
ATOM     75  O   UNL A   1      32.776  35.083  30.834  1.00  0.00    -0.237 OA
ATOM     76  O   UNL A   1      33.783  36.232  28.888  1.00  0.00    -0.237 OA
ATOM     77  O   UNL A   1      32.528  34.137  28.566  1.00  0.00    -0.744 OA
ENDBRANCH  73  74
ENDBRANCH  41  66
BRANCH  53  78
ATOM     78  C   UNL A   1      42.777  33.999  34.157  1.00  0.00     0.058 A 
ATOM     79  C   UNL A   1      42.535  33.972  35.540  1.00  0.00     0.135 A 
ATOM     80  C   UNL A   1      43.393  35.143  33.623  1.00  0.00     0.135 A 
ATOM     81  F   UNL A   1      41.947  32.903  36.102  1.00  0.00    -0.206 F 
ATOM     82  C   UNL A   1      42.852  35.053  36.355  1.00  0.00     0.059 A 
ATOM     83  C   UNL A   1      43.749  36.223  34.426  1.00  0.00     0.059 A 
ATOM     84  F   UNL A   1      43.662  35.216  32.311  1.00  0.00    -0.206 F 
ATOM     85  C   UNL A   1      43.457  36.176  35.787  1.00  0.00     0.060 A 
BRANCH  85  86
ATOM     86  S   UNL A   1      43.859  37.573  36.858  1.00  0.00     0.124 S 
ATOM     87  O   UNL A   1      45.168  37.183  37.371  1.00  0.00    -0.237 OA
ATOM     88  O   UNL A   1      43.851  38.694  35.922  1.00  0.00    -0.237 OA
ATOM     89  O   UNL A   1      42.775  37.575  37.837  1.00  0.00    -0.744 OA
ENDBRANCH  85  86
ENDBRANCH  53  78
ENDBRANCH  27  28
ENDBRANCH  19  22
ENDBRANCH   1  18
TORSDOF 14
ENDMDL
MODEL 2
REMARK VINA RESULT:     -10.2      5.054     11.269
REMARK SMILES O=C(Cc1c(F)cc(Cl)cc1F)NCCCNC(=O)c1ccc(-c2c3nc(c(-c4c(F)cc(S(=O)(=O)[O-])cc4F)c4ccc([nH]4)c(-c4c(F)cc(S(=O)(=O)[O-])cc4F)c4nc(c(-c5c(F)cc(S(=O)(=O)[O-])cc5F)c5ccc2[nH]5)C=C4)C=C3)cc1
REMARK SMILES IDX 16 1 15 2 14 3 13 4 1 5 2 6 3 8 4 9 5 10 11 11 6 12 7 13
REMARK SMILES IDX 10 14 12 15 8 16 9 17 17 18 18 19 19 21 20 22 21 23 85 24
REMARK SMILES IDX 22 25 84 26 23 27 24 28 25 29 78 30 26 31 83 32 77 33 79 34
REMARK SMILES IDX 27 35 82 36 76 37 75 38 28 40 62 41 41 42 61 43 42 44 45 45
REMARK SMILES IDX 60 46 80 47 43 48 44 49 59 51 81 52 46 53 29 54 30 55 39 56
REMARK SMILES IDX 31 57 32 58 38 59 40 60 33 61 34 62 35 63 36 64 37 65 63 66
REMARK SMILES IDX 64 67 73 68 65 69 66 70 72 71 74 72 67 73 68 74 69 75 70 76
REMARK SMILES IDX 71 77 47 78 48 79 57 80 49 81 50 82 56 83 58 84 51 85 52 86
REMARK SMILES IDX 53 87 54 88 55 89
REMARK H PARENT 13 7 17 20 79 39 45 50
REMARK Flexibility Score: inf
ROOT
ATOM      1  C   UNL A   1      33.591  28.247  27.191  1.00  0.00     0.118 C 
ENDROOT
BRANCH   1   2
ATOM      2  C   UNL A   1      33.584  27.916  25.702  1.00  0.00     0.042 C 
BRANCH   2   3
ATOM      3  C   UNL A   1      33.330  26.451  25.380  1.00  0.00     0.117 C 
BRANCH   3   4
ATOM      4  N   UNL A   1      32.234  26.263  24.450  1.00  0.00    -0.356 N 
ATOM      5  O   UNL A   1      30.549  26.630  25.974  1.00  0.00    -0.275 OA
ATOM      6  C   UNL A   1      30.918  26.456  24.817  1.00  0.00     0.224 C 
ATOM      7  H   UNL A   1      32.436  25.989  23.526  1.00  0.00     0.163 HD
BRANCH   6   8
ATOM      8  C   UNL A   1      29.938  26.411  23.662  1.00  0.00     0.141 C 
BRANCH   8   9
ATOM      9  C   UNL A   1      29.510  27.744  23.091  1.00  0.00     0.033 A 
ATOM     10  C   UNL A   1      28.177  28.136  23.255  1.00  0.00     0.131 A 
ATOM     11  C   UNL A   1      30.362  28.639  22.438  1.00  0.00     0.131 A 
ATOM     12  F   UNL A   1      27.326  27.330  23.904  1.00  0.00    -0.207 F 
ATOM     13  C   UNL A   1      27.698  29.349  22.766  1.00  0.00     0.060 A 
ATOM     14  C   UNL A   1      29.900  29.850  21.927  1.00  0.00     0.060 A 
ATOM     15  F   UNL A   1      31.660  28.360  22.276  1.00  0.00    -0.207 F 
ATOM     16  C   UNL A   1      28.566  30.201  22.093  1.00  0.00     0.046 A 
ATOM     17  Cl  UNL A   1      27.991  31.698  21.474  1.00  0.00    -0.084 Cl
ENDBRANCH   8   9
ENDBRANCH   6   8
ENDBRANCH   3   4
ENDBRANCH   2   3
ENDBRANCH   1   2
BRANCH   1  18
ATOM     18  N   UNL A   1      33.462  29.670  27.466  1.00  0.00    -0.352 N 
ATOM     19  C   UNL A   1      34.365  30.546  28.018  1.00  0.00     0.251 C 
ATOM     20  H   UNL A   1      32.596  30.066  27.217  1.00  0.00     0.163 HD
ATOM     21  O   UNL A   1      34.004  31.690  28.294  1.00  0.00    -0.269 OA
BRANCH  19  22
ATOM     22  C   UNL A   1      35.754  30.121  28.304  1.00  0.00     0.039 A 
ATOM     23  C   UNL A   1      36.691  30.143  27.266  1.00  0.00     0.014 A 
ATOM     24  C   UNL A   1      36.132  29.681  29.575  1.00  0.00     0.014 A 
ATOM     25  C   UNL A   1      38.018  29.783  27.517  1.00  0.00     0.010 A 
ATOM     26  C   UNL A   1      37.469  29.392  29.841  1.00  0.00     0.010 A 
ATOM     27  C   UNL A   1      38.424  29.433  28.815  1.00  0.00    -0.014 A 
BRANCH  27  28
ATOM     28  C   UNL A   1      39.834  29.075  29.120  1.00  0.00     0.031 A 
ATOM     29  C   UNL A   1      40.747  30.098  29.740  1.00  0.00     0.074 A 
ATOM     30  C   UNL A   1      40.307  27.857  28.791  1.00  0.00     0.049 A 
ATOM     31  N   UNL A   1      42.031  30.027  29.977  1.00  0.00    -0.248 NA
ATOM     32  C   UNL A   1      40.135  31.380  30.127  1.00  0.00     0.031 C 
ATOM     33  C   UNL A   1      39.526  26.781  28.179  1.00  0.00     0.029 A 
ATOM     34  N   UNL A   1      41.566  27.322  28.918  1.00  0.00    -0.354 N 
ATOM     35  C   UNL A   1      42.382  31.252  30.533  1.00  0.00     0.074 A 
ATOM     36  C   UNL A   1      41.188  32.067  30.547  1.00  0.00     0.031 C 
ATOM     37  C   UNL A   1      40.316  25.710  28.001  1.00  0.00     0.029 A 
ATOM     38  C   UNL A   1      41.669  26.036  28.441  1.00  0.00     0.049 A 
ATOM     39  H   UNL A   1      42.322  27.813  29.312  1.00  0.00     0.167 HD
ATOM     40  C   UNL A   1      43.585  31.651  31.010  1.00  0.00     0.037 A 
ATOM     41  C   UNL A   1      42.738  25.219  28.356  1.00  0.00     0.037 A 
ATOM     42  C   UNL A   1      44.769  30.830  31.005  1.00  0.00     0.049 A 
ATOM     43  C   UNL A   1      44.074  25.704  28.848  1.00  0.00     0.074 A 
ATOM     44  C   UNL A   1      46.030  31.135  31.485  1.00  0.00     0.029 A 
ATOM     45  N   UNL A   1      44.838  29.539  30.499  1.00  0.00    -0.354 N 
ATOM     46  N   UNL A   1      44.387  26.860  29.383  1.00  0.00    -0.248 NA
ATOM     47  C   UNL A   1      45.204  24.772  28.724  1.00  0.00     0.031 C 
ATOM     48  C   UNL A   1      46.873  30.050  31.227  1.00  0.00     0.029 A 
ATOM     49  C   UNL A   1      46.126  29.044  30.636  1.00  0.00     0.049 A 
ATOM     50  H   UNL A   1      44.083  29.048  30.100  1.00  0.00     0.167 HD
ATOM     51  C   UNL A   1      45.745  26.787  29.680  1.00  0.00     0.074 A 
ATOM     52  C   UNL A   1      46.186  25.465  29.284  1.00  0.00     0.031 C 
ATOM     53  C   UNL A   1      46.553  27.728  30.228  1.00  0.00     0.037 A 
BRANCH  40  54
ATOM     54  C   UNL A   1      43.682  33.038  31.585  1.00  0.00     0.058 A 
ATOM     55  C   UNL A   1      44.006  34.145  30.783  1.00  0.00     0.135 A 
ATOM     56  C   UNL A   1      43.403  33.274  32.941  1.00  0.00     0.135 A 
ATOM     57  F   UNL A   1      44.303  33.976  29.486  1.00  0.00    -0.206 F 
ATOM     58  C   UNL A   1      44.072  35.431  31.309  1.00  0.00     0.059 A 
ATOM     59  C   UNL A   1      43.433  34.557  33.482  1.00  0.00     0.059 A 
ATOM     60  F   UNL A   1      43.091  32.253  33.755  1.00  0.00    -0.206 F 
ATOM     61  C   UNL A   1      43.779  35.627  32.659  1.00  0.00     0.060 A 
BRANCH  61  62
ATOM     62  S   UNL A   1      43.852  37.306  33.318  1.00  0.00     0.124 S 
ATOM     63  O   UNL A   1      45.150  37.301  33.988  1.00  0.00    -0.237 OA
ATOM     64  O   UNL A   1      43.767  38.118  32.108  1.00  0.00    -0.237 OA
ATOM     65  O   UNL A   1      42.693  37.379  34.202  1.00  0.00    -0.744 OA
ENDBRANCH  61  62
ENDBRANCH  40  54
BRANCH  41  66
ATOM     66  C   UNL A   1      42.581  23.847  27.798  1.00  0.00     0.058 A 
ATOM     67  C   UNL A   1      42.579  23.631  26.412  1.00  0.00     0.135 A 
ATOM     68  C   UNL A   1      42.450  22.726  28.634  1.00  0.00     0.135 A 
ATOM     69  F   UNL A   1      42.690  24.671  25.572  1.00  0.00    -0.206 F 
ATOM     70  C   UNL A   1      42.442  22.356  25.872  1.00  0.00     0.059 A 
ATOM     71  C   UNL A   1      42.339  21.438  28.118  1.00  0.00     0.059 A 
ATOM     72  F   UNL A   1      42.457  22.877  29.967  1.00  0.00    -0.206 F 
ATOM     73  C   UNL A   1      42.331  21.265  26.734  1.00  0.00     0.060 A 
BRANCH  73  74
ATOM     74  S   UNL A   1      42.216  19.611  26.019  1.00  0.00     0.124 S 
ATOM     75  O   UNL A   1      42.622  18.774  27.142  1.00  0.00    -0.237 OA
ATOM     76  O   UNL A   1      40.807  19.539  25.646  1.00  0.00    -0.237 OA
ATOM     77  O   UNL A   1      43.151  19.661  24.900  1.00  0.00    -0.744 OA
ENDBRANCH  73  74
ENDBRANCH  41  66
BRANCH  53  78
ATOM     78  C   UNL A   1      47.995  27.356  30.448  1.00  0.00     0.058 A 
ATOM     79  C   UNL A   1      48.980  27.618  29.481  1.00  0.00     0.135 A 
ATOM     80  C   UNL A   1      48.403  26.753  31.649  1.00  0.00     0.135 A 
ATOM     81  F   UNL A   1      48.645  28.190  28.313  1.00  0.00    -0.206 F 
ATOM     82  C   UNL A   1      50.308  27.258  29.680  1.00  0.00     0.059 A 
ATOM     83  C   UNL A   1      49.733  26.415  31.883  1.00  0.00     0.059 A 
ATOM     84  F   UNL A   1      47.507  26.495  32.614  1.00  0.00    -0.206 F 
ATOM     85  C   UNL A   1      50.674  26.654  30.884  1.00  0.00     0.060 A 
BRANCH  85  86
ATOM     86  S   UNL A   1      52.402  26.189  31.126  1.00  0.00     0.124 S 
ATOM     87  O   UNL A   1      52.876  26.094  29.750  1.00  0.00    -0.237 OA
ATOM     88  O   UNL A   1      52.921  27.313  31.900  1.00  0.00    -0.237 OA
ATOM     89  O   UNL A   1      52.317  24.925  31.850  1.00  0.00    -0.744 OA
ENDBRANCH  85  86
ENDBRANCH  53  78
ENDBRANCH  27  28
ENDBRANCH  19  22
ENDBRANCH   1  18
TORSDOF 14
ENDMDL
MODEL 3
REMARK VINA RESULT:     -10.2      3.073     10.852
REMARK SMILES O=C(Cc1c(F)cc(Cl)cc1F)NCCCNC(=O)c1ccc(-c2c3nc(c(-c4c(F)cc(S(=O)(=O)[O-])cc4F)c4ccc([nH]4)c(-c4c(F)cc(S(=O)(=O)[O-])cc4F)c4nc(c(-c5c(F)cc(S(=O)(=O)[O-])cc5F)c5ccc2[nH]5)C=C4)C=C3)cc1
REMARK SMILES IDX 16 1 15 2 14 3 13 4 1 5 2 6 3 8 4 9 5 10 11 11 6 12 7 13
REMARK SMILES IDX 10 14 12 15 8 16 9 17 17 18 18 19 19 21 20 22 21 23 85 24
REMARK SMILES IDX 22 25 84 26 23 27 24 28 25 29 78 30 26 31 83 32 77 33 79 34
REMARK SMILES IDX 27 35 82 36 76 37 75 38 28 40 62 41 41 42 61 43 42 44 45 45
REMARK SMILES IDX 60 46 80 47 43 48 44 49 59 51 81 52 46 53 29 54 30 55 39 56
REMARK SMILES IDX 31 57 32 58 38 59 40 60 33 61 34 62 35 63 36 64 37 65 63 66
REMARK SMILES IDX 64 67 73 68 65 69 66 70 72 71 74 72 67 73 68 74 69 75 70 76
REMARK SMILES IDX 71 77 47 78 48 79 57 80 49 81 50 82 56 83 58 84 51 85 52 86
REMARK SMILES IDX 53 87 54 88 55 89
REMARK H PARENT 13 7 17 20 79 39 45 50
REMARK Flexibility Score: inf
ROOT
ATOM      1  C   UNL A   1      34.650  32.492  29.334  1.00  0.00     0.118 C 
ENDROOT
BRANCH   1   2
ATOM      2  C   UNL A   1      35.583  33.430  28.575  1.00  0.00     0.042 C 
BRANCH   2   3
ATOM      3  C   UNL A   1      36.947  33.626  29.221  1.00  0.00     0.117 C 
BRANCH   3   4
ATOM      4  N   UNL A   1      37.040  33.012  30.530  1.00  0.00    -0.356 N 
ATOM      5  O   UNL A   1      38.179  34.741  31.536  1.00  0.00    -0.275 OA
ATOM      6  C   UNL A   1      37.583  33.671  31.614  1.00  0.00     0.224 C 
ATOM      7  H   UNL A   1      36.704  32.093  30.651  1.00  0.00     0.163 HD
BRANCH   6   8
ATOM      8  C   UNL A   1      37.407  32.948  32.934  1.00  0.00     0.141 C 
BRANCH   8   9
ATOM      9  C   UNL A   1      38.381  31.828  33.222  1.00  0.00     0.033 A 
ATOM     10  C   UNL A   1      37.953  30.511  33.020  1.00  0.00     0.131 A 
ATOM     11  C   UNL A   1      39.701  32.011  33.643  1.00  0.00     0.131 A 
ATOM     12  F   UNL A   1      36.707  30.281  32.584  1.00  0.00    -0.207 F 
ATOM     13  C   UNL A   1      38.785  29.419  33.255  1.00  0.00     0.060 A 
ATOM     14  C   UNL A   1      40.546  30.933  33.900  1.00  0.00     0.060 A 
ATOM     15  F   UNL A   1      40.203  33.239  33.820  1.00  0.00    -0.207 F 
ATOM     16  C   UNL A   1      40.082  29.638  33.704  1.00  0.00     0.046 A 
ATOM     17  Cl  UNL A   1      41.121  28.302  34.009  1.00  0.00    -0.084 Cl
ENDBRANCH   8   9
ENDBRANCH   6   8
ENDBRANCH   3   4
ENDBRANCH   2   3
ENDBRANCH   1   2
BRANCH   1  18
ATOM     18  N   UNL A   1      34.019  31.494  28.484  1.00  0.00    -0.352 N 
ATOM     19  C   UNL A   1      34.556  30.378  27.889  1.00  0.00     0.251 C 
ATOM     20  H   UNL A   1      33.062  31.640  28.308  1.00  0.00     0.163 HD
ATOM     21  O   UNL A   1      33.877  29.736  27.088  1.00  0.00    -0.269 OA
BRANCH  19  22
ATOM     22  C   UNL A   1      35.944  29.957  28.184  1.00  0.00     0.039 A 
ATOM     23  C   UNL A   1      36.924  30.128  27.199  1.00  0.00     0.014 A 
ATOM     24  C   UNL A   1      36.282  29.375  29.409  1.00  0.00     0.014 A 
ATOM     25  C   UNL A   1      38.249  29.774  27.466  1.00  0.00     0.010 A 
ATOM     26  C   UNL A   1      37.614  29.090  29.698  1.00  0.00     0.010 A 
ATOM     27  C   UNL A   1      38.611  29.278  28.729  1.00  0.00    -0.014 A 
BRANCH  27  28
ATOM     28  C   UNL A   1      40.016  28.922  29.052  1.00  0.00     0.031 A 
ATOM     29  C   UNL A   1      40.913  29.937  29.707  1.00  0.00     0.074 A 
ATOM     30  C   UNL A   1      40.501  27.712  28.709  1.00  0.00     0.049 A 
ATOM     31  N   UNL A   1      42.193  29.867  29.966  1.00  0.00    -0.248 NA
ATOM     32  C   UNL A   1      40.288  31.209  30.107  1.00  0.00     0.031 C 
ATOM     33  C   UNL A   1      39.737  26.645  28.063  1.00  0.00     0.029 A 
ATOM     34  N   UNL A   1      41.760  27.181  28.848  1.00  0.00    -0.354 N 
ATOM     35  C   UNL A   1      42.528  31.083  30.551  1.00  0.00     0.074 A 
ATOM     36  C   UNL A   1      41.330  31.893  30.558  1.00  0.00     0.031 C 
ATOM     37  C   UNL A   1      40.535  25.580  27.879  1.00  0.00     0.029 A 
ATOM     38  C   UNL A   1      41.879  25.905  28.349  1.00  0.00     0.049 A 
ATOM     39  H   UNL A   1      42.507  27.668  29.265  1.00  0.00     0.167 HD
ATOM     40  C   UNL A   1      43.721  31.479  31.057  1.00  0.00     0.037 A 
ATOM     41  C   UNL A   1      42.952  25.094  28.268  1.00  0.00     0.037 A 
ATOM     42  C   UNL A   1      44.908  30.664  31.058  1.00  0.00     0.049 A 
ATOM     43  C   UNL A   1      44.278  25.577  28.793  1.00  0.00     0.074 A 
ATOM     44  C   UNL A   1      46.159  30.967  31.566  1.00  0.00     0.029 A 
ATOM     45  N   UNL A   1      44.992  29.384  30.528  1.00  0.00    -0.354 N 
ATOM     46  N   UNL A   1      44.575  26.723  29.355  1.00  0.00    -0.248 NA
ATOM     47  C   UNL A   1      45.414  24.653  28.672  1.00  0.00     0.031 C 
ATOM     48  C   UNL A   1      47.012  29.890  31.302  1.00  0.00     0.029 A 
ATOM     49  C   UNL A   1      46.280  28.892  30.679  1.00  0.00     0.049 A 
ATOM     50  H   UNL A   1      44.248  28.896  30.107  1.00  0.00     0.167 HD
ATOM     51  C   UNL A   1      45.928  26.651  29.675  1.00  0.00     0.074 A 
ATOM     52  C   UNL A   1      46.382  25.339  29.263  1.00  0.00     0.031 C 
ATOM     53  C   UNL A   1      46.722  27.586  30.255  1.00  0.00     0.037 A 
BRANCH  40  54
ATOM     54  C   UNL A   1      43.800  32.856  31.658  1.00  0.00     0.058 A 
ATOM     55  C   UNL A   1      43.940  34.002  30.858  1.00  0.00     0.135 A 
ATOM     56  C   UNL A   1      43.689  33.040  33.047  1.00  0.00     0.135 A 
ATOM     57  F   UNL A   1      44.072  33.884  29.528  1.00  0.00    -0.206 F 
ATOM     58  C   UNL A   1      43.989  35.277  31.412  1.00  0.00     0.059 A 
ATOM     59  C   UNL A   1      43.706  34.308  33.620  1.00  0.00     0.059 A 
ATOM     60  F   UNL A   1      43.558  31.980  33.861  1.00  0.00    -0.206 F 
ATOM     61  C   UNL A   1      43.866  35.420  32.795  1.00  0.00     0.060 A 
BRANCH  61  62
ATOM     62  S   UNL A   1      43.914  37.084  33.493  1.00  0.00     0.124 S 
ATOM     63  O   UNL A   1      45.005  36.964  34.457  1.00  0.00    -0.237 OA
ATOM     64  O   UNL A   1      44.193  37.904  32.319  1.00  0.00    -0.237 OA
ATOM     65  O   UNL A   1      42.585  37.252  34.071  1.00  0.00    -0.744 OA
ENDBRANCH  61  62
ENDBRANCH  40  54
BRANCH  41  66
ATOM     66  C   UNL A   1      42.813  23.732  27.683  1.00  0.00     0.058 A 
ATOM     67  C   UNL A   1      42.981  23.522  26.306  1.00  0.00     0.135 A 
ATOM     68  C   UNL A   1      42.528  22.614  28.484  1.00  0.00     0.135 A 
ATOM     69  F   UNL A   1      43.244  24.560  25.497  1.00  0.00    -0.206 F 
ATOM     70  C   UNL A   1      42.863  22.256  25.741  1.00  0.00     0.059 A 
ATOM     71  C   UNL A   1      42.432  21.335  27.946  1.00  0.00     0.059 A 
ATOM     72  F   UNL A   1      42.369  22.760  29.808  1.00  0.00    -0.206 F 
ATOM     73  C   UNL A   1      42.596  21.167  26.571  1.00  0.00     0.060 A 
BRANCH  73  74
ATOM     74  S   UNL A   1      42.505  19.522  25.832  1.00  0.00     0.124 S 
ATOM     75  O   UNL A   1      43.486  19.626  24.758  1.00  0.00    -0.237 OA
ATOM     76  O   UNL A   1      42.876  18.665  26.954  1.00  0.00    -0.237 OA
ATOM     77  O   UNL A   1      41.113  19.419  25.407  1.00  0.00    -0.744 OA
ENDBRANCH  73  74
ENDBRANCH  41  66
BRANCH  53  78
ATOM     78  C   UNL A   1      48.161  27.216  30.493  1.00  0.00     0.058 A 
ATOM     79  C   UNL A   1      48.570  26.558  31.665  1.00  0.00     0.135 A 
ATOM     80  C   UNL A   1      49.141  27.500  29.527  1.00  0.00     0.135 A 
ATOM     81  F   UNL A   1      47.674  26.266  32.622  1.00  0.00    -0.206 F 
ATOM     82  C   UNL A   1      49.902  26.233  31.889  1.00  0.00     0.059 A 
ATOM     83  C   UNL A   1      50.476  27.153  29.716  1.00  0.00     0.059 A 
ATOM     84  F   UNL A   1      48.805  28.112  28.382  1.00  0.00    -0.206 F 
ATOM     85  C   UNL A   1      50.849  26.537  30.909  1.00  0.00     0.060 A 
BRANCH  85  86
ATOM     86  S   UNL A   1      52.577  26.111  31.217  1.00  0.00     0.124 S 
ATOM     87  O   UNL A   1      53.004  27.215  32.069  1.00  0.00    -0.237 OA
ATOM     88  O   UNL A   1      52.464  24.811  31.872  1.00  0.00    -0.237 OA
ATOM     89  O   UNL A   1      53.164  26.083  29.882  1.00  0.00    -0.744 OA
ENDBRANCH  85  86
ENDBRANCH  53  78
ENDBRANCH  27  28
ENDBRANCH  19  22
ENDBRANCH   1  18
TORSDOF 14
ENDMDL
