MODEL 1
REMARK VINA RESULT:     -12.2      0.000      0.000
REMARK SMILES Cc1c(Cl)cc2c(c1C)O[C@H](C(F)(F)F)C(C(=O)NCCCNC(=O)c1ccc(-c3c4nc(c(-c5c(F)cc(S(=O)(=O)[O-])cc5F)c5ccc([nH]5)c(-c5c(F)cc(S(=O)(=O)[O-])cc5F)c5nc(c(-c6c(F)cc(S(=O)(=O)[O-])cc6F)c6ccc3[nH]6)C=C5)C=C4)cc1)=C2
REMARK SMILES IDX 22 1 21 2 20 3 19 4 17 5 18 6 16 8 1 9 2 10 3 11 8 12 4 13
REMARK SMILES IDX 5 14 7 15 9 16 6 17 10 18 92 19 11 20 12 21 13 22 14 23
REMARK SMILES IDX 15 24 23 25 24 26 25 28 26 29 27 30 91 31 28 32 90 33 29 34
REMARK SMILES IDX 30 35 31 36 84 37 32 38 89 39 83 40 85 41 33 42 88 43 82 44
REMARK SMILES IDX 81 45 34 47 68 48 47 49 67 50 48 51 51 52 66 53 86 54 49 55
REMARK SMILES IDX 50 56 65 58 87 59 52 60 35 61 36 62 45 63 37 64 38 65 44 66
REMARK SMILES IDX 46 67 39 68 40 69 41 70 42 71 43 72 69 73 70 74 79 75 71 76
REMARK SMILES IDX 72 77 78 78 80 79 73 80 74 81 75 82 76 83 77 84 53 85 54 86
REMARK SMILES IDX 63 87 55 88 56 89 62 90 64 91 57 92 58 93 59 94 60 95 61 96
REMARK H PARENT 19 7 23 27 85 46 51 57
REMARK Flexibility Score: inf
ROOT
ATOM      1  C   UNL A   1      33.704  28.258  27.017  1.00  0.00     0.118 C 
ENDROOT
BRANCH   1   2
ATOM      2  C   UNL A   1      34.061  28.121  25.544  1.00  0.00     0.042 C 
BRANCH   2   3
ATOM      3  C   UNL A   1      32.967  27.414  24.759  1.00  0.00     0.118 C 
BRANCH   3   4
ATOM      4  N   UNL A   1      32.002  26.767  25.637  1.00  0.00    -0.352 N 
ATOM      5  C   UNL A   1      31.770  25.522  26.110  1.00  0.00     0.251 C 
ATOM      6  O   UNL A   1      30.796  25.415  26.862  1.00  0.00    -0.270 OA
ATOM      7  H   UNL A   1      31.340  27.410  25.979  1.00  0.00     0.163 HD
BRANCH   5   8
ATOM      8  C   UNL A   1      32.595  24.320  25.798  1.00  0.00     0.067 C 
ATOM      9  C   UNL A   1      37.243  19.819  24.903  1.00  0.00     0.046 C 
ATOM     10  C   UNL A   1      36.385  21.009  25.253  1.00  0.00    -0.026 A 
ATOM     11  C   UNL A   1      36.939  22.216  25.727  1.00  0.00     0.045 A 
ATOM     12  C   UNL A   1      34.980  20.923  25.106  1.00  0.00    -0.004 A 
ATOM     13  Cl  UNL A   1      38.643  22.427  25.957  1.00  0.00    -0.084 Cl
ATOM     14  C   UNL A   1      36.129  23.315  26.039  1.00  0.00     0.032 A 
ATOM     15  C   UNL A   1      34.189  22.046  25.413  1.00  0.00     0.131 A 
ATOM     16  C   UNL A   1      34.278  19.685  24.603  1.00  0.00     0.049 C 
ATOM     17  C   UNL A   1      34.749  23.236  25.876  1.00  0.00     0.019 A 
ATOM     18  O   UNL A   1      32.834  21.905  25.276  1.00  0.00    -0.475 OA
ATOM     19  C   UNL A   1      33.880  24.362  26.198  1.00  0.00     0.025 C 
ATOM     20  C   UNL A   1      32.085  23.124  25.049  1.00  0.00     0.314 C 
BRANCH  20  21
ATOM     21  C   UNL A   1      31.968  23.378  23.533  1.00  0.00     0.429 C 
ATOM     22  F   UNL A   1      32.739  24.432  23.166  1.00  0.00    -0.167 F 
ATOM     23  F   UNL A   1      32.383  22.323  22.793  1.00  0.00    -0.167 F 
ATOM     24  F   UNL A   1      30.701  23.650  23.144  1.00  0.00    -0.167 F 
ENDBRANCH  20  21
ENDBRANCH   5   8
ENDBRANCH   3   4
ENDBRANCH   2   3
ENDBRANCH   1   2
BRANCH   1  25
ATOM     25  N   UNL A   1      33.580  29.659  27.413  1.00  0.00    -0.352 N 
ATOM     26  C   UNL A   1      34.434  30.452  28.136  1.00  0.00     0.251 C 
ATOM     27  H   UNL A   1      32.753  30.103  27.114  1.00  0.00     0.163 HD
ATOM     28  O   UNL A   1      34.019  31.500  28.629  1.00  0.00    -0.269 OA
BRANCH  26  29
ATOM     29  C   UNL A   1      35.841  30.046  28.320  1.00  0.00     0.039 A 
ATOM     30  C   UNL A   1      36.726  30.111  27.242  1.00  0.00     0.014 A 
ATOM     31  C   UNL A   1      36.274  29.568  29.558  1.00  0.00     0.014 A 
ATOM     32  C   UNL A   1      38.061  29.749  27.427  1.00  0.00     0.010 A 
ATOM     33  C   UNL A   1      37.621  29.315  29.769  1.00  0.00     0.010 A 
ATOM     34  C   UNL A   1      38.524  29.375  28.700  1.00  0.00    -0.014 A 
BRANCH  34  35
ATOM     35  C   UNL A   1      39.937  28.990  28.925  1.00  0.00     0.031 A 
ATOM     36  C   UNL A   1      40.885  29.971  29.559  1.00  0.00     0.074 A 
ATOM     37  C   UNL A   1      40.373  27.782  28.520  1.00  0.00     0.049 A 
ATOM     38  N   UNL A   1      42.158  29.836  29.824  1.00  0.00    -0.248 NA
ATOM     39  C   UNL A   1      40.336  31.290  29.917  1.00  0.00     0.031 C 
ATOM     40  C   UNL A   1      39.553  26.770  27.853  1.00  0.00     0.029 A 
ATOM     41  N   UNL A   1      41.608  27.198  28.621  1.00  0.00    -0.354 N 
ATOM     42  C   UNL A   1      42.558  31.046  30.376  1.00  0.00     0.074 A 
ATOM     43  C   UNL A   1      41.418  31.934  30.324  1.00  0.00     0.031 C 
ATOM     44  C   UNL A   1      40.293  25.668  27.654  1.00  0.00     0.029 A 
ATOM     45  C   UNL A   1      41.646  25.909  28.147  1.00  0.00     0.049 A 
ATOM     46  H   UNL A   1      42.393  27.657  28.997  1.00  0.00     0.167 HD
ATOM     47  C   UNL A   1      43.751  31.376  30.921  1.00  0.00     0.037 A 
ATOM     48  C   UNL A   1      42.657  25.018  28.125  1.00  0.00     0.037 A 
ATOM     49  C   UNL A   1      44.873  30.481  30.982  1.00  0.00     0.049 A 
ATOM     50  C   UNL A   1      43.990  25.414  28.694  1.00  0.00     0.074 A 
ATOM     51  C   UNL A   1      46.117  30.694  31.546  1.00  0.00     0.029 A 
ATOM     52  N   UNL A   1      44.884  29.196  30.457  1.00  0.00    -0.354 N 
ATOM     53  N   UNL A   1      44.337  26.544  29.267  1.00  0.00    -0.248 NA
ATOM     54  C   UNL A   1      45.072  24.425  28.608  1.00  0.00     0.031 C 
ATOM     55  C   UNL A   1      46.895  29.553  31.323  1.00  0.00     0.029 A 
ATOM     56  C   UNL A   1      46.123  28.614  30.657  1.00  0.00     0.049 A 
ATOM     57  H   UNL A   1      44.123  28.762  30.008  1.00  0.00     0.167 HD
ATOM     58  C   UNL A   1      45.673  26.397  29.620  1.00  0.00     0.074 A 
ATOM     59  C   UNL A   1      46.068  25.065  29.207  1.00  0.00     0.031 C 
ATOM     60  C   UNL A   1      46.497  27.288  30.226  1.00  0.00     0.037 A 
BRANCH  47  61
ATOM     61  C   UNL A   1      43.879  32.759  31.501  1.00  0.00     0.058 A 
ATOM     62  C   UNL A   1      43.641  33.004  32.864  1.00  0.00     0.135 A 
ATOM     63  C   UNL A   1      44.211  33.855  30.689  1.00  0.00     0.135 A 
ATOM     64  F   UNL A   1      43.305  31.995  33.684  1.00  0.00    -0.206 F 
ATOM     65  C   UNL A   1      43.671  34.291  33.390  1.00  0.00     0.059 A 
ATOM     66  C   UNL A   1      44.279  35.148  31.200  1.00  0.00     0.059 A 
ATOM     67  F   UNL A   1      44.451  33.679  29.379  1.00  0.00    -0.206 F 
ATOM     68  C   UNL A   1      43.982  35.358  32.546  1.00  0.00     0.060 A 
BRANCH  68  69
ATOM     69  S   UNL A   1      43.967  37.026  33.236  1.00  0.00     0.124 S 
ATOM     70  O   UNL A   1      43.815  37.836  32.030  1.00  0.00    -0.237 OA
ATOM     71  O   UNL A   1      42.810  36.987  34.124  1.00  0.00    -0.237 OA
ATOM     72  O   UNL A   1      45.262  37.130  33.901  1.00  0.00    -0.744 OA
ENDBRANCH  68  69
ENDBRANCH  47  61
BRANCH  48  73
ATOM     73  C   UNL A   1      42.407  23.647  27.607  1.00  0.00     0.058 A 
ATOM     74  C   UNL A   1      42.446  23.391  26.229  1.00  0.00     0.135 A 
ATOM     75  C   UNL A   1      42.218  22.558  28.472  1.00  0.00     0.135 A 
ATOM     76  F   UNL A   1      42.618  24.403  25.365  1.00  0.00    -0.206 F 
ATOM     77  C   UNL A   1      42.322  22.101  25.725  1.00  0.00     0.059 A 
ATOM     78  C   UNL A   1      42.111  21.255  27.991  1.00  0.00     0.059 A 
ATOM     79  F   UNL A   1      42.189  22.749  29.800  1.00  0.00    -0.206 F 
ATOM     80  C   UNL A   1      42.171  21.037  26.615  1.00  0.00     0.060 A 
BRANCH  80  81
ATOM     81  S   UNL A   1      42.120  19.358  25.950  1.00  0.00     0.124 S 
ATOM     82  O   UNL A   1      40.703  19.202  25.648  1.00  0.00    -0.237 OA
ATOM     83  O   UNL A   1      43.012  19.464  24.798  1.00  0.00    -0.237 OA
ATOM     84  O   UNL A   1      42.625  18.543  27.051  1.00  0.00    -0.744 OA
ENDBRANCH  80  81
ENDBRANCH  48  73
BRANCH  60  85
ATOM     85  C   UNL A   1      47.920  26.868  30.468  1.00  0.00     0.058 A 
ATOM     86  C   UNL A   1      48.944  27.235  29.584  1.00  0.00     0.135 A 
ATOM     87  C   UNL A   1      48.276  26.193  31.648  1.00  0.00     0.135 A 
ATOM     88  F   UNL A   1      48.653  27.872  28.439  1.00  0.00    -0.206 F 
ATOM     89  C   UNL A   1      50.276  26.955  29.863  1.00  0.00     0.059 A 
ATOM     90  C   UNL A   1      49.604  25.924  31.959  1.00  0.00     0.059 A 
ATOM     91  F   UNL A   1      47.332  25.827  32.529  1.00  0.00    -0.206 F 
ATOM     92  C   UNL A   1      50.598  26.311  31.060  1.00  0.00     0.060 A 
BRANCH  92  93
ATOM     93  S   UNL A   1      52.339  26.031  31.444  1.00  0.00     0.124 S 
ATOM     94  O   UNL A   1      52.602  27.090  32.411  1.00  0.00    -0.237 OA
ATOM     95  O   UNL A   1      52.324  24.673  31.979  1.00  0.00    -0.237 OA
ATOM     96  O   UNL A   1      53.002  26.181  30.152  1.00  0.00    -0.744 OA
ENDBRANCH  92  93
ENDBRANCH  60  85
ENDBRANCH  34  35
ENDBRANCH  26  29
ENDBRANCH   1  25
TORSDOF 14
ENDMDL
MODEL 2
REMARK VINA RESULT:     -12.0      4.944     10.416
REMARK SMILES Cc1c(Cl)cc2c(c1C)O[C@H](C(F)(F)F)C(C(=O)NCCCNC(=O)c1ccc(-c3c4nc(c(-c5c(F)cc(S(=O)(=O)[O-])cc5F)c5ccc([nH]5)c(-c5c(F)cc(S(=O)(=O)[O-])cc5F)c5nc(c(-c6c(F)cc(S(=O)(=O)[O-])cc6F)c6ccc3[nH]6)C=C5)C=C4)cc1)=C2
REMARK SMILES IDX 22 1 21 2 20 3 19 4 17 5 18 6 16 8 1 9 2 10 3 11 8 12 4 13
REMARK SMILES IDX 5 14 7 15 9 16 6 17 10 18 92 19 11 20 12 21 13 22 14 23
REMARK SMILES IDX 15 24 23 25 24 26 25 28 26 29 27 30 91 31 28 32 90 33 29 34
REMARK SMILES IDX 30 35 31 36 84 37 32 38 89 39 83 40 85 41 33 42 88 43 82 44
REMARK SMILES IDX 81 45 34 47 68 48 47 49 67 50 48 51 51 52 66 53 86 54 49 55
REMARK SMILES IDX 50 56 65 58 87 59 52 60 35 61 36 62 45 63 37 64 38 65 44 66
REMARK SMILES IDX 46 67 39 68 40 69 41 70 42 71 43 72 69 73 70 74 79 75 71 76
REMARK SMILES IDX 72 77 78 78 80 79 73 80 74 81 75 82 76 83 77 84 53 85 54 86
REMARK SMILES IDX 63 87 55 88 56 89 62 90 64 91 57 92 58 93 59 94 60 95 61 96
REMARK H PARENT 19 7 23 27 85 46 51 57
REMARK Flexibility Score: inf
ROOT
ATOM      1  C   UNL A   1      39.494  23.545  26.921  1.00  0.00     0.118 C 
ENDROOT
BRANCH   1   2
ATOM      2  C   UNL A   1      38.214  23.572  26.097  1.00  0.00     0.042 C 
BRANCH   2   3
ATOM      3  C   UNL A   1      37.898  22.211  25.497  1.00  0.00     0.118 C 
BRANCH   3   4
ATOM      4  N   UNL A   1      36.641  21.675  26.002  1.00  0.00    -0.352 N 
ATOM      5  C   UNL A   1      35.325  21.969  25.902  1.00  0.00     0.251 C 
ATOM      6  O   UNL A   1      34.567  21.218  26.525  1.00  0.00    -0.270 OA
ATOM      7  H   UNL A   1      36.790  20.884  26.569  1.00  0.00     0.163 HD
BRANCH   5   8
ATOM      8  C   UNL A   1      34.758  23.095  25.108  1.00  0.00     0.067 C 
ATOM      9  C   UNL A   1      32.292  28.696  22.823  1.00  0.00     0.046 C 
ATOM     10  C   UNL A   1      32.908  27.560  23.601  1.00  0.00    -0.026 A 
ATOM     11  C   UNL A   1      33.101  27.628  24.997  1.00  0.00     0.045 A 
ATOM     12  C   UNL A   1      33.308  26.385  22.921  1.00  0.00    -0.004 A 
ATOM     13  Cl  UNL A   1      32.660  29.021  25.926  1.00  0.00    -0.084 Cl
ATOM     14  C   UNL A   1      33.666  26.561  25.705  1.00  0.00     0.032 A 
ATOM     15  C   UNL A   1      33.861  25.321  23.658  1.00  0.00     0.131 A 
ATOM     16  C   UNL A   1      33.145  26.199  21.432  1.00  0.00     0.049 C 
ATOM     17  C   UNL A   1      34.042  25.398  25.038  1.00  0.00     0.019 A 
ATOM     18  O   UNL A   1      34.253  24.216  22.951  1.00  0.00    -0.475 OA
ATOM     19  C   UNL A   1      34.638  24.273  25.749  1.00  0.00     0.025 C 
ATOM     20  C   UNL A   1      34.293  22.969  23.687  1.00  0.00     0.314 C 
BRANCH  20  21
ATOM     21  C   UNL A   1      32.928  22.260  23.569  1.00  0.00     0.429 C 
ATOM     22  F   UNL A   1      32.096  22.663  24.561  1.00  0.00    -0.167 F 
ATOM     23  F   UNL A   1      32.297  22.535  22.403  1.00  0.00    -0.167 F 
ATOM     24  F   UNL A   1      33.029  20.914  23.647  1.00  0.00    -0.167 F 
ENDBRANCH  20  21
ENDBRANCH   5   8
ENDBRANCH   3   4
ENDBRANCH   2   3
ENDBRANCH   1   2
BRANCH   1  25
ATOM     25  N   UNL A   1      40.633  24.058  26.163  1.00  0.00    -0.352 N 
ATOM     26  C   UNL A   1      41.224  25.296  26.186  1.00  0.00     0.251 C 
ATOM     27  H   UNL A   1      41.038  23.415  25.537  1.00  0.00     0.163 HD
ATOM     28  O   UNL A   1      41.962  25.633  25.262  1.00  0.00    -0.269 OA
BRANCH  26  29
ATOM     29  C   UNL A   1      40.972  26.214  27.314  1.00  0.00     0.039 A 
ATOM     30  C   UNL A   1      40.055  25.856  28.304  1.00  0.00     0.014 A 
ATOM     31  C   UNL A   1      41.624  27.447  27.371  1.00  0.00     0.014 A 
ATOM     32  C   UNL A   1      39.837  26.717  29.381  1.00  0.00     0.010 A 
ATOM     33  C   UNL A   1      41.491  28.249  28.494  1.00  0.00     0.010 A 
ATOM     34  C   UNL A   1      40.576  27.907  29.498  1.00  0.00    -0.014 A 
BRANCH  34  35
ATOM     35  C   UNL A   1      40.368  28.836  30.633  1.00  0.00     0.031 A 
ATOM     36  C   UNL A   1      41.243  28.730  31.853  1.00  0.00     0.074 A 
ATOM     37  C   UNL A   1      39.370  29.739  30.584  1.00  0.00     0.049 A 
ATOM     38  N   UNL A   1      41.211  29.432  32.955  1.00  0.00    -0.248 NA
ATOM     39  C   UNL A   1      42.271  27.675  31.844  1.00  0.00     0.031 C 
ATOM     40  C   UNL A   1      38.432  29.899  29.471  1.00  0.00     0.029 A 
ATOM     41  N   UNL A   1      38.987  30.697  31.485  1.00  0.00    -0.354 N 
ATOM     42  C   UNL A   1      42.209  28.905  33.765  1.00  0.00     0.074 A 
ATOM     43  C   UNL A   1      42.766  27.768  33.067  1.00  0.00     0.031 C 
ATOM     44  C   UNL A   1      37.617  30.933  29.732  1.00  0.00     0.029 A 
ATOM     45  C   UNL A   1      37.951  31.484  31.042  1.00  0.00     0.049 A 
ATOM     46  H   UNL A   1      39.413  30.811  32.365  1.00  0.00     0.167 HD
ATOM     47  C   UNL A   1      42.655  29.354  34.960  1.00  0.00     0.037 A 
ATOM     48  C   UNL A   1      37.348  32.539  31.623  1.00  0.00     0.037 A 
ATOM     49  C   UNL A   1      42.105  30.496  35.638  1.00  0.00     0.049 A 
ATOM     50  C   UNL A   1      37.826  32.999  32.972  1.00  0.00     0.074 A 
ATOM     51  C   UNL A   1      42.504  31.064  36.833  1.00  0.00     0.029 A 
ATOM     52  N   UNL A   1      41.031  31.244  35.174  1.00  0.00    -0.354 N 
ATOM     53  N   UNL A   1      38.811  32.527  33.701  1.00  0.00    -0.248 NA
ATOM     54  C   UNL A   1      37.109  34.125  33.584  1.00  0.00     0.031 C 
ATOM     55  C   UNL A   1      41.642  32.130  37.114  1.00  0.00     0.029 A 
ATOM     56  C   UNL A   1      40.733  32.251  36.075  1.00  0.00     0.049 A 
ATOM     57  H   UNL A   1      40.552  31.081  34.331  1.00  0.00     0.167 HD
ATOM     58  C   UNL A   1      38.840  33.305  34.852  1.00  0.00     0.074 A 
ATOM     59  C   UNL A   1      37.782  34.287  34.717  1.00  0.00     0.031 C 
ATOM     60  C   UNL A   1      39.666  33.211  35.924  1.00  0.00     0.037 A 
BRANCH  47  61
ATOM     61  C   UNL A   1      43.802  28.608  35.587  1.00  0.00     0.058 A 
ATOM     62  C   UNL A   1      43.581  27.571  36.510  1.00  0.00     0.135 A 
ATOM     63  C   UNL A   1      45.132  28.945  35.290  1.00  0.00     0.135 A 
ATOM     64  F   UNL A   1      42.329  27.217  36.842  1.00  0.00    -0.206 F 
ATOM     65  C   UNL A   1      44.634  26.936  37.159  1.00  0.00     0.059 A 
ATOM     66  C   UNL A   1      46.202  28.301  35.904  1.00  0.00     0.059 A 
ATOM     67  F   UNL A   1      45.402  29.926  34.413  1.00  0.00    -0.206 F 
ATOM     68  C   UNL A   1      45.941  27.315  36.855  1.00  0.00     0.060 A 
BRANCH  68  69
ATOM     69  S   UNL A   1      47.294  26.514  37.744  1.00  0.00     0.124 S 
ATOM     70  O   UNL A   1      46.946  25.105  37.590  1.00  0.00    -0.237 OA
ATOM     71  O   UNL A   1      48.466  26.964  37.001  1.00  0.00    -0.237 OA
ATOM     72  O   UNL A   1      47.171  27.046  39.099  1.00  0.00    -0.744 OA
ENDBRANCH  68  69
ENDBRANCH  47  61
BRANCH  48  73
ATOM     73  C   UNL A   1      36.280  33.263  30.887  1.00  0.00     0.058 A 
ATOM     74  C   UNL A   1      34.947  33.194  31.320  1.00  0.00     0.135 A 
ATOM     75  C   UNL A   1      36.574  34.104  29.802  1.00  0.00     0.135 A 
ATOM     76  F   UNL A   1      34.618  32.399  32.349  1.00  0.00    -0.206 F 
ATOM     77  C   UNL A   1      33.946  33.945  30.715  1.00  0.00     0.059 A 
ATOM     78  C   UNL A   1      35.591  34.880  29.192  1.00  0.00     0.059 A 
ATOM     79  F   UNL A   1      37.836  34.216  29.360  1.00  0.00    -0.206 F 
ATOM     80  C   UNL A   1      34.280  34.798  29.661  1.00  0.00     0.060 A 
BRANCH  80  81
ATOM     81  S   UNL A   1      32.988  35.847  28.958  1.00  0.00     0.124 S 
ATOM     82  O   UNL A   1      33.771  36.918  28.356  1.00  0.00    -0.237 OA
ATOM     83  O   UNL A   1      32.332  34.932  28.028  1.00  0.00    -0.237 OA
ATOM     84  O   UNL A   1      32.190  36.224  30.121  1.00  0.00    -0.744 OA
ENDBRANCH  80  81
ENDBRANCH  48  73
BRANCH  60  85
ATOM     85  C   UNL A   1      39.455  34.180  37.053  1.00  0.00     0.058 A 
ATOM     86  C   UNL A   1      38.804  33.788  38.232  1.00  0.00     0.135 A 
ATOM     87  C   UNL A   1      40.006  35.471  37.001  1.00  0.00     0.135 A 
ATOM     88  F   UNL A   1      38.252  32.568  38.326  1.00  0.00    -0.206 F 
ATOM     89  C   UNL A   1      38.712  34.640  39.325  1.00  0.00     0.059 A 
ATOM     90  C   UNL A   1      39.947  36.331  38.092  1.00  0.00     0.059 A 
ATOM     91  F   UNL A   1      40.645  35.889  35.898  1.00  0.00    -0.206 F 
ATOM     92  C   UNL A   1      39.298  35.905  39.251  1.00  0.00     0.060 A 
BRANCH  92  93
ATOM     93  S   UNL A   1      39.242  36.965  40.711  1.00  0.00     0.124 S 
ATOM     94  O   UNL A   1      38.577  36.100  41.679  1.00  0.00    -0.237 OA
ATOM     95  O   UNL A   1      40.656  37.225  40.959  1.00  0.00    -0.237 OA
ATOM     96  O   UNL A   1      38.467  38.120  40.265  1.00  0.00    -0.744 OA
ENDBRANCH  92  93
ENDBRANCH  60  85
ENDBRANCH  34  35
ENDBRANCH  26  29
ENDBRANCH   1  25
TORSDOF 14
ENDMDL
MODEL 3
REMARK VINA RESULT:     -11.9      3.666     10.406
REMARK SMILES Cc1c(Cl)cc2c(c1C)O[C@H](C(F)(F)F)C(C(=O)NCCCNC(=O)c1ccc(-c3c4nc(c(-c5c(F)cc(S(=O)(=O)[O-])cc5F)c5ccc([nH]5)c(-c5c(F)cc(S(=O)(=O)[O-])cc5F)c5nc(c(-c6c(F)cc(S(=O)(=O)[O-])cc6F)c6ccc3[nH]6)C=C5)C=C4)cc1)=C2
REMARK SMILES IDX 22 1 21 2 20 3 19 4 17 5 18 6 16 8 1 9 2 10 3 11 8 12 4 13
REMARK SMILES IDX 5 14 7 15 9 16 6 17 10 18 92 19 11 20 12 21 13 22 14 23
REMARK SMILES IDX 15 24 23 25 24 26 25 28 26 29 27 30 91 31 28 32 90 33 29 34
REMARK SMILES IDX 30 35 31 36 84 37 32 38 89 39 83 40 85 41 33 42 88 43 82 44
REMARK SMILES IDX 81 45 34 47 68 48 47 49 67 50 48 51 51 52 66 53 86 54 49 55
REMARK SMILES IDX 50 56 65 58 87 59 52 60 35 61 36 62 45 63 37 64 38 65 44 66
REMARK SMILES IDX 46 67 39 68 40 69 41 70 42 71 43 72 69 73 70 74 79 75 71 76
REMARK SMILES IDX 72 77 78 78 80 79 73 80 74 81 75 82 76 83 77 84 53 85 54 86
REMARK SMILES IDX 63 87 55 88 56 89 62 90 64 91 57 92 58 93 59 94 60 95 61 96
REMARK H PARENT 19 7 23 27 85 46 51 57
REMARK Flexibility Score: inf
ROOT
ATOM      1  C   UNL A   1      34.736  32.575  28.098  1.00  0.00     0.118 C 
ENDROOT
BRANCH   1   2
ATOM      2  C   UNL A   1      33.928  33.648  28.816  1.00  0.00     0.042 C 
BRANCH   2   3
ATOM      3  C   UNL A   1      34.661  34.191  30.032  1.00  0.00     0.118 C 
BRANCH   3   4
ATOM      4  N   UNL A   1      34.069  33.719  31.276  1.00  0.00    -0.352 N 
ATOM      5  C   UNL A   1      34.497  33.151  32.426  1.00  0.00     0.251 C 
ATOM      6  O   UNL A   1      33.614  32.901  33.253  1.00  0.00    -0.270 OA
ATOM      7  H   UNL A   1      33.094  33.850  31.282  1.00  0.00     0.163 HD
BRANCH   5   8
ATOM      8  C   UNL A   1      35.917  32.831  32.746  1.00  0.00     0.067 C 
ATOM      9  C   UNL A   1      41.789  30.161  33.774  1.00  0.00     0.046 C 
ATOM     10  C   UNL A   1      40.367  30.513  33.414  1.00  0.00    -0.026 A 
ATOM     11  C   UNL A   1      39.431  29.533  33.022  1.00  0.00     0.045 A 
ATOM     12  C   UNL A   1      39.948  31.864  33.466  1.00  0.00    -0.004 A 
ATOM     13  Cl  UNL A   1      39.839  27.854  32.912  1.00  0.00    -0.084 Cl
ATOM     14  C   UNL A   1      38.113  29.875  32.699  1.00  0.00     0.032 A 
ATOM     15  C   UNL A   1      38.614  32.180  33.150  1.00  0.00     0.131 A 
ATOM     16  C   UNL A   1      40.861  32.994  33.876  1.00  0.00     0.049 C 
ATOM     17  C   UNL A   1      37.697  31.202  32.769  1.00  0.00     0.019 A 
ATOM     18  O   UNL A   1      38.265  33.503  33.193  1.00  0.00    -0.475 OA
ATOM     19  C   UNL A   1      36.331  31.589  32.433  1.00  0.00     0.025 C 
ATOM     20  C   UNL A   1      36.861  33.786  33.416  1.00  0.00     0.314 C 
BRANCH  20  21
ATOM     21  C   UNL A   1      36.600  33.918  34.930  1.00  0.00     0.429 C 
ATOM     22  F   UNL A   1      36.557  32.694  35.513  1.00  0.00    -0.167 F 
ATOM     23  F   UNL A   1      37.570  34.614  35.569  1.00  0.00    -0.167 F 
ATOM     24  F   UNL A   1      35.431  34.540  35.206  1.00  0.00    -0.167 F 
ENDBRANCH  20  21
ENDBRANCH   5   8
ENDBRANCH   3   4
ENDBRANCH   2   3
ENDBRANCH   1   2
BRANCH   1  25
ATOM     25  N   UNL A   1      34.030  31.296  28.073  1.00  0.00    -0.352 N 
ATOM     26  C   UNL A   1      34.516  30.021  27.938  1.00  0.00     0.251 C 
ATOM     27  H   UNL A   1      33.052  31.360  28.167  1.00  0.00     0.163 HD
ATOM     28  O   UNL A   1      33.751  29.109  27.628  1.00  0.00    -0.269 OA
BRANCH  26  29
ATOM     29  C   UNL A   1      35.949  29.749  28.162  1.00  0.00     0.039 A 
ATOM     30  C   UNL A   1      36.855  29.912  27.112  1.00  0.00     0.014 A 
ATOM     31  C   UNL A   1      36.390  29.300  29.408  1.00  0.00     0.014 A 
ATOM     32  C   UNL A   1      38.213  29.678  27.334  1.00  0.00     0.010 A 
ATOM     33  C   UNL A   1      37.748  29.174  29.658  1.00  0.00     0.010 A 
ATOM     34  C   UNL A   1      38.672  29.334  28.618  1.00  0.00    -0.014 A 
BRANCH  34  35
ATOM     35  C   UNL A   1      40.108  29.084  28.882  1.00  0.00     0.031 A 
ATOM     36  C   UNL A   1      40.699  27.735  28.573  1.00  0.00     0.074 A 
ATOM     37  C   UNL A   1      40.863  30.050  29.438  1.00  0.00     0.049 A 
ATOM     38  N   UNL A   1      41.923  27.311  28.749  1.00  0.00    -0.248 NA
ATOM     39  C   UNL A   1      39.787  26.719  28.022  1.00  0.00     0.031 C 
ATOM     40  C   UNL A   1      40.384  31.379  29.822  1.00  0.00     0.029 A 
ATOM     41  N   UNL A   1      42.194  30.068  29.766  1.00  0.00    -0.354 N 
ATOM     42  C   UNL A   1      41.925  25.986  28.330  1.00  0.00     0.074 A 
ATOM     43  C   UNL A   1      40.563  25.650  27.980  1.00  0.00     0.031 C 
ATOM     44  C   UNL A   1      41.418  32.102  30.281  1.00  0.00     0.029 A 
ATOM     45  C   UNL A   1      42.622  31.277  30.258  1.00  0.00     0.049 A 
ATOM     46  H   UNL A   1      42.785  29.288  29.660  1.00  0.00     0.167 HD
ATOM     47  C   UNL A   1      42.972  25.139  28.203  1.00  0.00     0.037 A 
ATOM     48  C   UNL A   1      43.852  31.678  30.635  1.00  0.00     0.037 A 
ATOM     49  C   UNL A   1      44.324  25.489  28.538  1.00  0.00     0.049 A 
ATOM     50  C   UNL A   1      44.998  30.711  30.529  1.00  0.00     0.074 A 
ATOM     51  C   UNL A   1      45.469  24.725  28.413  1.00  0.00     0.029 A 
ATOM     52  N   UNL A   1      44.712  26.712  29.069  1.00  0.00    -0.354 N 
ATOM     53  N   UNL A   1      44.995  29.478  30.076  1.00  0.00    -0.248 NA
ATOM     54  C   UNL A   1      46.310  31.179  30.993  1.00  0.00     0.031 C 
ATOM     55  C   UNL A   1      46.544  25.470  28.909  1.00  0.00     0.029 A 
ATOM     56  C   UNL A   1      46.076  26.714  29.305  1.00  0.00     0.049 A 
ATOM     57  H   UNL A   1      44.107  27.466  29.252  1.00  0.00     0.167 HD
ATOM     58  C   UNL A   1      46.304  29.028  30.189  1.00  0.00     0.074 A 
ATOM     59  C   UNL A   1      47.075  30.124  30.742  1.00  0.00     0.031 C 
ATOM     60  C   UNL A   1      46.820  27.815  29.868  1.00  0.00     0.037 A 
BRANCH  47  61
ATOM     61  C   UNL A   1      42.678  23.765  27.664  1.00  0.00     0.058 A 
ATOM     62  C   UNL A   1      42.454  22.676  28.525  1.00  0.00     0.135 A 
ATOM     63  C   UNL A   1      42.649  23.522  26.282  1.00  0.00     0.135 A 
ATOM     64  F   UNL A   1      42.486  22.848  29.856  1.00  0.00    -0.206 F 
ATOM     65  C   UNL A   1      42.269  21.387  28.037  1.00  0.00     0.059 A 
ATOM     66  C   UNL A   1      42.434  22.245  25.770  1.00  0.00     0.059 A 
ATOM     67  F   UNL A   1      42.854  24.525  25.414  1.00  0.00    -0.206 F 
ATOM     68  C   UNL A   1      42.271  21.181  26.657  1.00  0.00     0.060 A 
BRANCH  68  69
ATOM     69  S   UNL A   1      42.079  19.494  26.043  1.00  0.00     0.124 S 
ATOM     70  O   UNL A   1      42.514  18.715  27.198  1.00  0.00    -0.237 OA
ATOM     71  O   UNL A   1      40.654  19.433  25.736  1.00  0.00    -0.237 OA
ATOM     72  O   UNL A   1      42.970  19.450  24.887  1.00  0.00    -0.744 OA
ENDBRANCH  68  69
ENDBRANCH  47  61
BRANCH  48  73
ATOM     73  C   UNL A   1      44.056  33.082  31.075  1.00  0.00     0.058 A 
ATOM     74  C   UNL A   1      44.105  34.121  30.134  1.00  0.00     0.135 A 
ATOM     75  C   UNL A   1      44.115  33.426  32.435  1.00  0.00     0.135 A 
ATOM     76  F   UNL A   1      44.059  33.840  28.823  1.00  0.00    -0.206 F 
ATOM     77  C   UNL A   1      44.189  35.453  30.524  1.00  0.00     0.059 A 
ATOM     78  C   UNL A   1      44.180  34.754  32.850  1.00  0.00     0.059 A 
ATOM     79  F   UNL A   1      44.057  32.469  33.374  1.00  0.00    -0.206 F 
ATOM     80  C   UNL A   1      44.209  35.761  31.886  1.00  0.00     0.060 A 
BRANCH  80  81
ATOM     81  S   UNL A   1      44.208  37.500  32.376  1.00  0.00     0.124 S 
ATOM     82  O   UNL A   1      45.568  37.668  32.874  1.00  0.00    -0.237 OA
ATOM     83  O   UNL A   1      43.902  38.167  31.114  1.00  0.00    -0.237 OA
ATOM     84  O   UNL A   1      43.154  37.566  33.383  1.00  0.00    -0.744 OA
ENDBRANCH  80  81
ENDBRANCH  48  73
BRANCH  60  85
ATOM     85  C   UNL A   1      48.284  27.591  30.120  1.00  0.00     0.058 A 
ATOM     86  C   UNL A   1      48.726  26.908  31.263  1.00  0.00     0.135 A 
ATOM     87  C   UNL A   1      49.241  27.960  29.161  1.00  0.00     0.135 A 
ATOM     88  F   UNL A   1      47.851  26.543  32.214  1.00  0.00    -0.206 F 
ATOM     89  C   UNL A   1      50.067  26.591  31.443  1.00  0.00     0.059 A 
ATOM     90  C   UNL A   1      50.584  27.632  29.309  1.00  0.00     0.059 A 
ATOM     91  F   UNL A   1      48.866  28.609  28.047  1.00  0.00    -0.206 F 
ATOM     92  C   UNL A   1      50.987  26.946  30.454  1.00  0.00     0.060 A 
BRANCH  92  93
ATOM     93  S   UNL A   1      52.710  26.451  30.666  1.00  0.00     0.124 S 
ATOM     94  O   UNL A   1      53.088  26.103  29.301  1.00  0.00    -0.237 OA
ATOM     95  O   UNL A   1      53.316  27.665  31.203  1.00  0.00    -0.237 OA
ATOM     96  O   UNL A   1      52.631  25.332  31.601  1.00  0.00    -0.744 OA
ENDBRANCH  92  93
ENDBRANCH  60  85
ENDBRANCH  34  35
ENDBRANCH  26  29
ENDBRANCH   1  25
TORSDOF 14
ENDMDL
