MODEL 1
REMARK VINA RESULT:     -12.6      0.000      0.000
REMARK SMILES O=C(NCCCNC(=O)c1cc(/N=C/c2ccc([N+](=O)[O-])cc2)ccc1O)c1ccc(-c2c3nc(c(-c4c(F)cc(S(=O)(=O)[O-])cc4F)c4ccc([nH]4)c(-c4c(F)cc(S(=O)(=O)[O-])cc4F)c4nc(c(-c5c(F)cc(S(=O)(=O)[O-])cc5F)c5ccc2[nH]5)C=C4)C=C3)cc1
REMARK SMILES IDX 5 1 4 2 3 3 1 4 2 5 28 7 29 8 93 9 30 10 92 11 31 12 32 13
REMARK SMILES IDX 33 14 86 15 34 16 91 17 85 18 87 19 35 20 90 21 84 22 83 23
REMARK SMILES IDX 36 25 70 26 49 27 69 28 50 29 53 30 68 31 88 32 51 33 52 34
REMARK SMILES IDX 67 36 89 37 54 38 37 39 38 40 47 41 39 42 40 43 46 44 48 45
REMARK SMILES IDX 41 46 42 47 43 48 44 49 45 50 71 51 72 52 81 53 73 54 74 55
REMARK SMILES IDX 80 56 82 57 75 58 76 59 77 60 78 61 79 62 55 63 56 64 65 65
REMARK SMILES IDX 57 66 58 67 64 68 66 69 59 70 60 71 61 72 62 73 63 74 6 75
REMARK SMILES IDX 7 76 8 77 9 79 10 80 11 81 26 82 12 83 25 84 24 85 27 86
REMARK SMILES IDX 13 88 14 89 15 90 16 91 23 92 17 93 22 94 18 95 19 96 20 97
REMARK SMILES IDX 21 98
REMARK H PARENT 3 6 87 24 53 35 7 78 27 87
REMARK Flexibility Score: inf
ROOT
ATOM      1  C   UNL A   1      37.154  23.806  25.551  1.00  0.00     0.042 C 
ENDROOT
BRANCH   1   2
ATOM      2  C   UNL A   1      38.215  24.061  26.610  1.00  0.00     0.118 C 
BRANCH   2   3
ATOM      3  N   UNL A   1      39.567  24.055  26.070  1.00  0.00    -0.352 N 
ATOM      4  O   UNL A   1      41.651  24.786  25.648  1.00  0.00    -0.269 OA
ATOM      5  C   UNL A   1      40.651  24.850  26.361  1.00  0.00     0.251 C 
ATOM      6  H   UNL A   1      39.734  23.370  25.384  1.00  0.00     0.163 HD
BRANCH   5   7
ATOM      7  C   UNL A   1      40.616  25.794  27.500  1.00  0.00     0.039 A 
ATOM      8  C   UNL A   1      39.680  25.657  28.528  1.00  0.00     0.014 A 
ATOM      9  C   UNL A   1      41.561  26.822  27.558  1.00  0.00     0.014 A 
ATOM     10  C   UNL A   1      39.581  26.632  29.516  1.00  0.00     0.010 A 
ATOM     11  C   UNL A   1      41.523  27.749  28.605  1.00  0.00     0.010 A 
ATOM     12  C   UNL A   1      40.508  27.684  29.572  1.00  0.00    -0.014 A 
BRANCH  12  13
ATOM     13  C   UNL A   1      40.432  28.681  30.671  1.00  0.00     0.031 A 
ATOM     14  C   UNL A   1      41.345  28.586  31.862  1.00  0.00     0.074 A 
ATOM     15  C   UNL A   1      39.527  29.677  30.590  1.00  0.00     0.049 A 
ATOM     16  N   UNL A   1      41.383  29.334  32.935  1.00  0.00    -0.248 NA
ATOM     17  C   UNL A   1      42.342  27.505  31.852  1.00  0.00     0.031 C 
ATOM     18  C   UNL A   1      38.587  29.872  29.485  1.00  0.00     0.029 A 
ATOM     19  N   UNL A   1      39.249  30.709  31.448  1.00  0.00    -0.354 N 
ATOM     20  C   UNL A   1      42.385  28.803  33.739  1.00  0.00     0.074 A 
ATOM     21  C   UNL A   1      42.915  27.652  33.039  1.00  0.00     0.031 C 
ATOM     22  C   UNL A   1      37.852  30.969  29.720  1.00  0.00     0.029 A 
ATOM     23  C   UNL A   1      38.223  31.518  31.019  1.00  0.00     0.049 A 
ATOM     24  H   UNL A   1      39.737  30.858  32.290  1.00  0.00     0.167 HD
ATOM     25  C   UNL A   1      42.823  29.239  34.944  1.00  0.00     0.037 A 
ATOM     26  C   UNL A   1      37.624  32.566  31.615  1.00  0.00     0.037 A 
ATOM     27  C   UNL A   1      42.294  30.392  35.626  1.00  0.00     0.049 A 
ATOM     28  C   UNL A   1      38.107  33.015  32.963  1.00  0.00     0.074 A 
ATOM     29  C   UNL A   1      42.689  30.934  36.838  1.00  0.00     0.029 A 
ATOM     30  N   UNL A   1      41.249  31.180  35.161  1.00  0.00    -0.354 N 
ATOM     31  N   UNL A   1      39.070  32.513  33.699  1.00  0.00    -0.248 NA
ATOM     32  C   UNL A   1      37.426  34.168  33.564  1.00  0.00     0.031 C 
ATOM     33  C   UNL A   1      41.854  32.019  37.127  1.00  0.00     0.029 A 
ATOM     34  C   UNL A   1      40.974  32.190  36.070  1.00  0.00     0.049 A 
ATOM     35  H   UNL A   1      40.774  31.043  34.310  1.00  0.00     0.167 HD
ATOM     36  C   UNL A   1      39.127  33.305  34.839  1.00  0.00     0.074 A 
ATOM     37  C   UNL A   1      38.105  34.322  34.692  1.00  0.00     0.031 C 
ATOM     38  C   UNL A   1      39.956  33.201  35.907  1.00  0.00     0.037 A 
BRANCH  25  39
ATOM     39  C   UNL A   1      43.912  28.446  35.618  1.00  0.00     0.058 A 
ATOM     40  C   UNL A   1      45.272  28.693  35.374  1.00  0.00     0.135 A 
ATOM     41  C   UNL A   1      43.588  27.430  36.534  1.00  0.00     0.135 A 
ATOM     42  F   UNL A   1      45.640  29.642  34.500  1.00  0.00    -0.206 F 
ATOM     43  C   UNL A   1      46.271  27.936  35.980  1.00  0.00     0.059 A 
ATOM     44  C   UNL A   1      44.571  26.679  37.174  1.00  0.00     0.059 A 
ATOM     45  F   UNL A   1      42.304  27.154  36.811  1.00  0.00    -0.206 F 
ATOM     46  C   UNL A   1      45.909  26.926  36.873  1.00  0.00     0.060 A 
BRANCH  46  47
ATOM     47  S   UNL A   1      47.213  25.930  37.626  1.00  0.00     0.124 S 
ATOM     48  O   UNL A   1      48.383  26.779  37.418  1.00  0.00    -0.237 OA
ATOM     49  O   UNL A   1      46.758  25.809  39.007  1.00  0.00    -0.237 OA
ATOM     50  O   UNL A   1      47.190  24.694  36.851  1.00  0.00    -0.744 OA
ENDBRANCH  46  47
ENDBRANCH  25  39
BRANCH  26  51
ATOM     51  C   UNL A   1      36.499  33.247  30.924  1.00  0.00     0.058 A 
ATOM     52  C   UNL A   1      35.184  33.128  31.395  1.00  0.00     0.135 A 
ATOM     53  C   UNL A   1      36.727  34.081  29.818  1.00  0.00     0.135 A 
ATOM     54  F   UNL A   1      34.916  32.338  32.446  1.00  0.00    -0.206 F 
ATOM     55  C   UNL A   1      34.133  33.815  30.796  1.00  0.00     0.059 A 
ATOM     56  C   UNL A   1      35.697  34.797  29.219  1.00  0.00     0.059 A 
ATOM     57  F   UNL A   1      37.971  34.242  29.341  1.00  0.00    -0.206 F 
ATOM     58  C   UNL A   1      34.401  34.655  29.713  1.00  0.00     0.060 A 
BRANCH  58  59
ATOM     59  S   UNL A   1      33.043  35.603  28.994  1.00  0.00     0.124 S 
ATOM     60  O   UNL A   1      32.406  34.605  28.143  1.00  0.00    -0.237 OA
ATOM     61  O   UNL A   1      32.292  36.006  30.179  1.00  0.00    -0.237 OA
ATOM     62  O   UNL A   1      33.724  36.688  28.295  1.00  0.00    -0.744 OA
ENDBRANCH  58  59
ENDBRANCH  26  51
BRANCH  38  63
ATOM     63  C   UNL A   1      39.826  34.237  36.989  1.00  0.00     0.058 A 
ATOM     64  C   UNL A   1      40.343  35.533  36.840  1.00  0.00     0.135 A 
ATOM     65  C   UNL A   1      39.116  33.944  38.165  1.00  0.00     0.135 A 
ATOM     66  F   UNL A   1      41.039  35.861  35.739  1.00  0.00    -0.206 F 
ATOM     67  C   UNL A   1      40.173  36.500  37.826  1.00  0.00     0.059 A 
ATOM     68  C   UNL A   1      38.911  34.903  39.151  1.00  0.00     0.059 A 
ATOM     69  F   UNL A   1      38.594  32.722  38.353  1.00  0.00    -0.206 F 
ATOM     70  C   UNL A   1      39.451  36.177  38.976  1.00  0.00     0.060 A 
BRANCH  70  71
ATOM     71  S   UNL A   1      39.190  37.455  40.224  1.00  0.00     0.124 S 
ATOM     72  O   UNL A   1      38.248  38.339  39.548  1.00  0.00    -0.237 OA
ATOM     73  O   UNL A   1      38.651  36.691  41.345  1.00  0.00    -0.237 OA
ATOM     74  O   UNL A   1      40.526  38.003  40.434  1.00  0.00    -0.744 OA
ENDBRANCH  70  71
ENDBRANCH  38  63
ENDBRANCH  12  13
ENDBRANCH   5   7
ENDBRANCH   2   3
ENDBRANCH   1   2
BRANCH   1  75
ATOM     75  C   UNL A   1      36.501  22.436  25.638  1.00  0.00     0.118 C 
BRANCH  75  76
ATOM     76  N   UNL A   1      35.639  22.291  26.802  1.00  0.00    -0.352 N 
ATOM     77  C   UNL A   1      34.283  22.072  26.851  1.00  0.00     0.255 C 
ATOM     78  H   UNL A   1      36.090  22.359  27.675  1.00  0.00     0.163 HD
ATOM     79  O   UNL A   1      33.702  22.033  27.932  1.00  0.00    -0.269 OA
BRANCH  77  80
ATOM     80  C   UNL A   1      33.506  21.954  25.602  1.00  0.00     0.083 A 
ATOM     81  C   UNL A   1      32.844  23.100  25.143  1.00  0.00     0.046 A 
ATOM     82  C   UNL A   1      33.429  20.759  24.876  1.00  0.00     0.128 A 
ATOM     83  C   UNL A   1      32.157  23.079  23.928  1.00  0.00     0.064 A 
ATOM     84  C   UNL A   1      32.774  20.736  23.649  1.00  0.00     0.049 A 
ATOM     85  C   UNL A   1      32.164  21.899  23.171  1.00  0.00     0.032 A 
BRANCH  82  86
ATOM     86  O   UNL A   1      34.012  19.618  25.350  1.00  0.00    -0.507 OA
ATOM     87  H   UNL A   1      33.973  18.828  24.846  1.00  0.00     0.293 HD
ENDBRANCH  82  86
BRANCH  83  88
ATOM     88  N   UNL A   1      31.542  24.261  23.478  1.00  0.00    -0.256 NA
ATOM     89  C   UNL A   1      30.947  25.007  24.354  1.00  0.00     0.119 C 
BRANCH  89  90
ATOM     90  C   UNL A   1      30.265  26.264  23.990  1.00  0.00    -0.007 A 
ATOM     91  C   UNL A   1      31.052  27.385  23.700  1.00  0.00     0.017 A 
ATOM     92  C   UNL A   1      28.870  26.339  23.922  1.00  0.00     0.017 A 
ATOM     93  C   UNL A   1      30.443  28.586  23.326  1.00  0.00     0.086 A 
ATOM     94  C   UNL A   1      28.254  27.538  23.545  1.00  0.00     0.086 A 
ATOM     95  C   UNL A   1      29.045  28.656  23.244  1.00  0.00     0.269 A 
BRANCH  95  96
ATOM     96  N   UNL A   1      28.408  29.911  22.824  1.00  0.00     0.062 N 
ATOM     97  O   UNL A   1      29.148  30.838  22.460  1.00  0.00    -0.258 OA
ATOM     98  O   UNL A   1      27.171  29.970  22.846  1.00  0.00    -0.258 OA
ENDBRANCH  95  96
ENDBRANCH  89  90
ENDBRANCH  83  88
ENDBRANCH  77  80
ENDBRANCH  75  76
ENDBRANCH   1  75
TORSDOF 17
ENDMDL
MODEL 2
REMARK VINA RESULT:     -12.5      6.690     12.359
REMARK SMILES O=C(NCCCNC(=O)c1cc(/N=C/c2ccc([N+](=O)[O-])cc2)ccc1O)c1ccc(-c2c3nc(c(-c4c(F)cc(S(=O)(=O)[O-])cc4F)c4ccc([nH]4)c(-c4c(F)cc(S(=O)(=O)[O-])cc4F)c4nc(c(-c5c(F)cc(S(=O)(=O)[O-])cc5F)c5ccc2[nH]5)C=C4)C=C3)cc1
REMARK SMILES IDX 5 1 4 2 3 3 1 4 2 5 28 7 29 8 93 9 30 10 92 11 31 12 32 13
REMARK SMILES IDX 33 14 86 15 34 16 91 17 85 18 87 19 35 20 90 21 84 22 83 23
REMARK SMILES IDX 36 25 70 26 49 27 69 28 50 29 53 30 68 31 88 32 51 33 52 34
REMARK SMILES IDX 67 36 89 37 54 38 37 39 38 40 47 41 39 42 40 43 46 44 48 45
REMARK SMILES IDX 41 46 42 47 43 48 44 49 45 50 71 51 72 52 81 53 73 54 74 55
REMARK SMILES IDX 80 56 82 57 75 58 76 59 77 60 78 61 79 62 55 63 56 64 65 65
REMARK SMILES IDX 57 66 58 67 64 68 66 69 59 70 60 71 61 72 62 73 63 74 6 75
REMARK SMILES IDX 7 76 8 77 9 79 10 80 11 81 26 82 12 83 25 84 24 85 27 86
REMARK SMILES IDX 13 88 14 89 15 90 16 91 23 92 17 93 22 94 18 95 19 96 20 97
REMARK SMILES IDX 21 98
REMARK H PARENT 3 6 87 24 53 35 7 78 27 87
REMARK Flexibility Score: inf
ROOT
ATOM      1  C   UNL A   1      33.762  28.709  27.277  1.00  0.00     0.042 C 
ENDROOT
BRANCH   1   2
ATOM      2  C   UNL A   1      35.133  29.316  27.529  1.00  0.00     0.118 C 
BRANCH   2   3
ATOM      3  N   UNL A   1      35.181  30.126  28.738  1.00  0.00    -0.352 N 
ATOM      4  O   UNL A   1      35.970  30.932  30.683  1.00  0.00    -0.269 OA
ATOM      5  C   UNL A   1      36.207  30.354  29.624  1.00  0.00     0.251 C 
ATOM      6  H   UNL A   1      34.339  30.587  28.959  1.00  0.00     0.163 HD
BRANCH   5   7
ATOM      7  C   UNL A   1      37.582  29.889  29.329  1.00  0.00     0.039 A 
ATOM      8  C   UNL A   1      38.436  29.459  30.347  1.00  0.00     0.014 A 
ATOM      9  C   UNL A   1      38.014  29.851  28.000  1.00  0.00     0.014 A 
ATOM     10  C   UNL A   1      39.763  29.155  30.061  1.00  0.00     0.010 A 
ATOM     11  C   UNL A   1      39.321  29.452  27.702  1.00  0.00     0.010 A 
ATOM     12  C   UNL A   1      40.219  29.137  28.734  1.00  0.00    -0.014 A 
BRANCH  12  13
ATOM     13  C   UNL A   1      41.621  28.745  28.437  1.00  0.00     0.031 A 
ATOM     14  C   UNL A   1      42.729  29.760  28.470  1.00  0.00     0.074 A 
ATOM     15  C   UNL A   1      41.890  27.460  28.132  1.00  0.00     0.049 A 
ATOM     16  N   UNL A   1      43.997  29.607  28.187  1.00  0.00    -0.248 NA
ATOM     17  C   UNL A   1      42.365  31.130  28.865  1.00  0.00     0.031 C 
ATOM     18  C   UNL A   1      40.898  26.384  28.067  1.00  0.00     0.029 A 
ATOM     19  N   UNL A   1      43.072  26.840  27.820  1.00  0.00    -0.354 N 
ATOM     20  C   UNL A   1      44.580  30.860  28.343  1.00  0.00     0.074 A 
ATOM     21  C   UNL A   1      43.518  31.769  28.723  1.00  0.00     0.031 C 
ATOM     22  C   UNL A   1      41.515  25.234  27.759  1.00  0.00     0.029 A 
ATOM     23  C   UNL A   1      42.933  25.500  27.542  1.00  0.00     0.049 A 
ATOM     24  H   UNL A   1      43.938  27.308  27.798  1.00  0.00     0.167 HD
ATOM     25  C   UNL A   1      45.878  31.216  28.188  1.00  0.00     0.037 A 
ATOM     26  C   UNL A   1      43.835  24.591  27.129  1.00  0.00     0.037 A 
ATOM     27  C   UNL A   1      46.927  30.300  27.819  1.00  0.00     0.049 A 
ATOM     28  C   UNL A   1      45.262  25.013  26.937  1.00  0.00     0.074 A 
ATOM     29  C   UNL A   1      48.279  30.554  27.665  1.00  0.00     0.029 A 
ATOM     30  N   UNL A   1      46.742  28.952  27.539  1.00  0.00    -0.354 N 
ATOM     31  N   UNL A   1      45.799  26.197  27.110  1.00  0.00    -0.248 NA
ATOM     32  C   UNL A   1      46.208  23.980  26.495  1.00  0.00     0.031 C 
ATOM     33  C   UNL A   1      48.903  29.374  27.247  1.00  0.00     0.029 A 
ATOM     34  C   UNL A   1      47.951  28.368  27.195  1.00  0.00     0.049 A 
ATOM     35  H   UNL A   1      45.879  28.480  27.581  1.00  0.00     0.167 HD
ATOM     36  C   UNL A   1      47.150  26.047  26.821  1.00  0.00     0.074 A 
ATOM     37  C   UNL A   1      47.349  24.655  26.468  1.00  0.00     0.031 C 
ATOM     38  C   UNL A   1      48.135  26.978  26.852  1.00  0.00     0.037 A 
BRANCH  25  39
ATOM     39  C   UNL A   1      46.232  32.666  28.389  1.00  0.00     0.058 A 
ATOM     40  C   UNL A   1      46.168  33.599  27.342  1.00  0.00     0.135 A 
ATOM     41  C   UNL A   1      46.628  33.132  29.654  1.00  0.00     0.135 A 
ATOM     42  F   UNL A   1      45.807  33.208  26.109  1.00  0.00    -0.206 F 
ATOM     43  C   UNL A   1      46.525  34.931  27.530  1.00  0.00     0.059 A 
ATOM     44  C   UNL A   1      46.962  34.467  29.872  1.00  0.00     0.059 A 
ATOM     45  F   UNL A   1      46.702  32.287  30.693  1.00  0.00    -0.206 F 
ATOM     46  C   UNL A   1      46.928  35.354  28.797  1.00  0.00     0.060 A 
BRANCH  46  47
ATOM     47  S   UNL A   1      47.420  37.077  29.019  1.00  0.00     0.124 S 
ATOM     48  O   UNL A   1      48.731  37.089  28.375  1.00  0.00    -0.237 OA
ATOM     49  O   UNL A   1      46.364  37.798  28.315  1.00  0.00    -0.237 OA
ATOM     50  O   UNL A   1      47.431  37.245  30.468  1.00  0.00    -0.744 OA
ENDBRANCH  46  47
ENDBRANCH  25  39
BRANCH  26  51
ATOM     51  C   UNL A   1      43.393  23.196  26.870  1.00  0.00     0.058 A 
ATOM     52  C   UNL A   1      43.313  22.695  25.564  1.00  0.00     0.135 A 
ATOM     53  C   UNL A   1      43.106  22.320  27.929  1.00  0.00     0.135 A 
ATOM     54  F   UNL A   1      43.573  23.496  24.520  1.00  0.00    -0.206 F 
ATOM     55  C   UNL A   1      42.965  21.371  25.314  1.00  0.00     0.059 A 
ATOM     56  C   UNL A   1      42.781  20.987  27.706  1.00  0.00     0.059 A 
ATOM     57  F   UNL A   1      43.187  22.748  29.198  1.00  0.00    -0.206 F 
ATOM     58  C   UNL A   1      42.709  20.522  26.393  1.00  0.00     0.060 A 
BRANCH  58  59
ATOM     59  S   UNL A   1      42.337  18.787  26.061  1.00  0.00     0.124 S 
ATOM     60  O   UNL A   1      43.288  18.480  25.000  1.00  0.00    -0.237 OA
ATOM     61  O   UNL A   1      42.600  18.165  27.355  1.00  0.00    -0.237 OA
ATOM     62  O   UNL A   1      40.932  18.815  25.663  1.00  0.00    -0.744 OA
ENDBRANCH  58  59
ENDBRANCH  26  51
BRANCH  38  63
ATOM     63  C   UNL A   1      49.532  26.519  26.535  1.00  0.00     0.058 A 
ATOM     64  C   UNL A   1      50.375  25.980  27.519  1.00  0.00     0.135 A 
ATOM     65  C   UNL A   1      50.006  26.562  25.214  1.00  0.00     0.135 A 
ATOM     66  F   UNL A   1      49.973  25.926  28.799  1.00  0.00    -0.206 F 
ATOM     67  C   UNL A   1      51.647  25.511  27.206  1.00  0.00     0.059 A 
ATOM     68  C   UNL A   1      51.264  26.075  24.874  1.00  0.00     0.059 A 
ATOM     69  F   UNL A   1      49.236  27.061  24.235  1.00  0.00    -0.206 F 
ATOM     70  C   UNL A   1      52.081  25.558  25.880  1.00  0.00     0.060 A 
BRANCH  70  71
ATOM     71  S   UNL A   1      53.712  24.898  25.477  1.00  0.00     0.124 S 
ATOM     72  O   UNL A   1      54.124  25.776  24.387  1.00  0.00    -0.237 OA
ATOM     73  O   UNL A   1      54.436  25.066  26.734  1.00  0.00    -0.237 OA
ATOM     74  O   UNL A   1      53.437  23.515  25.100  1.00  0.00    -0.744 OA
ENDBRANCH  70  71
ENDBRANCH  38  63
ENDBRANCH  12  13
ENDBRANCH   5   7
ENDBRANCH   2   3
ENDBRANCH   1   2
BRANCH   1  75
ATOM     75  C   UNL A   1      32.901  29.493  26.301  1.00  0.00     0.118 C 
BRANCH  75  76
ATOM     76  N   UNL A   1      33.529  29.661  24.998  1.00  0.00    -0.352 N 
ATOM     77  C   UNL A   1      33.290  28.980  23.829  1.00  0.00     0.255 C 
ATOM     78  H   UNL A   1      34.222  30.359  24.949  1.00  0.00     0.163 HD
ATOM     79  O   UNL A   1      33.961  29.214  22.828  1.00  0.00    -0.269 OA
BRANCH  77  80
ATOM     80  C   UNL A   1      32.272  27.912  23.790  1.00  0.00     0.083 A 
ATOM     81  C   UNL A   1      32.727  26.587  23.766  1.00  0.00     0.046 A 
ATOM     82  C   UNL A   1      30.898  28.183  23.790  1.00  0.00     0.128 A 
ATOM     83  C   UNL A   1      31.818  25.528  23.809  1.00  0.00     0.064 A 
ATOM     84  C   UNL A   1      29.986  27.136  23.864  1.00  0.00     0.049 A 
ATOM     85  C   UNL A   1      30.450  25.818  23.898  1.00  0.00     0.032 A 
BRANCH  82  86
ATOM     86  O   UNL A   1      30.443  29.471  23.741  1.00  0.00    -0.507 OA
ATOM     87  H   UNL A   1      29.611  29.688  24.115  1.00  0.00     0.293 HD
ENDBRANCH  82  86
BRANCH  83  88
ATOM     88  N   UNL A   1      32.314  24.212  23.828  1.00  0.00    -0.256 NA
ATOM     89  C   UNL A   1      31.508  23.254  23.500  1.00  0.00     0.119 C 
BRANCH  89  90
ATOM     90  C   UNL A   1      31.923  21.837  23.493  1.00  0.00    -0.007 A 
ATOM     91  C   UNL A   1      32.390  21.278  24.688  1.00  0.00     0.017 A 
ATOM     92  C   UNL A   1      31.842  21.063  22.331  1.00  0.00     0.017 A 
ATOM     93  C   UNL A   1      32.768  19.934  24.727  1.00  0.00     0.086 A 
ATOM     94  C   UNL A   1      32.215  19.715  22.364  1.00  0.00     0.086 A 
ATOM     95  C   UNL A   1      32.673  19.154  23.565  1.00  0.00     0.269 A 
BRANCH  95  96
ATOM     96  N   UNL A   1      33.044  17.734  23.615  1.00  0.00     0.062 N 
ATOM     97  O   UNL A   1      33.125  17.123  22.539  1.00  0.00    -0.258 OA
ATOM     98  O   UNL A   1      33.264  17.230  24.725  1.00  0.00    -0.258 OA
ENDBRANCH  95  96
ENDBRANCH  89  90
ENDBRANCH  83  88
ENDBRANCH  77  80
ENDBRANCH  75  76
ENDBRANCH   1  75
TORSDOF 17
ENDMDL
MODEL 3
REMARK VINA RESULT:     -12.4      1.127      8.263
REMARK SMILES O=C(NCCCNC(=O)c1cc(/N=C/c2ccc([N+](=O)[O-])cc2)ccc1O)c1ccc(-c2c3nc(c(-c4c(F)cc(S(=O)(=O)[O-])cc4F)c4ccc([nH]4)c(-c4c(F)cc(S(=O)(=O)[O-])cc4F)c4nc(c(-c5c(F)cc(S(=O)(=O)[O-])cc5F)c5ccc2[nH]5)C=C4)C=C3)cc1
REMARK SMILES IDX 5 1 4 2 3 3 1 4 2 5 28 7 29 8 93 9 30 10 92 11 31 12 32 13
REMARK SMILES IDX 33 14 86 15 34 16 91 17 85 18 87 19 35 20 90 21 84 22 83 23
REMARK SMILES IDX 36 25 70 26 49 27 69 28 50 29 53 30 68 31 88 32 51 33 52 34
REMARK SMILES IDX 67 36 89 37 54 38 37 39 38 40 47 41 39 42 40 43 46 44 48 45
REMARK SMILES IDX 41 46 42 47 43 48 44 49 45 50 71 51 72 52 81 53 73 54 74 55
REMARK SMILES IDX 80 56 82 57 75 58 76 59 77 60 78 61 79 62 55 63 56 64 65 65
REMARK SMILES IDX 57 66 58 67 64 68 66 69 59 70 60 71 61 72 62 73 63 74 6 75
REMARK SMILES IDX 7 76 8 77 9 79 10 80 11 81 26 82 12 83 25 84 24 85 27 86
REMARK SMILES IDX 13 88 14 89 15 90 16 91 23 92 17 93 22 94 18 95 19 96 20 97
REMARK SMILES IDX 21 98
REMARK H PARENT 3 6 87 24 53 35 7 78 27 87
REMARK Flexibility Score: inf
ROOT
ATOM      1  C   UNL A   1      38.902  22.766  26.452  1.00  0.00     0.042 C 
ENDROOT
BRANCH   1   2
ATOM      2  C   UNL A   1      40.098  23.467  27.079  1.00  0.00     0.118 C 
BRANCH   2   3
ATOM      3  N   UNL A   1      40.910  24.182  26.105  1.00  0.00    -0.352 N 
ATOM      4  O   UNL A   1      41.852  25.930  25.051  1.00  0.00    -0.269 OA
ATOM      5  C   UNL A   1      41.318  25.494  26.070  1.00  0.00     0.251 C 
ATOM      6  H   UNL A   1      41.218  23.636  25.345  1.00  0.00     0.163 HD
BRANCH   5   7
ATOM      7  C   UNL A   1      41.099  26.389  27.228  1.00  0.00     0.039 A 
ATOM      8  C   UNL A   1      41.814  27.580  27.370  1.00  0.00     0.014 A 
ATOM      9  C   UNL A   1      40.132  26.044  28.177  1.00  0.00     0.014 A 
ATOM     10  C   UNL A   1      41.687  28.335  28.532  1.00  0.00     0.010 A 
ATOM     11  C   UNL A   1      39.935  26.855  29.300  1.00  0.00     0.010 A 
ATOM     12  C   UNL A   1      40.739  27.987  29.506  1.00  0.00    -0.014 A 
BRANCH  12  13
ATOM     13  C   UNL A   1      40.566  28.840  30.710  1.00  0.00     0.031 A 
ATOM     14  C   UNL A   1      39.510  29.910  30.752  1.00  0.00     0.074 A 
ATOM     15  C   UNL A   1      41.374  28.645  31.771  1.00  0.00     0.049 A 
ATOM     16  N   UNL A   1      39.253  30.780  31.696  1.00  0.00    -0.248 NA
ATOM     17  C   UNL A   1      38.633  30.025  29.577  1.00  0.00     0.031 C 
ATOM     18  C   UNL A   1      42.435  27.639  31.849  1.00  0.00     0.029 A 
ATOM     19  N   UNL A   1      41.430  29.280  32.986  1.00  0.00    -0.354 N 
ATOM     20  C   UNL A   1      38.205  31.561  31.223  1.00  0.00     0.074 A 
ATOM     21  C   UNL A   1      37.890  31.077  29.895  1.00  0.00     0.031 C 
ATOM     22  C   UNL A   1      43.021  27.709  33.052  1.00  0.00     0.029 A 
ATOM     23  C   UNL A   1      42.423  28.804  33.808  1.00  0.00     0.049 A 
ATOM     24  H   UNL A   1      40.818  30.007  33.244  1.00  0.00     0.167 HD
ATOM     25  C   UNL A   1      37.565  32.583  31.841  1.00  0.00     0.037 A 
ATOM     26  C   UNL A   1      42.831  29.217  35.022  1.00  0.00     0.037 A 
ATOM     27  C   UNL A   1      37.882  33.049  33.167  1.00  0.00     0.049 A 
ATOM     28  C   UNL A   1      42.126  30.368  35.677  1.00  0.00     0.074 A 
ATOM     29  C   UNL A   1      37.273  34.057  33.894  1.00  0.00     0.029 A 
ATOM     30  N   UNL A   1      38.900  32.543  33.964  1.00  0.00    -0.354 N 
ATOM     31  N   UNL A   1      41.122  31.082  35.224  1.00  0.00    -0.248 NA
ATOM     32  C   UNL A   1      42.604  30.773  37.005  1.00  0.00     0.031 C 
ATOM     33  C   UNL A   1      37.952  34.193  35.110  1.00  0.00     0.029 A 
ATOM     34  C   UNL A   1      38.949  33.232  35.166  1.00  0.00     0.049 A 
ATOM     35  H   UNL A   1      39.500  31.804  33.713  1.00  0.00     0.167 HD
ATOM     36  C   UNL A   1      40.833  32.005  36.222  1.00  0.00     0.074 A 
ATOM     37  C   UNL A   1      41.764  31.755  37.304  1.00  0.00     0.031 C 
ATOM     38  C   UNL A   1      39.878  32.967  36.239  1.00  0.00     0.037 A 
BRANCH  25  39
ATOM     39  C   UNL A   1      36.474  33.286  31.076  1.00  0.00     0.058 A 
ATOM     40  C   UNL A   1      36.753  34.129  29.989  1.00  0.00     0.135 A 
ATOM     41  C   UNL A   1      35.127  33.102  31.430  1.00  0.00     0.135 A 
ATOM     42  F   UNL A   1      38.023  34.351  29.614  1.00  0.00    -0.206 F 
ATOM     43  C   UNL A   1      35.741  34.797  29.306  1.00  0.00     0.059 A 
ATOM     44  C   UNL A   1      34.096  33.738  30.743  1.00  0.00     0.059 A 
ATOM     45  F   UNL A   1      34.800  32.303  32.457  1.00  0.00    -0.206 F 
ATOM     46  C   UNL A   1      34.415  34.601  29.696  1.00  0.00     0.060 A 
BRANCH  46  47
ATOM     47  S   UNL A   1      33.115  35.500  28.824  1.00  0.00     0.124 S 
ATOM     48  O   UNL A   1      32.337  36.036  29.938  1.00  0.00    -0.237 OA
ATOM     49  O   UNL A   1      33.873  36.481  28.054  1.00  0.00    -0.237 OA
ATOM     50  O   UNL A   1      32.453  34.466  28.037  1.00  0.00    -0.744 OA
ENDBRANCH  46  47
ENDBRANCH  25  39
BRANCH  26  51
ATOM     51  C   UNL A   1      43.971  28.526  35.680  1.00  0.00     0.058 A 
ATOM     52  C   UNL A   1      43.757  27.448  36.549  1.00  0.00     0.135 A 
ATOM     53  C   UNL A   1      45.297  28.892  35.400  1.00  0.00     0.135 A 
ATOM     54  F   UNL A   1      42.508  27.066  36.851  1.00  0.00    -0.206 F 
ATOM     55  C   UNL A   1      44.820  26.752  37.117  1.00  0.00     0.059 A 
ATOM     56  C   UNL A   1      46.375  28.196  35.935  1.00  0.00     0.059 A 
ATOM     57  F   UNL A   1      45.553  29.907  34.559  1.00  0.00    -0.206 F 
ATOM     58  C   UNL A   1      46.126  27.128  36.797  1.00  0.00     0.060 A 
BRANCH  58  59
ATOM     59  S   UNL A   1      47.496  26.168  37.476  1.00  0.00     0.124 S 
ATOM     60  O   UNL A   1      48.055  27.100  38.448  1.00  0.00    -0.237 OA
ATOM     61  O   UNL A   1      46.808  25.005  38.029  1.00  0.00    -0.237 OA
ATOM     62  O   UNL A   1      48.328  25.897  36.308  1.00  0.00    -0.744 OA
ENDBRANCH  58  59
ENDBRANCH  26  51
BRANCH  38  63
ATOM     63  C   UNL A   1      39.758  33.801  37.484  1.00  0.00     0.058 A 
ATOM     64  C   UNL A   1      40.457  35.008  37.638  1.00  0.00     0.135 A 
ATOM     65  C   UNL A   1      38.879  33.415  38.510  1.00  0.00     0.135 A 
ATOM     66  F   UNL A   1      41.317  35.417  36.691  1.00  0.00    -0.206 F 
ATOM     67  C   UNL A   1      40.299  35.798  38.773  1.00  0.00     0.059 A 
ATOM     68  C   UNL A   1      38.686  34.202  39.641  1.00  0.00     0.059 A 
ATOM     69  F   UNL A   1      38.181  32.273  38.408  1.00  0.00    -0.206 F 
ATOM     70  C   UNL A   1      39.408  35.389  39.766  1.00  0.00     0.060 A 
BRANCH  70  71
ATOM     71  S   UNL A   1      39.172  36.448  41.209  1.00  0.00     0.124 S 
ATOM     72  O   UNL A   1      38.109  35.745  41.920  1.00  0.00    -0.237 OA
ATOM     73  O   UNL A   1      40.487  36.412  41.841  1.00  0.00    -0.237 OA
ATOM     74  O   UNL A   1      38.796  37.734  40.631  1.00  0.00    -0.744 OA
ENDBRANCH  70  71
ENDBRANCH  38  63
ENDBRANCH  12  13
ENDBRANCH   5   7
ENDBRANCH   2   3
ENDBRANCH   1   2
BRANCH   1  75
ATOM     75  C   UNL A   1      37.849  23.709  25.891  1.00  0.00     0.118 C 
BRANCH  75  76
ATOM     76  N   UNL A   1      37.484  23.398  24.517  1.00  0.00    -0.352 N 
ATOM     77  C   UNL A   1      36.237  23.367  23.940  1.00  0.00     0.255 C 
ATOM     78  H   UNL A   1      38.234  23.179  23.918  1.00  0.00     0.163 HD
ATOM     79  O   UNL A   1      36.105  23.023  22.768  1.00  0.00    -0.269 OA
BRANCH  77  80
ATOM     80  C   UNL A   1      35.040  23.677  24.747  1.00  0.00     0.083 A 
ATOM     81  C   UNL A   1      34.316  24.829  24.409  1.00  0.00     0.046 A 
ATOM     82  C   UNL A   1      34.615  22.864  25.803  1.00  0.00     0.128 A 
ATOM     83  C   UNL A   1      33.131  25.138  25.080  1.00  0.00     0.064 A 
ATOM     84  C   UNL A   1      33.419  23.146  26.456  1.00  0.00     0.049 A 
ATOM     85  C   UNL A   1      32.673  24.265  26.076  1.00  0.00     0.032 A 
BRANCH  82  86
ATOM     86  O   UNL A   1      35.352  21.779  26.186  1.00  0.00    -0.507 OA
ATOM     87  H   UNL A   1      34.945  20.936  26.254  1.00  0.00     0.293 HD
ENDBRANCH  82  86
BRANCH  83  88
ATOM     88  N   UNL A   1      32.409  26.279  24.684  1.00  0.00    -0.256 NA
ATOM     89  C   UNL A   1      31.143  26.144  24.446  1.00  0.00     0.119 C 
BRANCH  89  90
ATOM     90  C   UNL A   1      30.294  27.272  24.019  1.00  0.00    -0.007 A 
ATOM     91  C   UNL A   1      30.848  28.557  24.025  1.00  0.00     0.017 A 
ATOM     92  C   UNL A   1      28.973  27.070  23.604  1.00  0.00     0.017 A 
ATOM     93  C   UNL A   1      30.082  29.648  23.603  1.00  0.00     0.086 A 
ATOM     94  C   UNL A   1      28.203  28.157  23.177  1.00  0.00     0.086 A 
ATOM     95  C   UNL A   1      28.763  29.443  23.174  1.00  0.00     0.269 A 
BRANCH  95  96
ATOM     96  N   UNL A   1      27.970  30.586  22.704  1.00  0.00     0.062 N 
ATOM     97  O   UNL A   1      27.147  31.077  23.491  1.00  0.00    -0.258 OA
ATOM     98  O   UNL A   1      28.174  31.001  21.555  1.00  0.00    -0.258 OA
ENDBRANCH  95  96
ENDBRANCH  89  90
ENDBRANCH  83  88
ENDBRANCH  77  80
ENDBRANCH  75  76
ENDBRANCH   1  75
TORSDOF 17
ENDMDL
