MODEL 1
REMARK VINA RESULT:     -11.0      0.000      0.000
REMARK SMILES CCC(CC)Oc1cc(C(=O)NCCCNC(=O)c2ccc(-c3c4nc(c(-c5c(F)cc(S(=O)(=O)[O-])cc5F)c5ccc([nH]5)c(-c5c(F)cc(S(=O)(=O)[O-])cc5F)c5nc(c(-c6c(F)cc(S(=O)(=O)[O-])cc6F)c6ccc3[nH]6)C=C5)C=C4)cc2)c(N)cc1OC
REMARK SMILES IDX 14 1 13 2 12 3 10 4 11 5 9 7 7 8 8 9 88 10 87 11 85 12 6 13
REMARK SMILES IDX 3 14 2 15 1 16 4 17 5 18 89 19 90 20 86 21 15 24 16 25 17 26
REMARK SMILES IDX 18 28 19 29 20 30 84 31 21 32 83 33 22 34 23 35 24 36 77 37
REMARK SMILES IDX 25 38 82 39 76 40 78 41 26 42 81 43 75 44 74 45 27 47 61 48
REMARK SMILES IDX 40 49 60 50 41 51 44 52 59 53 79 54 42 55 43 56 58 58 80 59
REMARK SMILES IDX 45 60 28 61 29 62 38 63 30 64 31 65 37 66 39 67 32 68 33 69
REMARK SMILES IDX 34 70 35 71 36 72 62 73 63 74 72 75 64 76 65 77 71 78 73 79
REMARK SMILES IDX 66 80 67 81 68 82 69 83 70 84 46 85 47 86 56 87 48 88 49 89
REMARK SMILES IDX 55 90 57 91 50 92 51 93 52 94 53 95 54 96
REMARK H PARENT 12 6 86 22 86 23 16 27 78 46 44 57
REMARK Flexibility Score: inf
ROOT
ATOM      1  C   UNL A   1      34.692  31.156  27.538  1.00  0.00     0.042 C 
ENDROOT
BRANCH   1   2
ATOM      2  C   UNL A   1      34.624  29.639  27.456  1.00  0.00     0.118 C 
BRANCH   2   3
ATOM      3  N   UNL A   1      33.326  29.063  27.772  1.00  0.00    -0.352 N 
ATOM      4  C   UNL A   1      32.584  28.111  27.112  1.00  0.00     0.253 C 
ATOM      5  O   UNL A   1      31.522  27.752  27.623  1.00  0.00    -0.269 OA
ATOM      6  H   UNL A   1      32.910  29.413  28.592  1.00  0.00     0.163 HD
BRANCH   4   7
ATOM      7  C   UNL A   1      32.962  27.575  25.774  1.00  0.00     0.066 A 
ATOM      8  C   UNL A   1      34.009  25.672  24.625  1.00  0.00     0.162 A 
ATOM      9  C   UNL A   1      33.680  26.362  25.796  1.00  0.00     0.066 A 
ATOM     10  C   UNL A   1      33.620  26.225  23.399  1.00  0.00     0.162 A 
ATOM     11  C   UNL A   1      32.963  27.466  23.381  1.00  0.00     0.076 A 
ATOM     12  C   UNL A   1      32.705  28.197  24.547  1.00  0.00     0.048 A 
BRANCH   8  13
ATOM     13  O   UNL A   1      34.804  24.567  24.653  1.00  0.00    -0.487 OA
BRANCH  13  14
ATOM     14  C   UNL A   1      34.821  23.661  25.774  1.00  0.00     0.173 C 
BRANCH  14  15
ATOM     15  C   UNL A   1      33.593  22.740  25.863  1.00  0.00     0.042 C 
ATOM     16  C   UNL A   1      33.880  21.304  25.441  1.00  0.00     0.008 C 
ENDBRANCH  14  15
BRANCH  14  17
ATOM     17  C   UNL A   1      36.188  23.008  26.051  1.00  0.00     0.042 C 
ATOM     18  C   UNL A   1      37.339  23.424  25.149  1.00  0.00     0.008 C 
ENDBRANCH  14  17
ENDBRANCH  13  14
ENDBRANCH   8  13
BRANCH  10  19
ATOM     19  O   UNL A   1      33.787  25.717  22.138  1.00  0.00    -0.493 OA
ATOM     20  C   UNL A   1      32.724  25.837  21.208  1.00  0.00     0.278 C 
ENDBRANCH  10  19
BRANCH  12  21
ATOM     21  N   UNL A   1      32.206  29.486  24.415  1.00  0.00    -0.398 N 
ATOM     22  H   UNL A   1      32.802  30.217  24.134  1.00  0.00     0.156 HD
ATOM     23  H   UNL A   1      31.257  29.667  24.601  1.00  0.00     0.156 HD
ENDBRANCH  12  21
ENDBRANCH   4   7
ENDBRANCH   2   3
ENDBRANCH   1   2
BRANCH   1  24
ATOM     24  C   UNL A   1      35.634  31.717  28.593  1.00  0.00     0.118 C 
BRANCH  24  25
ATOM     25  N   UNL A   1      35.520  31.082  29.901  1.00  0.00    -0.352 N 
ATOM     26  C   UNL A   1      36.408  30.340  30.645  1.00  0.00     0.251 C 
ATOM     27  H   UNL A   1      34.643  31.207  30.330  1.00  0.00     0.163 HD
ATOM     28  O   UNL A   1      36.015  29.823  31.691  1.00  0.00    -0.269 OA
BRANCH  26  29
ATOM     29  C   UNL A   1      37.801  30.111  30.195  1.00  0.00     0.039 A 
ATOM     30  C   UNL A   1      38.796  29.900  31.155  1.00  0.00     0.014 A 
ATOM     31  C   UNL A   1      38.147  30.116  28.845  1.00  0.00     0.014 A 
ATOM     32  C   UNL A   1      40.104  29.595  30.756  1.00  0.00     0.010 A 
ATOM     33  C   UNL A   1      39.411  29.693  28.448  1.00  0.00     0.010 A 
ATOM     34  C   UNL A   1      40.410  29.431  29.396  1.00  0.00    -0.014 A 
BRANCH  34  35
ATOM     35  C   UNL A   1      41.758  28.999  28.936  1.00  0.00     0.031 A 
ATOM     36  C   UNL A   1      42.884  29.997  28.851  1.00  0.00     0.074 A 
ATOM     37  C   UNL A   1      41.949  27.736  28.503  1.00  0.00     0.049 A 
ATOM     38  N   UNL A   1      44.086  29.851  28.355  1.00  0.00    -0.248 NA
ATOM     39  C   UNL A   1      42.606  31.353  29.353  1.00  0.00     0.031 C 
ATOM     40  C   UNL A   1      40.929  26.684  28.476  1.00  0.00     0.029 A 
ATOM     41  N   UNL A   1      43.066  27.124  27.989  1.00  0.00    -0.354 N 
ATOM     42  C   UNL A   1      44.692  31.100  28.452  1.00  0.00     0.074 A 
ATOM     43  C   UNL A   1      43.704  32.004  28.997  1.00  0.00     0.031 C 
ATOM     44  C   UNL A   1      41.476  25.552  28.008  1.00  0.00     0.029 A 
ATOM     45  C   UNL A   1      42.870  25.803  27.658  1.00  0.00     0.049 A 
ATOM     46  H   UNL A   1      43.926  27.588  27.870  1.00  0.00     0.167 HD
ATOM     47  C   UNL A   1      45.962  31.457  28.144  1.00  0.00     0.037 A 
ATOM     48  C   UNL A   1      43.715  24.898  27.127  1.00  0.00     0.037 A 
ATOM     49  C   UNL A   1      46.956  30.543  27.646  1.00  0.00     0.049 A 
ATOM     50  C   UNL A   1      45.127  25.306  26.814  1.00  0.00     0.074 A 
ATOM     51  C   UNL A   1      48.289  30.787  27.370  1.00  0.00     0.029 A 
ATOM     52  N   UNL A   1      46.725  29.205  27.357  1.00  0.00    -0.354 N 
ATOM     53  N   UNL A   1      45.698  26.479  26.962  1.00  0.00    -0.248 NA
ATOM     54  C   UNL A   1      46.013  24.271  26.266  1.00  0.00     0.031 C 
ATOM     55  C   UNL A   1      48.857  29.605  26.880  1.00  0.00     0.029 A 
ATOM     56  C   UNL A   1      47.888  28.614  26.892  1.00  0.00     0.049 A 
ATOM     57  H   UNL A   1      45.862  28.745  27.465  1.00  0.00     0.167 HD
ATOM     58  C   UNL A   1      47.015  26.315  26.551  1.00  0.00     0.074 A 
ATOM     59  C   UNL A   1      47.159  24.929  26.154  1.00  0.00     0.031 C 
ATOM     60  C   UNL A   1      48.015  27.229  26.506  1.00  0.00     0.037 A 
BRANCH  47  61
ATOM     61  C   UNL A   1      46.340  32.900  28.345  1.00  0.00     0.058 A 
ATOM     62  C   UNL A   1      46.215  33.846  27.314  1.00  0.00     0.135 A 
ATOM     63  C   UNL A   1      46.844  33.344  29.578  1.00  0.00     0.135 A 
ATOM     64  F   UNL A   1      45.750  33.476  26.109  1.00  0.00    -0.206 F 
ATOM     65  C   UNL A   1      46.628  35.163  27.478  1.00  0.00     0.059 A 
ATOM     66  C   UNL A   1      47.235  34.666  29.775  1.00  0.00     0.059 A 
ATOM     67  F   UNL A   1      46.980  32.486  30.602  1.00  0.00    -0.206 F 
ATOM     68  C   UNL A   1      47.146  35.562  28.711  1.00  0.00     0.060 A 
BRANCH  68  69
ATOM     69  S   UNL A   1      47.714  37.265  28.900  1.00  0.00     0.124 S 
ATOM     70  O   UNL A   1      46.640  38.001  28.239  1.00  0.00    -0.237 OA
ATOM     71  O   UNL A   1      47.784  37.414  30.350  1.00  0.00    -0.237 OA
ATOM     72  O   UNL A   1      48.999  37.274  28.209  1.00  0.00    -0.744 OA
ENDBRANCH  68  69
ENDBRANCH  47  61
BRANCH  48  73
ATOM     73  C   UNL A   1      43.254  23.502  26.905  1.00  0.00     0.058 A 
ATOM     74  C   UNL A   1      43.043  23.019  25.605  1.00  0.00     0.135 A 
ATOM     75  C   UNL A   1      43.058  22.612  27.972  1.00  0.00     0.135 A 
ATOM     76  F   UNL A   1      43.210  23.834  24.551  1.00  0.00    -0.206 F 
ATOM     77  C   UNL A   1      42.651  21.706  25.369  1.00  0.00     0.059 A 
ATOM     78  C   UNL A   1      42.688  21.288  27.761  1.00  0.00     0.059 A 
ATOM     79  F   UNL A   1      43.264  23.021  29.234  1.00  0.00    -0.206 F 
ATOM     80  C   UNL A   1      42.482  20.845  26.454  1.00  0.00     0.060 A 
BRANCH  80  81
ATOM     81  S   UNL A   1      42.048  19.122  26.131  1.00  0.00     0.124 S 
ATOM     82  O   UNL A   1      42.966  18.784  25.049  1.00  0.00    -0.237 OA
ATOM     83  O   UNL A   1      42.317  18.492  27.419  1.00  0.00    -0.237 OA
ATOM     84  O   UNL A   1      40.637  19.196  25.761  1.00  0.00    -0.744 OA
ENDBRANCH  80  81
ENDBRANCH  48  73
BRANCH  60  85
ATOM     85  C   UNL A   1      49.365  26.757  26.046  1.00  0.00     0.058 A 
ATOM     86  C   UNL A   1      49.816  26.978  24.735  1.00  0.00     0.135 A 
ATOM     87  C   UNL A   1      50.240  26.123  26.944  1.00  0.00     0.135 A 
ATOM     88  F   UNL A   1      49.015  27.573  23.837  1.00  0.00    -0.206 F 
ATOM     89  C   UNL A   1      51.081  26.570  24.324  1.00  0.00     0.059 A 
ATOM     90  C   UNL A   1      51.519  25.729  26.561  1.00  0.00     0.059 A 
ATOM     91  F   UNL A   1      49.860  25.897  28.211  1.00  0.00    -0.206 F 
ATOM     92  C   UNL A   1      51.926  25.948  25.246  1.00  0.00     0.060 A 
BRANCH  92  93
ATOM     93  S   UNL A   1      53.580  25.459  24.712  1.00  0.00     0.124 S 
ATOM     94  O   UNL A   1      53.512  25.712  23.278  1.00  0.00    -0.237 OA
ATOM     95  O   UNL A   1      54.436  26.362  25.475  1.00  0.00    -0.237 OA
ATOM     96  O   UNL A   1      53.660  24.054  25.100  1.00  0.00    -0.744 OA
ENDBRANCH  92  93
ENDBRANCH  60  85
ENDBRANCH  34  35
ENDBRANCH  26  29
ENDBRANCH  24  25
ENDBRANCH   1  24
TORSDOF 19
ENDMDL
MODEL 2
REMARK VINA RESULT:     -10.8      3.426      5.612
REMARK SMILES CCC(CC)Oc1cc(C(=O)NCCCNC(=O)c2ccc(-c3c4nc(c(-c5c(F)cc(S(=O)(=O)[O-])cc5F)c5ccc([nH]5)c(-c5c(F)cc(S(=O)(=O)[O-])cc5F)c5nc(c(-c6c(F)cc(S(=O)(=O)[O-])cc6F)c6ccc3[nH]6)C=C5)C=C4)cc2)c(N)cc1OC
REMARK SMILES IDX 14 1 13 2 12 3 10 4 11 5 9 7 7 8 8 9 88 10 87 11 85 12 6 13
REMARK SMILES IDX 3 14 2 15 1 16 4 17 5 18 89 19 90 20 86 21 15 24 16 25 17 26
REMARK SMILES IDX 18 28 19 29 20 30 84 31 21 32 83 33 22 34 23 35 24 36 77 37
REMARK SMILES IDX 25 38 82 39 76 40 78 41 26 42 81 43 75 44 74 45 27 47 61 48
REMARK SMILES IDX 40 49 60 50 41 51 44 52 59 53 79 54 42 55 43 56 58 58 80 59
REMARK SMILES IDX 45 60 28 61 29 62 38 63 30 64 31 65 37 66 39 67 32 68 33 69
REMARK SMILES IDX 34 70 35 71 36 72 62 73 63 74 72 75 64 76 65 77 71 78 73 79
REMARK SMILES IDX 66 80 67 81 68 82 69 83 70 84 46 85 47 86 56 87 48 88 49 89
REMARK SMILES IDX 55 90 57 91 50 92 51 93 52 94 53 95 54 96
REMARK H PARENT 12 6 86 22 86 23 16 27 78 46 44 57
REMARK Flexibility Score: inf
ROOT
ATOM      1  C   UNL A   1      35.333  33.747  28.588  1.00  0.00     0.042 C 
ENDROOT
BRANCH   1   2
ATOM      2  C   UNL A   1      33.955  33.691  29.229  1.00  0.00     0.118 C 
BRANCH   2   3
ATOM      3  N   UNL A   1      33.535  34.914  29.894  1.00  0.00    -0.352 N 
ATOM      4  C   UNL A   1      33.894  35.440  31.113  1.00  0.00     0.253 C 
ATOM      5  O   UNL A   1      33.427  36.536  31.428  1.00  0.00    -0.269 OA
ATOM      6  H   UNL A   1      32.887  35.455  29.387  1.00  0.00     0.163 HD
BRANCH   4   7
ATOM      7  C   UNL A   1      34.735  34.702  32.096  1.00  0.00     0.066 A 
ATOM      8  C   UNL A   1      37.050  34.303  32.817  1.00  0.00     0.162 A 
ATOM      9  C   UNL A   1      36.127  34.839  31.915  1.00  0.00     0.066 A 
ATOM     10  C   UNL A   1      36.562  33.597  33.924  1.00  0.00     0.162 A 
ATOM     11  C   UNL A   1      35.177  33.408  34.063  1.00  0.00     0.076 A 
ATOM     12  C   UNL A   1      34.256  33.874  33.117  1.00  0.00     0.048 A 
BRANCH   8  13
ATOM     13  O   UNL A   1      38.388  34.339  32.568  1.00  0.00    -0.487 OA
BRANCH  13  14
ATOM     14  C   UNL A   1      39.107  33.199  32.056  1.00  0.00     0.173 C 
BRANCH  14  15
ATOM     15  C   UNL A   1      39.579  33.350  30.600  1.00  0.00     0.042 C 
ATOM     16  C   UNL A   1      39.329  34.738  30.023  1.00  0.00     0.008 C 
ENDBRANCH  14  15
BRANCH  14  17
ATOM     17  C   UNL A   1      40.113  32.579  33.042  1.00  0.00     0.042 C 
ATOM     18  C   UNL A   1      41.583  32.653  32.655  1.00  0.00     0.008 C 
ENDBRANCH  14  17
ENDBRANCH  13  14
ENDBRANCH   8  13
BRANCH  10  19
ATOM     19  O   UNL A   1      37.262  33.028  34.954  1.00  0.00    -0.493 OA
ATOM     20  C   UNL A   1      37.810  33.870  35.954  1.00  0.00     0.278 C 
ENDBRANCH  10  19
BRANCH  12  21
ATOM     21  N   UNL A   1      32.928  33.493  33.254  1.00  0.00    -0.398 N 
ATOM     22  H   UNL A   1      32.251  34.157  33.517  1.00  0.00     0.156 HD
ATOM     23  H   UNL A   1      32.664  32.560  33.086  1.00  0.00     0.156 HD
ENDBRANCH  12  21
ENDBRANCH   4   7
ENDBRANCH   2   3
ENDBRANCH   1   2
BRANCH   1  24
ATOM     24  C   UNL A   1      36.285  32.623  28.971  1.00  0.00     0.118 C 
BRANCH  24  25
ATOM     25  N   UNL A   1      35.903  31.895  30.175  1.00  0.00    -0.352 N 
ATOM     26  C   UNL A   1      36.472  30.823  30.822  1.00  0.00     0.251 C 
ATOM     27  H   UNL A   1      35.084  32.234  30.604  1.00  0.00     0.163 HD
ATOM     28  O   UNL A   1      35.878  30.328  31.780  1.00  0.00    -0.269 OA
BRANCH  26  29
ATOM     29  C   UNL A   1      37.750  30.228  30.367  1.00  0.00     0.039 A 
ATOM     30  C   UNL A   1      38.055  30.241  29.002  1.00  0.00     0.014 A 
ATOM     31  C   UNL A   1      38.647  29.644  31.259  1.00  0.00     0.014 A 
ATOM     32  C   UNL A   1      39.293  29.766  28.553  1.00  0.00     0.010 A 
ATOM     33  C   UNL A   1      39.922  29.287  30.832  1.00  0.00     0.010 A 
ATOM     34  C   UNL A   1      40.264  29.337  29.473  1.00  0.00    -0.014 A 
BRANCH  34  35
ATOM     35  C   UNL A   1      41.630  28.928  29.048  1.00  0.00     0.031 A 
ATOM     36  C   UNL A   1      42.746  29.941  29.014  1.00  0.00     0.074 A 
ATOM     37  C   UNL A   1      41.850  27.675  28.603  1.00  0.00     0.049 A 
ATOM     38  N   UNL A   1      43.964  29.817  28.553  1.00  0.00    -0.248 NA
ATOM     39  C   UNL A   1      42.436  31.285  29.527  1.00  0.00     0.031 C 
ATOM     40  C   UNL A   1      40.845  26.611  28.528  1.00  0.00     0.029 A 
ATOM     41  N   UNL A   1      42.990  27.084  28.115  1.00  0.00    -0.354 N 
ATOM     42  C   UNL A   1      44.551  31.071  28.687  1.00  0.00     0.074 A 
ATOM     43  C   UNL A   1      43.536  31.955  29.216  1.00  0.00     0.031 C 
ATOM     44  C   UNL A   1      41.419  25.492  28.060  1.00  0.00     0.029 A 
ATOM     45  C   UNL A   1      42.820  25.766  27.757  1.00  0.00     0.049 A 
ATOM     46  H   UNL A   1      43.847  27.559  28.029  1.00  0.00     0.167 HD
ATOM     47  C   UNL A   1      45.825  31.448  28.424  1.00  0.00     0.037 A 
ATOM     48  C   UNL A   1      43.692  24.879  27.239  1.00  0.00     0.037 A 
ATOM     49  C   UNL A   1      46.846  30.554  27.943  1.00  0.00     0.049 A 
ATOM     50  C   UNL A   1      45.108  25.309  26.976  1.00  0.00     0.074 A 
ATOM     51  C   UNL A   1      48.184  30.817  27.713  1.00  0.00     0.029 A 
ATOM     52  N   UNL A   1      46.641  29.218  27.627  1.00  0.00    -0.354 N 
ATOM     53  N   UNL A   1      45.659  26.486  27.160  1.00  0.00    -0.248 NA
ATOM     54  C   UNL A   1      46.023  24.293  26.441  1.00  0.00     0.031 C 
ATOM     55  C   UNL A   1      48.781  29.651  27.223  1.00  0.00     0.029 A 
ATOM     56  C   UNL A   1      47.825  28.648  27.189  1.00  0.00     0.049 A 
ATOM     57  H   UNL A   1      45.780  28.746  27.702  1.00  0.00     0.167 HD
ATOM     58  C   UNL A   1      46.991  26.344  26.787  1.00  0.00     0.074 A 
ATOM     59  C   UNL A   1      47.164  24.966  26.374  1.00  0.00     0.031 C 
ATOM     60  C   UNL A   1      47.981  27.271  26.787  1.00  0.00     0.037 A 
BRANCH  47  61
ATOM     61  C   UNL A   1      46.179  32.892  28.659  1.00  0.00     0.058 A 
ATOM     62  C   UNL A   1      46.066  33.854  27.641  1.00  0.00     0.135 A 
ATOM     63  C   UNL A   1      46.649  33.321  29.911  1.00  0.00     0.135 A 
ATOM     64  F   UNL A   1      45.634  33.498  26.419  1.00  0.00    -0.206 F 
ATOM     65  C   UNL A   1      46.458  35.173  27.837  1.00  0.00     0.059 A 
ATOM     66  C   UNL A   1      47.017  34.644  30.139  1.00  0.00     0.059 A 
ATOM     67  F   UNL A   1      46.772  32.448  30.922  1.00  0.00    -0.206 F 
ATOM     68  C   UNL A   1      46.941  35.557  29.089  1.00  0.00     0.060 A 
BRANCH  68  69
ATOM     69  S   UNL A   1      47.481  37.265  29.320  1.00  0.00     0.124 S 
ATOM     70  O   UNL A   1      46.344  38.002  28.777  1.00  0.00    -0.237 OA
ATOM     71  O   UNL A   1      47.656  37.346  30.766  1.00  0.00    -0.237 OA
ATOM     72  O   UNL A   1      48.711  37.341  28.538  1.00  0.00    -0.744 OA
ENDBRANCH  68  69
ENDBRANCH  47  61
BRANCH  48  73
ATOM     73  C   UNL A   1      43.255  23.481  26.982  1.00  0.00     0.058 A 
ATOM     74  C   UNL A   1      43.061  23.025  25.670  1.00  0.00     0.135 A 
ATOM     75  C   UNL A   1      43.067  22.564  28.027  1.00  0.00     0.135 A 
ATOM     76  F   UNL A   1      43.222  23.867  24.637  1.00  0.00    -0.206 F 
ATOM     77  C   UNL A   1      42.692  21.712  25.401  1.00  0.00     0.059 A 
ATOM     78  C   UNL A   1      42.720  21.239  27.784  1.00  0.00     0.059 A 
ATOM     79  F   UNL A   1      43.258  22.947  29.300  1.00  0.00    -0.206 F 
ATOM     80  C   UNL A   1      42.531  20.823  26.465  1.00  0.00     0.060 A 
BRANCH  80  81
ATOM     81  S   UNL A   1      42.126  19.101  26.099  1.00  0.00     0.124 S 
ATOM     82  O   UNL A   1      40.701  19.189  25.806  1.00  0.00    -0.237 OA
ATOM     83  O   UNL A   1      42.997  18.818  24.963  1.00  0.00    -0.237 OA
ATOM     84  O   UNL A   1      42.476  18.405  27.335  1.00  0.00    -0.744 OA
ENDBRANCH  80  81
ENDBRANCH  48  73
BRANCH  60  85
ATOM     85  C   UNL A   1      49.350  26.821  26.362  1.00  0.00     0.058 A 
ATOM     86  C   UNL A   1      50.262  26.269  27.275  1.00  0.00     0.135 A 
ATOM     87  C   UNL A   1      49.733  26.893  25.013  1.00  0.00     0.135 A 
ATOM     88  F   UNL A   1      49.946  26.186  28.578  1.00  0.00    -0.206 F 
ATOM     89  C   UNL A   1      51.514  25.821  26.869  1.00  0.00     0.059 A 
ATOM     90  C   UNL A   1      50.971  26.427  24.580  1.00  0.00     0.059 A 
ATOM     91  F   UNL A   1      48.894  27.403  24.098  1.00  0.00    -0.206 F 
ATOM     92  C   UNL A   1      51.859  25.902  25.518  1.00  0.00     0.060 A 
BRANCH  92  93
ATOM     93  S   UNL A   1      53.472  25.281  24.996  1.00  0.00     0.124 S 
ATOM     94  O   UNL A   1      53.331  23.851  25.247  1.00  0.00    -0.237 OA
ATOM     95  O   UNL A   1      53.521  25.677  23.593  1.00  0.00    -0.237 OA
ATOM     96  O   UNL A   1      54.405  25.984  25.872  1.00  0.00    -0.744 OA
ENDBRANCH  92  93
ENDBRANCH  60  85
ENDBRANCH  34  35
ENDBRANCH  26  29
ENDBRANCH  24  25
ENDBRANCH   1  24
TORSDOF 19
ENDMDL
MODEL 3
REMARK VINA RESULT:     -10.6      1.089      8.484
REMARK SMILES CCC(CC)Oc1cc(C(=O)NCCCNC(=O)c2ccc(-c3c4nc(c(-c5c(F)cc(S(=O)(=O)[O-])cc5F)c5ccc([nH]5)c(-c5c(F)cc(S(=O)(=O)[O-])cc5F)c5nc(c(-c6c(F)cc(S(=O)(=O)[O-])cc6F)c6ccc3[nH]6)C=C5)C=C4)cc2)c(N)cc1OC
REMARK SMILES IDX 14 1 13 2 12 3 10 4 11 5 9 7 7 8 8 9 88 10 87 11 85 12 6 13
REMARK SMILES IDX 3 14 2 15 1 16 4 17 5 18 89 19 90 20 86 21 15 24 16 25 17 26
REMARK SMILES IDX 18 28 19 29 20 30 84 31 21 32 83 33 22 34 23 35 24 36 77 37
REMARK SMILES IDX 25 38 82 39 76 40 78 41 26 42 81 43 75 44 74 45 27 47 61 48
REMARK SMILES IDX 40 49 60 50 41 51 44 52 59 53 79 54 42 55 43 56 58 58 80 59
REMARK SMILES IDX 45 60 28 61 29 62 38 63 30 64 31 65 37 66 39 67 32 68 33 69
REMARK SMILES IDX 34 70 35 71 36 72 62 73 63 74 72 75 64 76 65 77 71 78 73 79
REMARK SMILES IDX 66 80 67 81 68 82 69 83 70 84 46 85 47 86 56 87 48 88 49 89
REMARK SMILES IDX 55 90 57 91 50 92 51 93 52 94 53 95 54 96
REMARK H PARENT 12 6 86 22 86 23 16 27 78 46 44 57
REMARK Flexibility Score: inf
ROOT
ATOM      1  C   UNL A   1      34.325  30.507  27.414  1.00  0.00     0.042 C 
ENDROOT
BRANCH   1   2
ATOM      2  C   UNL A   1      34.478  29.107  26.842  1.00  0.00     0.118 C 
BRANCH   2   3
ATOM      3  N   UNL A   1      34.359  29.016  25.396  1.00  0.00    -0.352 N 
ATOM      4  C   UNL A   1      33.696  28.105  24.607  1.00  0.00     0.253 C 
ATOM      5  O   UNL A   1      33.707  28.283  23.388  1.00  0.00    -0.269 OA
ATOM      6  H   UNL A   1      34.830  29.724  24.900  1.00  0.00     0.163 HD
BRANCH   4   7
ATOM      7  C   UNL A   1      33.058  26.875  25.154  1.00  0.00     0.066 A 
ATOM      8  C   UNL A   1      33.525  24.679  26.156  1.00  0.00     0.162 A 
ATOM      9  C   UNL A   1      33.955  25.850  25.524  1.00  0.00     0.066 A 
ATOM     10  C   UNL A   1      32.155  24.528  26.409  1.00  0.00     0.162 A 
ATOM     11  C   UNL A   1      31.261  25.522  25.978  1.00  0.00     0.076 A 
ATOM     12  C   UNL A   1      31.682  26.656  25.273  1.00  0.00     0.048 A 
BRANCH   8  13
ATOM     13  O   UNL A   1      34.381  23.650  26.399  1.00  0.00    -0.487 OA
BRANCH  13  14
ATOM     14  C   UNL A   1      34.951  22.856  25.339  1.00  0.00     0.173 C 
BRANCH  14  15
ATOM     15  C   UNL A   1      33.944  22.430  24.257  1.00  0.00     0.042 C 
ATOM     16  C   UNL A   1      34.166  23.122  22.918  1.00  0.00     0.008 C 
ENDBRANCH  14  15
BRANCH  14  17
ATOM     17  C   UNL A   1      36.327  23.337  24.845  1.00  0.00     0.042 C 
ATOM     18  C   UNL A   1      37.509  23.097  25.772  1.00  0.00     0.008 C 
ENDBRANCH  14  17
ENDBRANCH  13  14
ENDBRANCH   8  13
BRANCH  10  19
ATOM     19  O   UNL A   1      31.511  23.503  27.048  1.00  0.00    -0.493 OA
ATOM     20  C   UNL A   1      30.577  22.724  26.319  1.00  0.00     0.278 C 
ENDBRANCH  10  19
BRANCH  12  21
ATOM     21  N   UNL A   1      30.710  27.495  24.743  1.00  0.00    -0.398 N 
ATOM     22  H   UNL A   1      29.919  27.111  24.301  1.00  0.00     0.156 HD
ATOM     23  H   UNL A   1      30.813  28.470  24.811  1.00  0.00     0.156 HD
ENDBRANCH  12  21
ENDBRANCH   4   7
ENDBRANCH   2   3
ENDBRANCH   1   2
BRANCH   1  24
ATOM     24  C   UNL A   1      35.532  31.047  28.167  1.00  0.00     0.118 C 
BRANCH  24  25
ATOM     25  N   UNL A   1      35.529  30.759  29.596  1.00  0.00    -0.352 N 
ATOM     26  C   UNL A   1      36.446  30.139  30.413  1.00  0.00     0.251 C 
ATOM     27  H   UNL A   1      34.718  31.065  30.064  1.00  0.00     0.163 HD
ATOM     28  O   UNL A   1      36.144  29.928  31.587  1.00  0.00    -0.269 OA
BRANCH  26  29
ATOM     29  C   UNL A   1      37.759  29.681  29.902  1.00  0.00     0.039 A 
ATOM     30  C   UNL A   1      38.037  29.809  28.537  1.00  0.00     0.014 A 
ATOM     31  C   UNL A   1      38.717  29.115  30.741  1.00  0.00     0.014 A 
ATOM     32  C   UNL A   1      39.301  29.467  28.041  1.00  0.00     0.010 A 
ATOM     33  C   UNL A   1      40.008  28.892  30.274  1.00  0.00     0.010 A 
ATOM     34  C   UNL A   1      40.319  29.059  28.917  1.00  0.00    -0.014 A 
BRANCH  34  35
ATOM     35  C   UNL A   1      41.706  28.793  28.448  1.00  0.00     0.031 A 
ATOM     36  C   UNL A   1      42.099  27.409  27.995  1.00  0.00     0.074 A 
ATOM     37  C   UNL A   1      42.639  29.764  28.518  1.00  0.00     0.049 A 
ATOM     38  N   UNL A   1      43.280  26.945  27.677  1.00  0.00    -0.248 NA
ATOM     39  C   UNL A   1      41.025  26.404  27.932  1.00  0.00     0.031 C 
ATOM     40  C   UNL A   1      42.408  31.131  28.991  1.00  0.00     0.029 A 
ATOM     41  N   UNL A   1      43.975  29.747  28.202  1.00  0.00    -0.354 N 
ATOM     42  C   UNL A   1      43.098  25.592  27.413  1.00  0.00     0.074 A 
ATOM     43  C   UNL A   1      41.705  25.298  27.668  1.00  0.00     0.031 C 
ATOM     44  C   UNL A   1      43.550  31.829  28.901  1.00  0.00     0.029 A 
ATOM     45  C   UNL A   1      44.607  30.952  28.407  1.00  0.00     0.049 A 
ATOM     46  H   UNL A   1      44.437  28.948  27.860  1.00  0.00     0.167 HD
ATOM     47  C   UNL A   1      43.998  24.681  26.972  1.00  0.00     0.037 A 
ATOM     48  C   UNL A   1      45.893  31.310  28.223  1.00  0.00     0.037 A 
ATOM     49  C   UNL A   1      45.373  24.988  26.674  1.00  0.00     0.049 A 
ATOM     50  C   UNL A   1      46.873  30.292  27.710  1.00  0.00     0.074 A 
ATOM     51  C   UNL A   1      46.349  24.157  26.155  1.00  0.00     0.029 A 
ATOM     52  N   UNL A   1      45.964  26.229  26.863  1.00  0.00    -0.354 N 
ATOM     53  N   UNL A   1      46.670  29.030  27.415  1.00  0.00    -0.248 NA
ATOM     54  C   UNL A   1      48.254  30.746  27.499  1.00  0.00     0.031 C 
ATOM     55  C   UNL A   1      47.539  24.885  26.063  1.00  0.00     0.029 A 
ATOM     56  C   UNL A   1      47.295  26.183  26.484  1.00  0.00     0.049 A 
ATOM     57  H   UNL A   1      45.505  27.026  27.216  1.00  0.00     0.167 HD
ATOM     58  C   UNL A   1      47.891  28.545  26.960  1.00  0.00     0.074 A 
ATOM     59  C   UNL A   1      48.824  29.652  27.011  1.00  0.00     0.031 C 
ATOM     60  C   UNL A   1      48.210  27.297  26.536  1.00  0.00     0.037 A 
BRANCH  47  61
ATOM     61  C   UNL A   1      43.514  23.268  26.782  1.00  0.00     0.058 A 
ATOM     62  C   UNL A   1      43.200  22.443  27.875  1.00  0.00     0.135 A 
ATOM     63  C   UNL A   1      43.372  22.726  25.494  1.00  0.00     0.135 A 
ATOM     64  F   UNL A   1      43.329  22.905  29.130  1.00  0.00    -0.206 F 
ATOM     65  C   UNL A   1      42.819  21.117  27.702  1.00  0.00     0.059 A 
ATOM     66  C   UNL A   1      42.961  21.411  25.296  1.00  0.00     0.059 A 
ATOM     67  F   UNL A   1      43.652  23.470  24.413  1.00  0.00    -0.206 F 
ATOM     68  C   UNL A   1      42.711  20.607  26.408  1.00  0.00     0.060 A 
BRANCH  68  69
ATOM     69  S   UNL A   1      42.251  18.874  26.198  1.00  0.00     0.124 S 
ATOM     70  O   UNL A   1      42.437  18.360  27.551  1.00  0.00    -0.237 OA
ATOM     71  O   UNL A   1      40.869  18.969  25.741  1.00  0.00    -0.237 OA
ATOM     72  O   UNL A   1      43.204  18.387  25.205  1.00  0.00    -0.744 OA
ENDBRANCH  68  69
ENDBRANCH  47  61
BRANCH  48  73
ATOM     73  C   UNL A   1      46.312  32.713  28.484  1.00  0.00     0.058 A 
ATOM     74  C   UNL A   1      46.210  33.686  27.479  1.00  0.00     0.135 A 
ATOM     75  C   UNL A   1      46.776  33.121  29.744  1.00  0.00     0.135 A 
ATOM     76  F   UNL A   1      45.778  33.343  26.255  1.00  0.00    -0.206 F 
ATOM     77  C   UNL A   1      46.557  35.012  27.710  1.00  0.00     0.059 A 
ATOM     78  C   UNL A   1      47.108  34.446  30.007  1.00  0.00     0.059 A 
ATOM     79  F   UNL A   1      46.875  32.231  30.744  1.00  0.00    -0.206 F 
ATOM     80  C   UNL A   1      46.999  35.385  28.981  1.00  0.00     0.060 A 
BRANCH  80  81
ATOM     81  S   UNL A   1      47.373  37.125  29.290  1.00  0.00     0.124 S 
ATOM     82  O   UNL A   1      47.701  37.598  27.950  1.00  0.00    -0.237 OA
ATOM     83  O   UNL A   1      46.117  37.612  29.852  1.00  0.00    -0.237 OA
ATOM     84  O   UNL A   1      48.489  37.065  30.229  1.00  0.00    -0.744 OA
ENDBRANCH  80  81
ENDBRANCH  48  73
BRANCH  60  85
ATOM     85  C   UNL A   1      49.616  27.066  26.061  1.00  0.00     0.058 A 
ATOM     86  C   UNL A   1      50.640  26.686  26.943  1.00  0.00     0.135 A 
ATOM     87  C   UNL A   1      49.931  27.172  24.696  1.00  0.00     0.135 A 
ATOM     88  F   UNL A   1      50.392  26.578  28.258  1.00  0.00    -0.206 F 
ATOM     89  C   UNL A   1      51.932  26.439  26.491  1.00  0.00     0.059 A 
ATOM     90  C   UNL A   1      51.211  26.905  24.219  1.00  0.00     0.059 A 
ATOM     91  F   UNL A   1      48.986  27.523  23.810  1.00  0.00    -0.206 F 
ATOM     92  C   UNL A   1      52.207  26.548  25.127  1.00  0.00     0.060 A 
BRANCH  92  93
ATOM     93  S   UNL A   1      53.878  26.185  24.547  1.00  0.00     0.124 S 
ATOM     94  O   UNL A   1      53.843  26.727  23.193  1.00  0.00    -0.237 OA
ATOM     95  O   UNL A   1      54.706  26.917  25.501  1.00  0.00    -0.237 OA
ATOM     96  O   UNL A   1      53.962  24.731  24.642  1.00  0.00    -0.744 OA
ENDBRANCH  92  93
ENDBRANCH  60  85
ENDBRANCH  34  35
ENDBRANCH  26  29
ENDBRANCH  24  25
ENDBRANCH   1  24
TORSDOF 19
ENDMDL
