MODEL 1
REMARK VINA RESULT:     -12.1      0.000      0.000
REMARK SMILES Cc1sc2[nH]c(SCC(=O)NCCCNC(=O)c3ccc(-c4c5nc(c(-c6c(F)cc(S(=O)(=O)[O-])cc6F)c6ccc([nH]6)c(-c6c(F)cc(S(=O)(=O)[O-])cc6F)c6nc(c(-c7c(F)cc(S(=O)(=O)[O-])cc7F)c7ccc4[nH]7)C=C6)C=C5)cc3)nc(=O)c2c1C
REMARK SMILES IDX 13 1 12 2 11 3 9 4 10 5 8 7 7 8 6 9 1 10 2 11 3 12 88 13
REMARK SMILES IDX 4 14 87 15 89 16 5 17 85 18 84 20 86 21 14 22 15 23 16 24
REMARK SMILES IDX 17 26 18 27 19 28 83 29 20 30 82 31 21 32 22 33 23 34 76 35
REMARK SMILES IDX 24 36 81 37 75 38 77 39 25 40 80 41 74 42 73 43 26 45 60 46
REMARK SMILES IDX 39 47 59 48 40 49 43 50 58 51 78 52 41 53 42 54 57 56 79 57
REMARK SMILES IDX 44 58 27 59 28 60 37 61 29 62 30 63 36 64 38 65 31 66 32 67
REMARK SMILES IDX 33 68 34 69 35 70 61 71 62 72 71 73 63 74 64 75 70 76 72 77
REMARK SMILES IDX 65 78 66 79 67 80 68 81 69 82 45 83 46 84 55 85 47 86 48 87
REMARK SMILES IDX 54 88 56 89 49 90 50 91 51 92 52 93 53 94
REMARK H PARENT 11 6 5 19 15 25 77 44 43 55
REMARK Flexibility Score: inf
ROOT
ATOM      1  C   UNL A   1      37.207  21.175  24.736  1.00  0.00     0.042 C 
ENDROOT
BRANCH   1   2
ATOM      2  C   UNL A   1      35.690  21.421  24.700  1.00  0.00     0.117 C 
BRANCH   2   3
ATOM      3  N   UNL A   1      34.921  20.250  25.083  1.00  0.00    -0.355 N 
ATOM      4  C   UNL A   1      33.573  20.078  25.211  1.00  0.00     0.230 C 
ATOM      5  O   UNL A   1      33.166  18.922  25.359  1.00  0.00    -0.274 OA
ATOM      6  H   UNL A   1      35.460  19.450  25.282  1.00  0.00     0.163 HD
BRANCH   4   7
ATOM      7  C   UNL A   1      32.594  21.228  25.049  1.00  0.00     0.178 C 
BRANCH   7   8
ATOM      8  S   UNL A   1      32.182  21.648  23.338  1.00  0.00    -0.078 SA
BRANCH   8   9
ATOM      9  C   UNL A   1      32.617  23.336  23.237  1.00  0.00     0.170 A 
ATOM     10  C   UNL A   1      33.879  28.811  25.788  1.00  0.00     0.057 C 
ATOM     11  C   UNL A   1      33.595  27.549  25.040  1.00  0.00     0.007 A 
ATOM     12  S   UNL A   1      33.199  26.136  25.929  1.00  0.00    -0.122 S 
ATOM     13  C   UNL A   1      33.575  27.327  23.665  1.00  0.00    -0.022 A 
ATOM     14  C   UNL A   1      33.030  25.232  24.519  1.00  0.00     0.108 A 
ATOM     15  C   UNL A   1      33.267  25.945  23.370  1.00  0.00     0.080 A 
ATOM     16  C   UNL A   1      33.827  28.363  22.615  1.00  0.00     0.046 C 
ATOM     17  N   UNL A   1      32.701  23.935  24.458  1.00  0.00    -0.326 N 
ATOM     18  C   UNL A   1      33.179  25.250  22.075  1.00  0.00     0.282 A 
ATOM     19  H   UNL A   1      32.523  23.423  25.281  1.00  0.00     0.169 HD
ATOM     20  N   UNL A   1      32.843  23.905  22.100  1.00  0.00    -0.185 NA
ATOM     21  O   UNL A   1      33.423  25.841  21.023  1.00  0.00    -0.267 OA
ENDBRANCH   8   9
ENDBRANCH   7   8
ENDBRANCH   4   7
ENDBRANCH   2   3
ENDBRANCH   1   2
BRANCH   1  22
ATOM     22  C   UNL A   1      38.029  22.221  25.518  1.00  0.00     0.118 C 
BRANCH  22  23
ATOM     23  N   UNL A   1      38.870  21.584  26.519  1.00  0.00    -0.352 N 
ATOM     24  C   UNL A   1      39.993  21.991  27.190  1.00  0.00     0.251 C 
ATOM     25  H   UNL A   1      38.573  20.678  26.764  1.00  0.00     0.163 HD
ATOM     26  O   UNL A   1      40.681  21.112  27.710  1.00  0.00    -0.269 OA
BRANCH  24  27
ATOM     27  C   UNL A   1      40.406  23.407  27.349  1.00  0.00     0.039 A 
ATOM     28  C   UNL A   1      41.758  23.715  27.130  1.00  0.00     0.014 A 
ATOM     29  C   UNL A   1      39.572  24.381  27.898  1.00  0.00     0.014 A 
ATOM     30  C   UNL A   1      42.267  24.986  27.428  1.00  0.00     0.010 A 
ATOM     31  C   UNL A   1      40.088  25.653  28.204  1.00  0.00     0.010 A 
ATOM     32  C   UNL A   1      41.437  25.977  27.964  1.00  0.00    -0.014 A 
BRANCH  32  33
ATOM     33  C   UNL A   1      41.977  27.360  28.099  1.00  0.00     0.031 A 
ATOM     34  C   UNL A   1      40.962  28.453  28.007  1.00  0.00     0.074 A 
ATOM     35  C   UNL A   1      43.121  27.672  28.751  1.00  0.00     0.049 A 
ATOM     36  N   UNL A   1      40.219  28.800  29.016  1.00  0.00    -0.248 NA
ATOM     37  C   UNL A   1      40.534  29.028  26.733  1.00  0.00     0.031 C 
ATOM     38  C   UNL A   1      43.582  26.971  29.955  1.00  0.00     0.029 A 
ATOM     39  N   UNL A   1      43.935  28.786  28.675  1.00  0.00    -0.354 N 
ATOM     40  C   UNL A   1      39.188  29.576  28.522  1.00  0.00     0.074 A 
ATOM     41  C   UNL A   1      39.433  29.704  27.101  1.00  0.00     0.031 C 
ATOM     42  C   UNL A   1      44.480  27.752  30.592  1.00  0.00     0.029 A 
ATOM     43  C   UNL A   1      44.779  28.931  29.778  1.00  0.00     0.049 A 
ATOM     44  H   UNL A   1      43.920  29.416  27.918  1.00  0.00     0.167 HD
ATOM     45  C   UNL A   1      38.185  30.049  29.308  1.00  0.00     0.037 A 
ATOM     46  C   UNL A   1      45.223  30.119  30.281  1.00  0.00     0.037 A 
ATOM     47  C   UNL A   1      38.304  29.748  30.705  1.00  0.00     0.049 A 
ATOM     48  C   UNL A   1      43.962  30.666  30.892  1.00  0.00     0.074 A 
ATOM     49  C   UNL A   1      37.852  28.782  31.577  1.00  0.00     0.029 A 
ATOM     50  N   UNL A   1      39.137  30.540  31.462  1.00  0.00    -0.354 N 
ATOM     51  N   UNL A   1      43.456  30.307  32.041  1.00  0.00    -0.248 NA
ATOM     52  C   UNL A   1      43.035  31.384  30.016  1.00  0.00     0.031 C 
ATOM     53  C   UNL A   1      38.788  28.779  32.661  1.00  0.00     0.029 A 
ATOM     54  C   UNL A   1      39.773  29.715  32.355  1.00  0.00     0.049 A 
ATOM     55  H   UNL A   1      39.254  31.514  31.377  1.00  0.00     0.167 HD
ATOM     56  C   UNL A   1      42.079  30.490  31.911  1.00  0.00     0.074 A 
ATOM     57  C   UNL A   1      41.891  31.200  30.662  1.00  0.00     0.031 C 
ATOM     58  C   UNL A   1      41.164  29.879  32.719  1.00  0.00     0.037 A 
BRANCH  45  59
ATOM     59  C   UNL A   1      37.109  30.946  28.847  1.00  0.00     0.058 A 
ATOM     60  C   UNL A   1      37.339  32.329  28.881  1.00  0.00     0.135 A 
ATOM     61  C   UNL A   1      35.812  30.495  28.579  1.00  0.00     0.135 A 
ATOM     62  F   UNL A   1      38.572  32.797  29.141  1.00  0.00    -0.206 F 
ATOM     63  C   UNL A   1      36.311  33.242  28.703  1.00  0.00     0.059 A 
ATOM     64  C   UNL A   1      34.762  31.394  28.392  1.00  0.00     0.059 A 
ATOM     65  F   UNL A   1      35.545  29.180  28.546  1.00  0.00    -0.206 F 
ATOM     66  C   UNL A   1      35.019  32.764  28.479  1.00  0.00     0.060 A 
BRANCH  66  67
ATOM     67  S   UNL A   1      33.685  33.972  28.345  1.00  0.00     0.124 S 
ATOM     68  O   UNL A   1      33.346  34.202  29.745  1.00  0.00    -0.237 OA
ATOM     69  O   UNL A   1      34.350  35.078  27.662  1.00  0.00    -0.237 OA
ATOM     70  O   UNL A   1      32.671  33.275  27.560  1.00  0.00    -0.744 OA
ENDBRANCH  66  67
ENDBRANCH  45  59
BRANCH  46  71
ATOM     71  C   UNL A   1      46.141  30.920  29.407  1.00  0.00     0.058 A 
ATOM     72  C   UNL A   1      47.424  31.232  29.905  1.00  0.00     0.135 A 
ATOM     73  C   UNL A   1      45.850  31.407  28.122  1.00  0.00     0.135 A 
ATOM     74  F   UNL A   1      47.743  30.946  31.178  1.00  0.00    -0.206 F 
ATOM     75  C   UNL A   1      48.410  31.823  29.119  1.00  0.00     0.059 A 
ATOM     76  C   UNL A   1      46.828  31.976  27.302  1.00  0.00     0.059 A 
ATOM     77  F   UNL A   1      44.615  31.326  27.611  1.00  0.00    -0.206 F 
ATOM     78  C   UNL A   1      48.118  32.138  27.797  1.00  0.00     0.060 A 
BRANCH  78  79
ATOM     79  S   UNL A   1      49.467  32.676  26.724  1.00  0.00     0.124 S 
ATOM     80  O   UNL A   1      50.247  33.526  27.616  1.00  0.00    -0.237 OA
ATOM     81  O   UNL A   1      50.080  31.402  26.360  1.00  0.00    -0.237 OA
ATOM     82  O   UNL A   1      48.781  33.366  25.636  1.00  0.00    -0.744 OA
ENDBRANCH  78  79
ENDBRANCH  46  71
BRANCH  58  83
ATOM     83  C   UNL A   1      41.733  29.135  33.883  1.00  0.00     0.058 A 
ATOM     84  C   UNL A   1      42.115  27.793  33.748  1.00  0.00     0.135 A 
ATOM     85  C   UNL A   1      41.926  29.747  35.133  1.00  0.00     0.135 A 
ATOM     86  F   UNL A   1      41.957  27.158  32.574  1.00  0.00    -0.206 F 
ATOM     87  C   UNL A   1      42.696  27.093  34.800  1.00  0.00     0.059 A 
ATOM     88  C   UNL A   1      42.528  29.073  36.193  1.00  0.00     0.059 A 
ATOM     89  F   UNL A   1      41.553  31.022  35.338  1.00  0.00    -0.206 F 
ATOM     90  C   UNL A   1      42.914  27.746  36.015  1.00  0.00     0.060 A 
BRANCH  90  91
ATOM     91  S   UNL A   1      43.774  26.858  37.330  1.00  0.00     0.124 S 
ATOM     92  O   UNL A   1      42.669  26.240  38.055  1.00  0.00    -0.237 OA
ATOM     93  O   UNL A   1      44.629  25.943  36.580  1.00  0.00    -0.237 OA
ATOM     94  O   UNL A   1      44.483  27.913  38.050  1.00  0.00    -0.744 OA
ENDBRANCH  90  91
ENDBRANCH  58  83
ENDBRANCH  32  33
ENDBRANCH  24  27
ENDBRANCH  22  23
ENDBRANCH   1  22
TORSDOF 15
ENDMDL
MODEL 2
REMARK VINA RESULT:     -11.8      6.303     12.557
REMARK SMILES Cc1sc2[nH]c(SCC(=O)NCCCNC(=O)c3ccc(-c4c5nc(c(-c6c(F)cc(S(=O)(=O)[O-])cc6F)c6ccc([nH]6)c(-c6c(F)cc(S(=O)(=O)[O-])cc6F)c6nc(c(-c7c(F)cc(S(=O)(=O)[O-])cc7F)c7ccc4[nH]7)C=C6)C=C5)cc3)nc(=O)c2c1C
REMARK SMILES IDX 13 1 12 2 11 3 9 4 10 5 8 7 7 8 6 9 1 10 2 11 3 12 88 13
REMARK SMILES IDX 4 14 87 15 89 16 5 17 85 18 84 20 86 21 14 22 15 23 16 24
REMARK SMILES IDX 17 26 18 27 19 28 83 29 20 30 82 31 21 32 22 33 23 34 76 35
REMARK SMILES IDX 24 36 81 37 75 38 77 39 25 40 80 41 74 42 73 43 26 45 60 46
REMARK SMILES IDX 39 47 59 48 40 49 43 50 58 51 78 52 41 53 42 54 57 56 79 57
REMARK SMILES IDX 44 58 27 59 28 60 37 61 29 62 30 63 36 64 38 65 31 66 32 67
REMARK SMILES IDX 33 68 34 69 35 70 61 71 62 72 71 73 63 74 64 75 70 76 72 77
REMARK SMILES IDX 65 78 66 79 67 80 68 81 69 82 45 83 46 84 55 85 47 86 48 87
REMARK SMILES IDX 54 88 56 89 49 90 50 91 51 92 52 93 53 94
REMARK H PARENT 11 6 5 19 15 25 77 44 43 55
REMARK Flexibility Score: inf
ROOT
ATOM      1  C   UNL A   1      47.620  21.866  34.831  1.00  0.00     0.042 C 
ENDROOT
BRANCH   1   2
ATOM      2  C   UNL A   1      48.041  20.481  35.348  1.00  0.00     0.117 C 
BRANCH   2   3
ATOM      3  N   UNL A   1      46.907  19.633  35.674  1.00  0.00    -0.355 N 
ATOM      4  C   UNL A   1      46.282  19.408  36.865  1.00  0.00     0.230 C 
ATOM      5  O   UNL A   1      45.213  18.791  36.831  1.00  0.00    -0.274 OA
ATOM      6  H   UNL A   1      46.527  19.142  34.909  1.00  0.00     0.163 HD
BRANCH   4   7
ATOM      7  C   UNL A   1      46.795  19.995  38.169  1.00  0.00     0.178 C 
BRANCH   7   8
ATOM      8  S   UNL A   1      47.770  18.863  39.188  1.00  0.00    -0.078 SA
BRANCH   8   9
ATOM      9  C   UNL A   1      46.547  18.001  40.090  1.00  0.00     0.170 A 
ATOM     10  C   UNL A   1      41.525  14.434  40.447  1.00  0.00     0.057 C 
ATOM     11  C   UNL A   1      42.741  15.300  40.507  1.00  0.00     0.007 A 
ATOM     12  S   UNL A   1      43.472  15.797  39.036  1.00  0.00    -0.122 S 
ATOM     13  C   UNL A   1      43.399  15.817  41.620  1.00  0.00    -0.022 A 
ATOM     14  C   UNL A   1      44.660  16.662  39.857  1.00  0.00     0.108 A 
ATOM     15  C   UNL A   1      44.550  16.597  41.224  1.00  0.00     0.080 A 
ATOM     16  C   UNL A   1      42.987  15.612  43.044  1.00  0.00     0.046 C 
ATOM     17  N   UNL A   1      45.650  17.363  39.288  1.00  0.00    -0.326 N 
ATOM     18  C   UNL A   1      45.553  17.290  42.049  1.00  0.00     0.282 A 
ATOM     19  H   UNL A   1      45.726  17.417  38.307  1.00  0.00     0.169 HD
ATOM     20  N   UNL A   1      46.551  17.985  41.381  1.00  0.00    -0.185 NA
ATOM     21  O   UNL A   1      45.516  17.225  43.278  1.00  0.00    -0.267 OA
ENDBRANCH   8   9
ENDBRANCH   7   8
ENDBRANCH   4   7
ENDBRANCH   2   3
ENDBRANCH   1   2
BRANCH   1  22
ATOM     22  C   UNL A   1      47.396  22.939  35.918  1.00  0.00     0.118 C 
BRANCH  22  23
ATOM     23  N   UNL A   1      45.978  23.143  36.168  1.00  0.00    -0.352 N 
ATOM     24  C   UNL A   1      45.036  23.955  35.594  1.00  0.00     0.251 C 
ATOM     25  H   UNL A   1      45.623  22.585  36.898  1.00  0.00     0.163 HD
ATOM     26  O   UNL A   1      44.011  24.166  36.243  1.00  0.00    -0.269 OA
BRANCH  24  27
ATOM     27  C   UNL A   1      45.163  24.560  34.246  1.00  0.00     0.039 A 
ATOM     28  C   UNL A   1      45.870  25.770  34.143  1.00  0.00     0.014 A 
ATOM     29  C   UNL A   1      44.449  24.100  33.139  1.00  0.00     0.014 A 
ATOM     30  C   UNL A   1      45.887  26.496  32.946  1.00  0.00     0.010 A 
ATOM     31  C   UNL A   1      44.462  24.837  31.941  1.00  0.00     0.010 A 
ATOM     32  C   UNL A   1      45.188  26.037  31.824  1.00  0.00    -0.014 A 
BRANCH  32  33
ATOM     33  C   UNL A   1      45.378  26.748  30.528  1.00  0.00     0.031 A 
ATOM     34  C   UNL A   1      45.287  25.888  29.309  1.00  0.00     0.074 A 
ATOM     35  C   UNL A   1      45.139  28.067  30.338  1.00  0.00     0.049 A 
ATOM     36  N   UNL A   1      44.148  25.542  28.785  1.00  0.00    -0.248 NA
ATOM     37  C   UNL A   1      46.430  25.153  28.772  1.00  0.00     0.031 C 
ATOM     38  C   UNL A   1      44.058  28.796  31.009  1.00  0.00     0.029 A 
ATOM     39  N   UNL A   1      45.581  28.939  29.361  1.00  0.00    -0.354 N 
ATOM     40  C   UNL A   1      44.395  24.505  27.907  1.00  0.00     0.074 A 
ATOM     41  C   UNL A   1      45.828  24.308  27.919  1.00  0.00     0.031 C 
ATOM     42  C   UNL A   1      43.812  29.932  30.321  1.00  0.00     0.029 A 
ATOM     43  C   UNL A   1      44.806  30.095  29.260  1.00  0.00     0.049 A 
ATOM     44  H   UNL A   1      46.366  28.761  28.793  1.00  0.00     0.167 HD
ATOM     45  C   UNL A   1      43.403  23.859  27.238  1.00  0.00     0.037 A 
ATOM     46  C   UNL A   1      44.598  30.808  28.116  1.00  0.00     0.037 A 
ATOM     47  C   UNL A   1      42.081  24.373  27.451  1.00  0.00     0.049 A 
ATOM     48  C   UNL A   1      43.703  29.872  27.349  1.00  0.00     0.074 A 
ATOM     49  C   UNL A   1      41.010  24.108  28.275  1.00  0.00     0.029 A 
ATOM     50  N   UNL A   1      41.704  25.485  26.734  1.00  0.00    -0.354 N 
ATOM     51  N   UNL A   1      42.422  29.713  27.547  1.00  0.00    -0.248 NA
ATOM     52  C   UNL A   1      44.337  28.807  26.570  1.00  0.00     0.031 C 
ATOM     53  C   UNL A   1      40.263  25.328  28.335  1.00  0.00     0.029 A 
ATOM     54  C   UNL A   1      40.955  26.269  27.576  1.00  0.00     0.049 A 
ATOM     55  H   UNL A   1      41.930  25.682  25.797  1.00  0.00     0.167 HD
ATOM     56  C   UNL A   1      42.154  28.394  27.177  1.00  0.00     0.074 A 
ATOM     57  C   UNL A   1      43.361  27.910  26.539  1.00  0.00     0.031 C 
ATOM     58  C   UNL A   1      41.045  27.713  27.588  1.00  0.00     0.037 A 
BRANCH  45  59
ATOM     59  C   UNL A   1      43.620  22.804  26.230  1.00  0.00     0.058 A 
ATOM     60  C   UNL A   1      43.211  21.499  26.538  1.00  0.00     0.135 A 
ATOM     61  C   UNL A   1      44.393  23.004  25.082  1.00  0.00     0.135 A 
ATOM     62  F   UNL A   1      42.472  21.270  27.638  1.00  0.00    -0.206 F 
ATOM     63  C   UNL A   1      43.594  20.415  25.763  1.00  0.00     0.059 A 
ATOM     64  C   UNL A   1      44.787  21.931  24.283  1.00  0.00     0.059 A 
ATOM     65  F   UNL A   1      44.814  24.236  24.753  1.00  0.00    -0.206 F 
ATOM     66  C   UNL A   1      44.400  20.638  24.646  1.00  0.00     0.060 A 
BRANCH  66  67
ATOM     67  S   UNL A   1      44.961  19.201  23.710  1.00  0.00     0.124 S 
ATOM     68  O   UNL A   1      44.240  18.115  24.366  1.00  0.00    -0.237 OA
ATOM     69  O   UNL A   1      44.519  19.533  22.359  1.00  0.00    -0.237 OA
ATOM     70  O   UNL A   1      46.406  19.206  23.912  1.00  0.00    -0.744 OA
ENDBRANCH  66  67
ENDBRANCH  45  59
BRANCH  46  71
ATOM     71  C   UNL A   1      45.791  31.493  27.521  1.00  0.00     0.058 A 
ATOM     72  C   UNL A   1      45.666  32.854  27.169  1.00  0.00     0.135 A 
ATOM     73  C   UNL A   1      47.044  30.910  27.269  1.00  0.00     0.135 A 
ATOM     74  F   UNL A   1      44.468  33.460  27.227  1.00  0.00    -0.206 F 
ATOM     75  C   UNL A   1      46.752  33.628  26.767  1.00  0.00     0.059 A 
ATOM     76  C   UNL A   1      48.157  31.669  26.894  1.00  0.00     0.059 A 
ATOM     77  F   UNL A   1      47.236  29.591  27.398  1.00  0.00    -0.206 F 
ATOM     78  C   UNL A   1      48.008  33.037  26.689  1.00  0.00     0.060 A 
BRANCH  78  79
ATOM     79  S   UNL A   1      49.440  34.098  26.405  1.00  0.00     0.124 S 
ATOM     80  O   UNL A   1      49.278  34.463  25.003  1.00  0.00    -0.237 OA
ATOM     81  O   UNL A   1      49.212  35.167  27.373  1.00  0.00    -0.237 OA
ATOM     82  O   UNL A   1      50.573  33.225  26.703  1.00  0.00    -0.744 OA
ENDBRANCH  78  79
ENDBRANCH  46  71
BRANCH  58  83
ATOM     83  C   UNL A   1      40.028  28.527  28.321  1.00  0.00     0.058 A 
ATOM     84  C   UNL A   1      39.096  29.299  27.615  1.00  0.00     0.135 A 
ATOM     85  C   UNL A   1      39.952  28.532  29.724  1.00  0.00     0.135 A 
ATOM     86  F   UNL A   1      39.118  29.329  26.271  1.00  0.00    -0.206 F 
ATOM     87  C   UNL A   1      38.106  30.024  28.271  1.00  0.00     0.059 A 
ATOM     88  C   UNL A   1      38.955  29.229  30.401  1.00  0.00     0.059 A 
ATOM     89  F   UNL A   1      40.835  27.837  30.462  1.00  0.00    -0.206 F 
ATOM     90  C   UNL A   1      38.033  29.970  29.665  1.00  0.00     0.060 A 
BRANCH  90  91
ATOM     91  S   UNL A   1      36.673  30.821  30.491  1.00  0.00     0.124 S 
ATOM     92  O   UNL A   1      35.723  31.013  29.399  1.00  0.00    -0.237 OA
ATOM     93  O   UNL A   1      36.277  29.857  31.512  1.00  0.00    -0.237 OA
ATOM     94  O   UNL A   1      37.292  32.042  31.003  1.00  0.00    -0.744 OA
ENDBRANCH  90  91
ENDBRANCH  58  83
ENDBRANCH  32  33
ENDBRANCH  24  27
ENDBRANCH  22  23
ENDBRANCH   1  22
TORSDOF 15
ENDMDL
MODEL 3
REMARK VINA RESULT:     -11.7      1.565      2.064
REMARK SMILES Cc1sc2[nH]c(SCC(=O)NCCCNC(=O)c3ccc(-c4c5nc(c(-c6c(F)cc(S(=O)(=O)[O-])cc6F)c6ccc([nH]6)c(-c6c(F)cc(S(=O)(=O)[O-])cc6F)c6nc(c(-c7c(F)cc(S(=O)(=O)[O-])cc7F)c7ccc4[nH]7)C=C6)C=C5)cc3)nc(=O)c2c1C
REMARK SMILES IDX 13 1 12 2 11 3 9 4 10 5 8 7 7 8 6 9 1 10 2 11 3 12 88 13
REMARK SMILES IDX 4 14 87 15 89 16 5 17 85 18 84 20 86 21 14 22 15 23 16 24
REMARK SMILES IDX 17 26 18 27 19 28 83 29 20 30 82 31 21 32 22 33 23 34 76 35
REMARK SMILES IDX 24 36 81 37 75 38 77 39 25 40 80 41 74 42 73 43 26 45 60 46
REMARK SMILES IDX 39 47 59 48 40 49 43 50 58 51 78 52 41 53 42 54 57 56 79 57
REMARK SMILES IDX 44 58 27 59 28 60 37 61 29 62 30 63 36 64 38 65 31 66 32 67
REMARK SMILES IDX 33 68 34 69 35 70 61 71 62 72 71 73 63 74 64 75 70 76 72 77
REMARK SMILES IDX 65 78 66 79 67 80 68 81 69 82 45 83 46 84 55 85 47 86 48 87
REMARK SMILES IDX 54 88 56 89 49 90 50 91 51 92 52 93 53 94
REMARK H PARENT 11 6 5 19 15 25 77 44 43 55
REMARK Flexibility Score: inf
ROOT
ATOM      1  C   UNL A   1      37.506  21.150  24.747  1.00  0.00     0.042 C 
ENDROOT
BRANCH   1   2
ATOM      2  C   UNL A   1      36.093  20.773  25.222  1.00  0.00     0.117 C 
BRANCH   2   3
ATOM      3  N   UNL A   1      35.601  21.648  26.273  1.00  0.00    -0.355 N 
ATOM      4  C   UNL A   1      34.532  22.497  26.291  1.00  0.00     0.230 C 
ATOM      5  O   UNL A   1      34.217  22.980  27.382  1.00  0.00    -0.274 OA
ATOM      6  H   UNL A   1      36.123  21.623  27.107  1.00  0.00     0.163 HD
BRANCH   4   7
ATOM      7  C   UNL A   1      33.679  22.745  25.059  1.00  0.00     0.178 C 
BRANCH   7   8
ATOM      8  S   UNL A   1      34.396  23.878  23.846  1.00  0.00    -0.078 SA
BRANCH   8   9
ATOM      9  C   UNL A   1      33.650  25.405  24.252  1.00  0.00     0.170 A 
ATOM     10  C   UNL A   1      29.573  29.927  23.251  1.00  0.00     0.057 C 
ATOM     11  C   UNL A   1      30.606  28.909  23.610  1.00  0.00     0.007 A 
ATOM     12  S   UNL A   1      30.759  27.510  22.628  1.00  0.00    -0.122 S 
ATOM     13  C   UNL A   1      31.530  28.922  24.652  1.00  0.00    -0.022 A 
ATOM     14  C   UNL A   1      32.011  26.912  23.582  1.00  0.00     0.108 A 
ATOM     15  C   UNL A   1      32.337  27.721  24.643  1.00  0.00     0.080 A 
ATOM     16  C   UNL A   1      31.690  30.021  25.655  1.00  0.00     0.046 C 
ATOM     17  N   UNL A   1      32.665  25.761  23.381  1.00  0.00    -0.326 N 
ATOM     18  C   UNL A   1      33.398  27.287  25.565  1.00  0.00     0.282 A 
ATOM     19  H   UNL A   1      32.438  25.182  22.617  1.00  0.00     0.169 HD
ATOM     20  N   UNL A   1      34.019  26.077  25.292  1.00  0.00    -0.185 NA
ATOM     21  O   UNL A   1      33.694  27.962  26.551  1.00  0.00    -0.267 OA
ENDBRANCH   8   9
ENDBRANCH   7   8
ENDBRANCH   4   7
ENDBRANCH   2   3
ENDBRANCH   1   2
BRANCH   1  22
ATOM     22  C   UNL A   1      38.320  22.026  25.722  1.00  0.00     0.118 C 
BRANCH  22  23
ATOM     23  N   UNL A   1      39.486  21.313  26.219  1.00  0.00    -0.352 N 
ATOM     24  C   UNL A   1      40.763  21.707  26.521  1.00  0.00     0.251 C 
ATOM     25  H   UNL A   1      39.325  20.353  26.369  1.00  0.00     0.163 HD
ATOM     26  O   UNL A   1      41.618  20.824  26.583  1.00  0.00    -0.269 OA
BRANCH  24  27
ATOM     27  C   UNL A   1      41.162  23.108  26.800  1.00  0.00     0.039 A 
ATOM     28  C   UNL A   1      42.238  23.633  26.067  1.00  0.00     0.014 A 
ATOM     29  C   UNL A   1      40.663  23.835  27.881  1.00  0.00     0.014 A 
ATOM     30  C   UNL A   1      42.792  24.879  26.388  1.00  0.00     0.010 A 
ATOM     31  C   UNL A   1      41.227  25.082  28.206  1.00  0.00     0.010 A 
ATOM     32  C   UNL A   1      42.290  25.626  27.460  1.00  0.00    -0.014 A 
BRANCH  32  33
ATOM     33  C   UNL A   1      42.790  27.016  27.654  1.00  0.00     0.031 A 
ATOM     34  C   UNL A   1      41.742  28.081  27.630  1.00  0.00     0.074 A 
ATOM     35  C   UNL A   1      43.936  27.332  28.302  1.00  0.00     0.049 A 
ATOM     36  N   UNL A   1      41.006  28.357  28.666  1.00  0.00    -0.248 NA
ATOM     37  C   UNL A   1      41.275  28.703  26.393  1.00  0.00     0.031 C 
ATOM     38  C   UNL A   1      44.438  26.589  29.462  1.00  0.00     0.029 A 
ATOM     39  N   UNL A   1      44.714  28.473  28.267  1.00  0.00    -0.354 N 
ATOM     40  C   UNL A   1      39.944  29.123  28.227  1.00  0.00     0.074 A 
ATOM     41  C   UNL A   1      40.161  29.327  26.810  1.00  0.00     0.031 C 
ATOM     42  C   UNL A   1      45.324  27.366  30.123  1.00  0.00     0.029 A 
ATOM     43  C   UNL A   1      45.572  28.591  29.362  1.00  0.00     0.049 A 
ATOM     44  H   UNL A   1      44.668  29.138  27.542  1.00  0.00     0.167 HD
ATOM     45  C   UNL A   1      38.941  29.527  29.050  1.00  0.00     0.037 A 
ATOM     46  C   UNL A   1      45.990  29.767  29.915  1.00  0.00     0.037 A 
ATOM     47  C   UNL A   1      39.093  29.163  30.429  1.00  0.00     0.049 A 
ATOM     48  C   UNL A   1      44.723  30.244  30.571  1.00  0.00     0.074 A 
ATOM     49  C   UNL A   1      38.685  28.143  31.261  1.00  0.00     0.029 A 
ATOM     50  N   UNL A   1      39.915  29.943  31.210  1.00  0.00    -0.354 N 
ATOM     51  N   UNL A   1      44.248  29.815  31.710  1.00  0.00    -0.248 NA
ATOM     52  C   UNL A   1      43.760  30.975  29.746  1.00  0.00     0.031 C 
ATOM     53  C   UNL A   1      39.639  28.117  32.328  1.00  0.00     0.029 A 
ATOM     54  C   UNL A   1      40.591  29.096  32.052  1.00  0.00     0.049 A 
ATOM     55  H   UNL A   1      40.001  30.923  31.171  1.00  0.00     0.167 HD
ATOM     56  C   UNL A   1      42.864  29.962  31.610  1.00  0.00     0.074 A 
ATOM     57  C   UNL A   1      42.634  30.725  30.400  1.00  0.00     0.031 C 
ATOM     58  C   UNL A   1      41.982  29.285  32.402  1.00  0.00     0.037 A 
BRANCH  45  59
ATOM     59  C   UNL A   1      37.831  30.412  28.650  1.00  0.00     0.058 A 
ATOM     60  C   UNL A   1      37.922  31.774  28.967  1.00  0.00     0.135 A 
ATOM     61  C   UNL A   1      36.614  29.924  28.163  1.00  0.00     0.135 A 
ATOM     62  F   UNL A   1      39.075  32.275  29.443  1.00  0.00    -0.206 F 
ATOM     63  C   UNL A   1      36.832  32.623  28.851  1.00  0.00     0.059 A 
ATOM     64  C   UNL A   1      35.504  30.758  28.033  1.00  0.00     0.059 A 
ATOM     65  F   UNL A   1      36.479  28.624  27.855  1.00  0.00    -0.206 F 
ATOM     66  C   UNL A   1      35.618  32.100  28.401  1.00  0.00     0.060 A 
BRANCH  66  67
ATOM     67  S   UNL A   1      34.192  33.205  28.351  1.00  0.00     0.124 S 
ATOM     68  O   UNL A   1      33.971  33.476  29.767  1.00  0.00    -0.237 OA
ATOM     69  O   UNL A   1      34.706  34.321  27.562  1.00  0.00    -0.237 OA
ATOM     70  O   UNL A   1      33.163  32.403  27.698  1.00  0.00    -0.744 OA
ENDBRANCH  66  67
ENDBRANCH  45  59
BRANCH  46  71
ATOM     71  C   UNL A   1      46.868  30.637  29.067  1.00  0.00     0.058 A 
ATOM     72  C   UNL A   1      48.108  31.046  29.601  1.00  0.00     0.135 A 
ATOM     73  C   UNL A   1      46.578  31.100  27.773  1.00  0.00     0.135 A 
ATOM     74  F   UNL A   1      48.411  30.784  30.884  1.00  0.00    -0.206 F 
ATOM     75  C   UNL A   1      49.068  31.712  28.843  1.00  0.00     0.059 A 
ATOM     76  C   UNL A   1      47.532  31.744  26.981  1.00  0.00     0.059 A 
ATOM     77  F   UNL A   1      45.367  30.924  27.227  1.00  0.00    -0.206 F 
ATOM     78  C   UNL A   1      48.791  32.004  27.513  1.00  0.00     0.060 A 
BRANCH  78  79
ATOM     79  S   UNL A   1      50.125  32.645  26.479  1.00  0.00     0.124 S 
ATOM     80  O   UNL A   1      49.408  33.527  25.566  1.00  0.00    -0.237 OA
ATOM     81  O   UNL A   1      50.974  33.304  27.467  1.00  0.00    -0.237 OA
ATOM     82  O   UNL A   1      50.695  31.443  25.877  1.00  0.00    -0.744 OA
ENDBRANCH  78  79
ENDBRANCH  46  71
BRANCH  58  83
ATOM     83  C   UNL A   1      42.593  28.504  33.520  1.00  0.00     0.058 A 
ATOM     84  C   UNL A   1      42.694  29.061  34.802  1.00  0.00     0.135 A 
ATOM     85  C   UNL A   1      43.060  27.191  33.338  1.00  0.00     0.135 A 
ATOM     86  F   UNL A   1      42.259  30.311  35.034  1.00  0.00    -0.206 F 
ATOM     87  C   UNL A   1      43.210  28.335  35.871  1.00  0.00     0.059 A 
ATOM     88  C   UNL A   1      43.557  26.437  34.398  1.00  0.00     0.059 A 
ATOM     89  F   UNL A   1      43.019  26.609  32.127  1.00  0.00    -0.206 F 
ATOM     90  C   UNL A   1      43.624  27.018  35.664  1.00  0.00     0.060 A 
BRANCH  90  91
ATOM     91  S   UNL A   1      44.181  26.055  37.085  1.00  0.00     0.124 S 
ATOM     92  O   UNL A   1      43.901  24.688  36.657  1.00  0.00    -0.237 OA
ATOM     93  O   UNL A   1      45.593  26.414  37.171  1.00  0.00    -0.237 OA
ATOM     94  O   UNL A   1      43.351  26.550  38.181  1.00  0.00    -0.744 OA
ENDBRANCH  90  91
ENDBRANCH  58  83
ENDBRANCH  32  33
ENDBRANCH  24  27
ENDBRANCH  22  23
ENDBRANCH   1  22
TORSDOF 15
ENDMDL
