MODEL 1
REMARK VINA RESULT:     -12.2      0.000      0.000
REMARK SMILES Cc1c(Cl)cc2c(c1C)O[C@H](C(F)(F)F)C(C(=O)NCCCNC(=O)c1ccc(-c3c4nc(c(-c5c(F)cc(S(=O)(=O)[O-])cc5F)c5ccc([nH]5)c(-c5c(F)cc(S(=O)(=O)[O-])cc5F)c5nc(c(-c6c(F)cc(S(=O)(=O)[O-])cc6F)c6ccc3[nH]6)C=C5)C=C4)cc1)=C2
REMARK SMILES IDX 22 1 21 2 20 3 19 4 17 5 18 6 16 8 1 9 2 10 3 11 8 12 4 13
REMARK SMILES IDX 5 14 7 15 9 16 6 17 10 18 92 19 11 20 12 21 13 22 14 23
REMARK SMILES IDX 15 24 23 25 24 26 25 28 26 29 27 30 91 31 28 32 90 33 29 34
REMARK SMILES IDX 30 35 31 36 84 37 32 38 89 39 83 40 85 41 33 42 88 43 82 44
REMARK SMILES IDX 81 45 34 47 68 48 47 49 67 50 48 51 51 52 66 53 86 54 49 55
REMARK SMILES IDX 50 56 65 58 87 59 52 60 35 61 36 62 45 63 37 64 38 65 44 66
REMARK SMILES IDX 46 67 39 68 40 69 41 70 42 71 43 72 69 73 70 74 79 75 71 76
REMARK SMILES IDX 72 77 78 78 80 79 73 80 74 81 75 82 76 83 77 84 53 85 54 86
REMARK SMILES IDX 63 87 55 88 56 89 62 90 64 91 57 92 58 93 59 94 60 95 61 96
REMARK H PARENT 19 7 23 27 85 46 51 57
REMARK Flexibility Score: inf
ROOT
ATOM      1  C   UNL A   1      33.737  28.477  26.857  1.00  0.00     0.118 C 
ENDROOT
BRANCH   1   2
ATOM      2  C   UNL A   1      33.868  28.473  25.338  1.00  0.00     0.042 C 
BRANCH   2   3
ATOM      3  C   UNL A   1      33.104  27.322  24.698  1.00  0.00     0.118 C 
BRANCH   3   4
ATOM      4  N   UNL A   1      32.157  26.715  25.622  1.00  0.00    -0.352 N 
ATOM      5  C   UNL A   1      31.908  25.483  26.123  1.00  0.00     0.251 C 
ATOM      6  O   UNL A   1      30.965  25.421  26.919  1.00  0.00    -0.270 OA
ATOM      7  H   UNL A   1      31.527  27.382  25.980  1.00  0.00     0.163 HD
BRANCH   5   8
ATOM      8  C   UNL A   1      32.675  24.249  25.792  1.00  0.00     0.067 C 
ATOM      9  C   UNL A   1      37.189  19.580  24.936  1.00  0.00     0.046 C 
ATOM     10  C   UNL A   1      36.331  20.786  25.221  1.00  0.00    -0.026 A 
ATOM     11  C   UNL A   1      36.941  22.001  25.606  1.00  0.00     0.045 A 
ATOM     12  C   UNL A   1      34.924  20.756  25.075  1.00  0.00    -0.004 A 
ATOM     13  Cl  UNL A   1      38.662  22.159  25.730  1.00  0.00    -0.084 Cl
ATOM     14  C   UNL A   1      36.184  23.140  25.896  1.00  0.00     0.032 A 
ATOM     15  C   UNL A   1      34.182  21.914  25.384  1.00  0.00     0.131 A 
ATOM     16  C   UNL A   1      34.155  19.541  24.615  1.00  0.00     0.049 C 
ATOM     17  C   UNL A   1      34.797  23.099  25.794  1.00  0.00     0.019 A 
ATOM     18  O   UNL A   1      32.817  21.817  25.310  1.00  0.00    -0.475 OA
ATOM     19  C   UNL A   1      33.979  24.259  26.127  1.00  0.00     0.025 C 
ATOM     20  C   UNL A   1      32.094  23.055  25.093  1.00  0.00     0.314 C 
BRANCH  20  21
ATOM     21  C   UNL A   1      31.913  23.281  23.580  1.00  0.00     0.429 C 
ATOM     22  F   UNL A   1      32.166  22.138  22.894  1.00  0.00    -0.167 F 
ATOM     23  F   UNL A   1      30.652  23.654  23.255  1.00  0.00    -0.167 F 
ATOM     24  F   UNL A   1      32.737  24.236  23.091  1.00  0.00    -0.167 F 
ENDBRANCH  20  21
ENDBRANCH   5   8
ENDBRANCH   3   4
ENDBRANCH   2   3
ENDBRANCH   1   2
BRANCH   1  25
ATOM     25  N   UNL A   1      33.619  29.833  27.386  1.00  0.00    -0.352 N 
ATOM     26  C   UNL A   1      34.475  30.547  28.187  1.00  0.00     0.251 C 
ATOM     27  H   UNL A   1      32.797  30.310  27.127  1.00  0.00     0.163 HD
ATOM     28  O   UNL A   1      34.072  31.559  28.756  1.00  0.00    -0.269 OA
BRANCH  26  29
ATOM     29  C   UNL A   1      35.870  30.098  28.364  1.00  0.00     0.039 A 
ATOM     30  C   UNL A   1      36.754  30.156  27.285  1.00  0.00     0.014 A 
ATOM     31  C   UNL A   1      36.296  29.596  29.597  1.00  0.00     0.014 A 
ATOM     32  C   UNL A   1      38.085  29.773  27.464  1.00  0.00     0.010 A 
ATOM     33  C   UNL A   1      37.639  29.307  29.799  1.00  0.00     0.010 A 
ATOM     34  C   UNL A   1      38.545  29.380  28.732  1.00  0.00    -0.014 A 
BRANCH  34  35
ATOM     35  C   UNL A   1      39.963  29.015  28.963  1.00  0.00     0.031 A 
ATOM     36  C   UNL A   1      40.913  30.029  29.542  1.00  0.00     0.074 A 
ATOM     37  C   UNL A   1      40.405  27.796  28.596  1.00  0.00     0.049 A 
ATOM     38  N   UNL A   1      42.199  29.927  29.752  1.00  0.00    -0.248 NA
ATOM     39  C   UNL A   1      40.349  31.341  29.901  1.00  0.00     0.031 C 
ATOM     40  C   UNL A   1      39.586  26.749  27.979  1.00  0.00     0.029 A 
ATOM     41  N   UNL A   1      41.651  27.229  28.686  1.00  0.00    -0.354 N 
ATOM     42  C   UNL A   1      42.596  31.160  30.257  1.00  0.00     0.074 A 
ATOM     43  C   UNL A   1      41.431  32.015  30.258  1.00  0.00     0.031 C 
ATOM     44  C   UNL A   1      40.342  25.657  27.783  1.00  0.00     0.029 A 
ATOM     45  C   UNL A   1      41.704  25.935  28.226  1.00  0.00     0.049 A 
ATOM     46  H   UNL A   1      42.434  27.705  29.048  1.00  0.00     0.167 HD
ATOM     47  C   UNL A   1      43.816  31.534  30.712  1.00  0.00     0.037 A 
ATOM     48  C   UNL A   1      42.736  25.070  28.172  1.00  0.00     0.037 A 
ATOM     49  C   UNL A   1      44.960  30.664  30.743  1.00  0.00     0.049 A 
ATOM     50  C   UNL A   1      44.081  25.507  28.683  1.00  0.00     0.074 A 
ATOM     51  C   UNL A   1      46.227  30.927  31.230  1.00  0.00     0.029 A 
ATOM     52  N   UNL A   1      44.971  29.358  30.274  1.00  0.00    -0.354 N 
ATOM     53  N   UNL A   1      44.428  26.662  29.201  1.00  0.00    -0.248 NA
ATOM     54  C   UNL A   1      45.175  24.529  28.604  1.00  0.00     0.031 C 
ATOM     55  C   UNL A   1      47.015  29.789  31.027  1.00  0.00     0.029 A 
ATOM     56  C   UNL A   1      46.227  28.804  30.449  1.00  0.00     0.049 A 
ATOM     57  H   UNL A   1      44.199  28.893  29.877  1.00  0.00     0.167 HD
ATOM     58  C   UNL A   1      45.774  26.543  29.527  1.00  0.00     0.074 A 
ATOM     59  C   UNL A   1      46.175  25.200  29.160  1.00  0.00     0.031 C 
ATOM     60  C   UNL A   1      46.602  27.462  30.081  1.00  0.00     0.037 A 
BRANCH  47  61
ATOM     61  C   UNL A   1      43.963  32.934  31.239  1.00  0.00     0.058 A 
ATOM     62  C   UNL A   1      43.770  33.226  32.599  1.00  0.00     0.135 A 
ATOM     63  C   UNL A   1      44.334  33.987  30.388  1.00  0.00     0.135 A 
ATOM     64  F   UNL A   1      43.397  32.258  33.452  1.00  0.00    -0.206 F 
ATOM     65  C   UNL A   1      43.914  34.517  33.093  1.00  0.00     0.059 A 
ATOM     66  C   UNL A   1      44.510  35.283  30.867  1.00  0.00     0.059 A 
ATOM     67  F   UNL A   1      44.527  33.764  29.079  1.00  0.00    -0.206 F 
ATOM     68  C   UNL A   1      44.284  35.540  32.219  1.00  0.00     0.060 A 
BRANCH  68  69
ATOM     69  S   UNL A   1      44.475  37.208  32.882  1.00  0.00     0.124 S 
ATOM     70  O   UNL A   1      44.318  38.019  31.679  1.00  0.00    -0.237 OA
ATOM     71  O   UNL A   1      43.382  37.285  33.847  1.00  0.00    -0.237 OA
ATOM     72  O   UNL A   1      45.817  37.194  33.458  1.00  0.00    -0.744 OA
ENDBRANCH  68  69
ENDBRANCH  47  61
BRANCH  48  73
ATOM     73  C   UNL A   1      42.519  23.692  27.659  1.00  0.00     0.058 A 
ATOM     74  C   UNL A   1      42.467  23.443  26.280  1.00  0.00     0.135 A 
ATOM     75  C   UNL A   1      42.396  22.596  28.527  1.00  0.00     0.135 A 
ATOM     76  F   UNL A   1      42.575  24.460  25.411  1.00  0.00    -0.206 F 
ATOM     77  C   UNL A   1      42.297  22.158  25.776  1.00  0.00     0.059 A 
ATOM     78  C   UNL A   1      42.246  21.298  28.046  1.00  0.00     0.059 A 
ATOM     79  F   UNL A   1      42.457  22.779  29.854  1.00  0.00    -0.206 F 
ATOM     80  C   UNL A   1      42.193  21.089  26.669  1.00  0.00     0.060 A 
BRANCH  80  81
ATOM     81  S   UNL A   1      42.036  19.419  26.001  1.00  0.00     0.124 S 
ATOM     82  O   UNL A   1      40.600  19.331  25.764  1.00  0.00    -0.237 OA
ATOM     83  O   UNL A   1      42.878  19.486  24.811  1.00  0.00    -0.237 OA
ATOM     84  O   UNL A   1      42.551  18.578  27.077  1.00  0.00    -0.744 OA
ENDBRANCH  80  81
ENDBRANCH  48  73
BRANCH  60  85
ATOM     85  C   UNL A   1      48.023  27.053  30.339  1.00  0.00     0.058 A 
ATOM     86  C   UNL A   1      49.042  27.346  29.421  1.00  0.00     0.135 A 
ATOM     87  C   UNL A   1      48.382  26.455  31.557  1.00  0.00     0.135 A 
ATOM     88  F   UNL A   1      48.748  27.910  28.239  1.00  0.00    -0.206 F 
ATOM     89  C   UNL A   1      50.373  27.057  29.703  1.00  0.00     0.059 A 
ATOM     90  C   UNL A   1      49.709  26.179  31.869  1.00  0.00     0.059 A 
ATOM     91  F   UNL A   1      47.442  26.165  32.471  1.00  0.00    -0.206 F 
ATOM     92  C   UNL A   1      50.697  26.483  30.934  1.00  0.00     0.060 A 
BRANCH  92  93
ATOM     93  S   UNL A   1      52.436  26.181  31.312  1.00  0.00     0.124 S 
ATOM     94  O   UNL A   1      52.377  24.866  31.942  1.00  0.00    -0.237 OA
ATOM     95  O   UNL A   1      53.054  26.223  29.990  1.00  0.00    -0.237 OA
ATOM     96  O   UNL A   1      52.789  27.286  32.197  1.00  0.00    -0.744 OA
ENDBRANCH  92  93
ENDBRANCH  60  85
ENDBRANCH  34  35
ENDBRANCH  26  29
ENDBRANCH   1  25
TORSDOF 14
ENDMDL
MODEL 2
REMARK VINA RESULT:     -11.9      3.171      9.347
REMARK SMILES Cc1c(Cl)cc2c(c1C)O[C@H](C(F)(F)F)C(C(=O)NCCCNC(=O)c1ccc(-c3c4nc(c(-c5c(F)cc(S(=O)(=O)[O-])cc5F)c5ccc([nH]5)c(-c5c(F)cc(S(=O)(=O)[O-])cc5F)c5nc(c(-c6c(F)cc(S(=O)(=O)[O-])cc6F)c6ccc3[nH]6)C=C5)C=C4)cc1)=C2
REMARK SMILES IDX 22 1 21 2 20 3 19 4 17 5 18 6 16 8 1 9 2 10 3 11 8 12 4 13
REMARK SMILES IDX 5 14 7 15 9 16 6 17 10 18 92 19 11 20 12 21 13 22 14 23
REMARK SMILES IDX 15 24 23 25 24 26 25 28 26 29 27 30 91 31 28 32 90 33 29 34
REMARK SMILES IDX 30 35 31 36 84 37 32 38 89 39 83 40 85 41 33 42 88 43 82 44
REMARK SMILES IDX 81 45 34 47 68 48 47 49 67 50 48 51 51 52 66 53 86 54 49 55
REMARK SMILES IDX 50 56 65 58 87 59 52 60 35 61 36 62 45 63 37 64 38 65 44 66
REMARK SMILES IDX 46 67 39 68 40 69 41 70 42 71 43 72 69 73 70 74 79 75 71 76
REMARK SMILES IDX 72 77 78 78 80 79 73 80 74 81 75 82 76 83 77 84 53 85 54 86
REMARK SMILES IDX 63 87 55 88 56 89 62 90 64 91 57 92 58 93 59 94 60 95 61 96
REMARK H PARENT 19 7 23 27 85 46 51 57
REMARK Flexibility Score: inf
ROOT
ATOM      1  C   UNL A   1      36.758  23.778  25.125  1.00  0.00     0.118 C 
ENDROOT
BRANCH   1   2
ATOM      2  C   UNL A   1      35.626  23.668  26.141  1.00  0.00     0.042 C 
BRANCH   2   3
ATOM      3  C   UNL A   1      34.355  23.098  25.526  1.00  0.00     0.118 C 
BRANCH   3   4
ATOM      4  N   UNL A   1      34.310  23.296  24.084  1.00  0.00    -0.352 N 
ATOM      5  C   UNL A   1      33.854  24.235  23.224  1.00  0.00     0.251 C 
ATOM      6  O   UNL A   1      34.039  23.985  22.028  1.00  0.00    -0.270 OA
ATOM      7  H   UNL A   1      34.725  22.542  23.606  1.00  0.00     0.163 HD
BRANCH   5   8
ATOM      8  C   UNL A   1      33.176  25.503  23.616  1.00  0.00     0.067 C 
ATOM      9  C   UNL A   1      31.461  31.315  26.103  1.00  0.00     0.046 C 
ATOM     10  C   UNL A   1      32.057  30.004  25.659  1.00  0.00    -0.026 A 
ATOM     11  C   UNL A   1      33.231  29.525  26.283  1.00  0.00     0.045 A 
ATOM     12  C   UNL A   1      31.453  29.207  24.659  1.00  0.00    -0.004 A 
ATOM     13  Cl  UNL A   1      33.996  30.389  27.575  1.00  0.00    -0.084 Cl
ATOM     14  C   UNL A   1      33.828  28.322  25.892  1.00  0.00     0.032 A 
ATOM     15  C   UNL A   1      32.080  28.003  24.275  1.00  0.00     0.131 A 
ATOM     16  C   UNL A   1      30.168  29.574  23.957  1.00  0.00     0.049 C 
ATOM     17  C   UNL A   1      33.258  27.559  24.878  1.00  0.00     0.019 A 
ATOM     18  O   UNL A   1      31.507  27.304  23.245  1.00  0.00    -0.475 OA
ATOM     19  C   UNL A   1      33.879  26.320  24.424  1.00  0.00     0.025 C 
ATOM     20  C   UNL A   1      31.785  25.881  23.199  1.00  0.00     0.314 C 
BRANCH  20  21
ATOM     21  C   UNL A   1      30.701  25.124  23.990  1.00  0.00     0.429 C 
ATOM     22  F   UNL A   1      29.623  25.919  24.201  1.00  0.00    -0.167 F 
ATOM     23  F   UNL A   1      30.249  24.028  23.336  1.00  0.00    -0.167 F 
ATOM     24  F   UNL A   1      31.135  24.702  25.200  1.00  0.00    -0.167 F 
ENDBRANCH  20  21
ENDBRANCH   5   8
ENDBRANCH   3   4
ENDBRANCH   2   3
ENDBRANCH   1   2
BRANCH   1  25
ATOM     25  N   UNL A   1      37.809  22.796  25.379  1.00  0.00    -0.352 N 
ATOM     26  C   UNL A   1      39.042  22.952  25.962  1.00  0.00     0.251 C 
ATOM     27  H   UNL A   1      37.600  21.879  25.088  1.00  0.00     0.163 HD
ATOM     28  O   UNL A   1      39.892  22.074  25.828  1.00  0.00    -0.269 OA
BRANCH  26  29
ATOM     29  C   UNL A   1      39.345  24.169  26.740  1.00  0.00     0.039 A 
ATOM     30  C   UNL A   1      38.864  24.288  28.046  1.00  0.00     0.014 A 
ATOM     31  C   UNL A   1      40.086  25.205  26.166  1.00  0.00     0.014 A 
ATOM     32  C   UNL A   1      39.187  25.419  28.798  1.00  0.00     0.010 A 
ATOM     33  C   UNL A   1      40.486  26.283  26.945  1.00  0.00     0.010 A 
ATOM     34  C   UNL A   1      40.030  26.407  28.264  1.00  0.00    -0.014 A 
BRANCH  34  35
ATOM     35  C   UNL A   1      40.430  27.596  29.056  1.00  0.00     0.031 A 
ATOM     36  C   UNL A   1      41.759  27.613  29.762  1.00  0.00     0.074 A 
ATOM     37  C   UNL A   1      39.572  28.627  29.189  1.00  0.00     0.049 A 
ATOM     38  N   UNL A   1      42.258  28.523  30.557  1.00  0.00    -0.248 NA
ATOM     39  C   UNL A   1      42.628  26.438  29.575  1.00  0.00     0.031 C 
ATOM     40  C   UNL A   1      38.236  28.698  28.591  1.00  0.00     0.029 A 
ATOM     41  N   UNL A   1      39.694  29.812  29.868  1.00  0.00    -0.354 N 
ATOM     42  C   UNL A   1      43.489  28.027  30.970  1.00  0.00     0.074 A 
ATOM     43  C   UNL A   1      43.633  26.709  30.394  1.00  0.00     0.031 C 
ATOM     44  C   UNL A   1      37.679  29.881  28.899  1.00  0.00     0.029 A 
ATOM     45  C   UNL A   1      38.601  30.636  29.741  1.00  0.00     0.049 A 
ATOM     46  H   UNL A   1      40.490  30.051  30.396  1.00  0.00     0.167 HD
ATOM     47  C   UNL A   1      44.431  28.631  31.732  1.00  0.00     0.037 A 
ATOM     48  C   UNL A   1      38.371  31.864  30.246  1.00  0.00     0.037 A 
ATOM     49  C   UNL A   1      44.296  29.958  32.269  1.00  0.00     0.049 A 
ATOM     50  C   UNL A   1      39.431  32.516  31.090  1.00  0.00     0.074 A 
ATOM     51  C   UNL A   1      45.211  30.682  33.010  1.00  0.00     0.029 A 
ATOM     52  N   UNL A   1      43.177  30.763  32.112  1.00  0.00    -0.354 N 
ATOM     53  N   UNL A   1      40.609  32.051  31.432  1.00  0.00    -0.248 NA
ATOM     54  C   UNL A   1      39.134  33.855  31.617  1.00  0.00     0.031 C 
ATOM     55  C   UNL A   1      44.632  31.915  33.330  1.00  0.00     0.029 A 
ATOM     56  C   UNL A   1      43.372  31.973  32.754  1.00  0.00     0.049 A 
ATOM     57  H   UNL A   1      42.364  30.510  31.616  1.00  0.00     0.167 HD
ATOM     58  C   UNL A   1      41.203  33.048  32.197  1.00  0.00     0.074 A 
ATOM     59  C   UNL A   1      40.259  34.145  32.259  1.00  0.00     0.031 C 
ATOM     60  C   UNL A   1      42.419  33.054  32.796  1.00  0.00     0.037 A 
BRANCH  47  61
ATOM     61  C   UNL A   1      45.700  27.872  32.004  1.00  0.00     0.058 A 
ATOM     62  C   UNL A   1      45.840  27.072  33.150  1.00  0.00     0.135 A 
ATOM     63  C   UNL A   1      46.772  27.914  31.099  1.00  0.00     0.135 A 
ATOM     64  F   UNL A   1      44.852  27.010  34.056  1.00  0.00    -0.206 F 
ATOM     65  C   UNL A   1      47.008  26.360  33.402  1.00  0.00     0.059 A 
ATOM     66  C   UNL A   1      47.940  27.190  31.318  1.00  0.00     0.059 A 
ATOM     67  F   UNL A   1      46.692  28.667  29.990  1.00  0.00    -0.206 F 
ATOM     68  C   UNL A   1      48.053  26.426  32.479  1.00  0.00     0.060 A 
BRANCH  68  69
ATOM     69  S   UNL A   1      49.557  25.488  32.820  1.00  0.00     0.124 S 
ATOM     70  O   UNL A   1      49.041  24.403  33.650  1.00  0.00    -0.237 OA
ATOM     71  O   UNL A   1      49.998  25.109  31.482  1.00  0.00    -0.237 OA
ATOM     72  O   UNL A   1      50.410  26.451  33.510  1.00  0.00    -0.744 OA
ENDBRANCH  68  69
ENDBRANCH  47  61
BRANCH  48  73
ATOM     73  C   UNL A   1      37.103  32.570  29.923  1.00  0.00     0.058 A 
ATOM     74  C   UNL A   1      35.936  32.316  30.656  1.00  0.00     0.135 A 
ATOM     75  C   UNL A   1      37.039  33.536  28.905  1.00  0.00     0.135 A 
ATOM     76  F   UNL A   1      35.946  31.398  31.635  1.00  0.00    -0.206 F 
ATOM     77  C   UNL A   1      34.747  32.988  30.392  1.00  0.00     0.059 A 
ATOM     78  C   UNL A   1      35.867  34.236  28.637  1.00  0.00     0.059 A 
ATOM     79  F   UNL A   1      38.133  33.828  28.187  1.00  0.00    -0.206 F 
ATOM     80  C   UNL A   1      34.724  33.952  29.382  1.00  0.00     0.060 A 
BRANCH  80  81
ATOM     81  S   UNL A   1      33.191  34.862  29.093  1.00  0.00     0.124 S 
ATOM     82  O   UNL A   1      32.555  34.046  28.064  1.00  0.00    -0.237 OA
ATOM     83  O   UNL A   1      32.565  34.832  30.411  1.00  0.00    -0.237 OA
ATOM     84  O   UNL A   1      33.658  36.175  28.659  1.00  0.00    -0.744 OA
ENDBRANCH  80  81
ENDBRANCH  48  73
BRANCH  60  85
ATOM     85  C   UNL A   1      42.813  34.284  33.560  1.00  0.00     0.058 A 
ATOM     86  C   UNL A   1      42.567  34.396  34.936  1.00  0.00     0.135 A 
ATOM     87  C   UNL A   1      43.532  35.313  32.930  1.00  0.00     0.135 A 
ATOM     88  F   UNL A   1      41.878  33.442  35.580  1.00  0.00    -0.206 F 
ATOM     89  C   UNL A   1      43.021  35.491  35.664  1.00  0.00     0.059 A 
ATOM     90  C   UNL A   1      44.014  36.406  33.644  1.00  0.00     0.059 A 
ATOM     91  F   UNL A   1      43.799  35.246  31.617  1.00  0.00    -0.206 F 
ATOM     92  C   UNL A   1      43.751  36.485  35.011  1.00  0.00     0.060 A 
BRANCH  92  93
ATOM     93  S   UNL A   1      44.393  37.863  35.985  1.00  0.00     0.124 S 
ATOM     94  O   UNL A   1      43.754  37.634  37.277  1.00  0.00    -0.237 OA
ATOM     95  O   UNL A   1      45.834  37.631  35.941  1.00  0.00    -0.237 OA
ATOM     96  O   UNL A   1      43.932  39.040  35.255  1.00  0.00    -0.744 OA
ENDBRANCH  92  93
ENDBRANCH  60  85
ENDBRANCH  34  35
ENDBRANCH  26  29
ENDBRANCH   1  25
TORSDOF 14
ENDMDL
MODEL 3
REMARK VINA RESULT:     -11.9      5.017     10.441
REMARK SMILES Cc1c(Cl)cc2c(c1C)O[C@H](C(F)(F)F)C(C(=O)NCCCNC(=O)c1ccc(-c3c4nc(c(-c5c(F)cc(S(=O)(=O)[O-])cc5F)c5ccc([nH]5)c(-c5c(F)cc(S(=O)(=O)[O-])cc5F)c5nc(c(-c6c(F)cc(S(=O)(=O)[O-])cc6F)c6ccc3[nH]6)C=C5)C=C4)cc1)=C2
REMARK SMILES IDX 22 1 21 2 20 3 19 4 17 5 18 6 16 8 1 9 2 10 3 11 8 12 4 13
REMARK SMILES IDX 5 14 7 15 9 16 6 17 10 18 92 19 11 20 12 21 13 22 14 23
REMARK SMILES IDX 15 24 23 25 24 26 25 28 26 29 27 30 91 31 28 32 90 33 29 34
REMARK SMILES IDX 30 35 31 36 84 37 32 38 89 39 83 40 85 41 33 42 88 43 82 44
REMARK SMILES IDX 81 45 34 47 68 48 47 49 67 50 48 51 51 52 66 53 86 54 49 55
REMARK SMILES IDX 50 56 65 58 87 59 52 60 35 61 36 62 45 63 37 64 38 65 44 66
REMARK SMILES IDX 46 67 39 68 40 69 41 70 42 71 43 72 69 73 70 74 79 75 71 76
REMARK SMILES IDX 72 77 78 78 80 79 73 80 74 81 75 82 76 83 77 84 53 85 54 86
REMARK SMILES IDX 63 87 55 88 56 89 62 90 64 91 57 92 58 93 59 94 60 95 61 96
REMARK H PARENT 19 7 23 27 85 46 51 57
REMARK Flexibility Score: inf
ROOT
ATOM      1  C   UNL A   1      39.591  23.533  26.919  1.00  0.00     0.118 C 
ENDROOT
BRANCH   1   2
ATOM      2  C   UNL A   1      38.285  23.636  26.140  1.00  0.00     0.042 C 
BRANCH   2   3
ATOM      3  C   UNL A   1      37.862  22.299  25.547  1.00  0.00     0.118 C 
BRANCH   3   4
ATOM      4  N   UNL A   1      36.608  21.822  26.115  1.00  0.00    -0.352 N 
ATOM      5  C   UNL A   1      35.295  22.131  26.022  1.00  0.00     0.251 C 
ATOM      6  O   UNL A   1      34.542  21.432  26.709  1.00  0.00    -0.270 OA
ATOM      7  H   UNL A   1      36.758  21.072  26.735  1.00  0.00     0.163 HD
BRANCH   5   8
ATOM      8  C   UNL A   1      34.724  23.212  25.170  1.00  0.00     0.067 C 
ATOM      9  C   UNL A   1      32.477  28.815  22.627  1.00  0.00     0.046 C 
ATOM     10  C   UNL A   1      33.029  27.654  23.413  1.00  0.00    -0.026 A 
ATOM     11  C   UNL A   1      33.253  27.793  24.801  1.00  0.00     0.045 A 
ATOM     12  C   UNL A   1      33.296  26.401  22.811  1.00  0.00    -0.004 A 
ATOM     13  Cl  UNL A   1      32.878  29.261  25.643  1.00  0.00    -0.084 Cl
ATOM     14  C   UNL A   1      33.780  26.748  25.566  1.00  0.00     0.032 A 
ATOM     15  C   UNL A   1      33.837  25.366  23.601  1.00  0.00     0.131 A 
ATOM     16  C   UNL A   1      33.047  26.102  21.353  1.00  0.00     0.049 C 
ATOM     17  C   UNL A   1      34.082  25.530  24.966  1.00  0.00     0.019 A 
ATOM     18  O   UNL A   1      34.158  24.198  22.962  1.00  0.00    -0.475 OA
ATOM     19  C   UNL A   1      34.668  24.435  25.731  1.00  0.00     0.025 C 
ATOM     20  C   UNL A   1      34.192  23.002  23.783  1.00  0.00     0.314 C 
BRANCH  20  21
ATOM     21  C   UNL A   1      32.802  22.338  23.773  1.00  0.00     0.429 C 
ATOM     22  F   UNL A   1      32.921  20.987  23.752  1.00  0.00    -0.167 F 
ATOM     23  F   UNL A   1      32.070  22.643  24.870  1.00  0.00    -0.167 F 
ATOM     24  F   UNL A   1      32.059  22.695  22.700  1.00  0.00    -0.167 F 
ENDBRANCH  20  21
ENDBRANCH   5   8
ENDBRANCH   3   4
ENDBRANCH   2   3
ENDBRANCH   1   2
BRANCH   1  25
ATOM     25  N   UNL A   1      40.722  24.037  26.145  1.00  0.00    -0.352 N 
ATOM     26  C   UNL A   1      41.314  25.276  26.147  1.00  0.00     0.251 C 
ATOM     27  H   UNL A   1      41.125  23.386  25.525  1.00  0.00     0.163 HD
ATOM     28  O   UNL A   1      42.064  25.592  25.227  1.00  0.00    -0.269 OA
BRANCH  26  29
ATOM     29  C   UNL A   1      41.045  26.222  27.248  1.00  0.00     0.039 A 
ATOM     30  C   UNL A   1      40.124  25.881  28.240  1.00  0.00     0.014 A 
ATOM     31  C   UNL A   1      41.691  27.461  27.283  1.00  0.00     0.014 A 
ATOM     32  C   UNL A   1      39.902  26.757  29.304  1.00  0.00     0.010 A 
ATOM     33  C   UNL A   1      41.541  28.287  28.389  1.00  0.00     0.010 A 
ATOM     34  C   UNL A   1      40.637  27.950  29.405  1.00  0.00    -0.014 A 
BRANCH  34  35
ATOM     35  C   UNL A   1      40.458  28.876  30.549  1.00  0.00     0.031 A 
ATOM     36  C   UNL A   1      41.319  28.727  31.774  1.00  0.00     0.074 A 
ATOM     37  C   UNL A   1      39.483  29.806  30.507  1.00  0.00     0.049 A 
ATOM     38  N   UNL A   1      41.270  29.388  32.901  1.00  0.00    -0.248 NA
ATOM     39  C   UNL A   1      42.349  27.675  31.741  1.00  0.00     0.031 C 
ATOM     40  C   UNL A   1      38.555  30.009  29.391  1.00  0.00     0.029 A 
ATOM     41  N   UNL A   1      39.109  30.754  31.424  1.00  0.00    -0.354 N 
ATOM     42  C   UNL A   1      42.251  28.827  33.709  1.00  0.00     0.074 A 
ATOM     43  C   UNL A   1      42.834  27.729  32.972  1.00  0.00     0.031 C 
ATOM     44  C   UNL A   1      37.746  31.043  29.675  1.00  0.00     0.029 A 
ATOM     45  C   UNL A   1      38.073  31.552  31.003  1.00  0.00     0.049 A 
ATOM     46  H   UNL A   1      39.544  30.854  32.303  1.00  0.00     0.167 HD
ATOM     47  C   UNL A   1      42.655  29.215  34.942  1.00  0.00     0.037 A 
ATOM     48  C   UNL A   1      37.458  32.582  31.618  1.00  0.00     0.037 A 
ATOM     49  C   UNL A   1      42.095  30.332  35.653  1.00  0.00     0.049 A 
ATOM     50  C   UNL A   1      37.923  32.995  32.986  1.00  0.00     0.074 A 
ATOM     51  C   UNL A   1      42.465  30.841  36.884  1.00  0.00     0.029 A 
ATOM     52  N   UNL A   1      41.052  31.120  35.188  1.00  0.00    -0.354 N 
ATOM     53  N   UNL A   1      38.885  32.483  33.717  1.00  0.00    -0.248 NA
ATOM     54  C   UNL A   1      37.223  34.123  33.616  1.00  0.00     0.031 C 
ATOM     55  C   UNL A   1      41.624  31.918  37.180  1.00  0.00     0.029 A 
ATOM     56  C   UNL A   1      40.755  32.105  36.114  1.00  0.00     0.049 A 
ATOM     57  H   UNL A   1      40.591  30.998  34.327  1.00  0.00     0.167 HD
ATOM     58  C   UNL A   1      38.919  33.238  34.884  1.00  0.00     0.074 A 
ATOM     59  C   UNL A   1      37.889  34.249  34.757  1.00  0.00     0.031 C 
ATOM     60  C   UNL A   1      39.729  33.105  35.963  1.00  0.00     0.037 A 
BRANCH  47  61
ATOM     61  C   UNL A   1      43.772  28.442  35.585  1.00  0.00     0.058 A 
ATOM     62  C   UNL A   1      43.512  27.376  36.462  1.00  0.00     0.135 A 
ATOM     63  C   UNL A   1      45.113  28.743  35.299  1.00  0.00     0.135 A 
ATOM     64  F   UNL A   1      42.249  27.058  36.783  1.00  0.00    -0.206 F 
ATOM     65  C   UNL A   1      44.542  26.652  37.052  1.00  0.00     0.059 A 
ATOM     66  C   UNL A   1      46.160  28.015  35.858  1.00  0.00     0.059 A 
ATOM     67  F   UNL A   1      45.417  29.755  34.471  1.00  0.00    -0.206 F 
ATOM     68  C   UNL A   1      45.864  26.979  36.744  1.00  0.00     0.060 A 
BRANCH  68  69
ATOM     69  S   UNL A   1      47.186  26.022  37.514  1.00  0.00     0.124 S 
ATOM     70  O   UNL A   1      48.067  25.776  36.377  1.00  0.00    -0.237 OA
ATOM     71  O   UNL A   1      47.693  26.947  38.522  1.00  0.00    -0.237 OA
ATOM     72  O   UNL A   1      46.495  24.846  38.037  1.00  0.00    -0.744 OA
ENDBRANCH  68  69
ENDBRANCH  47  61
BRANCH  48  73
ATOM     73  C   UNL A   1      36.373  33.319  30.919  1.00  0.00     0.058 A 
ATOM     74  C   UNL A   1      35.042  33.203  31.344  1.00  0.00     0.135 A 
ATOM     75  C   UNL A   1      36.643  34.178  29.842  1.00  0.00     0.135 A 
ATOM     76  F   UNL A   1      34.734  32.390  32.366  1.00  0.00    -0.206 F 
ATOM     77  C   UNL A   1      34.014  33.907  30.726  1.00  0.00     0.059 A 
ATOM     78  C   UNL A   1      35.635  34.909  29.221  1.00  0.00     0.059 A 
ATOM     79  F   UNL A   1      37.902  34.337  29.409  1.00  0.00    -0.206 F 
ATOM     80  C   UNL A   1      34.322  34.764  29.667  1.00  0.00     0.060 A 
BRANCH  80  81
ATOM     81  S   UNL A   1      32.987  35.720  28.915  1.00  0.00     0.124 S 
ATOM     82  O   UNL A   1      32.224  36.131  30.088  1.00  0.00    -0.237 OA
ATOM     83  O   UNL A   1      33.720  36.777  28.226  1.00  0.00    -0.237 OA
ATOM     84  O   UNL A   1      32.331  34.751  28.043  1.00  0.00    -0.744 OA
ENDBRANCH  80  81
ENDBRANCH  48  73
BRANCH  60  85
ATOM     85  C   UNL A   1      39.552  34.080  37.090  1.00  0.00     0.058 A 
ATOM     86  C   UNL A   1      38.829  33.736  38.243  1.00  0.00     0.135 A 
ATOM     87  C   UNL A   1      40.194  35.328  37.060  1.00  0.00     0.135 A 
ATOM     88  F   UNL A   1      38.192  32.557  38.315  1.00  0.00    -0.206 F 
ATOM     89  C   UNL A   1      38.748  34.600  39.329  1.00  0.00     0.059 A 
ATOM     90  C   UNL A   1      40.145  36.198  38.145  1.00  0.00     0.059 A 
ATOM     91  F   UNL A   1      40.904  35.698  35.983  1.00  0.00    -0.206 F 
ATOM     92  C   UNL A   1      39.417  35.824  39.275  1.00  0.00     0.060 A 
BRANCH  92  93
ATOM     93  S   UNL A   1      39.361  36.902  40.721  1.00  0.00     0.124 S 
ATOM     94  O   UNL A   1      38.597  36.091  41.664  1.00  0.00    -0.237 OA
ATOM     95  O   UNL A   1      40.776  37.075  41.036  1.00  0.00    -0.237 OA
ATOM     96  O   UNL A   1      38.684  38.098  40.229  1.00  0.00    -0.744 OA
ENDBRANCH  92  93
ENDBRANCH  60  85
ENDBRANCH  34  35
ENDBRANCH  26  29
ENDBRANCH   1  25
TORSDOF 14
ENDMDL
