MODEL 1
REMARK VINA RESULT:     -10.9      0.000      0.000
REMARK SMILES CC[NH2+][C@@](C)(C[C@@H](C)Sc1ccncc1)C(=O)NCCCNC(=O)c1ccc(-c2c3nc(c(-c4c(F)cc(S(=O)(=O)[O-])cc4F)c4ccc([nH]4)c(-c4c(F)cc(S(=O)(=O)[O-])cc4F)c4nc(c(-c5c(F)cc(S(=O)(=O)[O-])cc5F)c5ccc2[nH]5)C=C4)C=C3)cc1
REMARK SMILES IDX 19 1 18 2 16 3 17 4 4 6 5 7 3 8 2 11 1 12 6 13 7 14 8 15
REMARK SMILES IDX 9 16 10 17 11 18 15 19 12 20 14 21 13 22 20 23 21 24 22 25
REMARK SMILES IDX 23 26 24 28 25 29 26 30 90 31 27 32 89 33 28 34 29 35 30 36
REMARK SMILES IDX 83 37 31 38 88 39 82 40 84 41 32 42 87 43 81 44 80 45 33 47
REMARK SMILES IDX 67 48 46 49 66 50 47 51 50 52 65 53 85 54 48 55 49 56 64 58
REMARK SMILES IDX 86 59 51 60 34 61 35 62 44 63 36 64 37 65 43 66 45 67 38 68
REMARK SMILES IDX 39 69 40 70 41 71 42 72 68 73 69 74 78 75 70 76 71 77 77 78
REMARK SMILES IDX 79 79 72 80 73 81 74 82 75 83 76 84 52 85 53 86 62 87 54 88
REMARK SMILES IDX 55 89 61 90 63 91 56 92 57 93 58 94 59 95 60 96
REMARK H PARENT 18 5 3 9 3 10 22 27 84 46 50 57
REMARK Flexibility Score: inf
ROOT
ATOM      1  C   UNL A   1      31.668  26.570  25.910  1.00  0.00     0.118 C 
ENDROOT
BRANCH   1   2
ATOM      2  N   UNL A   1      31.230  25.387  26.627  1.00  0.00    -0.351 N 
ATOM      3  C   UNL A   1      31.559  24.068  26.578  1.00  0.00     0.281 C 
ATOM      4  O   UNL A   1      30.839  23.354  27.288  1.00  0.00    -0.268 OA
ATOM      5  H   UNL A   1      30.541  25.582  27.302  1.00  0.00     0.163 HD
BRANCH   3   6
ATOM      6  C   UNL A   1      32.727  23.484  25.694  1.00  0.00     0.173 C 
ATOM      7  C   UNL A   1      32.496  23.799  24.197  1.00  0.00     0.090 C 
BRANCH   6   8
ATOM      8  N   UNL A   1      34.042  24.095  26.079  1.00  0.00    -0.334 N 
ATOM      9  H   UNL A   1      33.851  24.893  26.685  1.00  0.00     0.347 HD
ATOM     10  H   UNL A   1      34.572  23.349  26.530  1.00  0.00     0.347 HD
BRANCH   8  11
ATOM     11  C   UNL A   1      34.878  24.564  24.969  1.00  0.00     0.257 C 
ATOM     12  C   UNL A   1      36.254  23.916  25.056  1.00  0.00     0.071 C 
ENDBRANCH   8  11
ENDBRANCH   6   8
BRANCH   6  13
ATOM     13  C   UNL A   1      32.864  21.936  25.869  1.00  0.00     0.093 C 
BRANCH  13  14
ATOM     14  C   UNL A   1      33.579  21.151  24.744  1.00  0.00     0.055 C 
ATOM     15  C   UNL A   1      34.913  20.511  25.101  1.00  0.00     0.020 C 
BRANCH  14  16
ATOM     16  S   UNL A   1      32.439  19.959  23.873  1.00  0.00    -0.123 SA
BRANCH  16  17
ATOM     17  C   UNL A   1      32.995  18.303  24.244  1.00  0.00     0.011 A 
ATOM     18  C   UNL A   1      33.718  17.495  23.375  1.00  0.00     0.035 A 
ATOM     19  C   UNL A   1      32.552  17.737  25.445  1.00  0.00     0.035 A 
ATOM     20  C   UNL A   1      34.038  16.203  23.769  1.00  0.00     0.112 A 
ATOM     21  C   UNL A   1      32.906  16.432  25.747  1.00  0.00     0.112 A 
ATOM     22  N   UNL A   1      33.668  15.664  24.945  1.00  0.00    -0.265 NA
ENDBRANCH  16  17
ENDBRANCH  14  16
ENDBRANCH  13  14
ENDBRANCH   6  13
ENDBRANCH   3   6
ENDBRANCH   1   2
BRANCH   1  23
ATOM     23  C   UNL A   1      32.233  27.634  26.842  1.00  0.00     0.042 C 
BRANCH  23  24
ATOM     24  C   UNL A   1      33.463  28.361  26.312  1.00  0.00     0.118 C 
BRANCH  24  25
ATOM     25  N   UNL A   1      33.418  29.783  26.590  1.00  0.00    -0.352 N 
ATOM     26  C   UNL A   1      34.204  30.562  27.399  1.00  0.00     0.251 C 
ATOM     27  H   UNL A   1      32.703  30.270  26.119  1.00  0.00     0.163 HD
ATOM     28  O   UNL A   1      33.810  31.696  27.671  1.00  0.00    -0.269 OA
BRANCH  26  29
ATOM     29  C   UNL A   1      35.501  30.085  27.944  1.00  0.00     0.039 A 
ATOM     30  C   UNL A   1      35.541  29.680  29.284  1.00  0.00     0.014 A 
ATOM     31  C   UNL A   1      36.692  30.137  27.213  1.00  0.00     0.014 A 
ATOM     32  C   UNL A   1      36.757  29.329  29.879  1.00  0.00     0.010 A 
ATOM     33  C   UNL A   1      37.894  29.708  27.784  1.00  0.00     0.010 A 
ATOM     34  C   UNL A   1      37.948  29.336  29.136  1.00  0.00    -0.014 A 
BRANCH  34  35
ATOM     35  C   UNL A   1      39.250  29.032  29.792  1.00  0.00     0.031 A 
ATOM     36  C   UNL A   1      39.673  29.784  31.031  1.00  0.00     0.074 A 
ATOM     37  C   UNL A   1      40.055  28.079  29.284  1.00  0.00     0.049 A 
ATOM     38  N   UNL A   1      40.754  29.644  31.756  1.00  0.00    -0.248 NA
ATOM     39  C   UNL A   1      38.773  30.849  31.505  1.00  0.00     0.031 C 
ATOM     40  C   UNL A   1      39.791  27.312  28.065  1.00  0.00     0.029 A 
ATOM     41  N   UNL A   1      41.256  27.587  29.733  1.00  0.00    -0.354 N 
ATOM     42  C   UNL A   1      40.673  30.608  32.756  1.00  0.00     0.074 A 
ATOM     43  C   UNL A   1      39.463  31.361  32.514  1.00  0.00     0.031 C 
ATOM     44  C   UNL A   1      40.784  26.423  27.883  1.00  0.00     0.029 A 
ATOM     45  C   UNL A   1      41.763  26.573  28.955  1.00  0.00     0.049 A 
ATOM     46  H   UNL A   1      41.710  27.928  30.536  1.00  0.00     0.167 HD
ATOM     47  C   UNL A   1      41.513  30.832  33.796  1.00  0.00     0.037 A 
ATOM     48  C   UNL A   1      42.885  25.839  29.094  1.00  0.00     0.037 A 
ATOM     49  C   UNL A   1      42.698  30.058  34.060  1.00  0.00     0.049 A 
ATOM     50  C   UNL A   1      43.778  26.074  30.282  1.00  0.00     0.074 A 
ATOM     51  C   UNL A   1      43.590  30.178  35.113  1.00  0.00     0.029 A 
ATOM     52  N   UNL A   1      43.156  29.016  33.269  1.00  0.00    -0.354 N 
ATOM     53  N   UNL A   1      43.656  26.956  31.245  1.00  0.00    -0.248 NA
ATOM     54  C   UNL A   1      44.952  25.199  30.413  1.00  0.00     0.031 C 
ATOM     55  C   UNL A   1      44.600  29.225  34.943  1.00  0.00     0.029 A 
ATOM     56  C   UNL A   1      44.317  28.484  33.807  1.00  0.00     0.049 A 
ATOM     57  H   UNL A   1      42.719  28.698  32.446  1.00  0.00     0.167 HD
ATOM     58  C   UNL A   1      44.719  26.722  32.112  1.00  0.00     0.074 A 
ATOM     59  C   UNL A   1      45.466  25.608  31.564  1.00  0.00     0.031 C 
ATOM     60  C   UNL A   1      45.044  27.368  33.259  1.00  0.00     0.037 A 
BRANCH  47  61
ATOM     61  C   UNL A   1      41.170  31.956  34.736  1.00  0.00     0.058 A 
ATOM     62  C   UNL A   1      41.678  33.252  34.550  1.00  0.00     0.135 A 
ATOM     63  C   UNL A   1      40.304  31.744  35.821  1.00  0.00     0.135 A 
ATOM     64  F   UNL A   1      42.522  33.509  33.538  1.00  0.00    -0.206 F 
ATOM     65  C   UNL A   1      41.368  34.289  35.424  1.00  0.00     0.059 A 
ATOM     66  C   UNL A   1      39.958  32.773  36.693  1.00  0.00     0.059 A 
ATOM     67  F   UNL A   1      39.787  30.526  36.045  1.00  0.00    -0.206 F 
ATOM     68  C   UNL A   1      40.509  34.039  36.496  1.00  0.00     0.060 A 
BRANCH  68  69
ATOM     69  S   UNL A   1      40.119  35.393  37.625  1.00  0.00     0.124 S 
ATOM     70  O   UNL A   1      39.764  36.456  36.690  1.00  0.00    -0.237 OA
ATOM     71  O   UNL A   1      39.018  34.843  38.407  1.00  0.00    -0.237 OA
ATOM     72  O   UNL A   1      41.367  35.593  38.358  1.00  0.00    -0.744 OA
ENDBRANCH  68  69
ENDBRANCH  47  61
BRANCH  48  73
ATOM     73  C   UNL A   1      43.202  24.776  28.103  1.00  0.00     0.058 A 
ATOM     74  C   UNL A   1      43.838  25.085  26.892  1.00  0.00     0.135 A 
ATOM     75  C   UNL A   1      42.886  23.432  28.352  1.00  0.00     0.135 A 
ATOM     76  F   UNL A   1      44.153  26.358  26.606  1.00  0.00    -0.206 F 
ATOM     77  C   UNL A   1      44.133  24.103  25.952  1.00  0.00     0.059 A 
ATOM     78  C   UNL A   1      43.194  22.428  27.438  1.00  0.00     0.059 A 
ATOM     79  F   UNL A   1      42.291  23.083  29.503  1.00  0.00    -0.206 F 
ATOM     80  C   UNL A   1      43.807  22.776  26.235  1.00  0.00     0.060 A 
BRANCH  80  81
ATOM     81  S   UNL A   1      44.238  21.500  25.031  1.00  0.00     0.124 S 
ATOM     82  O   UNL A   1      44.157  22.241  23.778  1.00  0.00    -0.237 OA
ATOM     83  O   UNL A   1      45.578  21.112  25.458  1.00  0.00    -0.237 OA
ATOM     84  O   UNL A   1      43.207  20.487  25.235  1.00  0.00    -0.744 OA
ENDBRANCH  80  81
ENDBRANCH  48  73
BRANCH  60  85
ATOM     85  C   UNL A   1      46.233  26.854  34.024  1.00  0.00     0.058 A 
ATOM     86  C   UNL A   1      47.530  27.331  33.786  1.00  0.00     0.135 A 
ATOM     87  C   UNL A   1      46.064  25.883  35.024  1.00  0.00     0.135 A 
ATOM     88  F   UNL A   1      47.746  28.259  32.840  1.00  0.00    -0.206 F 
ATOM     89  C   UNL A   1      48.627  26.834  34.483  1.00  0.00     0.059 A 
ATOM     90  C   UNL A   1      47.142  25.390  35.752  1.00  0.00     0.059 A 
ATOM     91  F   UNL A   1      44.841  25.403  35.303  1.00  0.00    -0.206 F 
ATOM     92  C   UNL A   1      48.423  25.857  35.461  1.00  0.00     0.060 A 
BRANCH  92  93
ATOM     93  S   UNL A   1      49.851  25.215  36.360  1.00  0.00     0.124 S 
ATOM     94  O   UNL A   1      49.474  25.490  37.742  1.00  0.00    -0.237 OA
ATOM     95  O   UNL A   1      49.862  23.807  35.974  1.00  0.00    -0.237 OA
ATOM     96  O   UNL A   1      50.961  26.008  35.841  1.00  0.00    -0.744 OA
ENDBRANCH  92  93
ENDBRANCH  60  85
ENDBRANCH  34  35
ENDBRANCH  26  29
ENDBRANCH  24  25
ENDBRANCH  23  24
ENDBRANCH   1  23
TORSDOF 19
ENDMDL
MODEL 2
REMARK VINA RESULT:     -10.5      3.071      4.751
REMARK SMILES CC[NH2+][C@@](C)(C[C@@H](C)Sc1ccncc1)C(=O)NCCCNC(=O)c1ccc(-c2c3nc(c(-c4c(F)cc(S(=O)(=O)[O-])cc4F)c4ccc([nH]4)c(-c4c(F)cc(S(=O)(=O)[O-])cc4F)c4nc(c(-c5c(F)cc(S(=O)(=O)[O-])cc5F)c5ccc2[nH]5)C=C4)C=C3)cc1
REMARK SMILES IDX 19 1 18 2 16 3 17 4 4 6 5 7 3 8 2 11 1 12 6 13 7 14 8 15
REMARK SMILES IDX 9 16 10 17 11 18 15 19 12 20 14 21 13 22 20 23 21 24 22 25
REMARK SMILES IDX 23 26 24 28 25 29 26 30 90 31 27 32 89 33 28 34 29 35 30 36
REMARK SMILES IDX 83 37 31 38 88 39 82 40 84 41 32 42 87 43 81 44 80 45 33 47
REMARK SMILES IDX 67 48 46 49 66 50 47 51 50 52 65 53 85 54 48 55 49 56 64 58
REMARK SMILES IDX 86 59 51 60 34 61 35 62 44 63 36 64 37 65 43 66 45 67 38 68
REMARK SMILES IDX 39 69 40 70 41 71 42 72 68 73 69 74 78 75 70 76 71 77 77 78
REMARK SMILES IDX 79 79 72 80 73 81 74 82 75 83 76 84 52 85 53 86 62 87 54 88
REMARK SMILES IDX 55 89 61 90 63 91 56 92 57 93 58 94 59 95 60 96
REMARK H PARENT 18 5 3 9 3 10 22 27 84 46 50 57
REMARK Flexibility Score: inf
ROOT
ATOM      1  C   UNL A   1      31.501  30.753  26.591  1.00  0.00     0.118 C 
ENDROOT
BRANCH   1   2
ATOM      2  N   UNL A   1      32.788  30.099  26.448  1.00  0.00    -0.351 N 
ATOM      3  C   UNL A   1      33.259  29.083  25.676  1.00  0.00     0.281 C 
ATOM      4  O   UNL A   1      34.413  28.740  25.963  1.00  0.00    -0.268 OA
ATOM      5  H   UNL A   1      33.477  30.475  27.042  1.00  0.00     0.163 HD
BRANCH   3   6
ATOM      6  C   UNL A   1      32.424  28.384  24.535  1.00  0.00     0.173 C 
ATOM      7  C   UNL A   1      31.311  27.493  25.133  1.00  0.00     0.090 C 
BRANCH   6   8
ATOM      8  N   UNL A   1      31.756  29.407  23.664  1.00  0.00    -0.334 N 
ATOM      9  H   UNL A   1      31.907  30.323  24.085  1.00  0.00     0.347 HD
ATOM     10  H   UNL A   1      32.174  29.299  22.740  1.00  0.00     0.347 HD
BRANCH   8  11
ATOM     11  C   UNL A   1      30.312  29.234  23.470  1.00  0.00     0.257 C 
ATOM     12  C   UNL A   1      29.949  29.544  22.024  1.00  0.00     0.071 C 
ENDBRANCH   8  11
ENDBRANCH   6   8
BRANCH   6  13
ATOM     13  C   UNL A   1      33.332  27.508  23.610  1.00  0.00     0.093 C 
BRANCH  13  14
ATOM     14  C   UNL A   1      32.773  26.141  23.151  1.00  0.00     0.055 C 
ATOM     15  C   UNL A   1      32.134  26.095  21.770  1.00  0.00     0.020 C 
BRANCH  14  16
ATOM     16  S   UNL A   1      33.990  24.751  23.409  1.00  0.00    -0.123 SA
BRANCH  16  17
ATOM     17  C   UNL A   1      33.104  23.377  24.129  1.00  0.00     0.011 A 
ATOM     18  C   UNL A   1      33.288  22.044  23.780  1.00  0.00     0.035 A 
ATOM     19  C   UNL A   1      32.062  23.684  25.011  1.00  0.00     0.035 A 
ATOM     20  C   UNL A   1      32.492  21.078  24.379  1.00  0.00     0.112 A 
ATOM     21  C   UNL A   1      31.307  22.653  25.546  1.00  0.00     0.112 A 
ATOM     22  N   UNL A   1      31.523  21.353  25.271  1.00  0.00    -0.265 NA
ENDBRANCH  16  17
ENDBRANCH  14  16
ENDBRANCH  13  14
ENDBRANCH   6  13
ENDBRANCH   3   6
ENDBRANCH   1   2
BRANCH   1  23
ATOM     23  C   UNL A   1      31.624  32.272  26.607  1.00  0.00     0.042 C 
BRANCH  23  24
ATOM     24  C   UNL A   1      32.822  32.809  27.381  1.00  0.00     0.118 C 
BRANCH  24  25
ATOM     25  N   UNL A   1      32.656  34.201  27.748  1.00  0.00    -0.352 N 
ATOM     26  C   UNL A   1      33.185  34.923  28.786  1.00  0.00     0.251 C 
ATOM     27  H   UNL A   1      32.062  34.714  27.152  1.00  0.00     0.163 HD
ATOM     28  O   UNL A   1      32.692  36.022  29.037  1.00  0.00    -0.269 OA
BRANCH  26  29
ATOM     29  C   UNL A   1      34.322  34.424  29.602  1.00  0.00     0.039 A 
ATOM     30  C   UNL A   1      35.612  34.544  29.072  1.00  0.00     0.014 A 
ATOM     31  C   UNL A   1      34.143  33.743  30.809  1.00  0.00     0.014 A 
ATOM     32  C   UNL A   1      36.706  33.990  29.745  1.00  0.00     0.010 A 
ATOM     33  C   UNL A   1      35.245  33.261  31.522  1.00  0.00     0.010 A 
ATOM     34  C   UNL A   1      36.536  33.344  30.980  1.00  0.00    -0.014 A 
BRANCH  34  35
ATOM     35  C   UNL A   1      37.692  32.694  31.658  1.00  0.00     0.031 A 
ATOM     36  C   UNL A   1      38.167  33.195  33.001  1.00  0.00     0.074 A 
ATOM     37  C   UNL A   1      38.315  31.650  31.077  1.00  0.00     0.049 A 
ATOM     38  N   UNL A   1      39.137  32.744  33.756  1.00  0.00    -0.248 NA
ATOM     39  C   UNL A   1      37.478  34.371  33.557  1.00  0.00     0.031 C 
ATOM     40  C   UNL A   1      37.989  31.098  29.761  1.00  0.00     0.029 A 
ATOM     41  N   UNL A   1      39.348  30.863  31.522  1.00  0.00    -0.354 N 
ATOM     42  C   UNL A   1      39.185  33.587  34.863  1.00  0.00     0.074 A 
ATOM     43  C   UNL A   1      38.181  34.607  34.655  1.00  0.00     0.031 C 
ATOM     44  C   UNL A   1      38.784  30.041  29.520  1.00  0.00     0.029 A 
ATOM     45  C   UNL A   1      39.689  29.855  30.651  1.00  0.00     0.049 A 
ATOM     46  H   UNL A   1      39.802  31.007  32.383  1.00  0.00     0.167 HD
ATOM     47  C   UNL A   1      39.971  33.507  35.964  1.00  0.00     0.037 A 
ATOM     48  C   UNL A   1      40.618  28.884  30.754  1.00  0.00     0.037 A 
ATOM     49  C   UNL A   1      40.945  32.470  36.189  1.00  0.00     0.049 A 
ATOM     50  C   UNL A   1      41.447  28.787  32.006  1.00  0.00     0.074 A 
ATOM     51  C   UNL A   1      41.760  32.277  37.292  1.00  0.00     0.029 A 
ATOM     52  N   UNL A   1      41.232  31.447  35.299  1.00  0.00    -0.354 N 
ATOM     53  N   UNL A   1      41.441  29.563  33.063  1.00  0.00    -0.248 NA
ATOM     54  C   UNL A   1      42.399  27.670  32.086  1.00  0.00     0.031 C 
ATOM     55  C   UNL A   1      42.558  31.151  37.057  1.00  0.00     0.029 A 
ATOM     56  C   UNL A   1      42.212  30.620  35.825  1.00  0.00     0.049 A 
ATOM     57  H   UNL A   1      40.802  31.324  34.422  1.00  0.00     0.167 HD
ATOM     58  C   UNL A   1      42.362  29.010  33.947  1.00  0.00     0.074 A 
ATOM     59  C   UNL A   1      42.899  27.828  33.303  1.00  0.00     0.031 C 
ATOM     60  C   UNL A   1      42.728  29.440  35.180  1.00  0.00     0.037 A 
BRANCH  47  61
ATOM     61  C   UNL A   1      39.802  34.569  37.017  1.00  0.00     0.058 A 
ATOM     62  C   UNL A   1      38.996  34.361  38.148  1.00  0.00     0.135 A 
ATOM     63  C   UNL A   1      40.472  35.798  36.908  1.00  0.00     0.135 A 
ATOM     64  F   UNL A   1      38.321  33.211  38.296  1.00  0.00    -0.206 F 
ATOM     65  C   UNL A   1      38.833  35.347  39.117  1.00  0.00     0.059 A 
ATOM     66  C   UNL A   1      40.345  36.788  37.880  1.00  0.00     0.059 A 
ATOM     67  F   UNL A   1      41.257  36.049  35.850  1.00  0.00    -0.206 F 
ATOM     68  C   UNL A   1      39.509  36.559  38.972  1.00  0.00     0.060 A 
BRANCH  68  69
ATOM     69  S   UNL A   1      39.284  37.830  40.234  1.00  0.00     0.124 S 
ATOM     70  O   UNL A   1      38.961  37.020  41.405  1.00  0.00    -0.237 OA
ATOM     71  O   UNL A   1      40.587  38.485  40.258  1.00  0.00    -0.237 OA
ATOM     72  O   UNL A   1      38.188  38.640  39.709  1.00  0.00    -0.744 OA
ENDBRANCH  68  69
ENDBRANCH  47  61
BRANCH  48  73
ATOM     73  C   UNL A   1      40.779  27.894  29.657  1.00  0.00     0.058 A 
ATOM     74  C   UNL A   1      39.860  26.848  29.487  1.00  0.00     0.135 A 
ATOM     75  C   UNL A   1      41.848  27.979  28.752  1.00  0.00     0.135 A 
ATOM     76  F   UNL A   1      38.826  26.721  30.332  1.00  0.00    -0.206 F 
ATOM     77  C   UNL A   1      40.003  25.909  28.470  1.00  0.00     0.059 A 
ATOM     78  C   UNL A   1      41.999  27.067  27.712  1.00  0.00     0.059 A 
ATOM     79  F   UNL A   1      42.746  28.971  28.863  1.00  0.00    -0.206 F 
ATOM     80  C   UNL A   1      41.077  26.028  27.587  1.00  0.00     0.060 A 
BRANCH  80  81
ATOM     81  S   UNL A   1      41.229  24.834  26.239  1.00  0.00     0.124 S 
ATOM     82  O   UNL A   1      41.148  25.701  25.070  1.00  0.00    -0.237 OA
ATOM     83  O   UNL A   1      42.534  24.236  26.502  1.00  0.00    -0.237 OA
ATOM     84  O   UNL A   1      40.089  23.947  26.449  1.00  0.00    -0.744 OA
ENDBRANCH  80  81
ENDBRANCH  48  73
BRANCH  60  85
ATOM     85  C   UNL A   1      43.721  28.599  35.934  1.00  0.00     0.058 A 
ATOM     86  C   UNL A   1      45.096  28.879  35.915  1.00  0.00     0.135 A 
ATOM     87  C   UNL A   1      43.285  27.508  36.703  1.00  0.00     0.135 A 
ATOM     88  F   UNL A   1      45.566  29.910  35.195  1.00  0.00    -0.206 F 
ATOM     89  C   UNL A   1      46.009  28.082  36.597  1.00  0.00     0.059 A 
ATOM     90  C   UNL A   1      44.177  26.713  37.415  1.00  0.00     0.059 A 
ATOM     91  F   UNL A   1      41.978  27.205  36.769  1.00  0.00    -0.206 F 
ATOM     92  C   UNL A   1      45.540  26.996  37.341  1.00  0.00     0.060 A 
BRANCH  92  93
ATOM     93  S   UNL A   1      46.732  25.965  38.222  1.00  0.00     0.124 S 
ATOM     94  O   UNL A   1      46.502  24.661  37.609  1.00  0.00    -0.237 OA
ATOM     95  O   UNL A   1      48.004  26.603  37.898  1.00  0.00    -0.237 OA
ATOM     96  O   UNL A   1      46.316  26.086  39.616  1.00  0.00    -0.744 OA
ENDBRANCH  92  93
ENDBRANCH  60  85
ENDBRANCH  34  35
ENDBRANCH  26  29
ENDBRANCH  24  25
ENDBRANCH  23  24
ENDBRANCH   1  23
TORSDOF 19
ENDMDL
MODEL 3
REMARK VINA RESULT:     -10.5      1.899      2.713
REMARK SMILES CC[NH2+][C@@](C)(C[C@@H](C)Sc1ccncc1)C(=O)NCCCNC(=O)c1ccc(-c2c3nc(c(-c4c(F)cc(S(=O)(=O)[O-])cc4F)c4ccc([nH]4)c(-c4c(F)cc(S(=O)(=O)[O-])cc4F)c4nc(c(-c5c(F)cc(S(=O)(=O)[O-])cc5F)c5ccc2[nH]5)C=C4)C=C3)cc1
REMARK SMILES IDX 19 1 18 2 16 3 17 4 4 6 5 7 3 8 2 11 1 12 6 13 7 14 8 15
REMARK SMILES IDX 9 16 10 17 11 18 15 19 12 20 14 21 13 22 20 23 21 24 22 25
REMARK SMILES IDX 23 26 24 28 25 29 26 30 90 31 27 32 89 33 28 34 29 35 30 36
REMARK SMILES IDX 83 37 31 38 88 39 82 40 84 41 32 42 87 43 81 44 80 45 33 47
REMARK SMILES IDX 67 48 46 49 66 50 47 51 50 52 65 53 85 54 48 55 49 56 64 58
REMARK SMILES IDX 86 59 51 60 34 61 35 62 44 63 36 64 37 65 43 66 45 67 38 68
REMARK SMILES IDX 39 69 40 70 41 71 42 72 68 73 69 74 78 75 70 76 71 77 77 78
REMARK SMILES IDX 79 79 72 80 73 81 74 82 75 83 76 84 52 85 53 86 62 87 54 88
REMARK SMILES IDX 55 89 61 90 63 91 56 92 57 93 58 94 59 95 60 96
REMARK H PARENT 18 5 3 9 3 10 22 27 84 46 50 57
REMARK Flexibility Score: inf
ROOT
ATOM      1  C   UNL A   1      31.712  27.863  26.805  1.00  0.00     0.118 C 
ENDROOT
BRANCH   1   2
ATOM      2  N   UNL A   1      31.033  26.581  26.840  1.00  0.00    -0.351 N 
ATOM      3  C   UNL A   1      30.276  25.880  25.954  1.00  0.00     0.281 C 
ATOM      4  O   UNL A   1      29.767  24.861  26.438  1.00  0.00    -0.268 OA
ATOM      5  H   UNL A   1      31.147  26.111  27.697  1.00  0.00     0.163 HD
BRANCH   3   6
ATOM      6  C   UNL A   1      30.040  26.318  24.457  1.00  0.00     0.173 C 
ATOM      7  C   UNL A   1      28.530  26.377  24.131  1.00  0.00     0.090 C 
BRANCH   6   8
ATOM      8  N   UNL A   1      30.603  27.686  24.209  1.00  0.00    -0.334 N 
ATOM      9  H   UNL A   1      29.895  28.369  24.476  1.00  0.00     0.347 HD
ATOM     10  H   UNL A   1      31.459  27.738  24.761  1.00  0.00     0.347 HD
BRANCH   8  11
ATOM     11  C   UNL A   1      31.002  27.971  22.827  1.00  0.00     0.257 C 
ATOM     12  C   UNL A   1      30.390  29.292  22.379  1.00  0.00     0.071 C 
ENDBRANCH   8  11
ENDBRANCH   6   8
BRANCH   6  13
ATOM     13  C   UNL A   1      30.736  25.340  23.454  1.00  0.00     0.093 C 
BRANCH  13  14
ATOM     14  C   UNL A   1      31.947  24.530  23.973  1.00  0.00     0.055 C 
ATOM     15  C   UNL A   1      31.791  23.016  24.004  1.00  0.00     0.020 C 
BRANCH  14  16
ATOM     16  S   UNL A   1      33.549  25.054  23.176  1.00  0.00    -0.123 SA
BRANCH  16  17
ATOM     17  C   UNL A   1      34.872  24.143  23.959  1.00  0.00     0.011 A 
ATOM     18  C   UNL A   1      35.621  23.147  23.344  1.00  0.00     0.035 A 
ATOM     19  C   UNL A   1      35.072  24.361  25.326  1.00  0.00     0.035 A 
ATOM     20  C   UNL A   1      36.585  22.478  24.086  1.00  0.00     0.112 A 
ATOM     21  C   UNL A   1      36.045  23.632  25.989  1.00  0.00     0.112 A 
ATOM     22  N   UNL A   1      36.827  22.716  25.387  1.00  0.00    -0.265 NA
ENDBRANCH  16  17
ENDBRANCH  14  16
ENDBRANCH  13  14
ENDBRANCH   6  13
ENDBRANCH   3   6
ENDBRANCH   1   2
BRANCH   1  23
ATOM     23  C   UNL A   1      33.225  27.713  26.720  1.00  0.00     0.042 C 
BRANCH  23  24
ATOM     24  C   UNL A   1      33.922  28.741  25.838  1.00  0.00     0.118 C 
BRANCH  24  25
ATOM     25  N   UNL A   1      33.770  30.090  26.346  1.00  0.00    -0.352 N 
ATOM     26  C   UNL A   1      34.446  30.755  27.337  1.00  0.00     0.251 C 
ATOM     27  H   UNL A   1      33.062  30.616  25.908  1.00  0.00     0.163 HD
ATOM     28  O   UNL A   1      33.964  31.803  27.763  1.00  0.00    -0.269 OA
BRANCH  26  29
ATOM     29  C   UNL A   1      35.727  30.254  27.898  1.00  0.00     0.039 A 
ATOM     30  C   UNL A   1      35.707  29.686  29.177  1.00  0.00     0.014 A 
ATOM     31  C   UNL A   1      36.955  30.434  27.253  1.00  0.00     0.014 A 
ATOM     32  C   UNL A   1      36.899  29.302  29.798  1.00  0.00     0.010 A 
ATOM     33  C   UNL A   1      38.138  29.975  27.839  1.00  0.00     0.010 A 
ATOM     34  C   UNL A   1      38.130  29.439  29.135  1.00  0.00    -0.014 A 
BRANCH  34  35
ATOM     35  C   UNL A   1      39.403  29.096  29.828  1.00  0.00     0.031 A 
ATOM     36  C   UNL A   1      39.803  29.821  31.090  1.00  0.00     0.074 A 
ATOM     37  C   UNL A   1      40.202  28.132  29.331  1.00  0.00     0.049 A 
ATOM     38  N   UNL A   1      40.858  29.647  31.847  1.00  0.00    -0.248 NA
ATOM     39  C   UNL A   1      38.913  30.900  31.551  1.00  0.00     0.031 C 
ATOM     40  C   UNL A   1      39.960  27.388  28.094  1.00  0.00     0.029 A 
ATOM     41  N   UNL A   1      41.377  27.606  29.811  1.00  0.00    -0.354 N 
ATOM     42  C   UNL A   1      40.767  30.599  32.857  1.00  0.00     0.074 A 
ATOM     43  C   UNL A   1      39.582  31.383  32.588  1.00  0.00     0.031 C 
ATOM     44  C   UNL A   1      40.938  26.480  27.930  1.00  0.00     0.029 A 
ATOM     45  C   UNL A   1      41.886  26.592  29.034  1.00  0.00     0.049 A 
ATOM     46  H   UNL A   1      41.813  27.926  30.633  1.00  0.00     0.167 HD
ATOM     47  C   UNL A   1      41.578  30.788  33.927  1.00  0.00     0.037 A 
ATOM     48  C   UNL A   1      42.986  25.830  29.198  1.00  0.00     0.037 A 
ATOM     49  C   UNL A   1      42.737  29.985  34.216  1.00  0.00     0.049 A 
ATOM     50  C   UNL A   1      43.846  26.029  30.417  1.00  0.00     0.074 A 
ATOM     51  C   UNL A   1      43.597  30.070  35.298  1.00  0.00     0.029 A 
ATOM     52  N   UNL A   1      43.196  28.943  33.425  1.00  0.00    -0.354 N 
ATOM     53  N   UNL A   1      43.713  26.900  31.388  1.00  0.00    -0.248 NA
ATOM     54  C   UNL A   1      44.995  25.126  30.571  1.00  0.00     0.031 C 
ATOM     55  C   UNL A   1      44.591  29.096  35.146  1.00  0.00     0.029 A 
ATOM     56  C   UNL A   1      44.327  28.378  33.992  1.00  0.00     0.049 A 
ATOM     57  H   UNL A   1      42.778  28.646  32.584  1.00  0.00     0.167 HD
ATOM     58  C   UNL A   1      44.742  26.630  32.284  1.00  0.00     0.074 A 
ATOM     59  C   UNL A   1      45.482  25.507  31.744  1.00  0.00     0.031 C 
ATOM     60  C   UNL A   1      45.046  27.253  33.450  1.00  0.00     0.037 A 
BRANCH  47  61
ATOM     61  C   UNL A   1      41.231  31.908  34.872  1.00  0.00     0.058 A 
ATOM     62  C   UNL A   1      41.800  33.185  34.741  1.00  0.00     0.135 A 
ATOM     63  C   UNL A   1      40.299  31.710  35.904  1.00  0.00     0.135 A 
ATOM     64  F   UNL A   1      42.708  33.426  33.782  1.00  0.00    -0.206 F 
ATOM     65  C   UNL A   1      41.486  34.216  35.620  1.00  0.00     0.059 A 
ATOM     66  C   UNL A   1      39.949  32.736  36.778  1.00  0.00     0.059 A 
ATOM     67  F   UNL A   1      39.722  30.511  36.073  1.00  0.00    -0.206 F 
ATOM     68  C   UNL A   1      40.561  33.981  36.639  1.00  0.00     0.060 A 
BRANCH  68  69
ATOM     69  S   UNL A   1      40.166  35.327  37.775  1.00  0.00     0.124 S 
ATOM     70  O   UNL A   1      39.009  34.781  38.479  1.00  0.00    -0.237 OA
ATOM     71  O   UNL A   1      41.388  35.445  38.562  1.00  0.00    -0.237 OA
ATOM     72  O   UNL A   1      39.886  36.450  36.885  1.00  0.00    -0.744 OA
ENDBRANCH  68  69
ENDBRANCH  47  61
BRANCH  48  73
ATOM     73  C   UNL A   1      43.311  24.775  28.202  1.00  0.00     0.058 A 
ATOM     74  C   UNL A   1      42.908  23.446  28.401  1.00  0.00     0.135 A 
ATOM     75  C   UNL A   1      44.020  25.075  27.029  1.00  0.00     0.135 A 
ATOM     76  F   UNL A   1      42.233  23.109  29.512  1.00  0.00    -0.206 F 
ATOM     77  C   UNL A   1      43.212  22.447  27.483  1.00  0.00     0.059 A 
ATOM     78  C   UNL A   1      44.314  24.097  26.084  1.00  0.00     0.059 A 
ATOM     79  F   UNL A   1      44.414  26.334  26.785  1.00  0.00    -0.206 F 
ATOM     80  C   UNL A   1      43.916  22.783  26.326  1.00  0.00     0.060 A 
BRANCH  80  81
ATOM     81  S   UNL A   1      44.264  21.488  25.115  1.00  0.00     0.124 S 
ATOM     82  O   UNL A   1      44.076  22.204  23.859  1.00  0.00    -0.237 OA
ATOM     83  O   UNL A   1      45.638  21.121  25.441  1.00  0.00    -0.237 OA
ATOM     84  O   UNL A   1      43.264  20.470  25.417  1.00  0.00    -0.744 OA
ENDBRANCH  80  81
ENDBRANCH  48  73
BRANCH  60  85
ATOM     85  C   UNL A   1      46.198  26.702  34.245  1.00  0.00     0.058 A 
ATOM     86  C   UNL A   1      47.511  27.161  34.063  1.00  0.00     0.135 A 
ATOM     87  C   UNL A   1      45.978  25.711  35.216  1.00  0.00     0.135 A 
ATOM     88  F   UNL A   1      47.776  28.105  33.147  1.00  0.00    -0.206 F 
ATOM     89  C   UNL A   1      48.573  26.629  34.786  1.00  0.00     0.059 A 
ATOM     90  C   UNL A   1      47.021  25.184  35.970  1.00  0.00     0.059 A 
ATOM     91  F   UNL A   1      44.737  25.247  35.441  1.00  0.00    -0.206 F 
ATOM     92  C   UNL A   1      48.319  25.635  35.734  1.00  0.00     0.060 A 
BRANCH  92  93
ATOM     93  S   UNL A   1      49.703  24.948  36.668  1.00  0.00     0.124 S 
ATOM     94  O   UNL A   1      50.752  25.927  36.400  1.00  0.00    -0.237 OA
ATOM     95  O   UNL A   1      49.186  24.929  38.033  1.00  0.00    -0.237 OA
ATOM     96  O   UNL A   1      49.900  23.634  36.063  1.00  0.00    -0.744 OA
ENDBRANCH  92  93
ENDBRANCH  60  85
ENDBRANCH  34  35
ENDBRANCH  26  29
ENDBRANCH  24  25
ENDBRANCH  23  24
ENDBRANCH   1  23
TORSDOF 19
ENDMDL
