MODEL 1
REMARK VINA RESULT:     -11.8      0.000      0.000
REMARK SMILES O=C(Cc1ccccc1-c1ccn(C(F)F)c(=O)c1)NCCCNC(=O)c1ccc(-c2c3nc(c(-c4c(F)cc(S(=O)(=O)[O-])cc4F)c4ccc([nH]4)c(-c4c(F)cc(S(=O)(=O)[O-])cc4F)c4nc(c(-c5c(F)cc(S(=O)(=O)[O-])cc5F)c5ccc2[nH]5)C=C4)C=C3)cc1
REMARK SMILES IDX 22 1 21 2 20 3 1 4 2 5 3 7 4 8 5 9 9 10 6 11 8 12 7 13 10 14
REMARK SMILES IDX 11 15 19 16 12 17 17 18 13 19 18 20 14 21 15 22 16 23 23 24
REMARK SMILES IDX 24 25 25 26 26 28 27 29 28 30 92 31 29 32 91 33 30 34 31 35
REMARK SMILES IDX 32 36 85 37 33 38 90 39 84 40 86 41 34 42 89 43 83 44 82 45
REMARK SMILES IDX 35 47 69 48 48 49 68 50 49 51 52 52 67 53 87 54 50 55 51 56
REMARK SMILES IDX 66 58 88 59 53 60 36 61 37 62 46 63 38 64 39 65 45 66 47 67
REMARK SMILES IDX 40 68 41 69 42 70 43 71 44 72 70 73 71 74 80 75 72 76 73 77
REMARK SMILES IDX 79 78 81 79 74 80 75 81 76 82 77 83 78 84 54 85 55 86 64 87
REMARK SMILES IDX 56 88 57 89 63 90 65 91 58 92 59 93 60 94 61 95 62 96
REMARK H PARENT 20 6 24 27 86 46 52 57
REMARK Flexibility Score: inf
ROOT
ATOM      1  C   UNL A   1      33.900  28.252  25.778  1.00  0.00     0.042 C 
ENDROOT
BRANCH   1   2
ATOM      2  C   UNL A   1      33.196  27.074  25.114  1.00  0.00     0.117 C 
BRANCH   2   3
ATOM      3  N   UNL A   1      33.582  25.807  25.702  1.00  0.00    -0.356 N 
ATOM      4  O   UNL A   1      34.358  24.842  23.763  1.00  0.00    -0.275 OA
ATOM      5  C   UNL A   1      34.131  24.779  24.968  1.00  0.00     0.224 C 
ATOM      6  H   UNL A   1      33.447  25.676  26.668  1.00  0.00     0.163 HD
BRANCH   5   7
ATOM      7  C   UNL A   1      34.385  23.515  25.768  1.00  0.00     0.136 C 
BRANCH   7   8
ATOM      8  C   UNL A   1      35.829  23.048  25.757  1.00  0.00    -0.031 A 
ATOM      9  C   UNL A   1      36.829  23.945  26.180  1.00  0.00     0.005 A 
ATOM     10  C   UNL A   1      36.213  21.764  25.308  1.00  0.00    -0.014 A 
ATOM     11  C   UNL A   1      38.173  23.575  26.186  1.00  0.00     0.000 A 
ATOM     12  C   UNL A   1      37.574  21.412  25.305  1.00  0.00     0.009 A 
ATOM     13  C   UNL A   1      38.546  22.310  25.747  1.00  0.00     0.001 A 
BRANCH  10  14
ATOM     14  C   UNL A   1      35.221  20.758  24.868  1.00  0.00    -0.011 A 
ATOM     15  C   UNL A   1      33.846  21.086  24.544  1.00  0.00     0.027 A 
ATOM     16  C   UNL A   1      35.610  19.471  24.840  1.00  0.00     0.080 A 
ATOM     17  C   UNL A   1      32.953  20.116  24.316  1.00  0.00     0.095 A 
ATOM     18  C   UNL A   1      34.638  18.385  24.541  1.00  0.00     0.255 A 
ATOM     19  N   UNL A   1      33.329  18.786  24.337  1.00  0.00    -0.258 N 
ATOM     20  O   UNL A   1      35.049  17.229  24.532  1.00  0.00    -0.269 OA
BRANCH  19  21
ATOM     21  C   UNL A   1      32.353  17.742  24.145  1.00  0.00     0.451 C 
ATOM     22  F   UNL A   1      32.755  16.871  23.190  1.00  0.00    -0.185 F 
ATOM     23  F   UNL A   1      32.155  17.054  25.294  1.00  0.00    -0.185 F 
ENDBRANCH  19  21
ENDBRANCH  10  14
ENDBRANCH   7   8
ENDBRANCH   5   7
ENDBRANCH   2   3
ENDBRANCH   1   2
BRANCH   1  24
ATOM     24  C   UNL A   1      33.517  28.473  27.239  1.00  0.00     0.118 C 
BRANCH  24  25
ATOM     25  N   UNL A   1      33.462  29.881  27.609  1.00  0.00    -0.352 N 
ATOM     26  C   UNL A   1      34.420  30.672  28.198  1.00  0.00     0.251 C 
ATOM     27  H   UNL A   1      32.612  30.334  27.407  1.00  0.00     0.163 HD
ATOM     28  O   UNL A   1      34.128  31.806  28.567  1.00  0.00    -0.269 OA
BRANCH  26  29
ATOM     29  C   UNL A   1      35.787  30.148  28.417  1.00  0.00     0.039 A 
ATOM     30  C   UNL A   1      36.691  30.146  27.351  1.00  0.00     0.014 A 
ATOM     31  C   UNL A   1      36.180  29.665  29.669  1.00  0.00     0.014 A 
ATOM     32  C   UNL A   1      38.011  29.735  27.559  1.00  0.00     0.010 A 
ATOM     33  C   UNL A   1      37.513  29.326  29.891  1.00  0.00     0.010 A 
ATOM     34  C   UNL A   1      38.444  29.361  28.841  1.00  0.00    -0.014 A 
BRANCH  34  35
ATOM     35  C   UNL A   1      39.860  29.002  29.120  1.00  0.00     0.031 A 
ATOM     36  C   UNL A   1      40.809  30.047  29.643  1.00  0.00     0.074 A 
ATOM     37  C   UNL A   1      40.314  27.770  28.814  1.00  0.00     0.049 A 
ATOM     38  N   UNL A   1      42.105  29.981  29.804  1.00  0.00    -0.248 NA
ATOM     39  C   UNL A   1      40.223  31.347  30.005  1.00  0.00     0.031 C 
ATOM     40  C   UNL A   1      39.504  26.676  28.275  1.00  0.00     0.029 A 
ATOM     41  N   UNL A   1      41.578  27.236  28.893  1.00  0.00    -0.354 N 
ATOM     42  C   UNL A   1      42.494  31.235  30.261  1.00  0.00     0.074 A 
ATOM     43  C   UNL A   1      41.303  32.054  30.310  1.00  0.00     0.031 C 
ATOM     44  C   UNL A   1      40.286  25.603  28.078  1.00  0.00     0.029 A 
ATOM     45  C   UNL A   1      41.661  25.943  28.429  1.00  0.00     0.049 A 
ATOM     46  H   UNL A   1      42.351  27.732  29.246  1.00  0.00     0.167 HD
ATOM     47  C   UNL A   1      43.729  31.660  30.622  1.00  0.00     0.037 A 
ATOM     48  C   UNL A   1      42.727  25.131  28.282  1.00  0.00     0.037 A 
ATOM     49  C   UNL A   1      44.906  30.833  30.592  1.00  0.00     0.049 A 
ATOM     50  C   UNL A   1      44.091  25.629  28.677  1.00  0.00     0.074 A 
ATOM     51  C   UNL A   1      46.195  31.156  30.983  1.00  0.00     0.029 A 
ATOM     52  N   UNL A   1      44.942  29.519  30.147  1.00  0.00    -0.354 N 
ATOM     53  N   UNL A   1      44.435  26.804  29.150  1.00  0.00    -0.248 NA
ATOM     54  C   UNL A   1      45.214  24.692  28.525  1.00  0.00     0.031 C 
ATOM     55  C   UNL A   1      47.018  30.052  30.733  1.00  0.00     0.029 A 
ATOM     56  C   UNL A   1      46.232  29.023  30.239  1.00  0.00     0.049 A 
ATOM     57  H   UNL A   1      44.165  29.014  29.815  1.00  0.00     0.167 HD
ATOM     58  C   UNL A   1      45.804  26.733  29.385  1.00  0.00     0.074 A 
ATOM     59  C   UNL A   1      46.226  25.402  29.006  1.00  0.00     0.031 C 
ATOM     60  C   UNL A   1      46.635  27.686  29.878  1.00  0.00     0.037 A 
BRANCH  47  61
ATOM     61  C   UNL A   1      43.869  33.087  31.079  1.00  0.00     0.058 A 
ATOM     62  C   UNL A   1      43.733  33.447  32.429  1.00  0.00     0.135 A 
ATOM     63  C   UNL A   1      44.180  34.104  30.161  1.00  0.00     0.135 A 
ATOM     64  F   UNL A   1      43.423  32.519  33.348  1.00  0.00    -0.206 F 
ATOM     65  C   UNL A   1      43.869  34.767  32.848  1.00  0.00     0.059 A 
ATOM     66  C   UNL A   1      44.351  35.426  30.562  1.00  0.00     0.059 A 
ATOM     67  F   UNL A   1      44.325  33.817  28.857  1.00  0.00    -0.206 F 
ATOM     68  C   UNL A   1      44.178  35.749  31.907  1.00  0.00     0.060 A 
BRANCH  68  69
ATOM     69  S   UNL A   1      44.361  37.455  32.471  1.00  0.00     0.124 S 
ATOM     70  O   UNL A   1      44.030  38.199  31.260  1.00  0.00    -0.237 OA
ATOM     71  O   UNL A   1      43.382  37.534  33.550  1.00  0.00    -0.237 OA
ATOM     72  O   UNL A   1      45.758  37.528  32.890  1.00  0.00    -0.744 OA
ENDBRANCH  68  69
ENDBRANCH  47  61
BRANCH  48  73
ATOM     73  C   UNL A   1      42.545  23.753  27.747  1.00  0.00     0.058 A 
ATOM     74  C   UNL A   1      42.431  23.525  26.368  1.00  0.00     0.135 A 
ATOM     75  C   UNL A   1      42.492  22.639  28.598  1.00  0.00     0.135 A 
ATOM     76  F   UNL A   1      42.469  24.560  25.513  1.00  0.00    -0.206 F 
ATOM     77  C   UNL A   1      42.253  22.246  25.851  1.00  0.00     0.059 A 
ATOM     78  C   UNL A   1      42.340  21.346  28.105  1.00  0.00     0.059 A 
ATOM     79  F   UNL A   1      42.611  22.799  29.926  1.00  0.00    -0.206 F 
ATOM     80  C   UNL A   1      42.211  21.162  26.728  1.00  0.00     0.060 A 
BRANCH  80  81
ATOM     81  S   UNL A   1      42.024  19.501  26.043  1.00  0.00     0.124 S 
ATOM     82  O   UNL A   1      40.583  19.436  25.824  1.00  0.00    -0.237 OA
ATOM     83  O   UNL A   1      42.851  19.570  24.844  1.00  0.00    -0.237 OA
ATOM     84  O   UNL A   1      42.540  18.641  27.104  1.00  0.00    -0.744 OA
ENDBRANCH  80  81
ENDBRANCH  48  73
BRANCH  60  85
ATOM     85  C   UNL A   1      48.076  27.313  30.095  1.00  0.00     0.058 A 
ATOM     86  C   UNL A   1      49.054  27.521  29.112  1.00  0.00     0.135 A 
ATOM     87  C   UNL A   1      48.492  26.805  31.337  1.00  0.00     0.135 A 
ATOM     88  F   UNL A   1      48.711  27.997  27.905  1.00  0.00    -0.206 F 
ATOM     89  C   UNL A   1      50.394  27.225  29.348  1.00  0.00     0.059 A 
ATOM     90  C   UNL A   1      49.828  26.529  31.604  1.00  0.00     0.059 A 
ATOM     91  F   UNL A   1      47.596  26.595  32.316  1.00  0.00    -0.206 F 
ATOM     92  C   UNL A   1      50.772  26.734  30.599  1.00  0.00     0.060 A 
BRANCH  92  93
ATOM     93  S   UNL A   1      52.520  26.403  30.908  1.00  0.00     0.124 S 
ATOM     94  O   UNL A   1      52.452  25.186  31.711  1.00  0.00    -0.237 OA
ATOM     95  O   UNL A   1      53.051  26.243  29.558  1.00  0.00    -0.237 OA
ATOM     96  O   UNL A   1      52.973  27.596  31.616  1.00  0.00    -0.744 OA
ENDBRANCH  92  93
ENDBRANCH  60  85
ENDBRANCH  34  35
ENDBRANCH  26  29
ENDBRANCH  24  25
ENDBRANCH   1  24
TORSDOF 16
ENDMDL
MODEL 2
REMARK VINA RESULT:     -11.6      5.062      6.889
REMARK SMILES O=C(Cc1ccccc1-c1ccn(C(F)F)c(=O)c1)NCCCNC(=O)c1ccc(-c2c3nc(c(-c4c(F)cc(S(=O)(=O)[O-])cc4F)c4ccc([nH]4)c(-c4c(F)cc(S(=O)(=O)[O-])cc4F)c4nc(c(-c5c(F)cc(S(=O)(=O)[O-])cc5F)c5ccc2[nH]5)C=C4)C=C3)cc1
REMARK SMILES IDX 22 1 21 2 20 3 1 4 2 5 3 7 4 8 5 9 9 10 6 11 8 12 7 13 10 14
REMARK SMILES IDX 11 15 19 16 12 17 17 18 13 19 18 20 14 21 15 22 16 23 23 24
REMARK SMILES IDX 24 25 25 26 26 28 27 29 28 30 92 31 29 32 91 33 30 34 31 35
REMARK SMILES IDX 32 36 85 37 33 38 90 39 84 40 86 41 34 42 89 43 83 44 82 45
REMARK SMILES IDX 35 47 69 48 48 49 68 50 49 51 52 52 67 53 87 54 50 55 51 56
REMARK SMILES IDX 66 58 88 59 53 60 36 61 37 62 46 63 38 64 39 65 45 66 47 67
REMARK SMILES IDX 40 68 41 69 42 70 43 71 44 72 70 73 71 74 80 75 72 76 73 77
REMARK SMILES IDX 79 78 81 79 74 80 75 81 76 82 77 83 78 84 54 85 55 86 64 87
REMARK SMILES IDX 56 88 57 89 63 90 65 91 58 92 59 93 60 94 61 95 62 96
REMARK H PARENT 20 6 24 27 86 46 52 57
REMARK Flexibility Score: inf
ROOT
ATOM      1  C   UNL A   1      31.669  32.249  26.706  1.00  0.00     0.042 C 
ENDROOT
BRANCH   1   2
ATOM      2  C   UNL A   1      31.787  30.730  26.634  1.00  0.00     0.117 C 
BRANCH   2   3
ATOM      3  N   UNL A   1      31.367  30.212  25.347  1.00  0.00    -0.356 N 
ATOM      4  O   UNL A   1      33.024  28.629  25.146  1.00  0.00    -0.275 OA
ATOM      5  C   UNL A   1      32.033  29.197  24.697  1.00  0.00     0.224 C 
ATOM      6  H   UNL A   1      30.572  30.604  24.919  1.00  0.00     0.163 HD
BRANCH   5   7
ATOM      7  C   UNL A   1      31.471  28.867  23.327  1.00  0.00     0.136 C 
BRANCH   7   8
ATOM      8  C   UNL A   1      29.961  28.725  23.289  1.00  0.00    -0.031 A 
ATOM      9  C   UNL A   1      29.190  29.837  22.897  1.00  0.00     0.005 A 
ATOM     10  C   UNL A   1      29.296  27.535  23.663  1.00  0.00    -0.014 A 
ATOM     11  C   UNL A   1      27.798  29.767  22.849  1.00  0.00     0.000 A 
ATOM     12  C   UNL A   1      27.891  27.487  23.625  1.00  0.00     0.009 A 
ATOM     13  C   UNL A   1      27.148  28.594  23.214  1.00  0.00     0.001 A 
BRANCH  10  14
ATOM     14  C   UNL A   1      30.034  26.318  24.066  1.00  0.00    -0.011 A 
ATOM     15  C   UNL A   1      30.498  25.320  23.120  1.00  0.00     0.027 A 
ATOM     16  C   UNL A   1      30.215  26.105  25.381  1.00  0.00     0.080 A 
ATOM     17  C   UNL A   1      31.010  24.162  23.553  1.00  0.00     0.095 A 
ATOM     18  C   UNL A   1      30.827  24.842  25.875  1.00  0.00     0.255 A 
ATOM     19  N   UNL A   1      31.152  23.910  24.904  1.00  0.00    -0.258 N 
ATOM     20  O   UNL A   1      30.965  24.702  27.086  1.00  0.00    -0.269 OA
BRANCH  19  21
ATOM     21  C   UNL A   1      31.653  22.639  25.368  1.00  0.00     0.451 C 
ATOM     22  F   UNL A   1      30.648  21.865  25.841  1.00  0.00    -0.185 F 
ATOM     23  F   UNL A   1      32.270  21.972  24.364  1.00  0.00    -0.185 F 
ENDBRANCH  19  21
ENDBRANCH  10  14
ENDBRANCH   7   8
ENDBRANCH   5   7
ENDBRANCH   2   3
ENDBRANCH   1   2
BRANCH   1  24
ATOM     24  C   UNL A   1      32.875  32.945  27.330  1.00  0.00     0.118 C 
BRANCH  24  25
ATOM     25  N   UNL A   1      32.587  34.303  27.772  1.00  0.00    -0.352 N 
ATOM     26  C   UNL A   1      33.097  35.006  28.838  1.00  0.00     0.251 C 
ATOM     27  H   UNL A   1      31.929  34.790  27.226  1.00  0.00     0.163 HD
ATOM     28  O   UNL A   1      32.614  36.096  29.133  1.00  0.00    -0.269 OA
BRANCH  26  29
ATOM     29  C   UNL A   1      34.199  34.438  29.647  1.00  0.00     0.039 A 
ATOM     30  C   UNL A   1      33.893  33.783  30.843  1.00  0.00     0.014 A 
ATOM     31  C   UNL A   1      35.527  34.544  29.227  1.00  0.00     0.014 A 
ATOM     32  C   UNL A   1      34.910  33.166  31.579  1.00  0.00     0.010 A 
ATOM     33  C   UNL A   1      36.527  33.866  29.921  1.00  0.00     0.010 A 
ATOM     34  C   UNL A   1      36.230  33.167  31.101  1.00  0.00    -0.014 A 
BRANCH  34  35
ATOM     35  C   UNL A   1      37.323  32.448  31.809  1.00  0.00     0.031 A 
ATOM     36  C   UNL A   1      37.846  32.980  33.116  1.00  0.00     0.074 A 
ATOM     37  C   UNL A   1      37.906  31.376  31.234  1.00  0.00     0.049 A 
ATOM     38  N   UNL A   1      38.885  32.594  33.810  1.00  0.00    -0.248 NA
ATOM     39  C   UNL A   1      37.119  34.116  33.704  1.00  0.00     0.031 C 
ATOM     40  C   UNL A   1      37.512  30.778  29.957  1.00  0.00     0.029 A 
ATOM     41  N   UNL A   1      38.972  30.611  31.640  1.00  0.00    -0.354 N 
ATOM     42  C   UNL A   1      38.952  33.453  34.901  1.00  0.00     0.074 A 
ATOM     43  C   UNL A   1      37.875  34.407  34.753  1.00  0.00     0.031 C 
ATOM     44  C   UNL A   1      38.318  29.740  29.688  1.00  0.00     0.029 A 
ATOM     45  C   UNL A   1      39.317  29.625  30.745  1.00  0.00     0.049 A 
ATOM     46  H   UNL A   1      39.446  30.757  32.491  1.00  0.00     0.167 HD
ATOM     47  C   UNL A   1      39.823  33.438  35.939  1.00  0.00     0.037 A 
ATOM     48  C   UNL A   1      40.335  28.741  30.764  1.00  0.00     0.037 A 
ATOM     49  C   UNL A   1      40.879  32.472  36.091  1.00  0.00     0.049 A 
ATOM     50  C   UNL A   1      41.298  28.751  31.920  1.00  0.00     0.074 A 
ATOM     51  C   UNL A   1      41.784  32.343  37.131  1.00  0.00     0.029 A 
ATOM     52  N   UNL A   1      41.174  31.468  35.179  1.00  0.00    -0.354 N 
ATOM     53  N   UNL A   1      41.321  29.543  32.967  1.00  0.00    -0.248 NA
ATOM     54  C   UNL A   1      42.372  27.747  31.904  1.00  0.00     0.031 C 
ATOM     55  C   UNL A   1      42.653  31.290  36.828  1.00  0.00     0.029 A 
ATOM     56  C   UNL A   1      42.255  30.727  35.625  1.00  0.00     0.049 A 
ATOM     57  H   UNL A   1      40.686  31.308  34.339  1.00  0.00     0.167 HD
ATOM     58  C   UNL A   1      42.385  29.109  33.749  1.00  0.00     0.074 A 
ATOM     59  C   UNL A   1      42.981  27.985  33.058  1.00  0.00     0.031 C 
ATOM     60  C   UNL A   1      42.825  29.595  34.937  1.00  0.00     0.037 A 
BRANCH  47  61
ATOM     61  C   UNL A   1      39.671  34.503  36.992  1.00  0.00     0.058 A 
ATOM     62  C   UNL A   1      38.940  34.278  38.170  1.00  0.00     0.135 A 
ATOM     63  C   UNL A   1      40.293  35.753  36.840  1.00  0.00     0.135 A 
ATOM     64  F   UNL A   1      38.313  33.106  38.362  1.00  0.00    -0.206 F 
ATOM     65  C   UNL A   1      38.806  35.262  39.143  1.00  0.00     0.059 A 
ATOM     66  C   UNL A   1      40.198  36.742  37.815  1.00  0.00     0.059 A 
ATOM     67  F   UNL A   1      41.007  36.023  35.734  1.00  0.00    -0.206 F 
ATOM     68  C   UNL A   1      39.439  36.491  38.957  1.00  0.00     0.060 A 
BRANCH  68  69
ATOM     69  S   UNL A   1      39.263  37.754  40.235  1.00  0.00     0.124 S 
ATOM     70  O   UNL A   1      40.599  38.339  40.254  1.00  0.00    -0.237 OA
ATOM     71  O   UNL A   1      38.208  38.603  39.693  1.00  0.00    -0.237 OA
ATOM     72  O   UNL A   1      38.897  36.988  41.423  1.00  0.00    -0.744 OA
ENDBRANCH  68  69
ENDBRANCH  47  61
BRANCH  48  73
ATOM     73  C   UNL A   1      40.490  27.761  29.654  1.00  0.00     0.058 A 
ATOM     74  C   UNL A   1      41.483  27.929  28.677  1.00  0.00     0.135 A 
ATOM     75  C   UNL A   1      39.658  26.636  29.551  1.00  0.00     0.135 A 
ATOM     76  F   UNL A   1      42.299  28.993  28.728  1.00  0.00    -0.206 F 
ATOM     77  C   UNL A   1      41.637  27.027  27.629  1.00  0.00     0.059 A 
ATOM     78  C   UNL A   1      39.808  25.705  28.526  1.00  0.00     0.059 A 
ATOM     79  F   UNL A   1      38.701  26.418  30.467  1.00  0.00    -0.206 F 
ATOM     80  C   UNL A   1      40.795  25.916  27.563  1.00  0.00     0.060 A 
BRANCH  80  81
ATOM     81  S   UNL A   1      41.032  24.729  26.223  1.00  0.00     0.124 S 
ATOM     82  O   UNL A   1      39.662  24.299  25.967  1.00  0.00    -0.237 OA
ATOM     83  O   UNL A   1      41.647  25.553  25.189  1.00  0.00    -0.237 OA
ATOM     84  O   UNL A   1      41.908  23.723  26.817  1.00  0.00    -0.744 OA
ENDBRANCH  80  81
ENDBRANCH  48  73
BRANCH  60  85
ATOM     85  C   UNL A   1      43.970  28.882  35.604  1.00  0.00     0.058 A 
ATOM     86  C   UNL A   1      45.304  29.261  35.397  1.00  0.00     0.135 A 
ATOM     87  C   UNL A   1      43.718  27.848  36.521  1.00  0.00     0.135 A 
ATOM     88  F   UNL A   1      45.602  30.239  34.525  1.00  0.00    -0.206 F 
ATOM     89  C   UNL A   1      46.351  28.632  36.064  1.00  0.00     0.059 A 
ATOM     90  C   UNL A   1      44.745  27.224  37.220  1.00  0.00     0.059 A 
ATOM     91  F   UNL A   1      42.457  27.452  36.762  1.00  0.00    -0.206 F 
ATOM     92  C   UNL A   1      46.060  27.617  36.978  1.00  0.00     0.060 A 
BRANCH  92  93
ATOM     93  S   UNL A   1      47.422  26.843  37.876  1.00  0.00     0.124 S 
ATOM     94  O   UNL A   1      47.539  27.713  39.042  1.00  0.00    -0.237 OA
ATOM     95  O   UNL A   1      46.905  25.503  38.134  1.00  0.00    -0.237 OA
ATOM     96  O   UNL A   1      48.533  26.908  36.932  1.00  0.00    -0.744 OA
ENDBRANCH  92  93
ENDBRANCH  60  85
ENDBRANCH  34  35
ENDBRANCH  26  29
ENDBRANCH  24  25
ENDBRANCH   1  24
TORSDOF 16
ENDMDL
MODEL 3
REMARK VINA RESULT:     -11.6      3.859      5.488
REMARK SMILES O=C(Cc1ccccc1-c1ccn(C(F)F)c(=O)c1)NCCCNC(=O)c1ccc(-c2c3nc(c(-c4c(F)cc(S(=O)(=O)[O-])cc4F)c4ccc([nH]4)c(-c4c(F)cc(S(=O)(=O)[O-])cc4F)c4nc(c(-c5c(F)cc(S(=O)(=O)[O-])cc5F)c5ccc2[nH]5)C=C4)C=C3)cc1
REMARK SMILES IDX 22 1 21 2 20 3 1 4 2 5 3 7 4 8 5 9 9 10 6 11 8 12 7 13 10 14
REMARK SMILES IDX 11 15 19 16 12 17 17 18 13 19 18 20 14 21 15 22 16 23 23 24
REMARK SMILES IDX 24 25 25 26 26 28 27 29 28 30 92 31 29 32 91 33 30 34 31 35
REMARK SMILES IDX 32 36 85 37 33 38 90 39 84 40 86 41 34 42 89 43 83 44 82 45
REMARK SMILES IDX 35 47 69 48 48 49 68 50 49 51 52 52 67 53 87 54 50 55 51 56
REMARK SMILES IDX 66 58 88 59 53 60 36 61 37 62 46 63 38 64 39 65 45 66 47 67
REMARK SMILES IDX 40 68 41 69 42 70 43 71 44 72 70 73 71 74 80 75 72 76 73 77
REMARK SMILES IDX 79 78 81 79 74 80 75 81 76 82 77 83 78 84 54 85 55 86 64 87
REMARK SMILES IDX 56 88 57 89 63 90 65 91 58 92 59 93 60 94 61 95 62 96
REMARK H PARENT 20 6 24 27 86 46 52 57
REMARK Flexibility Score: inf
ROOT
ATOM      1  C   UNL A   1      34.162  29.723  27.095  1.00  0.00     0.042 C 
ENDROOT
BRANCH   1   2
ATOM      2  C   UNL A   1      34.119  28.665  25.998  1.00  0.00     0.117 C 
BRANCH   2   3
ATOM      3  N   UNL A   1      33.005  27.753  26.164  1.00  0.00    -0.356 N 
ATOM      4  O   UNL A   1      31.354  29.247  25.586  1.00  0.00    -0.275 OA
ATOM      5  C   UNL A   1      31.697  28.126  25.950  1.00  0.00     0.224 C 
ATOM      6  H   UNL A   1      33.192  26.828  26.443  1.00  0.00     0.163 HD
BRANCH   5   7
ATOM      7  C   UNL A   1      30.685  27.039  26.261  1.00  0.00     0.136 C 
BRANCH   7   8
ATOM      8  C   UNL A   1      30.785  25.818  25.365  1.00  0.00    -0.031 A 
ATOM      9  C   UNL A   1      31.381  24.651  25.882  1.00  0.00     0.005 A 
ATOM     10  C   UNL A   1      30.335  25.816  24.025  1.00  0.00    -0.014 A 
ATOM     11  C   UNL A   1      31.506  23.501  25.104  1.00  0.00     0.000 A 
ATOM     12  C   UNL A   1      30.483  24.653  23.249  1.00  0.00     0.009 A 
ATOM     13  C   UNL A   1      31.059  23.502  23.787  1.00  0.00     0.001 A 
BRANCH  10  14
ATOM     14  C   UNL A   1      29.679  26.993  23.416  1.00  0.00    -0.011 A 
ATOM     15  C   UNL A   1      30.392  27.984  22.631  1.00  0.00     0.027 A 
ATOM     16  C   UNL A   1      28.372  27.179  23.670  1.00  0.00     0.080 A 
ATOM     17  C   UNL A   1      29.784  29.112  22.248  1.00  0.00     0.095 A 
ATOM     18  C   UNL A   1      27.670  28.407  23.208  1.00  0.00     0.255 A 
ATOM     19  N   UNL A   1      28.454  29.339  22.549  1.00  0.00    -0.258 N 
ATOM     20  O   UNL A   1      26.477  28.523  23.471  1.00  0.00    -0.269 OA
BRANCH  19  21
ATOM     21  C   UNL A   1      27.816  30.579  22.183  1.00  0.00     0.451 C 
ATOM     22  F   UNL A   1      27.531  31.320  23.279  1.00  0.00    -0.185 F 
ATOM     23  F   UNL A   1      28.618  31.308  21.371  1.00  0.00    -0.185 F 
ENDBRANCH  19  21
ENDBRANCH  10  14
ENDBRANCH   7   8
ENDBRANCH   5   7
ENDBRANCH   2   3
ENDBRANCH   1   2
BRANCH   1  24
ATOM     24  C   UNL A   1      35.181  29.447  28.197  1.00  0.00     0.118 C 
BRANCH  24  25
ATOM     25  N   UNL A   1      35.337  30.560  29.124  1.00  0.00    -0.352 N 
ATOM     26  C   UNL A   1      36.456  30.991  29.797  1.00  0.00     0.251 C 
ATOM     27  H   UNL A   1      34.520  31.082  29.293  1.00  0.00     0.163 HD
ATOM     28  O   UNL A   1      36.349  31.865  30.653  1.00  0.00    -0.269 OA
BRANCH  26  29
ATOM     29  C   UNL A   1      37.775  30.382  29.517  1.00  0.00     0.039 A 
ATOM     30  C   UNL A   1      38.154  30.167  28.188  1.00  0.00     0.014 A 
ATOM     31  C   UNL A   1      38.640  30.029  30.556  1.00  0.00     0.014 A 
ATOM     32  C   UNL A   1      39.429  29.673  27.899  1.00  0.00     0.010 A 
ATOM     33  C   UNL A   1      39.935  29.606  30.264  1.00  0.00     0.010 A 
ATOM     34  C   UNL A   1      40.345  29.428  28.935  1.00  0.00    -0.014 A 
BRANCH  34  35
ATOM     35  C   UNL A   1      41.739  28.985  28.662  1.00  0.00     0.031 A 
ATOM     36  C   UNL A   1      42.855  29.994  28.643  1.00  0.00     0.074 A 
ATOM     37  C   UNL A   1      41.986  27.699  28.340  1.00  0.00     0.049 A 
ATOM     38  N   UNL A   1      44.103  29.841  28.280  1.00  0.00    -0.248 NA
ATOM     39  C   UNL A   1      42.515  31.362  29.062  1.00  0.00     0.031 C 
ATOM     40  C   UNL A   1      40.988  26.629  28.294  1.00  0.00     0.029 A 
ATOM     41  N   UNL A   1      43.152  27.077  27.966  1.00  0.00    -0.354 N 
ATOM     42  C   UNL A   1      44.688  31.096  28.401  1.00  0.00     0.074 A 
ATOM     43  C   UNL A   1      43.650  32.007  28.830  1.00  0.00     0.031 C 
ATOM     44  C   UNL A   1      41.583  25.484  27.922  1.00  0.00     0.029 A 
ATOM     45  C   UNL A   1      42.994  25.746  27.654  1.00  0.00     0.049 A 
ATOM     46  H   UNL A   1      44.020  27.540  27.924  1.00  0.00     0.167 HD
ATOM     47  C   UNL A   1      45.978  31.453  28.189  1.00  0.00     0.037 A 
ATOM     48  C   UNL A   1      43.879  24.843  27.186  1.00  0.00     0.037 A 
ATOM     49  C   UNL A   1      47.012  30.537  27.784  1.00  0.00     0.049 A 
ATOM     50  C   UNL A   1      45.303  25.266  26.945  1.00  0.00     0.074 A 
ATOM     51  C   UNL A   1      48.359  30.792  27.589  1.00  0.00     0.029 A 
ATOM     52  N   UNL A   1      46.817  29.191  27.511  1.00  0.00    -0.354 N 
ATOM     53  N   UNL A   1      45.851  26.447  27.107  1.00  0.00    -0.248 NA
ATOM     54  C   UNL A   1      46.233  24.234  26.463  1.00  0.00     0.031 C 
ATOM     55  C   UNL A   1      48.969  29.610  27.156  1.00  0.00     0.029 A 
ATOM     56  C   UNL A   1      48.014  28.606  27.134  1.00  0.00     0.049 A 
ATOM     57  H   UNL A   1      45.954  28.721  27.574  1.00  0.00     0.167 HD
ATOM     58  C   UNL A   1      47.194  26.291  26.783  1.00  0.00     0.074 A 
ATOM     59  C   UNL A   1      47.378  24.903  26.417  1.00  0.00     0.031 C 
ATOM     60  C   UNL A   1      48.187  27.215  26.794  1.00  0.00     0.037 A 
BRANCH  47  61
ATOM     61  C   UNL A   1      46.344  32.900  28.390  1.00  0.00     0.058 A 
ATOM     62  C   UNL A   1      46.272  33.832  27.343  1.00  0.00     0.135 A 
ATOM     63  C   UNL A   1      46.735  33.369  29.656  1.00  0.00     0.135 A 
ATOM     64  F   UNL A   1      45.917  33.437  26.110  1.00  0.00    -0.206 F 
ATOM     65  C   UNL A   1      46.606  35.169  27.534  1.00  0.00     0.059 A 
ATOM     66  C   UNL A   1      47.045  34.708  29.876  1.00  0.00     0.059 A 
ATOM     67  F   UNL A   1      46.819  32.522  30.694  1.00  0.00    -0.206 F 
ATOM     68  C   UNL A   1      46.991  35.597  28.804  1.00  0.00     0.060 A 
BRANCH  68  69
ATOM     69  S   UNL A   1      47.410  37.338  29.036  1.00  0.00     0.124 S 
ATOM     70  O   UNL A   1      46.088  37.953  29.090  1.00  0.00    -0.237 OA
ATOM     71  O   UNL A   1      48.150  37.317  30.293  1.00  0.00    -0.237 OA
ATOM     72  O   UNL A   1      48.203  37.659  27.852  1.00  0.00    -0.744 OA
ENDBRANCH  68  69
ENDBRANCH  47  61
BRANCH  48  73
ATOM     73  C   UNL A   1      43.446  23.443  26.924  1.00  0.00     0.058 A 
ATOM     74  C   UNL A   1      43.219  22.991  25.616  1.00  0.00     0.135 A 
ATOM     75  C   UNL A   1      43.260  22.527  27.972  1.00  0.00     0.135 A 
ATOM     76  F   UNL A   1      43.375  23.831  24.581  1.00  0.00    -0.206 F 
ATOM     77  C   UNL A   1      42.806  21.689  25.354  1.00  0.00     0.059 A 
ATOM     78  C   UNL A   1      42.873  21.211  27.734  1.00  0.00     0.059 A 
ATOM     79  F   UNL A   1      43.479  22.903  29.242  1.00  0.00    -0.206 F 
ATOM     80  C   UNL A   1      42.638  20.805  26.421  1.00  0.00     0.060 A 
BRANCH  80  81
ATOM     81  S   UNL A   1      42.146  19.104  26.066  1.00  0.00     0.124 S 
ATOM     82  O   UNL A   1      40.706  19.248  25.882  1.00  0.00    -0.237 OA
ATOM     83  O   UNL A   1      42.917  18.806  24.864  1.00  0.00    -0.237 OA
ATOM     84  O   UNL A   1      42.559  18.378  27.263  1.00  0.00    -0.744 OA
ENDBRANCH  80  81
ENDBRANCH  48  73
BRANCH  60  85
ATOM     85  C   UNL A   1      49.578  26.751  26.457  1.00  0.00     0.058 A 
ATOM     86  C   UNL A   1      50.377  26.064  27.383  1.00  0.00     0.135 A 
ATOM     87  C   UNL A   1      50.088  26.937  25.161  1.00  0.00     0.135 A 
ATOM     88  F   UNL A   1      49.941  25.865  28.637  1.00  0.00    -0.206 F 
ATOM     89  C   UNL A   1      51.640  25.588  27.040  1.00  0.00     0.059 A 
ATOM     90  C   UNL A   1      51.335  26.446  24.789  1.00  0.00     0.059 A 
ATOM     91  F   UNL A   1      49.361  27.581  24.235  1.00  0.00    -0.206 F 
ATOM     92  C   UNL A   1      52.108  25.780  25.739  1.00  0.00     0.060 A 
BRANCH  92  93
ATOM     93  S   UNL A   1      53.726  25.114  25.293  1.00  0.00     0.124 S 
ATOM     94  O   UNL A   1      54.582  25.711  26.313  1.00  0.00    -0.237 OA
ATOM     95  O   UNL A   1      53.513  23.675  25.406  1.00  0.00    -0.237 OA
ATOM     96  O   UNL A   1      53.934  25.606  23.935  1.00  0.00    -0.744 OA
ENDBRANCH  92  93
ENDBRANCH  60  85
ENDBRANCH  34  35
ENDBRANCH  26  29
ENDBRANCH  24  25
ENDBRANCH   1  24
TORSDOF 16
ENDMDL
