MODEL 1
REMARK VINA RESULT:     -12.9      0.000      0.000
REMARK SMILES CCc1nc(N2CCC[C@@H](C(=O)NCCCNC(=O)c3ccc(-c4c5nc(c(-c6c(F)cc(S(=O)(=O)[O-])cc6F)c6ccc([nH]6)c(-c6c(F)cc(S(=O)(=O)[O-])cc6F)c6nc(c(-c7c(F)cc(S(=O)(=O)[O-])cc7F)c7ccc4[nH]7)C=C6)C=C5)cc3)C2)c2c(C)c(C)oc2n1
REMARK SMILES IDX 15 1 14 2 13 3 11 4 12 5 10 7 6 8 7 9 86 10 8 11 9 12 5 13
REMARK SMILES IDX 3 14 4 15 94 16 93 17 87 18 92 19 88 20 90 21 89 22 91 23
REMARK SMILES IDX 2 24 1 25 16 26 17 27 18 28 19 30 20 31 21 32 85 33 22 34
REMARK SMILES IDX 84 35 23 36 24 37 25 38 78 39 26 40 83 41 77 42 79 43 27 44
REMARK SMILES IDX 82 45 76 46 75 47 28 49 62 50 41 51 61 52 42 53 45 54 60 55
REMARK SMILES IDX 80 56 43 57 44 58 59 60 81 61 46 62 29 63 30 64 39 65 31 66
REMARK SMILES IDX 32 67 38 68 40 69 33 70 34 71 35 72 36 73 37 74 63 75 64 76
REMARK SMILES IDX 73 77 65 78 66 79 72 80 74 81 67 82 68 83 69 84 70 85 71 86
REMARK SMILES IDX 47 87 48 88 57 89 49 90 50 91 56 92 58 93 51 94 52 95 53 96
REMARK SMILES IDX 54 97 55 98
REMARK H PARENT 13 6 17 29 79 48 45 59
REMARK Flexibility Score: inf
ROOT
ATOM      1  C   UNL A   1      36.281  21.758  24.375  1.00  0.00     0.042 C 
ENDROOT
BRANCH   1   2
ATOM      2  C   UNL A   1      34.984  21.368  25.105  1.00  0.00     0.117 C 
BRANCH   2   3
ATOM      3  N   UNL A   1      33.861  21.060  24.228  1.00  0.00    -0.356 N 
ATOM      4  C   UNL A   1      32.802  21.826  23.823  1.00  0.00     0.224 C 
ATOM      5  O   UNL A   1      32.154  21.439  22.847  1.00  0.00    -0.275 OA
ATOM      6  H   UNL A   1      33.865  20.145  23.866  1.00  0.00     0.163 HD
BRANCH   4   7
ATOM      7  C   UNL A   1      32.374  23.064  24.597  1.00  0.00     0.098 C 
ATOM      8  N   UNL A   1      30.812  24.870  24.768  1.00  0.00    -0.355 N 
ATOM      9  C   UNL A   1      30.285  24.567  26.089  1.00  0.00     0.118 C 
ATOM     10  C   UNL A   1      31.148  23.720  23.937  1.00  0.00     0.131 C 
ATOM     11  C   UNL A   1      31.314  23.739  26.868  1.00  0.00     0.022 C 
ATOM     12  C   UNL A   1      32.031  22.656  26.046  1.00  0.00     0.017 C 
BRANCH   8  13
ATOM     13  C   UNL A   1      30.540  26.094  24.200  1.00  0.00     0.143 A 
ATOM     14  C   UNL A   1      29.013  27.702  23.420  1.00  0.00     0.134 A 
ATOM     15  N   UNL A   1      29.262  26.477  23.947  1.00  0.00    -0.215 NA
ATOM     16  N   UNL A   1      29.930  28.626  23.093  1.00  0.00    -0.197 NA
ATOM     17  C   UNL A   1      31.177  28.192  23.293  1.00  0.00     0.231 A 
ATOM     18  C   UNL A   1      31.570  26.967  23.804  1.00  0.00     0.086 A 
ATOM     19  O   UNL A   1      32.270  28.942  22.980  1.00  0.00    -0.443 OA
ATOM     20  C   UNL A   1      33.002  26.941  23.718  1.00  0.00     0.004 A 
ATOM     21  C   UNL A   1      33.369  28.185  23.240  1.00  0.00     0.107 A 
ATOM     22  C   UNL A   1      33.923  25.824  24.022  1.00  0.00     0.049 C 
ATOM     23  C   UNL A   1      34.676  28.800  22.931  1.00  0.00     0.088 C 
BRANCH  14  24
ATOM     24  C   UNL A   1      27.592  28.083  23.080  1.00  0.00     0.074 C 
ATOM     25  C   UNL A   1      27.295  29.573  23.056  1.00  0.00     0.012 C 
ENDBRANCH  14  24
ENDBRANCH   8  13
ENDBRANCH   4   7
ENDBRANCH   2   3
ENDBRANCH   1   2
BRANCH   1  26
ATOM     26  C   UNL A   1      37.299  22.615  25.160  1.00  0.00     0.118 C 
BRANCH  26  27
ATOM     27  N   UNL A   1      38.279  21.797  25.862  1.00  0.00    -0.352 N 
ATOM     28  C   UNL A   1      39.455  22.078  26.514  1.00  0.00     0.251 C 
ATOM     29  H   UNL A   1      38.049  20.840  25.870  1.00  0.00     0.163 HD
ATOM     30  O   UNL A   1      40.157  21.109  26.813  1.00  0.00    -0.269 OA
BRANCH  28  31
ATOM     31  C   UNL A   1      39.938  23.439  26.878  1.00  0.00     0.039 A 
ATOM     32  C   UNL A   1      41.276  23.746  26.569  1.00  0.00     0.014 A 
ATOM     33  C   UNL A   1      39.206  24.350  27.641  1.00  0.00     0.014 A 
ATOM     34  C   UNL A   1      41.861  24.955  26.975  1.00  0.00     0.010 A 
ATOM     35  C   UNL A   1      39.798  25.565  28.048  1.00  0.00     0.010 A 
ATOM     36  C   UNL A   1      41.123  25.891  27.705  1.00  0.00    -0.014 A 
BRANCH  36  37
ATOM     37  C   UNL A   1      41.704  27.250  27.894  1.00  0.00     0.031 A 
ATOM     38  C   UNL A   1      40.710  28.364  27.842  1.00  0.00     0.074 A 
ATOM     39  C   UNL A   1      42.869  27.531  28.523  1.00  0.00     0.049 A 
ATOM     40  N   UNL A   1      39.979  28.691  28.867  1.00  0.00    -0.248 NA
ATOM     41  C   UNL A   1      40.295  28.996  26.591  1.00  0.00     0.031 C 
ATOM     42  C   UNL A   1      43.375  26.774  29.672  1.00  0.00     0.029 A 
ATOM     43  N   UNL A   1      43.677  28.652  28.476  1.00  0.00    -0.354 N 
ATOM     44  C   UNL A   1      38.980  29.526  28.409  1.00  0.00     0.074 A 
ATOM     45  C   UNL A   1      39.219  29.693  26.990  1.00  0.00     0.031 C 
ATOM     46  C   UNL A   1      44.287  27.531  30.320  1.00  0.00     0.029 A 
ATOM     47  C   UNL A   1      44.560  28.748  29.555  1.00  0.00     0.049 A 
ATOM     48  H   UNL A   1      43.635  29.318  27.752  1.00  0.00     0.167 HD
ATOM     49  C   UNL A   1      38.009  30.023  29.217  1.00  0.00     0.037 A 
ATOM     50  C   UNL A   1      45.031  29.909  30.100  1.00  0.00     0.037 A 
ATOM     51  C   UNL A   1      38.126  29.690  30.607  1.00  0.00     0.049 A 
ATOM     52  C   UNL A   1      43.786  30.450  30.753  1.00  0.00     0.074 A 
ATOM     53  C   UNL A   1      37.646  28.730  31.471  1.00  0.00     0.029 A 
ATOM     54  N   UNL A   1      38.974  30.453  31.376  1.00  0.00    -0.354 N 
ATOM     55  N   UNL A   1      43.288  30.071  31.900  1.00  0.00    -0.248 NA
ATOM     56  C   UNL A   1      42.864  31.209  29.907  1.00  0.00     0.031 C 
ATOM     57  C   UNL A   1      38.580  28.691  32.556  1.00  0.00     0.029 A 
ATOM     58  C   UNL A   1      39.592  29.601  32.255  1.00  0.00     0.049 A 
ATOM     59  H   UNL A   1      39.111  31.426  31.308  1.00  0.00     0.167 HD
ATOM     60  C   UNL A   1      41.914  30.298  31.797  1.00  0.00     0.074 A 
ATOM     61  C   UNL A   1      41.725  31.023  30.557  1.00  0.00     0.031 C 
ATOM     62  C   UNL A   1      40.987  29.726  32.617  1.00  0.00     0.037 A 
BRANCH  49  63
ATOM     63  C   UNL A   1      36.981  30.992  28.794  1.00  0.00     0.058 A 
ATOM     64  C   UNL A   1      37.280  32.359  28.895  1.00  0.00     0.135 A 
ATOM     65  C   UNL A   1      35.663  30.616  28.516  1.00  0.00     0.135 A 
ATOM     66  F   UNL A   1      38.536  32.752  29.164  1.00  0.00    -0.206 F 
ATOM     67  C   UNL A   1      36.294  33.327  28.787  1.00  0.00     0.059 A 
ATOM     68  C   UNL A   1      34.655  31.572  28.394  1.00  0.00     0.059 A 
ATOM     69  F   UNL A   1      35.334  29.319  28.415  1.00  0.00    -0.206 F 
ATOM     70  C   UNL A   1      34.979  32.921  28.559  1.00  0.00     0.060 A 
BRANCH  70  71
ATOM     71  S   UNL A   1      33.698  34.193  28.539  1.00  0.00     0.124 S 
ATOM     72  O   UNL A   1      33.388  34.328  29.958  1.00  0.00    -0.237 OA
ATOM     73  O   UNL A   1      34.402  35.317  27.931  1.00  0.00    -0.237 OA
ATOM     74  O   UNL A   1      32.644  33.599  27.721  1.00  0.00    -0.744 OA
ENDBRANCH  70  71
ENDBRANCH  49  63
BRANCH  50  75
ATOM     75  C   UNL A   1      45.929  30.754  29.241  1.00  0.00     0.058 A 
ATOM     76  C   UNL A   1      47.106  31.279  29.814  1.00  0.00     0.135 A 
ATOM     77  C   UNL A   1      45.703  31.097  27.897  1.00  0.00     0.135 A 
ATOM     78  F   UNL A   1      47.337  31.142  31.130  1.00  0.00    -0.206 F 
ATOM     79  C   UNL A   1      48.075  31.942  29.063  1.00  0.00     0.059 A 
ATOM     80  C   UNL A   1      46.671  31.733  27.113  1.00  0.00     0.059 A 
ATOM     81  F   UNL A   1      44.543  30.806  27.292  1.00  0.00    -0.206 F 
ATOM     82  C   UNL A   1      47.874  32.114  27.698  1.00  0.00     0.060 A 
BRANCH  82  83
ATOM     83  S   UNL A   1      49.229  32.758  26.696  1.00  0.00     0.124 S 
ATOM     84  O   UNL A   1      49.920  31.533  26.296  1.00  0.00    -0.237 OA
ATOM     85  O   UNL A   1      48.505  33.451  25.631  1.00  0.00    -0.237 OA
ATOM     86  O   UNL A   1      49.955  33.620  27.614  1.00  0.00    -0.744 OA
ENDBRANCH  82  83
ENDBRANCH  50  75
BRANCH  62  87
ATOM     87  C   UNL A   1      41.515  29.005  33.813  1.00  0.00     0.058 A 
ATOM     88  C   UNL A   1      42.009  27.701  33.682  1.00  0.00     0.135 A 
ATOM     89  C   UNL A   1      41.616  29.623  35.069  1.00  0.00     0.135 A 
ATOM     90  F   UNL A   1      41.943  27.065  32.501  1.00  0.00    -0.206 F 
ATOM     91  C   UNL A   1      42.625  27.048  34.747  1.00  0.00     0.059 A 
ATOM     92  C   UNL A   1      42.248  28.998  36.141  1.00  0.00     0.059 A 
ATOM     93  F   UNL A   1      41.139  30.864  35.263  1.00  0.00    -0.206 F 
ATOM     94  C   UNL A   1      42.760  27.713  35.965  1.00  0.00     0.060 A 
BRANCH  94  95
ATOM     95  S   UNL A   1      43.692  26.911  37.286  1.00  0.00     0.124 S 
ATOM     96  O   UNL A   1      44.541  25.985  36.544  1.00  0.00    -0.237 OA
ATOM     97  O   UNL A   1      44.380  28.039  37.909  1.00  0.00    -0.237 OA
ATOM     98  O   UNL A   1      42.658  26.290  38.109  1.00  0.00    -0.744 OA
ENDBRANCH  94  95
ENDBRANCH  62  87
ENDBRANCH  36  37
ENDBRANCH  28  31
ENDBRANCH  26  27
ENDBRANCH   1  26
TORSDOF 15
ENDMDL
MODEL 2
REMARK VINA RESULT:     -12.2      1.237      1.945
REMARK SMILES CCc1nc(N2CCC[C@@H](C(=O)NCCCNC(=O)c3ccc(-c4c5nc(c(-c6c(F)cc(S(=O)(=O)[O-])cc6F)c6ccc([nH]6)c(-c6c(F)cc(S(=O)(=O)[O-])cc6F)c6nc(c(-c7c(F)cc(S(=O)(=O)[O-])cc7F)c7ccc4[nH]7)C=C6)C=C5)cc3)C2)c2c(C)c(C)oc2n1
REMARK SMILES IDX 15 1 14 2 13 3 11 4 12 5 10 7 6 8 7 9 86 10 8 11 9 12 5 13
REMARK SMILES IDX 3 14 4 15 94 16 93 17 87 18 92 19 88 20 90 21 89 22 91 23
REMARK SMILES IDX 2 24 1 25 16 26 17 27 18 28 19 30 20 31 21 32 85 33 22 34
REMARK SMILES IDX 84 35 23 36 24 37 25 38 78 39 26 40 83 41 77 42 79 43 27 44
REMARK SMILES IDX 82 45 76 46 75 47 28 49 62 50 41 51 61 52 42 53 45 54 60 55
REMARK SMILES IDX 80 56 43 57 44 58 59 60 81 61 46 62 29 63 30 64 39 65 31 66
REMARK SMILES IDX 32 67 38 68 40 69 33 70 34 71 35 72 36 73 37 74 63 75 64 76
REMARK SMILES IDX 73 77 65 78 66 79 72 80 74 81 67 82 68 83 69 84 70 85 71 86
REMARK SMILES IDX 47 87 48 88 57 89 49 90 50 91 56 92 58 93 51 94 52 95 53 96
REMARK SMILES IDX 54 97 55 98
REMARK H PARENT 13 6 17 29 79 48 45 59
REMARK Flexibility Score: inf
ROOT
ATOM      1  C   UNL A   1      36.393  22.570  24.164  1.00  0.00     0.042 C 
ENDROOT
BRANCH   1   2
ATOM      2  C   UNL A   1      35.183  23.319  23.579  1.00  0.00     0.117 C 
BRANCH   2   3
ATOM      3  N   UNL A   1      34.041  22.472  23.256  1.00  0.00    -0.356 N 
ATOM      4  C   UNL A   1      32.697  22.684  23.398  1.00  0.00     0.224 C 
ATOM      5  O   UNL A   1      31.931  21.944  22.776  1.00  0.00    -0.275 OA
ATOM      6  H   UNL A   1      34.278  21.598  22.869  1.00  0.00     0.163 HD
BRANCH   4   7
ATOM      7  C   UNL A   1      32.155  23.731  24.359  1.00  0.00     0.098 C 
ATOM      8  N   UNL A   1      30.698  25.608  24.651  1.00  0.00    -0.355 N 
ATOM      9  C   UNL A   1      29.842  25.050  25.685  1.00  0.00     0.118 C 
ATOM     10  C   UNL A   1      31.171  24.670  23.640  1.00  0.00     0.131 C 
ATOM     11  C   UNL A   1      30.596  23.939  26.425  1.00  0.00     0.022 C 
ATOM     12  C   UNL A   1      31.438  23.018  25.526  1.00  0.00     0.017 C 
BRANCH   8  13
ATOM     13  C   UNL A   1      30.644  26.958  24.389  1.00  0.00     0.143 A 
ATOM     14  C   UNL A   1      29.625  28.810  23.361  1.00  0.00     0.134 A 
ATOM     15  N   UNL A   1      29.683  27.472  23.577  1.00  0.00    -0.215 NA
ATOM     16  N   UNL A   1      30.452  29.734  23.872  1.00  0.00    -0.197 NA
ATOM     17  C   UNL A   1      31.422  29.188  24.611  1.00  0.00     0.231 A 
ATOM     18  C   UNL A   1      31.608  27.847  24.897  1.00  0.00     0.086 A 
ATOM     19  O   UNL A   1      32.408  29.932  25.185  1.00  0.00    -0.443 OA
ATOM     20  C   UNL A   1      32.841  27.764  25.627  1.00  0.00     0.004 A 
ATOM     21  C   UNL A   1      33.261  29.070  25.799  1.00  0.00     0.107 A 
ATOM     22  C   UNL A   1      33.565  26.555  26.077  1.00  0.00     0.049 C 
ATOM     23  C   UNL A   1      34.437  29.671  26.461  1.00  0.00     0.088 C 
BRANCH  14  24
ATOM     24  C   UNL A   1      28.595  29.356  22.400  1.00  0.00     0.074 C 
ATOM     25  C   UNL A   1      27.381  30.013  23.035  1.00  0.00     0.012 C 
ENDBRANCH  14  24
ENDBRANCH   8  13
ENDBRANCH   4   7
ENDBRANCH   2   3
ENDBRANCH   1   2
BRANCH   1  26
ATOM     26  C   UNL A   1      37.273  23.339  25.176  1.00  0.00     0.118 C 
BRANCH  26  27
ATOM     27  N   UNL A   1      38.231  22.467  25.842  1.00  0.00    -0.352 N 
ATOM     28  C   UNL A   1      39.400  22.692  26.527  1.00  0.00     0.251 C 
ATOM     29  H   UNL A   1      37.988  21.514  25.791  1.00  0.00     0.163 HD
ATOM     30  O   UNL A   1      40.085  21.698  26.779  1.00  0.00    -0.269 OA
BRANCH  28  31
ATOM     31  C   UNL A   1      39.896  24.022  26.978  1.00  0.00     0.039 A 
ATOM     32  C   UNL A   1      41.168  24.417  26.526  1.00  0.00     0.014 A 
ATOM     33  C   UNL A   1      39.256  24.812  27.936  1.00  0.00     0.014 A 
ATOM     34  C   UNL A   1      41.774  25.596  26.986  1.00  0.00     0.010 A 
ATOM     35  C   UNL A   1      39.869  25.996  28.397  1.00  0.00     0.010 A 
ATOM     36  C   UNL A   1      41.124  26.413  27.915  1.00  0.00    -0.014 A 
BRANCH  36  37
ATOM     37  C   UNL A   1      41.691  27.765  28.180  1.00  0.00     0.031 A 
ATOM     38  C   UNL A   1      40.673  28.829  28.431  1.00  0.00     0.074 A 
ATOM     39  C   UNL A   1      42.935  28.022  28.644  1.00  0.00     0.049 A 
ATOM     40  N   UNL A   1      40.112  28.995  29.593  1.00  0.00    -0.248 NA
ATOM     41  C   UNL A   1      40.040  29.588  27.353  1.00  0.00     0.031 C 
ATOM     42  C   UNL A   1      43.645  27.157  29.591  1.00  0.00     0.029 A 
ATOM     43  N   UNL A   1      43.695  29.178  28.611  1.00  0.00    -0.354 N 
ATOM     44  C   UNL A   1      39.029  29.830  29.411  1.00  0.00     0.074 A 
ATOM     45  C   UNL A   1      39.026  30.180  28.005  1.00  0.00     0.031 C 
ATOM     46  C   UNL A   1      44.631  27.871  30.176  1.00  0.00     0.029 A 
ATOM     47  C   UNL A   1      44.740  29.184  29.538  1.00  0.00     0.049 A 
ATOM     48  H   UNL A   1      43.516  29.924  27.995  1.00  0.00     0.167 HD
ATOM     49  C   UNL A   1      38.192  30.179  30.421  1.00  0.00     0.037 A 
ATOM     50  C   UNL A   1      45.263  30.291  30.144  1.00  0.00     0.037 A 
ATOM     51  C   UNL A   1      38.546  29.686  31.720  1.00  0.00     0.049 A 
ATOM     52  C   UNL A   1      44.130  30.689  31.052  1.00  0.00     0.074 A 
ATOM     53  C   UNL A   1      38.241  28.607  32.521  1.00  0.00     0.029 A 
ATOM     54  N   UNL A   1      39.488  30.390  32.434  1.00  0.00    -0.354 N 
ATOM     55  N   UNL A   1      43.838  30.151  32.206  1.00  0.00    -0.248 NA
ATOM     56  C   UNL A   1      43.061  31.501  30.468  1.00  0.00     0.031 C 
ATOM     57  C   UNL A   1      39.342  28.481  33.428  1.00  0.00     0.029 A 
ATOM     58  C   UNL A   1      40.266  29.467  33.087  1.00  0.00     0.049 A 
ATOM     59  H   UNL A   1      39.586  31.369  32.470  1.00  0.00     0.167 HD
ATOM     60  C   UNL A   1      42.461  30.324  32.355  1.00  0.00     0.074 A 
ATOM     61  C   UNL A   1      42.050  31.184  31.264  1.00  0.00     0.031 C 
ATOM     62  C   UNL A   1      41.697  29.613  33.234  1.00  0.00     0.037 A 
BRANCH  49  63
ATOM     63  C   UNL A   1      37.083  31.143  30.296  1.00  0.00     0.058 A 
ATOM     64  C   UNL A   1      35.912  30.722  29.648  1.00  0.00     0.135 A 
ATOM     65  C   UNL A   1      37.233  32.503  30.587  1.00  0.00     0.135 A 
ATOM     66  F   UNL A   1      35.739  29.424  29.352  1.00  0.00    -0.206 F 
ATOM     67  C   UNL A   1      34.943  31.627  29.244  1.00  0.00     0.059 A 
ATOM     68  C   UNL A   1      36.267  33.430  30.199  1.00  0.00     0.059 A 
ATOM     69  F   UNL A   1      38.340  32.947  31.202  1.00  0.00    -0.206 F 
ATOM     70  C   UNL A   1      35.141  32.983  29.503  1.00  0.00     0.060 A 
BRANCH  70  71
ATOM     71  S   UNL A   1      33.921  34.149  28.863  1.00  0.00     0.124 S 
ATOM     72  O   UNL A   1      33.227  34.555  30.080  1.00  0.00    -0.237 OA
ATOM     73  O   UNL A   1      34.771  35.163  28.246  1.00  0.00    -0.237 OA
ATOM     74  O   UNL A   1      33.137  33.342  27.933  1.00  0.00    -0.744 OA
ENDBRANCH  70  71
ENDBRANCH  49  63
BRANCH  50  75
ATOM     75  C   UNL A   1      45.985  31.276  29.267  1.00  0.00     0.058 A 
ATOM     76  C   UNL A   1      46.562  30.810  28.067  1.00  0.00     0.135 A 
ATOM     77  C   UNL A   1      46.162  32.644  29.535  1.00  0.00     0.135 A 
ATOM     78  F   UNL A   1      46.585  29.495  27.794  1.00  0.00    -0.206 F 
ATOM     79  C   UNL A   1      47.114  31.668  27.118  1.00  0.00     0.059 A 
ATOM     80  C   UNL A   1      46.683  33.531  28.588  1.00  0.00     0.059 A 
ATOM     81  F   UNL A   1      45.813  33.171  30.717  1.00  0.00    -0.206 F 
ATOM     82  C   UNL A   1      47.118  33.037  27.363  1.00  0.00     0.060 A 
BRANCH  82  83
ATOM     83  S   UNL A   1      47.617  34.154  26.036  1.00  0.00     0.124 S 
ATOM     84  O   UNL A   1      47.905  35.386  26.769  1.00  0.00    -0.237 OA
ATOM     85  O   UNL A   1      48.780  33.459  25.487  1.00  0.00    -0.237 OA
ATOM     86  O   UNL A   1      46.452  34.195  25.167  1.00  0.00    -0.744 OA
ENDBRANCH  82  83
ENDBRANCH  50  75
BRANCH  62  87
ATOM     87  C   UNL A   1      42.434  28.779  34.227  1.00  0.00     0.058 A 
ATOM     88  C   UNL A   1      42.631  29.253  35.531  1.00  0.00     0.135 A 
ATOM     89  C   UNL A   1      42.873  27.479  33.928  1.00  0.00     0.135 A 
ATOM     90  F   UNL A   1      42.225  30.487  35.873  1.00  0.00    -0.206 F 
ATOM     91  C   UNL A   1      43.200  28.451  36.517  1.00  0.00     0.059 A 
ATOM     92  C   UNL A   1      43.423  26.652  34.904  1.00  0.00     0.059 A 
ATOM     93  F   UNL A   1      42.733  26.976  32.690  1.00  0.00    -0.206 F 
ATOM     94  C   UNL A   1      43.571  27.144  36.200  1.00  0.00     0.060 A 
BRANCH  94  95
ATOM     95  S   UNL A   1      44.167  26.073  37.524  1.00  0.00     0.124 S 
ATOM     96  O   UNL A   1      43.422  24.841  37.281  1.00  0.00    -0.237 OA
ATOM     97  O   UNL A   1      45.600  26.009  37.250  1.00  0.00    -0.237 OA
ATOM     98  O   UNL A   1      43.804  26.794  38.741  1.00  0.00    -0.744 OA
ENDBRANCH  94  95
ENDBRANCH  62  87
ENDBRANCH  36  37
ENDBRANCH  28  31
ENDBRANCH  26  27
ENDBRANCH   1  26
TORSDOF 15
ENDMDL
MODEL 3
REMARK VINA RESULT:     -12.0      1.342      1.849
REMARK SMILES CCc1nc(N2CCC[C@@H](C(=O)NCCCNC(=O)c3ccc(-c4c5nc(c(-c6c(F)cc(S(=O)(=O)[O-])cc6F)c6ccc([nH]6)c(-c6c(F)cc(S(=O)(=O)[O-])cc6F)c6nc(c(-c7c(F)cc(S(=O)(=O)[O-])cc7F)c7ccc4[nH]7)C=C6)C=C5)cc3)C2)c2c(C)c(C)oc2n1
REMARK SMILES IDX 15 1 14 2 13 3 11 4 12 5 10 7 6 8 7 9 86 10 8 11 9 12 5 13
REMARK SMILES IDX 3 14 4 15 94 16 93 17 87 18 92 19 88 20 90 21 89 22 91 23
REMARK SMILES IDX 2 24 1 25 16 26 17 27 18 28 19 30 20 31 21 32 85 33 22 34
REMARK SMILES IDX 84 35 23 36 24 37 25 38 78 39 26 40 83 41 77 42 79 43 27 44
REMARK SMILES IDX 82 45 76 46 75 47 28 49 62 50 41 51 61 52 42 53 45 54 60 55
REMARK SMILES IDX 80 56 43 57 44 58 59 60 81 61 46 62 29 63 30 64 39 65 31 66
REMARK SMILES IDX 32 67 38 68 40 69 33 70 34 71 35 72 36 73 37 74 63 75 64 76
REMARK SMILES IDX 73 77 65 78 66 79 72 80 74 81 67 82 68 83 69 84 70 85 71 86
REMARK SMILES IDX 47 87 48 88 57 89 49 90 50 91 56 92 58 93 51 94 52 95 53 96
REMARK SMILES IDX 54 97 55 98
REMARK H PARENT 13 6 17 29 79 48 45 59
REMARK Flexibility Score: inf
ROOT
ATOM      1  C   UNL A   1      36.664  21.890  24.734  1.00  0.00     0.042 C 
ENDROOT
BRANCH   1   2
ATOM      2  C   UNL A   1      35.347  22.676  24.606  1.00  0.00     0.117 C 
BRANCH   2   3
ATOM      3  N   UNL A   1      34.810  22.745  23.253  1.00  0.00    -0.356 N 
ATOM      4  C   UNL A   1      33.841  23.545  22.711  1.00  0.00     0.224 C 
ATOM      5  O   UNL A   1      33.779  23.620  21.481  1.00  0.00    -0.275 OA
ATOM      6  H   UNL A   1      35.212  22.106  22.620  1.00  0.00     0.163 HD
BRANCH   4   7
ATOM      7  C   UNL A   1      32.813  24.250  23.583  1.00  0.00     0.098 C 
ATOM      8  N   UNL A   1      31.002  25.815  23.667  1.00  0.00    -0.355 N 
ATOM      9  C   UNL A   1      29.977  24.921  24.182  1.00  0.00     0.118 C 
ATOM     10  C   UNL A   1      31.962  25.219  22.744  1.00  0.00     0.131 C 
ATOM     11  C   UNL A   1      30.644  23.755  24.921  1.00  0.00     0.022 C 
ATOM     12  C   UNL A   1      31.902  23.191  24.241  1.00  0.00     0.017 C 
BRANCH   8  13
ATOM     13  C   UNL A   1      30.774  27.172  23.666  1.00  0.00     0.143 A 
ATOM     14  C   UNL A   1      29.820  29.092  22.704  1.00  0.00     0.134 A 
ATOM     15  N   UNL A   1      30.065  27.759  22.667  1.00  0.00    -0.215 NA
ATOM     16  N   UNL A   1      30.223  29.947  23.656  1.00  0.00    -0.197 NA
ATOM     17  C   UNL A   1      30.971  29.349  24.587  1.00  0.00     0.231 A 
ATOM     18  C   UNL A   1      31.311  28.010  24.660  1.00  0.00     0.086 A 
ATOM     19  O   UNL A   1      31.534  30.033  25.621  1.00  0.00    -0.443 OA
ATOM     20  C   UNL A   1      32.211  27.888  25.771  1.00  0.00     0.004 A 
ATOM     21  C   UNL A   1      32.280  29.149  26.335  1.00  0.00     0.107 A 
ATOM     22  C   UNL A   1      32.964  26.696  26.221  1.00  0.00     0.049 C 
ATOM     23  C   UNL A   1      33.017  29.696  27.493  1.00  0.00     0.088 C 
BRANCH  14  24
ATOM     24  C   UNL A   1      29.092  29.739  21.549  1.00  0.00     0.074 C 
ATOM     25  C   UNL A   1      28.036  30.765  21.925  1.00  0.00     0.012 C 
ENDBRANCH  14  24
ENDBRANCH   8  13
ENDBRANCH   4   7
ENDBRANCH   2   3
ENDBRANCH   1   2
BRANCH   1  26
ATOM     26  C   UNL A   1      37.881  22.648  25.311  1.00  0.00     0.118 C 
BRANCH  26  27
ATOM     27  N   UNL A   1      38.906  21.742  25.810  1.00  0.00    -0.352 N 
ATOM     28  C   UNL A   1      40.162  21.927  26.333  1.00  0.00     0.251 C 
ATOM     29  H   UNL A   1      38.641  20.795  25.762  1.00  0.00     0.163 HD
ATOM     30  O   UNL A   1      40.857  20.916  26.456  1.00  0.00    -0.269 OA
BRANCH  28  31
ATOM     31  C   UNL A   1      40.739  23.234  26.754  1.00  0.00     0.039 A 
ATOM     32  C   UNL A   1      41.824  23.725  26.004  1.00  0.00     0.014 A 
ATOM     33  C   UNL A   1      40.382  23.907  27.924  1.00  0.00     0.014 A 
ATOM     34  C   UNL A   1      42.513  24.886  26.387  1.00  0.00     0.010 A 
ATOM     35  C   UNL A   1      41.078  25.073  28.307  1.00  0.00     0.010 A 
ATOM     36  C   UNL A   1      42.136  25.588  27.536  1.00  0.00    -0.014 A 
BRANCH  36  37
ATOM     37  C   UNL A   1      42.729  26.936  27.760  1.00  0.00     0.031 A 
ATOM     38  C   UNL A   1      41.743  28.058  27.757  1.00  0.00     0.074 A 
ATOM     39  C   UNL A   1      43.904  27.188  28.382  1.00  0.00     0.049 A 
ATOM     40  N   UNL A   1      41.027  28.357  28.801  1.00  0.00    -0.248 NA
ATOM     41  C   UNL A   1      41.316  28.732  26.532  1.00  0.00     0.031 C 
ATOM     42  C   UNL A   1      44.419  26.392  29.500  1.00  0.00     0.029 A 
ATOM     43  N   UNL A   1      44.719  28.306  28.361  1.00  0.00    -0.354 N 
ATOM     44  C   UNL A   1      40.028  29.212  28.383  1.00  0.00     0.074 A 
ATOM     45  C   UNL A   1      40.250  29.424  26.967  1.00  0.00     0.031 C 
ATOM     46  C   UNL A   1      45.345  27.121  30.160  1.00  0.00     0.029 A 
ATOM     47  C   UNL A   1      45.616  28.361  29.431  1.00  0.00     0.049 A 
ATOM     48  H   UNL A   1      44.673  28.995  27.660  1.00  0.00     0.167 HD
ATOM     49  C   UNL A   1      39.071  29.690  29.219  1.00  0.00     0.037 A 
ATOM     50  C   UNL A   1      46.102  29.500  30.006  1.00  0.00     0.037 A 
ATOM     51  C   UNL A   1      39.204  29.312  30.596  1.00  0.00     0.049 A 
ATOM     52  C   UNL A   1      44.870  30.028  30.693  1.00  0.00     0.074 A 
ATOM     53  C   UNL A   1      38.728  28.328  31.435  1.00  0.00     0.029 A 
ATOM     54  N   UNL A   1      40.067  30.044  31.378  1.00  0.00    -0.354 N 
ATOM     55  N   UNL A   1      44.384  29.617  31.834  1.00  0.00    -0.248 NA
ATOM     56  C   UNL A   1      43.943  30.820  29.883  1.00  0.00     0.031 C 
ATOM     57  C   UNL A   1      39.675  28.248  32.506  1.00  0.00     0.029 A 
ATOM     58  C   UNL A   1      40.690  29.160  32.221  1.00  0.00     0.049 A 
ATOM     59  H   UNL A   1      40.210  31.018  31.340  1.00  0.00     0.167 HD
ATOM     60  C   UNL A   1      43.011  29.856  31.756  1.00  0.00     0.074 A 
ATOM     61  C   UNL A   1      42.811  30.622  30.542  1.00  0.00     0.031 C 
ATOM     62  C   UNL A   1      42.090  29.264  32.569  1.00  0.00     0.037 A 
BRANCH  49  63
ATOM     63  C   UNL A   1      38.045  30.679  28.841  1.00  0.00     0.058 A 
ATOM     64  C   UNL A   1      38.265  32.022  29.180  1.00  0.00     0.135 A 
ATOM     65  C   UNL A   1      36.781  30.308  28.369  1.00  0.00     0.135 A 
ATOM     66  F   UNL A   1      39.466  32.410  29.639  1.00  0.00    -0.206 F 
ATOM     67  C   UNL A   1      37.248  32.962  29.115  1.00  0.00     0.059 A 
ATOM     68  C   UNL A   1      35.746  31.237  28.286  1.00  0.00     0.059 A 
ATOM     69  F   UNL A   1      36.529  29.033  28.037  1.00  0.00    -0.206 F 
ATOM     70  C   UNL A   1      35.984  32.554  28.688  1.00  0.00     0.060 A 
BRANCH  70  71
ATOM     71  S   UNL A   1      34.651  33.770  28.725  1.00  0.00     0.124 S 
ATOM     72  O   UNL A   1      35.006  34.569  29.892  1.00  0.00    -0.237 OA
ATOM     73  O   UNL A   1      34.809  34.426  27.431  1.00  0.00    -0.237 OA
ATOM     74  O   UNL A   1      33.450  32.952  28.867  1.00  0.00    -0.744 OA
ENDBRANCH  70  71
ENDBRANCH  49  63
BRANCH  50  75
ATOM     75  C   UNL A   1      46.996  30.367  29.163  1.00  0.00     0.058 A 
ATOM     76  C   UNL A   1      48.282  30.681  29.652  1.00  0.00     0.135 A 
ATOM     77  C   UNL A   1      46.668  30.923  27.915  1.00  0.00     0.135 A 
ATOM     78  F   UNL A   1      48.635  30.331  30.899  1.00  0.00    -0.206 F 
ATOM     79  C   UNL A   1      49.234  31.345  28.882  1.00  0.00     0.059 A 
ATOM     80  C   UNL A   1      47.613  31.565  27.109  1.00  0.00     0.059 A 
ATOM     81  F   UNL A   1      45.423  30.842  27.425  1.00  0.00    -0.206 F 
ATOM     82  C   UNL A   1      48.908  31.734  27.587  1.00  0.00     0.060 A 
BRANCH  82  83
ATOM     83  S   UNL A   1      50.214  32.377  26.520  1.00  0.00     0.124 S 
ATOM     84  O   UNL A   1      49.469  33.271  25.634  1.00  0.00    -0.237 OA
ATOM     85  O   UNL A   1      51.090  33.034  27.489  1.00  0.00    -0.237 OA
ATOM     86  O   UNL A   1      50.764  31.186  25.894  1.00  0.00    -0.744 OA
ENDBRANCH  82  83
ENDBRANCH  50  75
BRANCH  62  87
ATOM     87  C   UNL A   1      42.628  28.502  33.734  1.00  0.00     0.058 A 
ATOM     88  C   UNL A   1      42.619  29.078  35.012  1.00  0.00     0.135 A 
ATOM     89  C   UNL A   1      43.073  27.176  33.615  1.00  0.00     0.135 A 
ATOM     90  F   UNL A   1      42.197  30.342  35.184  1.00  0.00    -0.206 F 
ATOM     91  C   UNL A   1      42.993  28.350  36.138  1.00  0.00     0.059 A 
ATOM     92  C   UNL A   1      43.430  26.423  34.730  1.00  0.00     0.059 A 
ATOM     93  F   UNL A   1      43.126  26.576  32.413  1.00  0.00    -0.206 F 
ATOM     94  C   UNL A   1      43.375  27.017  35.990  1.00  0.00     0.060 A 
BRANCH  94  95
ATOM     95  S   UNL A   1      43.711  26.047  37.474  1.00  0.00     0.124 S 
ATOM     96  O   UNL A   1      44.068  27.080  38.442  1.00  0.00    -0.237 OA
ATOM     97  O   UNL A   1      42.433  25.379  37.705  1.00  0.00    -0.237 OA
ATOM     98  O   UNL A   1      44.802  25.165  37.070  1.00  0.00    -0.744 OA
ENDBRANCH  94  95
ENDBRANCH  62  87
ENDBRANCH  36  37
ENDBRANCH  28  31
ENDBRANCH  26  27
ENDBRANCH   1  26
TORSDOF 15
ENDMDL
