MODEL 1
REMARK VINA RESULT:     -12.2      0.000      0.000
REMARK SMILES C[C@@](NC(=O)[C@H]1COc2ccccc21)(C(=O)NCCCNC(=O)c1ccc(-c2c3nc(c(-c4c(F)cc(S(=O)(=O)[O-])cc4F)c4ccc([nH]4)c(-c4c(F)cc(S(=O)(=O)[O-])cc4F)c4nc(c(-c5c(F)cc(S(=O)(=O)[O-])cc5F)c5ccc2[nH]5)C=C4)C=C3)cc1)C(F)(F)F
REMARK SMILES IDX 19 1 18 2 17 3 15 4 16 5 2 7 1 8 3 9 4 10 5 12 6 13 7 14
REMARK SMILES IDX 14 15 8 16 9 17 13 18 10 19 12 20 11 21 90 22 91 23 92 24
REMARK SMILES IDX 93 25 20 26 21 27 22 28 23 30 24 31 25 32 89 33 26 34 88 35
REMARK SMILES IDX 27 36 28 37 29 38 82 39 30 40 87 41 81 42 83 43 31 44 86 45
REMARK SMILES IDX 80 46 79 47 32 49 66 50 45 51 65 52 46 53 49 54 64 55 84 56
REMARK SMILES IDX 47 57 48 58 63 60 85 61 50 62 33 63 34 64 43 65 35 66 36 67
REMARK SMILES IDX 42 68 44 69 37 70 38 71 39 72 40 73 41 74 67 75 68 76 77 77
REMARK SMILES IDX 69 78 70 79 76 80 78 81 71 82 72 83 73 84 74 85 75 86 51 87
REMARK SMILES IDX 52 88 61 89 53 90 54 91 60 92 62 93 55 94 56 95 57 96 58 97
REMARK SMILES IDX 59 98
REMARK H PARENT 17 6 3 11 21 29 83 48 49 59
REMARK Flexibility Score: inf
ROOT
ATOM      1  C   UNL A   1      37.943  21.411  25.120  1.00  0.00     0.042 C 
ENDROOT
BRANCH   1   2
ATOM      2  C   UNL A   1      36.569  21.527  25.761  1.00  0.00     0.117 C 
BRANCH   2   3
ATOM      3  N   UNL A   1      35.607  20.583  25.212  1.00  0.00    -0.354 N 
ATOM      4  C   UNL A   1      34.392  20.817  24.618  1.00  0.00     0.254 C 
ATOM      5  O   UNL A   1      33.724  19.831  24.300  1.00  0.00    -0.272 OA
ATOM      6  H   UNL A   1      35.865  19.635  25.276  1.00  0.00     0.163 HD
BRANCH   4   7
ATOM      7  C   UNL A   1      33.811  22.233  24.564  1.00  0.00     0.212 C 
ATOM      8  C   UNL A   1      32.515  22.095  23.718  1.00  0.00     0.056 C 
BRANCH   7   9
ATOM      9  N   UNL A   1      33.430  22.799  25.896  1.00  0.00    -0.334 N 
ATOM     10  C   UNL A   1      32.701  23.857  26.315  1.00  0.00     0.232 C 
ATOM     11  H   UNL A   1      33.799  22.278  26.645  1.00  0.00     0.164 HD
ATOM     12  O   UNL A   1      32.201  23.656  27.436  1.00  0.00    -0.274 OA
BRANCH  10  13
ATOM     13  C   UNL A   1      32.390  25.174  25.611  1.00  0.00     0.150 C 
ATOM     14  C   UNL A   1      30.858  25.391  25.758  1.00  0.00     0.248 C 
ATOM     15  C   UNL A   1      32.795  26.511  26.126  1.00  0.00     0.010 A 
ATOM     16  O   UNL A   1      30.628  26.288  26.875  1.00  0.00    -0.492 OA
ATOM     17  C   UNL A   1      31.747  27.076  26.844  1.00  0.00     0.123 A 
ATOM     18  C   UNL A   1      33.923  27.274  25.877  1.00  0.00     0.008 A 
ATOM     19  C   UNL A   1      31.817  28.327  27.426  1.00  0.00     0.047 A 
ATOM     20  C   UNL A   1      34.027  28.544  26.465  1.00  0.00     0.001 A 
ATOM     21  C   UNL A   1      32.986  29.062  27.250  1.00  0.00     0.004 A 
ENDBRANCH  10  13
ENDBRANCH   7   9
BRANCH   7  22
ATOM     22  C   UNL A   1      34.746  23.174  23.783  1.00  0.00     0.420 C 
ATOM     23  F   UNL A   1      35.604  22.540  22.957  1.00  0.00    -0.168 F 
ATOM     24  F   UNL A   1      34.000  23.994  22.987  1.00  0.00    -0.168 F 
ATOM     25  F   UNL A   1      35.458  23.990  24.592  1.00  0.00    -0.168 F 
ENDBRANCH   7  22
ENDBRANCH   4   7
ENDBRANCH   2   3
ENDBRANCH   1   2
BRANCH   1  26
ATOM     26  C   UNL A   1      39.080  21.318  26.127  1.00  0.00     0.118 C 
BRANCH  26  27
ATOM     27  N   UNL A   1      39.867  20.099  26.011  1.00  0.00    -0.352 N 
ATOM     28  C   UNL A   1      41.231  19.962  26.118  1.00  0.00     0.251 C 
ATOM     29  H   UNL A   1      39.361  19.273  25.835  1.00  0.00     0.163 HD
ATOM     30  O   UNL A   1      41.771  18.877  25.930  1.00  0.00    -0.269 OA
BRANCH  28  31
ATOM     31  C   UNL A   1      42.045  21.154  26.426  1.00  0.00     0.039 A 
ATOM     32  C   UNL A   1      42.424  21.991  25.376  1.00  0.00     0.014 A 
ATOM     33  C   UNL A   1      42.369  21.477  27.748  1.00  0.00     0.014 A 
ATOM     34  C   UNL A   1      43.058  23.199  25.661  1.00  0.00     0.010 A 
ATOM     35  C   UNL A   1      42.940  22.713  28.035  1.00  0.00     0.010 A 
ATOM     36  C   UNL A   1      43.276  23.591  26.995  1.00  0.00    -0.014 A 
BRANCH  36  37
ATOM     37  C   UNL A   1      43.798  24.946  27.295  1.00  0.00     0.031 A 
ATOM     38  C   UNL A   1      45.249  25.275  27.099  1.00  0.00     0.074 A 
ATOM     39  C   UNL A   1      42.948  25.874  27.780  1.00  0.00     0.049 A 
ATOM     40  N   UNL A   1      45.857  26.424  27.244  1.00  0.00    -0.248 NA
ATOM     41  C   UNL A   1      46.138  24.169  26.713  1.00  0.00     0.031 C 
ATOM     42  C   UNL A   1      41.535  25.644  28.093  1.00  0.00     0.029 A 
ATOM     43  N   UNL A   1      43.143  27.196  28.088  1.00  0.00    -0.354 N 
ATOM     44  C   UNL A   1      47.195  26.182  26.962  1.00  0.00     0.074 A 
ATOM     45  C   UNL A   1      47.322  24.764  26.698  1.00  0.00     0.031 C 
ATOM     46  C   UNL A   1      40.981  26.795  28.508  1.00  0.00     0.029 A 
ATOM     47  C   UNL A   1      42.001  27.838  28.509  1.00  0.00     0.049 A 
ATOM     48  H   UNL A   1      44.017  27.644  28.014  1.00  0.00     0.167 HD
ATOM     49  C   UNL A   1      48.219  27.067  26.902  1.00  0.00     0.037 A 
ATOM     50  C   UNL A   1      41.797  29.127  28.840  1.00  0.00     0.037 A 
ATOM     51  C   UNL A   1      48.080  28.478  27.158  1.00  0.00     0.049 A 
ATOM     52  C   UNL A   1      42.940  30.096  28.727  1.00  0.00     0.074 A 
ATOM     53  C   UNL A   1      49.042  29.470  27.071  1.00  0.00     0.029 A 
ATOM     54  N   UNL A   1      46.904  29.099  27.555  1.00  0.00    -0.354 N 
ATOM     55  N   UNL A   1      44.182  29.869  28.370  1.00  0.00    -0.248 NA
ATOM     56  C   UNL A   1      42.649  31.501  29.040  1.00  0.00     0.031 C 
ATOM     57  C   UNL A   1      48.457  30.683  27.452  1.00  0.00     0.029 A 
ATOM     58  C   UNL A   1      47.118  30.456  27.732  1.00  0.00     0.049 A 
ATOM     59  H   UNL A   1      46.043  28.642  27.692  1.00  0.00     0.167 HD
ATOM     60  C   UNL A   1      44.816  31.106  28.394  1.00  0.00     0.074 A 
ATOM     61  C   UNL A   1      43.814  32.078  28.781  1.00  0.00     0.031 C 
ATOM     62  C   UNL A   1      46.110  31.409  28.122  1.00  0.00     0.037 A 
BRANCH  49  63
ATOM     63  C   UNL A   1      49.577  26.534  26.534  1.00  0.00     0.058 A 
ATOM     64  C   UNL A   1      50.467  26.058  27.512  1.00  0.00     0.135 A 
ATOM     65  C   UNL A   1      49.984  26.469  25.193  1.00  0.00     0.135 A 
ATOM     66  F   UNL A   1      50.136  26.112  28.812  1.00  0.00    -0.206 F 
ATOM     67  C   UNL A   1      51.723  25.565  27.175  1.00  0.00     0.059 A 
ATOM     68  C   UNL A   1      51.226  25.953  24.830  1.00  0.00     0.059 A 
ATOM     69  F   UNL A   1      49.174  26.910  24.218  1.00  0.00    -0.206 F 
ATOM     70  C   UNL A   1      52.094  25.517  25.830  1.00  0.00     0.060 A 
BRANCH  70  71
ATOM     71  S   UNL A   1      53.726  24.869  25.409  1.00  0.00     0.124 S 
ATOM     72  O   UNL A   1      54.473  25.147  26.632  1.00  0.00    -0.237 OA
ATOM     73  O   UNL A   1      53.446  23.462  25.144  1.00  0.00    -0.237 OA
ATOM     74  O   UNL A   1      54.114  25.659  24.244  1.00  0.00    -0.744 OA
ENDBRANCH  70  71
ENDBRANCH  49  63
BRANCH  50  75
ATOM     75  C   UNL A   1      40.444  29.580  29.255  1.00  0.00     0.058 A 
ATOM     76  C   UNL A   1      40.163  29.878  30.597  1.00  0.00     0.135 A 
ATOM     77  C   UNL A   1      39.411  29.743  28.320  1.00  0.00     0.135 A 
ATOM     78  F   UNL A   1      41.117  29.737  31.529  1.00  0.00    -0.206 F 
ATOM     79  C   UNL A   1      38.901  30.302  31.002  1.00  0.00     0.059 A 
ATOM     80  C   UNL A   1      38.148  30.189  28.695  1.00  0.00     0.059 A 
ATOM     81  F   UNL A   1      39.636  29.493  27.020  1.00  0.00    -0.206 F 
ATOM     82  C   UNL A   1      37.899  30.456  30.041  1.00  0.00     0.060 A 
BRANCH  82  83
ATOM     83  S   UNL A   1      36.278  31.054  30.566  1.00  0.00     0.124 S 
ATOM     84  O   UNL A   1      35.527  31.000  29.318  1.00  0.00    -0.237 OA
ATOM     85  O   UNL A   1      35.903  30.076  31.582  1.00  0.00    -0.237 OA
ATOM     86  O   UNL A   1      36.566  32.393  31.074  1.00  0.00    -0.744 OA
ENDBRANCH  82  83
ENDBRANCH  50  75
BRANCH  62  87
ATOM     87  C   UNL A   1      46.501  32.858  28.210  1.00  0.00     0.058 A 
ATOM     88  C   UNL A   1      47.064  33.402  29.376  1.00  0.00     0.135 A 
ATOM     89  C   UNL A   1      46.318  33.712  27.111  1.00  0.00     0.135 A 
ATOM     90  F   UNL A   1      47.256  32.629  30.457  1.00  0.00    -0.206 F 
ATOM     91  C   UNL A   1      47.390  34.751  29.465  1.00  0.00     0.059 A 
ATOM     92  C   UNL A   1      46.664  35.059  27.168  1.00  0.00     0.059 A 
ATOM     93  F   UNL A   1      45.798  33.240  25.967  1.00  0.00    -0.206 F 
ATOM     94  C   UNL A   1      47.179  35.573  28.356  1.00  0.00     0.060 A 
BRANCH  94  95
ATOM     95  S   UNL A   1      47.599  37.324  28.482  1.00  0.00     0.124 S 
ATOM     96  O   UNL A   1      46.991  37.679  29.761  1.00  0.00    -0.237 OA
ATOM     97  O   UNL A   1      49.059  37.301  28.461  1.00  0.00    -0.237 OA
ATOM     98  O   UNL A   1      46.970  37.909  27.303  1.00  0.00    -0.744 OA
ENDBRANCH  94  95
ENDBRANCH  62  87
ENDBRANCH  36  37
ENDBRANCH  28  31
ENDBRANCH  26  27
ENDBRANCH   1  26
TORSDOF 16
ENDMDL
MODEL 2
REMARK VINA RESULT:     -12.2      3.261      7.962
REMARK SMILES C[C@@](NC(=O)[C@H]1COc2ccccc21)(C(=O)NCCCNC(=O)c1ccc(-c2c3nc(c(-c4c(F)cc(S(=O)(=O)[O-])cc4F)c4ccc([nH]4)c(-c4c(F)cc(S(=O)(=O)[O-])cc4F)c4nc(c(-c5c(F)cc(S(=O)(=O)[O-])cc5F)c5ccc2[nH]5)C=C4)C=C3)cc1)C(F)(F)F
REMARK SMILES IDX 19 1 18 2 17 3 15 4 16 5 2 7 1 8 3 9 4 10 5 12 6 13 7 14
REMARK SMILES IDX 14 15 8 16 9 17 13 18 10 19 12 20 11 21 90 22 91 23 92 24
REMARK SMILES IDX 93 25 20 26 21 27 22 28 23 30 24 31 25 32 89 33 26 34 88 35
REMARK SMILES IDX 27 36 28 37 29 38 82 39 30 40 87 41 81 42 83 43 31 44 86 45
REMARK SMILES IDX 80 46 79 47 32 49 66 50 45 51 65 52 46 53 49 54 64 55 84 56
REMARK SMILES IDX 47 57 48 58 63 60 85 61 50 62 33 63 34 64 43 65 35 66 36 67
REMARK SMILES IDX 42 68 44 69 37 70 38 71 39 72 40 73 41 74 67 75 68 76 77 77
REMARK SMILES IDX 69 78 70 79 76 80 78 81 71 82 72 83 73 84 74 85 75 86 51 87
REMARK SMILES IDX 52 88 61 89 53 90 54 91 60 92 62 93 55 94 56 95 57 96 58 97
REMARK SMILES IDX 59 98
REMARK H PARENT 17 6 3 11 21 29 83 48 49 59
REMARK Flexibility Score: inf
ROOT
ATOM      1  C   UNL A   1      33.792  28.158  25.831  1.00  0.00     0.042 C 
ENDROOT
BRANCH   1   2
ATOM      2  C   UNL A   1      33.927  26.687  25.471  1.00  0.00     0.117 C 
BRANCH   2   3
ATOM      3  N   UNL A   1      33.612  26.413  24.077  1.00  0.00    -0.354 N 
ATOM      4  C   UNL A   1      32.504  25.814  23.531  1.00  0.00     0.254 C 
ATOM      5  O   UNL A   1      32.510  25.630  22.312  1.00  0.00    -0.272 OA
ATOM      6  H   UNL A   1      34.294  26.701  23.429  1.00  0.00     0.163 HD
BRANCH   4   7
ATOM      7  C   UNL A   1      31.423  25.208  24.431  1.00  0.00     0.212 C 
ATOM      8  C   UNL A   1      30.505  24.412  23.462  1.00  0.00     0.056 C 
BRANCH   7   9
ATOM      9  N   UNL A   1      31.936  24.254  25.463  1.00  0.00    -0.334 N 
ATOM     10  C   UNL A   1      32.899  23.307  25.499  1.00  0.00     0.232 C 
ATOM     11  H   UNL A   1      31.458  24.335  26.320  1.00  0.00     0.164 HD
ATOM     12  O   UNL A   1      33.344  23.146  26.649  1.00  0.00    -0.274 OA
BRANCH  10  13
ATOM     13  C   UNL A   1      33.511  22.488  24.367  1.00  0.00     0.150 C 
ATOM     14  C   UNL A   1      35.021  22.343  24.707  1.00  0.00     0.248 C 
ATOM     15  C   UNL A   1      33.252  21.037  24.153  1.00  0.00     0.010 A 
ATOM     16  O   UNL A   1      35.226  21.053  25.339  1.00  0.00    -0.492 OA
ATOM     17  C   UNL A   1      34.261  20.286  24.743  1.00  0.00     0.123 A 
ATOM     18  C   UNL A   1      32.305  20.391  23.375  1.00  0.00     0.008 A 
ATOM     19  C   UNL A   1      34.306  18.906  24.692  1.00  0.00     0.047 A 
ATOM     20  C   UNL A   1      32.319  18.990  23.314  1.00  0.00     0.001 A 
ATOM     21  C   UNL A   1      33.305  18.249  23.982  1.00  0.00     0.004 A 
ENDBRANCH  10  13
ENDBRANCH   7   9
BRANCH   7  22
ATOM     22  C   UNL A   1      30.550  26.314  25.051  1.00  0.00     0.420 C 
ATOM     23  F   UNL A   1      30.671  27.515  24.449  1.00  0.00    -0.168 F 
ATOM     24  F   UNL A   1      29.234  25.970  24.937  1.00  0.00    -0.168 F 
ATOM     25  F   UNL A   1      30.778  26.477  26.374  1.00  0.00    -0.168 F 
ENDBRANCH   7  22
ENDBRANCH   4   7
ENDBRANCH   2   3
ENDBRANCH   1   2
BRANCH   1  26
ATOM     26  C   UNL A   1      33.469  28.400  27.298  1.00  0.00     0.118 C 
BRANCH  26  27
ATOM     27  N   UNL A   1      33.378  29.809  27.652  1.00  0.00    -0.352 N 
ATOM     28  C   UNL A   1      34.372  30.618  28.154  1.00  0.00     0.251 C 
ATOM     29  H   UNL A   1      32.501  30.234  27.518  1.00  0.00     0.163 HD
ATOM     30  O   UNL A   1      34.136  31.778  28.474  1.00  0.00    -0.269 OA
BRANCH  28  31
ATOM     31  C   UNL A   1      35.724  30.055  28.338  1.00  0.00     0.039 A 
ATOM     32  C   UNL A   1      36.617  30.105  27.267  1.00  0.00     0.014 A 
ATOM     33  C   UNL A   1      36.124  29.547  29.577  1.00  0.00     0.014 A 
ATOM     34  C   UNL A   1      37.942  29.722  27.466  1.00  0.00     0.010 A 
ATOM     35  C   UNL A   1      37.462  29.229  29.792  1.00  0.00     0.010 A 
ATOM     36  C   UNL A   1      38.385  29.327  28.742  1.00  0.00    -0.014 A 
BRANCH  36  37
ATOM     37  C   UNL A   1      39.827  29.081  28.985  1.00  0.00     0.031 A 
ATOM     38  C   UNL A   1      40.452  27.759  28.645  1.00  0.00     0.074 A 
ATOM     39  C   UNL A   1      40.565  30.059  29.547  1.00  0.00     0.049 A 
ATOM     40  N   UNL A   1      41.706  27.399  28.725  1.00  0.00    -0.248 NA
ATOM     41  C   UNL A   1      39.550  26.695  28.178  1.00  0.00     0.031 C 
ATOM     42  C   UNL A   1      40.048  31.354  29.999  1.00  0.00     0.029 A 
ATOM     43  N   UNL A   1      41.905  30.123  29.830  1.00  0.00    -0.354 N 
ATOM     44  C   UNL A   1      41.747  26.074  28.315  1.00  0.00     0.074 A 
ATOM     45  C   UNL A   1      40.383  25.673  28.044  1.00  0.00     0.031 C 
ATOM     46  C   UNL A   1      41.065  32.099  30.462  1.00  0.00     0.029 A 
ATOM     47  C   UNL A   1      42.300  31.329  30.359  1.00  0.00     0.049 A 
ATOM     48  H   UNL A   1      42.526  29.376  29.669  1.00  0.00     0.167 HD
ATOM     49  C   UNL A   1      42.828  25.274  28.151  1.00  0.00     0.037 A 
ATOM     50  C   UNL A   1      43.524  31.772  30.703  1.00  0.00     0.037 A 
ATOM     51  C   UNL A   1      44.183  25.685  28.414  1.00  0.00     0.049 A 
ATOM     52  C   UNL A   1      44.712  30.879  30.475  1.00  0.00     0.074 A 
ATOM     53  C   UNL A   1      45.354  24.970  28.229  1.00  0.00     0.029 A 
ATOM     54  N   UNL A   1      44.550  26.924  28.922  1.00  0.00    -0.354 N 
ATOM     55  N   UNL A   1      44.744  29.656  29.999  1.00  0.00    -0.248 NA
ATOM     56  C   UNL A   1      46.030  31.432  30.810  1.00  0.00     0.031 C 
ATOM     57  C   UNL A   1      46.425  25.762  28.661  1.00  0.00     0.029 A 
ATOM     58  C   UNL A   1      45.926  26.988  29.072  1.00  0.00     0.049 A 
ATOM     59  H   UNL A   1      43.924  27.650  29.145  1.00  0.00     0.167 HD
ATOM     60  C   UNL A   1      46.088  29.302  29.956  1.00  0.00     0.074 A 
ATOM     61  C   UNL A   1      46.835  30.447  30.435  1.00  0.00     0.031 C 
ATOM     62  C   UNL A   1      46.652  28.135  29.556  1.00  0.00     0.037 A 
BRANCH  49  63
ATOM     63  C   UNL A   1      42.586  23.874  27.653  1.00  0.00     0.058 A 
ATOM     64  C   UNL A   1      42.470  23.594  26.281  1.00  0.00     0.135 A 
ATOM     65  C   UNL A   1      42.500  22.797  28.549  1.00  0.00     0.135 A 
ATOM     66  F   UNL A   1      42.529  24.587  25.381  1.00  0.00    -0.206 F 
ATOM     67  C   UNL A   1      42.248  22.301  25.818  1.00  0.00     0.059 A 
ATOM     68  C   UNL A   1      42.306  21.491  28.107  1.00  0.00     0.059 A 
ATOM     69  F   UNL A   1      42.604  23.007  29.871  1.00  0.00    -0.206 F 
ATOM     70  C   UNL A   1      42.166  21.256  26.739  1.00  0.00     0.060 A 
BRANCH  70  71
ATOM     71  S   UNL A   1      41.880  19.584  26.122  1.00  0.00     0.124 S 
ATOM     72  O   UNL A   1      42.323  18.776  27.255  1.00  0.00    -0.237 OA
ATOM     73  O   UNL A   1      40.443  19.584  25.869  1.00  0.00    -0.237 OA
ATOM     74  O   UNL A   1      42.724  19.512  24.933  1.00  0.00    -0.744 OA
ENDBRANCH  70  71
ENDBRANCH  49  63
BRANCH  50  75
ATOM     75  C   UNL A   1      43.690  33.145  31.249  1.00  0.00     0.058 A 
ATOM     76  C   UNL A   1      43.829  34.249  30.394  1.00  0.00     0.135 A 
ATOM     77  C   UNL A   1      43.693  33.384  32.631  1.00  0.00     0.135 A 
ATOM     78  F   UNL A   1      43.832  34.071  29.065  1.00  0.00    -0.206 F 
ATOM     79  C   UNL A   1      43.986  35.539  30.890  1.00  0.00     0.059 A 
ATOM     80  C   UNL A   1      43.824  34.667  33.151  1.00  0.00     0.059 A 
ATOM     81  F   UNL A   1      43.542  32.363  33.490  1.00  0.00    -0.206 F 
ATOM     82  C   UNL A   1      43.981  35.739  32.272  1.00  0.00     0.060 A 
BRANCH  82  83
ATOM     83  S   UNL A   1      44.136  37.422  32.907  1.00  0.00     0.124 S 
ATOM     84  O   UNL A   1      42.963  37.520  33.766  1.00  0.00    -0.237 OA
ATOM     85  O   UNL A   1      45.426  37.378  33.586  1.00  0.00    -0.237 OA
ATOM     86  O   UNL A   1      44.103  38.239  31.696  1.00  0.00    -0.744 OA
ENDBRANCH  82  83
ENDBRANCH  50  75
BRANCH  62  87
ATOM     87  C   UNL A   1      48.153  28.055  29.600  1.00  0.00     0.058 A 
ATOM     88  C   UNL A   1      48.948  28.486  28.527  1.00  0.00     0.135 A 
ATOM     89  C   UNL A   1      48.804  27.548  30.736  1.00  0.00     0.135 A 
ATOM     90  F   UNL A   1      48.375  28.976  27.416  1.00  0.00    -0.206 F 
ATOM     91  C   UNL A   1      50.334  28.377  28.559  1.00  0.00     0.059 A 
ATOM     92  C   UNL A   1      50.191  27.456  30.801  1.00  0.00     0.059 A 
ATOM     93  F   UNL A   1      48.092  27.135  31.797  1.00  0.00    -0.206 F 
ATOM     94  C   UNL A   1      50.946  27.852  29.699  1.00  0.00     0.060 A 
BRANCH  94  95
ATOM     95  S   UNL A   1      52.745  27.707  29.730  1.00  0.00     0.124 S 
ATOM     96  O   UNL A   1      53.033  27.946  31.140  1.00  0.00    -0.237 OA
ATOM     97  O   UNL A   1      52.959  26.341  29.263  1.00  0.00    -0.237 OA
ATOM     98  O   UNL A   1      53.185  28.753  28.812  1.00  0.00    -0.744 OA
ENDBRANCH  94  95
ENDBRANCH  62  87
ENDBRANCH  36  37
ENDBRANCH  28  31
ENDBRANCH  26  27
ENDBRANCH   1  26
TORSDOF 16
ENDMDL
MODEL 3
REMARK VINA RESULT:     -12.1      6.257     11.755
REMARK SMILES C[C@@](NC(=O)[C@H]1COc2ccccc21)(C(=O)NCCCNC(=O)c1ccc(-c2c3nc(c(-c4c(F)cc(S(=O)(=O)[O-])cc4F)c4ccc([nH]4)c(-c4c(F)cc(S(=O)(=O)[O-])cc4F)c4nc(c(-c5c(F)cc(S(=O)(=O)[O-])cc5F)c5ccc2[nH]5)C=C4)C=C3)cc1)C(F)(F)F
REMARK SMILES IDX 19 1 18 2 17 3 15 4 16 5 2 7 1 8 3 9 4 10 5 12 6 13 7 14
REMARK SMILES IDX 14 15 8 16 9 17 13 18 10 19 12 20 11 21 90 22 91 23 92 24
REMARK SMILES IDX 93 25 20 26 21 27 22 28 23 30 24 31 25 32 89 33 26 34 88 35
REMARK SMILES IDX 27 36 28 37 29 38 82 39 30 40 87 41 81 42 83 43 31 44 86 45
REMARK SMILES IDX 80 46 79 47 32 49 66 50 45 51 65 52 46 53 49 54 64 55 84 56
REMARK SMILES IDX 47 57 48 58 63 60 85 61 50 62 33 63 34 64 43 65 35 66 36 67
REMARK SMILES IDX 42 68 44 69 37 70 38 71 39 72 40 73 41 74 67 75 68 76 77 77
REMARK SMILES IDX 69 78 70 79 76 80 78 81 71 82 72 83 73 84 74 85 75 86 51 87
REMARK SMILES IDX 52 88 61 89 53 90 54 91 60 92 62 93 55 94 56 95 57 96 58 97
REMARK SMILES IDX 59 98
REMARK H PARENT 17 6 3 11 21 29 83 48 49 59
REMARK Flexibility Score: inf
ROOT
ATOM      1  C   UNL A   1      32.746  30.617  27.084  1.00  0.00     0.042 C 
ENDROOT
BRANCH   1   2
ATOM      2  C   UNL A   1      32.880  29.979  25.711  1.00  0.00     0.117 C 
BRANCH   2   3
ATOM      3  N   UNL A   1      31.650  30.042  24.935  1.00  0.00    -0.354 N 
ATOM      4  C   UNL A   1      30.915  29.028  24.375  1.00  0.00     0.254 C 
ATOM      5  O   UNL A   1      29.940  29.352  23.694  1.00  0.00    -0.272 OA
ATOM      6  H   UNL A   1      31.291  30.948  24.790  1.00  0.00     0.163 HD
BRANCH   4   7
ATOM      7  C   UNL A   1      31.422  27.583  24.417  1.00  0.00     0.212 C 
ATOM      8  C   UNL A   1      30.284  26.747  23.769  1.00  0.00     0.056 C 
BRANCH   7   9
ATOM      9  N   UNL A   1      32.673  27.341  23.632  1.00  0.00    -0.334 N 
ATOM     10  C   UNL A   1      33.374  26.248  23.258  1.00  0.00     0.232 C 
ATOM     11  H   UNL A   1      33.083  28.177  23.311  1.00  0.00     0.164 HD
ATOM     12  O   UNL A   1      34.005  26.444  22.205  1.00  0.00    -0.274 OA
BRANCH  10  13
ATOM     13  C   UNL A   1      33.451  24.867  23.902  1.00  0.00     0.150 C 
ATOM     14  C   UNL A   1      33.143  23.847  22.769  1.00  0.00     0.248 C 
ATOM     15  C   UNL A   1      34.717  24.228  24.357  1.00  0.00     0.010 A 
ATOM     16  O   UNL A   1      34.402  23.340  22.255  1.00  0.00    -0.492 OA
ATOM     17  C   UNL A   1      35.203  23.385  23.365  1.00  0.00     0.123 A 
ATOM     18  C   UNL A   1      35.342  24.237  25.593  1.00  0.00     0.008 A 
ATOM     19  C   UNL A   1      36.355  22.635  23.506  1.00  0.00     0.047 A 
ATOM     20  C   UNL A   1      36.520  23.494  25.762  1.00  0.00     0.001 A 
ATOM     21  C   UNL A   1      37.034  22.709  24.719  1.00  0.00     0.004 A 
ENDBRANCH  10  13
ENDBRANCH   7   9
BRANCH   7  22
ATOM     22  C   UNL A   1      31.551  27.095  25.872  1.00  0.00     0.420 C 
ATOM     23  F   UNL A   1      30.827  27.808  26.759  1.00  0.00    -0.168 F 
ATOM     24  F   UNL A   1      31.091  25.813  25.960  1.00  0.00    -0.168 F 
ATOM     25  F   UNL A   1      32.833  27.060  26.298  1.00  0.00    -0.168 F 
ENDBRANCH   7  22
ENDBRANCH   4   7
ENDBRANCH   2   3
ENDBRANCH   1   2
BRANCH   1  26
ATOM     26  C   UNL A   1      33.736  31.746  27.332  1.00  0.00     0.118 C 
BRANCH  26  27
ATOM     27  N   UNL A   1      33.105  33.030  27.599  1.00  0.00    -0.352 N 
ATOM     28  C   UNL A   1      33.439  33.950  28.566  1.00  0.00     0.251 C 
ATOM     29  H   UNL A   1      32.347  33.269  27.018  1.00  0.00     0.163 HD
ATOM     30  O   UNL A   1      32.774  34.968  28.723  1.00  0.00    -0.269 OA
BRANCH  28  31
ATOM     31  C   UNL A   1      34.594  33.673  29.443  1.00  0.00     0.039 A 
ATOM     32  C   UNL A   1      34.403  32.859  30.558  1.00  0.00     0.014 A 
ATOM     33  C   UNL A   1      35.866  34.160  29.124  1.00  0.00     0.014 A 
ATOM     34  C   UNL A   1      35.508  32.460  31.309  1.00  0.00     0.010 A 
ATOM     35  C   UNL A   1      36.974  33.707  29.834  1.00  0.00     0.010 A 
ATOM     36  C   UNL A   1      36.806  32.843  30.924  1.00  0.00    -0.014 A 
BRANCH  36  37
ATOM     37  C   UNL A   1      37.985  32.282  31.626  1.00  0.00     0.031 A 
ATOM     38  C   UNL A   1      38.415  32.818  32.961  1.00  0.00     0.074 A 
ATOM     39  C   UNL A   1      38.688  31.298  31.029  1.00  0.00     0.049 A 
ATOM     40  N   UNL A   1      39.375  32.399  33.743  1.00  0.00    -0.248 NA
ATOM     41  C   UNL A   1      37.691  33.991  33.473  1.00  0.00     0.031 C 
ATOM     42  C   UNL A   1      38.414  30.756  29.695  1.00  0.00     0.029 A 
ATOM     43  N   UNL A   1      39.767  30.573  31.465  1.00  0.00    -0.354 N 
ATOM     44  C   UNL A   1      39.368  33.249  34.841  1.00  0.00     0.074 A 
ATOM     45  C   UNL A   1      38.348  34.247  34.595  1.00  0.00     0.031 C 
ATOM     46  C   UNL A   1      39.276  29.758  29.439  1.00  0.00     0.029 A 
ATOM     47  C   UNL A   1      40.172  29.601  30.580  1.00  0.00     0.049 A 
ATOM     48  H   UNL A   1      40.210  30.733  32.330  1.00  0.00     0.167 HD
ATOM     49  C   UNL A   1      40.124  33.186  35.963  1.00  0.00     0.037 A 
ATOM     50  C   UNL A   1      41.144  28.676  30.685  1.00  0.00     0.037 A 
ATOM     51  C   UNL A   1      41.131  32.183  36.201  1.00  0.00     0.049 A 
ATOM     52  C   UNL A   1      41.942  28.602  31.957  1.00  0.00     0.074 A 
ATOM     53  C   UNL A   1      41.914  31.997  37.327  1.00  0.00     0.029 A 
ATOM     54  N   UNL A   1      41.496  31.197  35.296  1.00  0.00    -0.354 N 
ATOM     55  N   UNL A   1      41.862  29.358  33.027  1.00  0.00    -0.248 NA
ATOM     56  C   UNL A   1      42.948  27.536  32.045  1.00  0.00     0.031 C 
ATOM     57  C   UNL A   1      42.779  30.922  37.088  1.00  0.00     0.029 A 
ATOM     58  C   UNL A   1      42.503  30.410  35.830  1.00  0.00     0.049 A 
ATOM     59  H   UNL A   1      41.098  31.075  34.403  1.00  0.00     0.167 HD
ATOM     60  C   UNL A   1      42.791  28.845  33.925  1.00  0.00     0.074 A 
ATOM     61  C   UNL A   1      43.406  27.703  33.278  1.00  0.00     0.031 C 
ATOM     62  C   UNL A   1      43.107  29.279  35.170  1.00  0.00     0.037 A 
BRANCH  49  63
ATOM     63  C   UNL A   1      39.881  34.226  37.024  1.00  0.00     0.058 A 
ATOM     64  C   UNL A   1      39.056  33.965  38.130  1.00  0.00     0.135 A 
ATOM     65  C   UNL A   1      40.501  35.483  36.952  1.00  0.00     0.135 A 
ATOM     66  F   UNL A   1      38.426  32.786  38.241  1.00  0.00    -0.206 F 
ATOM     67  C   UNL A   1      38.830  34.925  39.112  1.00  0.00     0.059 A 
ATOM     68  C   UNL A   1      40.312  36.449  37.938  1.00  0.00     0.059 A 
ATOM     69  F   UNL A   1      41.299  35.786  35.917  1.00  0.00    -0.206 F 
ATOM     70  C   UNL A   1      39.462  36.164  39.006  1.00  0.00     0.060 A 
BRANCH  70  71
ATOM     71  S   UNL A   1      39.162  37.397  40.291  1.00  0.00     0.124 S 
ATOM     72  O   UNL A   1      38.525  36.589  41.326  1.00  0.00    -0.237 OA
ATOM     73  O   UNL A   1      40.510  37.867  40.595  1.00  0.00    -0.237 OA
ATOM     74  O   UNL A   1      38.295  38.370  39.632  1.00  0.00    -0.744 OA
ENDBRANCH  70  71
ENDBRANCH  49  63
BRANCH  50  75
ATOM     75  C   UNL A   1      41.376  27.714  29.576  1.00  0.00     0.058 A 
ATOM     76  C   UNL A   1      42.516  27.811  28.764  1.00  0.00     0.135 A 
ATOM     77  C   UNL A   1      40.476  26.670  29.317  1.00  0.00     0.135 A 
ATOM     78  F   UNL A   1      43.406  28.793  28.972  1.00  0.00    -0.206 F 
ATOM     79  C   UNL A   1      42.746  26.919  27.721  1.00  0.00     0.059 A 
ATOM     80  C   UNL A   1      40.696  25.751  28.296  1.00  0.00     0.059 A 
ATOM     81  F   UNL A   1      39.382  26.522  30.080  1.00  0.00    -0.206 F 
ATOM     82  C   UNL A   1      41.830  25.891  27.496  1.00  0.00     0.060 A 
BRANCH  82  83
ATOM     83  S   UNL A   1      42.161  24.707  26.172  1.00  0.00     0.124 S 
ATOM     84  O   UNL A   1      40.996  23.835  26.260  1.00  0.00    -0.237 OA
ATOM     85  O   UNL A   1      42.227  25.570  24.997  1.00  0.00    -0.237 OA
ATOM     86  O   UNL A   1      43.431  24.107  26.571  1.00  0.00    -0.744 OA
ENDBRANCH  82  83
ENDBRANCH  50  75
BRANCH  62  87
ATOM     87  C   UNL A   1      44.149  28.496  35.919  1.00  0.00     0.058 A 
ATOM     88  C   UNL A   1      45.517  28.791  35.808  1.00  0.00     0.135 A 
ATOM     89  C   UNL A   1      43.772  27.441  36.766  1.00  0.00     0.135 A 
ATOM     90  F   UNL A   1      45.930  29.786  35.008  1.00  0.00    -0.206 F 
ATOM     91  C   UNL A   1      46.479  28.039  36.475  1.00  0.00     0.059 A 
ATOM     92  C   UNL A   1      44.715  26.695  37.465  1.00  0.00     0.059 A 
ATOM     93  F   UNL A   1      42.476  27.127  36.921  1.00  0.00    -0.206 F 
ATOM     94  C   UNL A   1      46.068  26.988  37.296  1.00  0.00     0.060 A 
BRANCH  94  95
ATOM     95  S   UNL A   1      47.323  26.014  38.152  1.00  0.00     0.124 S 
ATOM     96  O   UNL A   1      48.157  27.060  38.735  1.00  0.00    -0.237 OA
ATOM     97  O   UNL A   1      46.528  25.237  39.099  1.00  0.00    -0.237 OA
ATOM     98  O   UNL A   1      47.941  25.240  37.081  1.00  0.00    -0.744 OA
ENDBRANCH  94  95
ENDBRANCH  62  87
ENDBRANCH  36  37
ENDBRANCH  28  31
ENDBRANCH  26  27
ENDBRANCH   1  26
TORSDOF 16
ENDMDL
