MODEL 1
REMARK VINA RESULT:     -10.3      0.000      0.000
REMARK SMILES COC[C@@H](C)N(C)C(=O)N1CCC(CC(=O)NCCCNC(=O)c2ccc(-c3c4nc(c(-c5c(F)cc(S(=O)(=O)[O-])cc5F)c5ccc([nH]5)c(-c5c(F)cc(S(=O)(=O)[O-])cc5F)c5nc(c(-c6c(F)cc(S(=O)(=O)[O-])cc6F)c6ccc3[nH]6)C=C5)C=C4)cc2)CC1
REMARK SMILES IDX 18 1 17 2 15 3 16 4 14 6 13 7 8 8 9 9 10 10 11 11 91 12
REMARK SMILES IDX 12 13 90 14 6 15 7 16 4 17 5 18 3 19 2 20 1 21 19 22 20 23
REMARK SMILES IDX 21 24 22 25 23 27 24 28 25 29 89 30 26 31 88 32 27 33 28 34
REMARK SMILES IDX 29 35 82 36 30 37 87 38 81 39 83 40 31 41 86 42 80 43 79 44
REMARK SMILES IDX 32 46 66 47 45 48 65 49 46 50 49 51 64 52 84 53 47 54 48 55
REMARK SMILES IDX 63 57 85 58 50 59 33 60 34 61 43 62 35 63 36 64 42 65 44 66
REMARK SMILES IDX 37 67 38 68 39 69 40 70 41 71 67 72 68 73 77 74 69 75 70 76
REMARK SMILES IDX 76 77 78 78 71 79 72 80 73 81 74 82 75 83 51 84 52 85 61 86
REMARK SMILES IDX 53 87 54 88 60 89 62 90 55 91 56 92 57 93 58 94 59 95
REMARK H PARENT 17 5 21 26 83 45 49 56
REMARK Flexibility Score: inf
ROOT
ATOM      1  C   UNL A   1      32.644  29.307  24.540  1.00  0.00     0.117 C 
ENDROOT
BRANCH   1   2
ATOM      2  N   UNL A   1      31.948  28.958  23.306  1.00  0.00    -0.356 N 
ATOM      3  C   UNL A   1      30.798  28.256  23.090  1.00  0.00     0.220 C 
ATOM      4  O   UNL A   1      30.395  28.141  21.930  1.00  0.00    -0.275 OA
ATOM      5  H   UNL A   1      32.383  29.287  22.486  1.00  0.00     0.163 HD
BRANCH   3   6
ATOM      6  C   UNL A   1      30.042  27.610  24.239  1.00  0.00     0.103 C 
BRANCH   6   7
ATOM      7  C   UNL A   1      30.280  26.090  24.341  1.00  0.00     0.002 C 
ATOM      8  C   UNL A   1      33.300  23.767  25.599  1.00  0.00     0.320 C 
ATOM      9  O   UNL A   1      34.046  24.738  25.691  1.00  0.00    -0.248 OA
ATOM     10  N   UNL A   1      32.024  23.882  25.084  1.00  0.00    -0.325 N 
ATOM     11  C   UNL A   1      31.878  24.213  23.686  1.00  0.00     0.121 C 
ATOM     12  C   UNL A   1      30.905  24.205  25.949  1.00  0.00     0.121 C 
ATOM     13  C   UNL A   1      31.492  25.668  23.508  1.00  0.00     0.026 C 
ATOM     14  C   UNL A   1      30.482  25.671  25.812  1.00  0.00     0.026 C 
BRANCH   8  15
ATOM     15  N   UNL A   1      33.665  22.462  25.915  1.00  0.00    -0.323 N 
ATOM     16  C   UNL A   1      33.585  21.959  27.281  1.00  0.00     0.149 C 
BRANCH  15  17
ATOM     17  C   UNL A   1      34.011  21.496  24.849  1.00  0.00     0.109 C 
ATOM     18  C   UNL A   1      32.969  20.378  24.758  1.00  0.00     0.033 C 
BRANCH  17  19
ATOM     19  C   UNL A   1      35.457  20.970  25.004  1.00  0.00     0.184 C 
BRANCH  19  20
ATOM     20  O   UNL A   1      36.431  22.010  25.090  1.00  0.00    -0.383 OA
ATOM     21  C   UNL A   1      37.757  21.566  25.321  1.00  0.00     0.194 C 
ENDBRANCH  19  20
ENDBRANCH  17  19
ENDBRANCH  15  17
ENDBRANCH   8  15
ENDBRANCH   6   7
ENDBRANCH   3   6
ENDBRANCH   1   2
BRANCH   1  22
ATOM     22  C   UNL A   1      33.562  28.197  25.060  1.00  0.00     0.042 C 
BRANCH  22  23
ATOM     23  C   UNL A   1      33.900  28.289  26.543  1.00  0.00     0.118 C 
BRANCH  23  24
ATOM     24  N   UNL A   1      33.759  29.647  27.036  1.00  0.00    -0.352 N 
ATOM     25  C   UNL A   1      34.590  30.378  27.852  1.00  0.00     0.251 C 
ATOM     26  H   UNL A   1      32.945  30.116  26.741  1.00  0.00     0.163 HD
ATOM     27  O   UNL A   1      34.150  31.399  28.379  1.00  0.00    -0.269 OA
BRANCH  25  28
ATOM     28  C   UNL A   1      35.995  29.966  28.111  1.00  0.00     0.039 A 
ATOM     29  C   UNL A   1      36.333  29.498  29.386  1.00  0.00     0.014 A 
ATOM     30  C   UNL A   1      37.000  30.118  27.151  1.00  0.00     0.014 A 
ATOM     31  C   UNL A   1      37.657  29.155  29.685  1.00  0.00     0.010 A 
ATOM     32  C   UNL A   1      38.307  29.708  27.428  1.00  0.00     0.010 A 
ATOM     33  C   UNL A   1      38.656  29.239  28.703  1.00  0.00    -0.014 A 
BRANCH  33  34
ATOM     34  C   UNL A   1      40.072  28.882  29.003  1.00  0.00     0.031 A 
ATOM     35  C   UNL A   1      41.008  29.913  29.583  1.00  0.00     0.074 A 
ATOM     36  C   UNL A   1      40.537  27.651  28.705  1.00  0.00     0.049 A 
ATOM     37  N   UNL A   1      42.291  29.823  29.827  1.00  0.00    -0.248 NA
ATOM     38  C   UNL A   1      40.432  31.229  29.909  1.00  0.00     0.031 C 
ATOM     39  C   UNL A   1      39.751  26.573  28.101  1.00  0.00     0.029 A 
ATOM     40  N   UNL A   1      41.788  27.103  28.854  1.00  0.00    -0.354 N 
ATOM     41  C   UNL A   1      42.678  31.071  30.305  1.00  0.00     0.074 A 
ATOM     42  C   UNL A   1      41.503  31.913  30.285  1.00  0.00     0.031 C 
ATOM     43  C   UNL A   1      40.535  25.494  27.938  1.00  0.00     0.029 A 
ATOM     44  C   UNL A   1      41.885  25.809  28.394  1.00  0.00     0.049 A 
ATOM     45  H   UNL A   1      42.545  27.590  29.253  1.00  0.00     0.167 HD
ATOM     46  C   UNL A   1      43.897  31.474  30.740  1.00  0.00     0.037 A 
ATOM     47  C   UNL A   1      42.943  24.976  28.333  1.00  0.00     0.037 A 
ATOM     48  C   UNL A   1      45.055  30.621  30.811  1.00  0.00     0.049 A 
ATOM     49  C   UNL A   1      44.280  25.440  28.850  1.00  0.00     0.074 A 
ATOM     50  C   UNL A   1      46.312  30.917  31.311  1.00  0.00     0.029 A 
ATOM     51  N   UNL A   1      45.098  29.304  30.379  1.00  0.00    -0.354 N 
ATOM     52  N   UNL A   1      44.608  26.604  29.357  1.00  0.00    -0.248 NA
ATOM     53  C   UNL A   1      45.388  24.475  28.795  1.00  0.00     0.031 C 
ATOM     54  C   UNL A   1      47.125  29.791  31.149  1.00  0.00     0.029 A 
ATOM     55  C   UNL A   1      46.364  28.780  30.585  1.00  0.00     0.049 A 
ATOM     56  H   UNL A   1      44.341  28.815  29.984  1.00  0.00     0.167 HD
ATOM     57  C   UNL A   1      45.951  26.502  29.704  1.00  0.00     0.074 A 
ATOM     58  C   UNL A   1      46.372  25.160  29.361  1.00  0.00     0.031 C 
ATOM     59  C   UNL A   1      46.763  27.436  30.256  1.00  0.00     0.037 A 
BRANCH  46  60
ATOM     60  C   UNL A   1      44.052  32.902  31.188  1.00  0.00     0.058 A 
ATOM     61  C   UNL A   1      44.469  33.910  30.305  1.00  0.00     0.135 A 
ATOM     62  C   UNL A   1      43.708  33.278  32.497  1.00  0.00     0.135 A 
ATOM     63  F   UNL A   1      44.822  33.603  29.047  1.00  0.00    -0.206 F 
ATOM     64  C   UNL A   1      44.556  35.239  30.709  1.00  0.00     0.059 A 
ATOM     65  C   UNL A   1      43.764  34.605  32.915  1.00  0.00     0.059 A 
ATOM     66  F   UNL A   1      43.302  32.354  33.382  1.00  0.00    -0.206 F 
ATOM     67  C   UNL A   1      44.199  35.578  32.015  1.00  0.00     0.060 A 
BRANCH  67  68
ATOM     68  S   UNL A   1      44.288  37.311  32.512  1.00  0.00     0.124 S 
ATOM     69  O   UNL A   1      43.917  37.988  31.273  1.00  0.00    -0.237 OA
ATOM     70  O   UNL A   1      43.306  37.379  33.589  1.00  0.00    -0.237 OA
ATOM     71  O   UNL A   1      45.679  37.475  32.924  1.00  0.00    -0.744 OA
ENDBRANCH  67  68
ENDBRANCH  46  60
BRANCH  47  72
ATOM     72  C   UNL A   1      42.787  23.611  27.760  1.00  0.00     0.058 A 
ATOM     73  C   UNL A   1      42.937  23.382  26.384  1.00  0.00     0.135 A 
ATOM     74  C   UNL A   1      42.468  22.513  28.574  1.00  0.00     0.135 A 
ATOM     75  F   UNL A   1      43.236  24.401  25.564  1.00  0.00    -0.206 F 
ATOM     76  C   UNL A   1      42.745  22.121  25.829  1.00  0.00     0.059 A 
ATOM     77  C   UNL A   1      42.297  21.236  28.045  1.00  0.00     0.059 A 
ATOM     78  F   UNL A   1      42.330  22.675  29.899  1.00  0.00    -0.206 F 
ATOM     79  C   UNL A   1      42.421  21.054  26.669  1.00  0.00     0.060 A 
BRANCH  79  80
ATOM     80  S   UNL A   1      42.174  19.419  25.940  1.00  0.00     0.124 S 
ATOM     81  O   UNL A   1      40.729  19.402  25.747  1.00  0.00    -0.237 OA
ATOM     82  O   UNL A   1      42.978  19.499  24.724  1.00  0.00    -0.237 OA
ATOM     83  O   UNL A   1      42.684  18.513  26.964  1.00  0.00    -0.744 OA
ENDBRANCH  79  80
ENDBRANCH  47  72
BRANCH  59  84
ATOM     84  C   UNL A   1      48.179  27.036  30.562  1.00  0.00     0.058 A 
ATOM     85  C   UNL A   1      49.220  27.251  29.645  1.00  0.00     0.135 A 
ATOM     86  C   UNL A   1      48.509  26.488  31.812  1.00  0.00     0.135 A 
ATOM     87  F   UNL A   1      48.957  27.766  28.434  1.00  0.00    -0.206 F 
ATOM     88  C   UNL A   1      50.536  26.919  29.950  1.00  0.00     0.059 A 
ATOM     89  C   UNL A   1      49.822  26.172  32.148  1.00  0.00     0.059 A 
ATOM     90  F   UNL A   1      47.552  26.274  32.729  1.00  0.00    -0.206 F 
ATOM     91  C   UNL A   1      50.827  26.382  31.206  1.00  0.00     0.060 A 
BRANCH  91  92
ATOM     92  S   UNL A   1      52.545  25.995  31.606  1.00  0.00     0.124 S 
ATOM     93  O   UNL A   1      53.187  26.122  30.303  1.00  0.00    -0.237 OA
ATOM     94  O   UNL A   1      52.881  27.027  32.582  1.00  0.00    -0.237 OA
ATOM     95  O   UNL A   1      52.471  24.638  32.141  1.00  0.00    -0.744 OA
ENDBRANCH  91  92
ENDBRANCH  59  84
ENDBRANCH  33  34
ENDBRANCH  25  28
ENDBRANCH  23  24
ENDBRANCH  22  23
ENDBRANCH   1  22
TORSDOF 18
ENDMDL
MODEL 2
REMARK VINA RESULT:     -10.2      2.695      3.702
REMARK SMILES COC[C@@H](C)N(C)C(=O)N1CCC(CC(=O)NCCCNC(=O)c2ccc(-c3c4nc(c(-c5c(F)cc(S(=O)(=O)[O-])cc5F)c5ccc([nH]5)c(-c5c(F)cc(S(=O)(=O)[O-])cc5F)c5nc(c(-c6c(F)cc(S(=O)(=O)[O-])cc6F)c6ccc3[nH]6)C=C5)C=C4)cc2)CC1
REMARK SMILES IDX 18 1 17 2 15 3 16 4 14 6 13 7 8 8 9 9 10 10 11 11 91 12
REMARK SMILES IDX 12 13 90 14 6 15 7 16 4 17 5 18 3 19 2 20 1 21 19 22 20 23
REMARK SMILES IDX 21 24 22 25 23 27 24 28 25 29 89 30 26 31 88 32 27 33 28 34
REMARK SMILES IDX 29 35 82 36 30 37 87 38 81 39 83 40 31 41 86 42 80 43 79 44
REMARK SMILES IDX 32 46 66 47 45 48 65 49 46 50 49 51 64 52 84 53 47 54 48 55
REMARK SMILES IDX 63 57 85 58 50 59 33 60 34 61 43 62 35 63 36 64 42 65 44 66
REMARK SMILES IDX 37 67 38 68 39 69 40 70 41 71 67 72 68 73 77 74 69 75 70 76
REMARK SMILES IDX 76 77 78 78 71 79 72 80 73 81 74 82 75 83 51 84 52 85 61 86
REMARK SMILES IDX 53 87 54 88 60 89 62 90 55 91 56 92 57 93 58 94 59 95
REMARK H PARENT 17 5 21 26 83 45 49 56
REMARK Flexibility Score: inf
ROOT
ATOM      1  C   UNL A   1      32.786  29.254  27.196  1.00  0.00     0.117 C 
ENDROOT
BRANCH   1   2
ATOM      2  N   UNL A   1      31.830  29.319  26.096  1.00  0.00    -0.356 N 
ATOM      3  C   UNL A   1      31.770  28.637  24.915  1.00  0.00     0.220 C 
ATOM      4  O   UNL A   1      30.814  28.853  24.167  1.00  0.00    -0.275 OA
ATOM      5  H   UNL A   1      31.100  29.966  26.229  1.00  0.00     0.163 HD
BRANCH   3   6
ATOM      6  C   UNL A   1      32.860  27.658  24.514  1.00  0.00     0.103 C 
BRANCH   6   7
ATOM      7  C   UNL A   1      32.606  26.226  25.024  1.00  0.00     0.002 C 
ATOM      8  C   UNL A   1      34.033  22.589  24.107  1.00  0.00     0.320 C 
ATOM      9  O   UNL A   1      34.613  23.035  23.121  1.00  0.00    -0.248 OA
ATOM     10  N   UNL A   1      33.204  23.381  24.878  1.00  0.00    -0.325 N 
ATOM     11  C   UNL A   1      31.978  23.865  24.288  1.00  0.00     0.121 C 
ATOM     12  C   UNL A   1      33.739  24.147  25.987  1.00  0.00     0.121 C 
ATOM     13  C   UNL A   1      32.101  25.325  23.896  1.00  0.00     0.026 C 
ATOM     14  C   UNL A   1      33.891  25.631  25.636  1.00  0.00     0.026 C 
BRANCH   8  15
ATOM     15  N   UNL A   1      34.071  21.257  24.506  1.00  0.00    -0.323 N 
ATOM     16  C   UNL A   1      35.316  20.623  24.922  1.00  0.00     0.149 C 
BRANCH  15  17
ATOM     17  C   UNL A   1      32.822  20.479  24.662  1.00  0.00     0.109 C 
ATOM     18  C   UNL A   1      32.903  19.536  25.865  1.00  0.00     0.033 C 
BRANCH  17  19
ATOM     19  C   UNL A   1      32.432  19.761  23.349  1.00  0.00     0.184 C 
BRANCH  19  20
ATOM     20  O   UNL A   1      32.166  18.369  23.523  1.00  0.00    -0.383 OA
ATOM     21  C   UNL A   1      33.184  17.505  23.047  1.00  0.00     0.194 C 
ENDBRANCH  19  20
ENDBRANCH  17  19
ENDBRANCH  15  17
ENDBRANCH   8  15
ENDBRANCH   6   7
ENDBRANCH   3   6
ENDBRANCH   1   2
BRANCH   1  22
ATOM     22  C   UNL A   1      33.743  30.448  27.247  1.00  0.00     0.042 C 
BRANCH  22  23
ATOM     23  C   UNL A   1      35.096  30.157  27.885  1.00  0.00     0.118 C 
BRANCH  23  24
ATOM     24  N   UNL A   1      35.219  30.793  29.184  1.00  0.00    -0.352 N 
ATOM     25  C   UNL A   1      36.249  30.750  30.093  1.00  0.00     0.251 C 
ATOM     26  H   UNL A   1      34.445  31.340  29.455  1.00  0.00     0.163 HD
ATOM     27  O   UNL A   1      36.035  31.123  31.245  1.00  0.00    -0.269 OA
BRANCH  25  28
ATOM     28  C   UNL A   1      37.605  30.266  29.718  1.00  0.00     0.039 A 
ATOM     29  C   UNL A   1      38.501  29.926  30.737  1.00  0.00     0.014 A 
ATOM     30  C   UNL A   1      38.036  30.228  28.389  1.00  0.00     0.014 A 
ATOM     31  C   UNL A   1      39.805  29.521  30.426  1.00  0.00     0.010 A 
ATOM     32  C   UNL A   1      39.313  29.754  28.075  1.00  0.00     0.010 A 
ATOM     33  C   UNL A   1      40.220  29.414  29.090  1.00  0.00    -0.014 A 
BRANCH  33  34
ATOM     34  C   UNL A   1      41.604  28.987  28.738  1.00  0.00     0.031 A 
ATOM     35  C   UNL A   1      42.725  29.998  28.709  1.00  0.00     0.074 A 
ATOM     36  C   UNL A   1      41.850  27.707  28.391  1.00  0.00     0.049 A 
ATOM     37  N   UNL A   1      43.971  29.842  28.341  1.00  0.00    -0.248 NA
ATOM     38  C   UNL A   1      42.394  31.372  29.123  1.00  0.00     0.031 C 
ATOM     39  C   UNL A   1      40.851  26.638  28.335  1.00  0.00     0.029 A 
ATOM     40  N   UNL A   1      43.015  27.090  28.002  1.00  0.00    -0.354 N 
ATOM     41  C   UNL A   1      44.563  31.096  28.452  1.00  0.00     0.074 A 
ATOM     42  C   UNL A   1      43.531  32.011  28.888  1.00  0.00     0.031 C 
ATOM     43  C   UNL A   1      41.446  25.498  27.944  1.00  0.00     0.029 A 
ATOM     44  C   UNL A   1      42.859  25.759  27.689  1.00  0.00     0.049 A 
ATOM     45  H   UNL A   1      43.881  27.556  27.953  1.00  0.00     0.167 HD
ATOM     46  C   UNL A   1      45.852  31.451  28.230  1.00  0.00     0.037 A 
ATOM     47  C   UNL A   1      43.749  24.854  27.234  1.00  0.00     0.037 A 
ATOM     48  C   UNL A   1      46.891  30.530  27.848  1.00  0.00     0.049 A 
ATOM     49  C   UNL A   1      45.182  25.267  27.024  1.00  0.00     0.074 A 
ATOM     50  C   UNL A   1      48.242  30.781  27.677  1.00  0.00     0.029 A 
ATOM     51  N   UNL A   1      46.700  29.182  27.586  1.00  0.00    -0.354 N 
ATOM     52  N   UNL A   1      45.733  26.445  27.196  1.00  0.00    -0.248 NA
ATOM     53  C   UNL A   1      46.116  24.228  26.566  1.00  0.00     0.031 C 
ATOM     54  C   UNL A   1      48.862  29.593  27.277  1.00  0.00     0.029 A 
ATOM     55  C   UNL A   1      47.905  28.592  27.239  1.00  0.00     0.049 A 
ATOM     56  H   UNL A   1      45.836  28.713  27.639  1.00  0.00     0.167 HD
ATOM     57  C   UNL A   1      47.080  26.281  26.893  1.00  0.00     0.074 A 
ATOM     58  C   UNL A   1      47.265  24.890  26.538  1.00  0.00     0.031 C 
ATOM     59  C   UNL A   1      48.076  27.201  26.906  1.00  0.00     0.037 A 
BRANCH  46  60
ATOM     60  C   UNL A   1      46.228  32.897  28.402  1.00  0.00     0.058 A 
ATOM     61  C   UNL A   1      46.682  33.398  29.632  1.00  0.00     0.135 A 
ATOM     62  C   UNL A   1      46.200  33.775  27.306  1.00  0.00     0.135 A 
ATOM     63  F   UNL A   1      46.716  32.605  30.714  1.00  0.00    -0.206 F 
ATOM     64  C   UNL A   1      47.083  34.724  29.773  1.00  0.00     0.059 A 
ATOM     65  C   UNL A   1      46.619  35.099  27.419  1.00  0.00     0.059 A 
ATOM     66  F   UNL A   1      45.774  33.347  26.108  1.00  0.00    -0.206 F 
ATOM     67  C   UNL A   1      47.050  35.566  28.660  1.00  0.00     0.060 A 
BRANCH  67  68
ATOM     68  S   UNL A   1      47.602  37.274  28.853  1.00  0.00     0.124 S 
ATOM     69  O   UNL A   1      48.680  37.122  29.826  1.00  0.00    -0.237 OA
ATOM     70  O   UNL A   1      48.015  37.625  27.499  1.00  0.00    -0.237 OA
ATOM     71  O   UNL A   1      46.410  37.962  29.342  1.00  0.00    -0.744 OA
ENDBRANCH  67  68
ENDBRANCH  46  60
BRANCH  47  72
ATOM     72  C   UNL A   1      43.315  23.460  26.946  1.00  0.00     0.058 A 
ATOM     73  C   UNL A   1      43.120  22.533  27.981  1.00  0.00     0.135 A 
ATOM     74  C   UNL A   1      43.104  23.021  25.629  1.00  0.00     0.135 A 
ATOM     75  F   UNL A   1      43.315  22.903  29.256  1.00  0.00    -0.206 F 
ATOM     76  C   UNL A   1      42.764  21.214  27.722  1.00  0.00     0.059 A 
ATOM     77  C   UNL A   1      42.721  21.713  25.346  1.00  0.00     0.059 A 
ATOM     78  F   UNL A   1      43.261  23.872  24.603  1.00  0.00    -0.206 F 
ATOM     79  C   UNL A   1      42.570  20.811  26.399  1.00  0.00     0.060 A 
BRANCH  79  80
ATOM     80  S   UNL A   1      42.107  19.096  26.072  1.00  0.00     0.124 S 
ATOM     81  O   UNL A   1      42.910  18.797  24.893  1.00  0.00    -0.237 OA
ATOM     82  O   UNL A   1      42.511  18.427  27.305  1.00  0.00    -0.237 OA
ATOM     83  O   UNL A   1      40.666  19.173  25.851  1.00  0.00    -0.744 OA
ENDBRANCH  79  80
ENDBRANCH  47  72
BRANCH  59  84
ATOM     84  C   UNL A   1      49.463  26.733  26.564  1.00  0.00     0.058 A 
ATOM     85  C   UNL A   1      50.311  26.175  27.532  1.00  0.00     0.135 A 
ATOM     86  C   UNL A   1      49.924  26.786  25.239  1.00  0.00     0.135 A 
ATOM     87  F   UNL A   1      49.921  26.106  28.815  1.00  0.00    -0.206 F 
ATOM     88  C   UNL A   1      51.578  25.702  27.202  1.00  0.00     0.059 A 
ATOM     89  C   UNL A   1      51.177  26.297  24.881  1.00  0.00     0.059 A 
ATOM     90  F   UNL A   1      49.146  27.300  24.273  1.00  0.00    -0.206 F 
ATOM     91  C   UNL A   1      52.001  25.766  25.873  1.00  0.00     0.060 A 
BRANCH  91  92
ATOM     92  S   UNL A   1      53.629  25.111  25.448  1.00  0.00     0.124 S 
ATOM     93  O   UNL A   1      54.425  25.536  26.594  1.00  0.00    -0.237 OA
ATOM     94  O   UNL A   1      53.375  23.677  25.349  1.00  0.00    -0.237 OA
ATOM     95  O   UNL A   1      53.942  25.773  24.185  1.00  0.00    -0.744 OA
ENDBRANCH  91  92
ENDBRANCH  59  84
ENDBRANCH  33  34
ENDBRANCH  25  28
ENDBRANCH  23  24
ENDBRANCH  22  23
ENDBRANCH   1  22
TORSDOF 18
ENDMDL
MODEL 3
REMARK VINA RESULT:     -10.2      4.922     10.647
REMARK SMILES COC[C@@H](C)N(C)C(=O)N1CCC(CC(=O)NCCCNC(=O)c2ccc(-c3c4nc(c(-c5c(F)cc(S(=O)(=O)[O-])cc5F)c5ccc([nH]5)c(-c5c(F)cc(S(=O)(=O)[O-])cc5F)c5nc(c(-c6c(F)cc(S(=O)(=O)[O-])cc6F)c6ccc3[nH]6)C=C5)C=C4)cc2)CC1
REMARK SMILES IDX 18 1 17 2 15 3 16 4 14 6 13 7 8 8 9 9 10 10 11 11 91 12
REMARK SMILES IDX 12 13 90 14 6 15 7 16 4 17 5 18 3 19 2 20 1 21 19 22 20 23
REMARK SMILES IDX 21 24 22 25 23 27 24 28 25 29 89 30 26 31 88 32 27 33 28 34
REMARK SMILES IDX 29 35 82 36 30 37 87 38 81 39 83 40 31 41 86 42 80 43 79 44
REMARK SMILES IDX 32 46 66 47 45 48 65 49 46 50 49 51 64 52 84 53 47 54 48 55
REMARK SMILES IDX 63 57 85 58 50 59 33 60 34 61 43 62 35 63 36 64 42 65 44 66
REMARK SMILES IDX 37 67 38 68 39 69 40 70 41 71 67 72 68 73 77 74 69 75 70 76
REMARK SMILES IDX 76 77 78 78 71 79 72 80 73 81 74 82 75 83 51 84 52 85 61 86
REMARK SMILES IDX 53 87 54 88 60 89 62 90 55 91 56 92 57 93 58 94 59 95
REMARK H PARENT 17 5 21 26 83 45 49 56
REMARK Flexibility Score: inf
ROOT
ATOM      1  C   UNL A   1      37.945  23.253  26.036  1.00  0.00     0.117 C 
ENDROOT
BRANCH   1   2
ATOM      2  N   UNL A   1      37.706  23.279  24.597  1.00  0.00    -0.356 N 
ATOM      3  C   UNL A   1      36.686  22.773  23.846  1.00  0.00     0.220 C 
ATOM      4  O   UNL A   1      36.702  22.976  22.629  1.00  0.00    -0.275 OA
ATOM      5  H   UNL A   1      38.402  23.744  24.078  1.00  0.00     0.163 HD
BRANCH   3   6
ATOM      6  C   UNL A   1      35.571  21.958  24.479  1.00  0.00     0.103 C 
BRANCH   6   7
ATOM      7  C   UNL A   1      34.274  22.766  24.688  1.00  0.00     0.002 C 
ATOM      8  C   UNL A   1      33.417  26.602  25.496  1.00  0.00     0.320 C 
ATOM      9  O   UNL A   1      34.601  26.851  25.708  1.00  0.00    -0.248 OA
ATOM     10  N   UNL A   1      32.984  25.316  25.237  1.00  0.00    -0.325 N 
ATOM     11  C   UNL A   1      33.072  24.339  26.297  1.00  0.00     0.121 C 
ATOM     12  C   UNL A   1      32.961  24.805  23.881  1.00  0.00     0.121 C 
ATOM     13  C   UNL A   1      34.244  23.403  26.079  1.00  0.00     0.026 C 
ATOM     14  C   UNL A   1      34.135  23.858  23.607  1.00  0.00     0.026 C 
BRANCH   8  15
ATOM     15  N   UNL A   1      32.391  27.539  25.570  1.00  0.00    -0.323 N 
ATOM     16  C   UNL A   1      31.228  27.327  26.423  1.00  0.00     0.149 C 
BRANCH  15  17
ATOM     17  C   UNL A   1      32.516  28.850  24.896  1.00  0.00     0.109 C 
ATOM     18  C   UNL A   1      31.450  29.831  25.392  1.00  0.00     0.033 C 
BRANCH  17  19
ATOM     19  C   UNL A   1      32.537  28.700  23.358  1.00  0.00     0.184 C 
BRANCH  19  20
ATOM     20  O   UNL A   1      31.244  28.804  22.761  1.00  0.00    -0.383 OA
ATOM     21  C   UNL A   1      30.694  27.576  22.315  1.00  0.00     0.194 C 
ENDBRANCH  19  20
ENDBRANCH  17  19
ENDBRANCH  15  17
ENDBRANCH   8  15
ENDBRANCH   6   7
ENDBRANCH   3   6
ENDBRANCH   1   2
BRANCH   1  22
ATOM     22  C   UNL A   1      39.171  22.429  26.439  1.00  0.00     0.042 C 
BRANCH  22  23
ATOM     23  C   UNL A   1      40.271  23.218  27.138  1.00  0.00     0.118 C 
BRANCH  23  24
ATOM     24  N   UNL A   1      41.139  23.881  26.181  1.00  0.00    -0.352 N 
ATOM     25  C   UNL A   1      41.483  25.207  26.074  1.00  0.00     0.251 C 
ATOM     26  H   UNL A   1      41.543  23.289  25.505  1.00  0.00     0.163 HD
ATOM     27  O   UNL A   1      41.997  25.601  25.029  1.00  0.00    -0.269 OA
BRANCH  25  28
ATOM     28  C   UNL A   1      41.247  26.170  27.183  1.00  0.00     0.039 A 
ATOM     29  C   UNL A   1      42.115  27.258  27.324  1.00  0.00     0.014 A 
ATOM     30  C   UNL A   1      40.244  25.969  28.136  1.00  0.00     0.014 A 
ATOM     31  C   UNL A   1      41.961  28.153  28.389  1.00  0.00     0.010 A 
ATOM     32  C   UNL A   1      40.045  26.903  29.157  1.00  0.00     0.010 A 
ATOM     33  C   UNL A   1      40.912  27.995  29.309  1.00  0.00    -0.014 A 
BRANCH  33  34
ATOM     34  C   UNL A   1      40.732  28.936  30.451  1.00  0.00     0.031 A 
ATOM     35  C   UNL A   1      41.571  28.785  31.697  1.00  0.00     0.074 A 
ATOM     36  C   UNL A   1      39.781  29.891  30.398  1.00  0.00     0.049 A 
ATOM     37  N   UNL A   1      41.501  29.442  32.827  1.00  0.00    -0.248 NA
ATOM     38  C   UNL A   1      42.608  27.739  31.680  1.00  0.00     0.031 C 
ATOM     39  C   UNL A   1      38.873  30.119  29.273  1.00  0.00     0.029 A 
ATOM     40  N   UNL A   1      39.408  30.839  31.320  1.00  0.00    -0.354 N 
ATOM     41  C   UNL A   1      42.460  28.874  33.660  1.00  0.00     0.074 A 
ATOM     42  C   UNL A   1      43.075  27.795  32.919  1.00  0.00     0.031 C 
ATOM     43  C   UNL A   1      38.054  31.143  29.567  1.00  0.00     0.029 A 
ATOM     44  C   UNL A   1      38.354  31.625  30.911  1.00  0.00     0.049 A 
ATOM     45  H   UNL A   1      39.853  30.946  32.192  1.00  0.00     0.167 HD
ATOM     46  C   UNL A   1      42.810  29.231  34.919  1.00  0.00     0.037 A 
ATOM     47  C   UNL A   1      37.696  32.612  31.551  1.00  0.00     0.037 A 
ATOM     48  C   UNL A   1      42.235  30.339  35.637  1.00  0.00     0.049 A 
ATOM     49  C   UNL A   1      38.125  33.008  32.940  1.00  0.00     0.074 A 
ATOM     50  C   UNL A   1      42.581  30.826  36.886  1.00  0.00     0.029 A 
ATOM     51  N   UNL A   1      41.204  31.138  35.168  1.00  0.00    -0.354 N 
ATOM     52  N   UNL A   1      39.076  32.498  33.685  1.00  0.00    -0.248 NA
ATOM     53  C   UNL A   1      37.396  34.117  33.573  1.00  0.00     0.031 C 
ATOM     54  C   UNL A   1      41.734  31.897  37.189  1.00  0.00     0.029 A 
ATOM     55  C   UNL A   1      40.889  32.103  36.111  1.00  0.00     0.049 A 
ATOM     56  H   UNL A   1      40.760  31.034  34.296  1.00  0.00     0.167 HD
ATOM     57  C   UNL A   1      39.078  33.241  34.860  1.00  0.00     0.074 A 
ATOM     58  C   UNL A   1      38.041  34.242  34.725  1.00  0.00     0.031 C 
ATOM     59  C   UNL A   1      39.866  33.106  35.955  1.00  0.00     0.037 A 
BRANCH  46  60
ATOM     60  C   UNL A   1      43.875  28.425  35.612  1.00  0.00     0.058 A 
ATOM     61  C   UNL A   1      45.238  28.723  35.463  1.00  0.00     0.135 A 
ATOM     62  C   UNL A   1      43.523  27.387  36.491  1.00  0.00     0.135 A 
ATOM     63  F   UNL A   1      45.630  29.696  34.625  1.00  0.00    -0.206 F 
ATOM     64  C   UNL A   1      46.217  28.012  36.150  1.00  0.00     0.059 A 
ATOM     65  C   UNL A   1      44.484  26.679  37.208  1.00  0.00     0.059 A 
ATOM     66  F   UNL A   1      42.234  27.061  36.671  1.00  0.00    -0.206 F 
ATOM     67  C   UNL A   1      45.830  26.993  37.023  1.00  0.00     0.060 A 
BRANCH  67  68
ATOM     68  S   UNL A   1      47.112  26.101  37.929  1.00  0.00     0.124 S 
ATOM     69  O   UNL A   1      47.594  27.133  38.842  1.00  0.00    -0.237 OA
ATOM     70  O   UNL A   1      46.360  25.013  38.544  1.00  0.00    -0.237 OA
ATOM     71  O   UNL A   1      48.050  25.700  36.884  1.00  0.00    -0.744 OA
ENDBRANCH  67  68
ENDBRANCH  46  60
BRANCH  47  72
ATOM     72  C   UNL A   1      36.557  33.302  30.887  1.00  0.00     0.058 A 
ATOM     73  C   UNL A   1      36.775  34.257  29.883  1.00  0.00     0.135 A 
ATOM     74  C   UNL A   1      35.229  33.035  31.256  1.00  0.00     0.135 A 
ATOM     75  F   UNL A   1      38.027  34.552  29.500  1.00  0.00    -0.206 F 
ATOM     76  C   UNL A   1      35.722  34.946  29.289  1.00  0.00     0.059 A 
ATOM     77  C   UNL A   1      34.157  33.692  30.657  1.00  0.00     0.059 A 
ATOM     78  F   UNL A   1      34.964  32.118  32.200  1.00  0.00    -0.206 F 
ATOM     79  C   UNL A   1      34.415  34.659  29.687  1.00  0.00     0.060 A 
BRANCH  79  80
ATOM     80  S   UNL A   1      33.054  35.558  28.911  1.00  0.00     0.124 S 
ATOM     81  O   UNL A   1      33.774  36.529  28.096  1.00  0.00    -0.237 OA
ATOM     82  O   UNL A   1      32.363  34.501  28.180  1.00  0.00    -0.237 OA
ATOM     83  O   UNL A   1      32.322  36.108  30.048  1.00  0.00    -0.744 OA
ENDBRANCH  79  80
ENDBRANCH  47  72
BRANCH  59  84
ATOM     84  C   UNL A   1      39.670  34.082  37.080  1.00  0.00     0.058 A 
ATOM     85  C   UNL A   1      38.808  33.807  38.153  1.00  0.00     0.135 A 
ATOM     86  C   UNL A   1      40.401  35.280  37.117  1.00  0.00     0.135 A 
ATOM     87  F   UNL A   1      38.082  32.678  38.163  1.00  0.00    -0.206 F 
ATOM     88  C   UNL A   1      38.663  34.694  39.214  1.00  0.00     0.059 A 
ATOM     89  C   UNL A   1      40.291  36.171  38.180  1.00  0.00     0.059 A 
ATOM     90  F   UNL A   1      41.248  35.586  36.120  1.00  0.00    -0.206 F 
ATOM     91  C   UNL A   1      39.411  35.874  39.220  1.00  0.00     0.060 A 
BRANCH  91  92
ATOM     92  S   UNL A   1      39.247  36.998  40.623  1.00  0.00     0.124 S 
ATOM     93  O   UNL A   1      38.318  37.991  40.098  1.00  0.00    -0.237 OA
ATOM     94  O   UNL A   1      38.720  36.124  41.667  1.00  0.00    -0.237 OA
ATOM     95  O   UNL A   1      40.612  37.469  40.842  1.00  0.00    -0.744 OA
ENDBRANCH  91  92
ENDBRANCH  59  84
ENDBRANCH  33  34
ENDBRANCH  25  28
ENDBRANCH  23  24
ENDBRANCH  22  23
ENDBRANCH   1  22
TORSDOF 18
ENDMDL
