MODEL 1
REMARK VINA RESULT:     -11.6      0.000      0.000
REMARK SMILES C[C@H](CNS(=O)(=O)c1ccc(C(=O)NCCCNC(=O)c2ccc(-c3c4nc(c(-c5c(F)cc(S(=O)(=O)[O-])cc5F)c5ccc([nH]5)c(-c5c(F)cc(S(=O)(=O)[O-])cc5F)c5nc(c(-c6c(F)cc(S(=O)(=O)[O-])cc6F)c6ccc3[nH]6)C=C5)C=C4)cc2)cc1F)[NH+](C)C
REMARK SMILES IDX 15 1 14 2 12 3 13 4 11 6 8 7 9 8 88 9 10 10 87 11 89 12 5 13
REMARK SMILES IDX 6 14 7 15 4 16 3 18 2 19 1 20 90 21 91 22 92 23 16 25 17 26
REMARK SMILES IDX 18 27 19 28 20 30 21 31 22 32 86 33 23 34 85 35 24 36 25 37
REMARK SMILES IDX 26 38 79 39 27 40 84 41 78 42 80 43 28 44 83 45 77 46 76 47
REMARK SMILES IDX 29 49 63 50 42 51 62 52 43 53 46 54 61 55 81 56 44 57 45 58
REMARK SMILES IDX 60 60 82 61 47 62 30 63 31 64 40 65 32 66 33 67 39 68 41 69
REMARK SMILES IDX 34 70 35 71 36 72 37 73 38 74 64 75 65 76 74 77 66 78 67 79
REMARK SMILES IDX 73 80 75 81 68 82 69 83 70 84 71 85 72 86 48 87 49 88 58 89
REMARK SMILES IDX 50 90 51 91 57 92 59 93 52 94 53 95 54 96 55 97 56 98
REMARK H PARENT 14 5 4 17 90 24 18 29 80 48 46 59
REMARK Flexibility Score: inf
ROOT
ATOM      1  C   UNL A   1      33.412  30.398  26.717  1.00  0.00     0.118 C 
ENDROOT
BRANCH   1   2
ATOM      2  N   UNL A   1      32.559  29.579  27.560  1.00  0.00    -0.352 N 
ATOM      3  C   UNL A   1      31.972  28.359  27.361  1.00  0.00     0.251 C 
ATOM      4  O   UNL A   1      31.298  27.880  28.271  1.00  0.00    -0.269 OA
ATOM      5  H   UNL A   1      32.367  29.977  28.440  1.00  0.00     0.163 HD
BRANCH   3   6
ATOM      6  C   UNL A   1      32.195  27.553  26.135  1.00  0.00     0.042 A 
ATOM      7  C   UNL A   1      32.866  26.031  23.877  1.00  0.00     0.118 A 
ATOM      8  C   UNL A   1      33.557  25.843  25.078  1.00  0.00     0.026 A 
ATOM      9  C   UNL A   1      31.821  26.943  23.821  1.00  0.00     0.144 A 
ATOM     10  C   UNL A   1      33.213  26.592  26.202  1.00  0.00     0.015 A 
ATOM     11  C   UNL A   1      31.469  27.688  24.951  1.00  0.00     0.054 A 
ATOM     12  F   UNL A   1      31.136  27.169  22.696  1.00  0.00    -0.205 F 
BRANCH   7  13
ATOM     13  S   UNL A   1      33.428  25.195  22.431  1.00  0.00     0.243 S 
ATOM     14  O   UNL A   1      34.553  24.366  22.820  1.00  0.00    -0.207 OA
ATOM     15  O   UNL A   1      33.517  26.117  21.330  1.00  0.00    -0.207 OA
BRANCH  13  16
ATOM     16  N   UNL A   1      32.132  24.185  22.049  1.00  0.00    -0.205 NA
ATOM     17  H   UNL A   1      31.491  24.722  21.465  1.00  0.00     0.141 HD
BRANCH  16  18
ATOM     18  C   UNL A   1      31.345  23.622  23.162  1.00  0.00     0.163 C 
BRANCH  18  19
ATOM     19  C   UNL A   1      31.857  22.230  23.623  1.00  0.00     0.195 C 
ATOM     20  C   UNL A   1      32.131  21.301  22.433  1.00  0.00     0.076 C 
BRANCH  19  21
ATOM     21  N   UNL A   1      32.945  22.330  24.630  1.00  0.00    -0.337 N 
ATOM     22  C   UNL A   1      32.396  22.364  25.991  1.00  0.00     0.332 C 
ATOM     23  C   UNL A   1      33.963  21.279  24.562  1.00  0.00     0.332 C 
ATOM     24  H   UNL A   1      33.418  23.203  24.396  1.00  0.00     0.347 HD
ENDBRANCH  19  21
ENDBRANCH  18  19
ENDBRANCH  16  18
ENDBRANCH  13  16
ENDBRANCH   7  13
ENDBRANCH   3   6
ENDBRANCH   1   2
BRANCH   1  25
ATOM     25  C   UNL A   1      34.368  31.232  27.566  1.00  0.00     0.042 C 
BRANCH  25  26
ATOM     26  C   UNL A   1      35.465  30.401  28.226  1.00  0.00     0.118 C 
BRANCH  26  27
ATOM     27  N   UNL A   1      35.484  30.578  29.670  1.00  0.00    -0.352 N 
ATOM     28  C   UNL A   1      36.434  30.197  30.584  1.00  0.00     0.251 C 
ATOM     29  H   UNL A   1      34.700  31.040  30.047  1.00  0.00     0.163 HD
ATOM     30  O   UNL A   1      36.163  30.215  31.780  1.00  0.00    -0.269 OA
BRANCH  28  31
ATOM     31  C   UNL A   1      37.773  29.763  30.131  1.00  0.00     0.039 A 
ATOM     32  C   UNL A   1      38.194  30.106  28.842  1.00  0.00     0.014 A 
ATOM     33  C   UNL A   1      38.595  28.987  30.954  1.00  0.00     0.014 A 
ATOM     34  C   UNL A   1      39.457  29.709  28.399  1.00  0.00     0.010 A 
ATOM     35  C   UNL A   1      39.880  28.652  30.536  1.00  0.00     0.010 A 
ATOM     36  C   UNL A   1      40.319  29.001  29.250  1.00  0.00    -0.014 A 
BRANCH  36  37
ATOM     37  C   UNL A   1      41.683  28.608  28.813  1.00  0.00     0.031 A 
ATOM     38  C   UNL A   1      42.785  29.629  28.769  1.00  0.00     0.074 A 
ATOM     39  C   UNL A   1      41.908  27.346  28.399  1.00  0.00     0.049 A 
ATOM     40  N   UNL A   1      44.018  29.496  28.351  1.00  0.00    -0.248 NA
ATOM     41  C   UNL A   1      42.453  30.987  29.232  1.00  0.00     0.031 C 
ATOM     42  C   UNL A   1      40.905  26.280  28.359  1.00  0.00     0.029 A 
ATOM     43  N   UNL A   1      43.049  26.748  27.928  1.00  0.00    -0.354 N 
ATOM     44  C   UNL A   1      44.601  30.750  28.486  1.00  0.00     0.074 A 
ATOM     45  C   UNL A   1      43.575  31.642  28.977  1.00  0.00     0.031 C 
ATOM     46  C   UNL A   1      41.482  25.152  27.915  1.00  0.00     0.029 A 
ATOM     47  C   UNL A   1      42.883  25.422  27.604  1.00  0.00     0.049 A 
ATOM     48  H   UNL A   1      43.906  27.223  27.831  1.00  0.00     0.167 HD
ATOM     49  C   UNL A   1      45.883  31.115  28.245  1.00  0.00     0.037 A 
ATOM     50  C   UNL A   1      43.758  24.525  27.109  1.00  0.00     0.037 A 
ATOM     51  C   UNL A   1      46.903  30.212  27.783  1.00  0.00     0.049 A 
ATOM     52  C   UNL A   1      45.174  24.952  26.848  1.00  0.00     0.074 A 
ATOM     53  C   UNL A   1      48.244  30.469  27.563  1.00  0.00     0.029 A 
ATOM     54  N   UNL A   1      46.696  28.874  27.471  1.00  0.00    -0.354 N 
ATOM     55  N   UNL A   1      45.723  26.129  27.024  1.00  0.00    -0.248 NA
ATOM     56  C   UNL A   1      46.092  23.932  26.323  1.00  0.00     0.031 C 
ATOM     57  C   UNL A   1      48.840  29.300  27.079  1.00  0.00     0.029 A 
ATOM     58  C   UNL A   1      47.880  28.300  27.042  1.00  0.00     0.049 A 
ATOM     59  H   UNL A   1      45.834  28.405  27.545  1.00  0.00     0.167 HD
ATOM     60  C   UNL A   1      47.054  25.990  26.648  1.00  0.00     0.074 A 
ATOM     61  C   UNL A   1      47.229  24.610  26.245  1.00  0.00     0.031 C 
ATOM     62  C   UNL A   1      48.037  26.923  26.638  1.00  0.00     0.037 A 
BRANCH  49  63
ATOM     63  C   UNL A   1      46.254  32.553  28.485  1.00  0.00     0.058 A 
ATOM     64  C   UNL A   1      46.174  33.496  27.447  1.00  0.00     0.135 A 
ATOM     65  C   UNL A   1      46.722  32.995  29.734  1.00  0.00     0.135 A 
ATOM     66  F   UNL A   1      45.730  33.131  26.234  1.00  0.00    -0.206 F 
ATOM     67  C   UNL A   1      46.544  34.823  27.639  1.00  0.00     0.059 A 
ATOM     68  C   UNL A   1      47.072  34.324  29.955  1.00  0.00     0.059 A 
ATOM     69  F   UNL A   1      46.800  32.140  30.766  1.00  0.00    -0.206 F 
ATOM     70  C   UNL A   1      46.990  35.229  28.898  1.00  0.00     0.060 A 
BRANCH  70  71
ATOM     71  S   UNL A   1      47.407  36.967  29.149  1.00  0.00     0.124 S 
ATOM     72  O   UNL A   1      46.749  37.601  28.012  1.00  0.00    -0.237 OA
ATOM     73  O   UNL A   1      46.822  37.240  30.458  1.00  0.00    -0.237 OA
ATOM     74  O   UNL A   1      48.868  36.972  29.114  1.00  0.00    -0.744 OA
ENDBRANCH  70  71
ENDBRANCH  49  63
BRANCH  50  75
ATOM     75  C   UNL A   1      43.309  23.128  26.874  1.00  0.00     0.058 A 
ATOM     76  C   UNL A   1      43.100  22.239  27.940  1.00  0.00     0.135 A 
ATOM     77  C   UNL A   1      43.162  22.633  25.570  1.00  0.00     0.135 A 
ATOM     78  F   UNL A   1      43.239  22.661  29.205  1.00  0.00    -0.206 F 
ATOM     79  C   UNL A   1      42.799  20.899  27.720  1.00  0.00     0.059 A 
ATOM     80  C   UNL A   1      42.840  21.303  25.324  1.00  0.00     0.059 A 
ATOM     81  F   UNL A   1      43.341  23.451  24.521  1.00  0.00    -0.206 F 
ATOM     82  C   UNL A   1      42.683  20.437  26.408  1.00  0.00     0.060 A 
BRANCH  82  83
ATOM     83  S   UNL A   1      42.349  18.683  26.143  1.00  0.00     0.124 S 
ATOM     84  O   UNL A   1      43.306  18.361  25.089  1.00  0.00    -0.237 OA
ATOM     85  O   UNL A   1      42.635  18.115  27.456  1.00  0.00    -0.237 OA
ATOM     86  O   UNL A   1      40.945  18.663  25.744  1.00  0.00    -0.744 OA
ENDBRANCH  82  83
ENDBRANCH  50  75
BRANCH  62  87
ATOM     87  C   UNL A   1      49.403  26.490  26.184  1.00  0.00     0.058 A 
ATOM     88  C   UNL A   1      50.335  25.990  27.106  1.00  0.00     0.135 A 
ATOM     89  C   UNL A   1      49.818  26.653  24.853  1.00  0.00     0.135 A 
ATOM     90  F   UNL A   1      49.989  25.819  28.393  1.00  0.00    -0.206 F 
ATOM     91  C   UNL A   1      51.638  25.687  26.730  1.00  0.00     0.059 A 
ATOM     92  C   UNL A   1      51.110  26.334  24.449  1.00  0.00     0.059 A 
ATOM     93  F   UNL A   1      48.959  27.116  23.931  1.00  0.00    -0.206 F 
ATOM     94  C   UNL A   1      52.020  25.869  25.400  1.00  0.00     0.060 A 
BRANCH  94  95
ATOM     95  S   UNL A   1      53.716  25.474  24.929  1.00  0.00     0.124 S 
ATOM     96  O   UNL A   1      53.648  24.028  24.750  1.00  0.00    -0.237 OA
ATOM     97  O   UNL A   1      53.890  26.257  23.710  1.00  0.00    -0.237 OA
ATOM     98  O   UNL A   1      54.500  25.929  26.073  1.00  0.00    -0.744 OA
ENDBRANCH  94  95
ENDBRANCH  62  87
ENDBRANCH  36  37
ENDBRANCH  28  31
ENDBRANCH  26  27
ENDBRANCH  25  26
ENDBRANCH   1  25
TORSDOF 18
ENDMDL
MODEL 2
REMARK VINA RESULT:     -11.5      6.466     12.191
REMARK SMILES C[C@H](CNS(=O)(=O)c1ccc(C(=O)NCCCNC(=O)c2ccc(-c3c4nc(c(-c5c(F)cc(S(=O)(=O)[O-])cc5F)c5ccc([nH]5)c(-c5c(F)cc(S(=O)(=O)[O-])cc5F)c5nc(c(-c6c(F)cc(S(=O)(=O)[O-])cc6F)c6ccc3[nH]6)C=C5)C=C4)cc2)cc1F)[NH+](C)C
REMARK SMILES IDX 15 1 14 2 12 3 13 4 11 6 8 7 9 8 88 9 10 10 87 11 89 12 5 13
REMARK SMILES IDX 6 14 7 15 4 16 3 18 2 19 1 20 90 21 91 22 92 23 16 25 17 26
REMARK SMILES IDX 18 27 19 28 20 30 21 31 22 32 86 33 23 34 85 35 24 36 25 37
REMARK SMILES IDX 26 38 79 39 27 40 84 41 78 42 80 43 28 44 83 45 77 46 76 47
REMARK SMILES IDX 29 49 63 50 42 51 62 52 43 53 46 54 61 55 81 56 44 57 45 58
REMARK SMILES IDX 60 60 82 61 47 62 30 63 31 64 40 65 32 66 33 67 39 68 41 69
REMARK SMILES IDX 34 70 35 71 36 72 37 73 38 74 64 75 65 76 74 77 66 78 67 79
REMARK SMILES IDX 73 80 75 81 68 82 69 83 70 84 71 85 72 86 48 87 49 88 58 89
REMARK SMILES IDX 50 90 51 91 57 92 59 93 52 94 53 95 54 96 55 97 56 98
REMARK H PARENT 14 5 4 17 90 24 18 29 80 48 46 59
REMARK Flexibility Score: inf
ROOT
ATOM      1  C   UNL A   1      38.138  22.602  25.623  1.00  0.00     0.118 C 
ENDROOT
BRANCH   1   2
ATOM      2  N   UNL A   1      37.183  21.517  25.470  1.00  0.00    -0.352 N 
ATOM      3  C   UNL A   1      35.841  21.508  25.204  1.00  0.00     0.251 C 
ATOM      4  O   UNL A   1      35.272  20.422  25.112  1.00  0.00    -0.269 OA
ATOM      5  H   UNL A   1      37.576  20.622  25.580  1.00  0.00     0.163 HD
BRANCH   3   6
ATOM      6  C   UNL A   1      35.070  22.745  24.929  1.00  0.00     0.042 A 
ATOM      7  C   UNL A   1      33.770  25.125  24.210  1.00  0.00     0.118 A 
ATOM      8  C   UNL A   1      34.281  24.280  23.220  1.00  0.00     0.026 A 
ATOM      9  C   UNL A   1      33.873  24.759  25.546  1.00  0.00     0.144 A 
ATOM     10  C   UNL A   1      34.916  23.092  23.579  1.00  0.00     0.015 A 
ATOM     11  C   UNL A   1      34.500  23.563  25.907  1.00  0.00     0.054 A 
ATOM     12  F   UNL A   1      33.411  25.535  26.531  1.00  0.00    -0.205 F 
BRANCH   7  13
ATOM     13  S   UNL A   1      33.122  26.695  23.740  1.00  0.00     0.243 S 
ATOM     14  O   UNL A   1      31.823  26.833  24.372  1.00  0.00    -0.207 OA
ATOM     15  O   UNL A   1      33.298  26.899  22.327  1.00  0.00    -0.207 OA
BRANCH  13  16
ATOM     16  N   UNL A   1      34.186  27.779  24.473  1.00  0.00    -0.205 NA
ATOM     17  H   UNL A   1      34.757  27.246  25.131  1.00  0.00     0.141 HD
BRANCH  16  18
ATOM     18  C   UNL A   1      33.611  28.917  25.213  1.00  0.00     0.163 C 
BRANCH  18  19
ATOM     19  C   UNL A   1      33.730  28.761  26.754  1.00  0.00     0.195 C 
ATOM     20  C   UNL A   1      35.083  29.261  27.275  1.00  0.00     0.076 C 
BRANCH  19  21
ATOM     21  N   UNL A   1      32.532  29.273  27.470  1.00  0.00    -0.337 N 
ATOM     22  C   UNL A   1      31.958  30.427  26.770  1.00  0.00     0.332 C 
ATOM     23  C   UNL A   1      31.471  28.290  27.702  1.00  0.00     0.332 C 
ATOM     24  H   UNL A   1      32.888  29.533  28.390  1.00  0.00     0.347 HD
ENDBRANCH  19  21
ENDBRANCH  18  19
ENDBRANCH  16  18
ENDBRANCH  13  16
ENDBRANCH   7  13
ENDBRANCH   3   6
ENDBRANCH   1   2
BRANCH   1  25
ATOM     25  C   UNL A   1      39.355  22.140  26.420  1.00  0.00     0.042 C 
BRANCH  25  26
ATOM     26  C   UNL A   1      40.140  23.294  27.038  1.00  0.00     0.118 C 
BRANCH  26  27
ATOM     27  N   UNL A   1      41.073  23.884  26.090  1.00  0.00    -0.352 N 
ATOM     28  C   UNL A   1      41.529  25.175  26.002  1.00  0.00     0.251 C 
ATOM     29  H   UNL A   1      41.430  23.266  25.411  1.00  0.00     0.163 HD
ATOM     30  O   UNL A   1      42.121  25.539  24.991  1.00  0.00    -0.269 OA
BRANCH  28  31
ATOM     31  C   UNL A   1      41.304  26.123  27.115  1.00  0.00     0.039 A 
ATOM     32  C   UNL A   1      40.300  25.845  28.047  1.00  0.00     0.014 A 
ATOM     33  C   UNL A   1      42.050  27.301  27.219  1.00  0.00     0.014 A 
ATOM     34  C   UNL A   1      40.076  26.726  29.107  1.00  0.00     0.010 A 
ATOM     35  C   UNL A   1      41.873  28.142  28.314  1.00  0.00     0.010 A 
ATOM     36  C   UNL A   1      40.877  27.868  29.262  1.00  0.00    -0.014 A 
BRANCH  36  37
ATOM     37  C   UNL A   1      40.684  28.794  30.407  1.00  0.00     0.031 A 
ATOM     38  C   UNL A   1      41.535  28.658  31.639  1.00  0.00     0.074 A 
ATOM     39  C   UNL A   1      39.703  29.715  30.356  1.00  0.00     0.049 A 
ATOM     40  N   UNL A   1      41.470  29.322  32.764  1.00  0.00    -0.248 NA
ATOM     41  C   UNL A   1      42.580  27.621  31.615  1.00  0.00     0.031 C 
ATOM     42  C   UNL A   1      38.789  29.912  29.230  1.00  0.00     0.029 A 
ATOM     43  N   UNL A   1      39.306  30.653  31.275  1.00  0.00    -0.354 N 
ATOM     44  C   UNL A   1      42.451  28.777  33.584  1.00  0.00     0.074 A 
ATOM     45  C   UNL A   1      43.063  27.694  32.846  1.00  0.00     0.031 C 
ATOM     46  C   UNL A   1      37.957  30.927  29.512  1.00  0.00     0.029 A 
ATOM     47  C   UNL A   1      38.252  31.427  30.852  1.00  0.00     0.049 A 
ATOM     48  H   UNL A   1      39.736  30.762  32.154  1.00  0.00     0.167 HD
ATOM     49  C   UNL A   1      42.822  29.162  34.828  1.00  0.00     0.037 A 
ATOM     50  C   UNL A   1      37.593  32.424  31.474  1.00  0.00     0.037 A 
ATOM     51  C   UNL A   1      42.225  30.259  35.541  1.00  0.00     0.049 A 
ATOM     52  C   UNL A   1      38.020  32.835  32.854  1.00  0.00     0.074 A 
ATOM     53  C   UNL A   1      42.566  30.766  36.783  1.00  0.00     0.029 A 
ATOM     54  N   UNL A   1      41.161  31.022  35.077  1.00  0.00    -0.354 N 
ATOM     55  N   UNL A   1      38.980  32.340  33.598  1.00  0.00    -0.248 NA
ATOM     56  C   UNL A   1      37.280  33.938  33.481  1.00  0.00     0.031 C 
ATOM     57  C   UNL A   1      41.685  31.808  37.087  1.00  0.00     0.029 A 
ATOM     58  C   UNL A   1      40.822  31.982  36.015  1.00  0.00     0.049 A 
ATOM     59  H   UNL A   1      40.716  30.899  34.208  1.00  0.00     0.167 HD
ATOM     60  C   UNL A   1      38.971  33.080  34.775  1.00  0.00     0.074 A 
ATOM     61  C   UNL A   1      37.917  34.065  34.638  1.00  0.00     0.031 C 
ATOM     62  C   UNL A   1      39.765  32.953  35.866  1.00  0.00     0.037 A 
BRANCH  49  63
ATOM     63  C   UNL A   1      43.931  28.393  35.493  1.00  0.00     0.058 A 
ATOM     64  C   UNL A   1      43.645  27.307  36.334  1.00  0.00     0.135 A 
ATOM     65  C   UNL A   1      45.279  28.753  35.325  1.00  0.00     0.135 A 
ATOM     66  F   UNL A   1      42.376  26.916  36.528  1.00  0.00    -0.206 F 
ATOM     67  C   UNL A   1      44.654  26.604  36.986  1.00  0.00     0.059 A 
ATOM     68  C   UNL A   1      46.307  28.047  35.945  1.00  0.00     0.059 A 
ATOM     69  F   UNL A   1      45.611  29.772  34.516  1.00  0.00    -0.206 F 
ATOM     70  C   UNL A   1      45.983  26.980  36.783  1.00  0.00     0.060 A 
BRANCH  70  71
ATOM     71  S   UNL A   1      47.286  26.020  37.584  1.00  0.00     0.124 S 
ATOM     72  O   UNL A   1      48.300  25.959  36.538  1.00  0.00    -0.237 OA
ATOM     73  O   UNL A   1      47.612  26.848  38.741  1.00  0.00    -0.237 OA
ATOM     74  O   UNL A   1      46.628  24.754  37.898  1.00  0.00    -0.744 OA
ENDBRANCH  70  71
ENDBRANCH  49  63
BRANCH  50  75
ATOM     75  C   UNL A   1      36.489  33.120  30.761  1.00  0.00     0.058 A 
ATOM     76  C   UNL A   1      36.750  34.088  29.779  1.00  0.00     0.135 A 
ATOM     77  C   UNL A   1      35.152  32.885  31.112  1.00  0.00     0.135 A 
ATOM     78  F   UNL A   1      38.014  34.356  29.417  1.00  0.00    -0.206 F 
ATOM     79  C   UNL A   1      35.726  34.826  29.197  1.00  0.00     0.059 A 
ATOM     80  C   UNL A   1      34.108  33.596  30.528  1.00  0.00     0.059 A 
ATOM     81  F   UNL A   1      34.856  31.960  32.037  1.00  0.00    -0.206 F 
ATOM     82  C   UNL A   1      34.408  34.582  29.588  1.00  0.00     0.060 A 
BRANCH  82  83
ATOM     83  S   UNL A   1      33.098  35.590  28.863  1.00  0.00     0.124 S 
ATOM     84  O   UNL A   1      33.872  36.578  28.117  1.00  0.00    -0.237 OA
ATOM     85  O   UNL A   1      32.369  34.614  28.059  1.00  0.00    -0.237 OA
ATOM     86  O   UNL A   1      32.382  36.103  30.027  1.00  0.00    -0.744 OA
ENDBRANCH  82  83
ENDBRANCH  50  75
BRANCH  62  87
ATOM     87  C   UNL A   1      39.537  33.904  37.008  1.00  0.00     0.058 A 
ATOM     88  C   UNL A   1      40.223  35.127  37.063  1.00  0.00     0.135 A 
ATOM     89  C   UNL A   1      38.706  33.566  38.087  1.00  0.00     0.135 A 
ATOM     90  F   UNL A   1      41.033  35.495  36.058  1.00  0.00    -0.206 F 
ATOM     91  C   UNL A   1      40.113  35.972  38.162  1.00  0.00     0.059 A 
ATOM     92  C   UNL A   1      38.562  34.408  39.186  1.00  0.00     0.059 A 
ATOM     93  F   UNL A   1      38.019  32.413  38.074  1.00  0.00    -0.206 F 
ATOM     94  C   UNL A   1      39.285  35.600  39.223  1.00  0.00     0.060 A 
BRANCH  94  95
ATOM     95  S   UNL A   1      39.156  36.708  40.642  1.00  0.00     0.124 S 
ATOM     96  O   UNL A   1      38.456  37.851  40.066  1.00  0.00    -0.237 OA
ATOM     97  O   UNL A   1      38.389  35.906  41.591  1.00  0.00    -0.237 OA
ATOM     98  O   UNL A   1      40.547  36.945  41.014  1.00  0.00    -0.744 OA
ENDBRANCH  94  95
ENDBRANCH  62  87
ENDBRANCH  36  37
ENDBRANCH  28  31
ENDBRANCH  26  27
ENDBRANCH  25  26
ENDBRANCH   1  25
TORSDOF 18
ENDMDL
MODEL 3
REMARK VINA RESULT:     -11.2      2.443      8.600
REMARK SMILES C[C@H](CNS(=O)(=O)c1ccc(C(=O)NCCCNC(=O)c2ccc(-c3c4nc(c(-c5c(F)cc(S(=O)(=O)[O-])cc5F)c5ccc([nH]5)c(-c5c(F)cc(S(=O)(=O)[O-])cc5F)c5nc(c(-c6c(F)cc(S(=O)(=O)[O-])cc6F)c6ccc3[nH]6)C=C5)C=C4)cc2)cc1F)[NH+](C)C
REMARK SMILES IDX 15 1 14 2 12 3 13 4 11 6 8 7 9 8 88 9 10 10 87 11 89 12 5 13
REMARK SMILES IDX 6 14 7 15 4 16 3 18 2 19 1 20 90 21 91 22 92 23 16 25 17 26
REMARK SMILES IDX 18 27 19 28 20 30 21 31 22 32 86 33 23 34 85 35 24 36 25 37
REMARK SMILES IDX 26 38 79 39 27 40 84 41 78 42 80 43 28 44 83 45 77 46 76 47
REMARK SMILES IDX 29 49 63 50 42 51 62 52 43 53 46 54 61 55 81 56 44 57 45 58
REMARK SMILES IDX 60 60 82 61 47 62 30 63 31 64 40 65 32 66 33 67 39 68 41 69
REMARK SMILES IDX 34 70 35 71 36 72 37 73 38 74 64 75 65 76 74 77 66 78 67 79
REMARK SMILES IDX 73 80 75 81 68 82 69 83 70 84 71 85 72 86 48 87 49 88 58 89
REMARK SMILES IDX 50 90 51 91 57 92 59 93 52 94 53 95 54 96 55 97 56 98
REMARK H PARENT 14 5 4 17 90 24 18 29 80 48 46 59
REMARK Flexibility Score: inf
ROOT
ATOM      1  C   UNL A   1      37.651  20.892  24.633  1.00  0.00     0.118 C 
ENDROOT
BRANCH   1   2
ATOM      2  N   UNL A   1      38.090  22.105  25.301  1.00  0.00    -0.352 N 
ATOM      3  C   UNL A   1      37.405  23.188  25.779  1.00  0.00     0.251 C 
ATOM      4  O   UNL A   1      38.041  24.087  26.327  1.00  0.00    -0.269 OA
ATOM      5  H   UNL A   1      39.064  22.157  25.433  1.00  0.00     0.163 HD
BRANCH   3   6
ATOM      6  C   UNL A   1      35.924  23.276  25.750  1.00  0.00     0.042 A 
ATOM      7  C   UNL A   1      33.151  23.698  25.732  1.00  0.00     0.118 A 
ATOM      8  C   UNL A   1      34.006  24.650  25.171  1.00  0.00     0.026 A 
ATOM      9  C   UNL A   1      33.678  22.526  26.259  1.00  0.00     0.144 A 
ATOM     10  C   UNL A   1      35.383  24.433  25.170  1.00  0.00     0.015 A 
ATOM     11  C   UNL A   1      35.057  22.302  26.250  1.00  0.00     0.054 A 
ATOM     12  F   UNL A   1      32.904  21.589  26.817  1.00  0.00    -0.205 F 
BRANCH   7  13
ATOM     13  S   UNL A   1      31.433  24.070  25.870  1.00  0.00     0.243 S 
ATOM     14  O   UNL A   1      31.180  24.437  27.251  1.00  0.00    -0.207 OA
ATOM     15  O   UNL A   1      30.654  23.061  25.204  1.00  0.00    -0.207 OA
BRANCH  13  16
ATOM     16  N   UNL A   1      31.267  25.450  24.915  1.00  0.00    -0.205 NA
ATOM     17  H   UNL A   1      32.175  25.635  24.488  1.00  0.00     0.141 HD
BRANCH  16  18
ATOM     18  C   UNL A   1      30.829  26.695  25.572  1.00  0.00     0.163 C 
BRANCH  18  19
ATOM     19  C   UNL A   1      31.670  27.931  25.152  1.00  0.00     0.195 C 
ATOM     20  C   UNL A   1      30.887  28.863  24.217  1.00  0.00     0.076 C 
BRANCH  19  21
ATOM     21  N   UNL A   1      32.335  28.586  26.308  1.00  0.00    -0.337 N 
ATOM     22  C   UNL A   1      32.322  30.046  26.161  1.00  0.00     0.332 C 
ATOM     23  C   UNL A   1      31.789  28.243  27.624  1.00  0.00     0.332 C 
ATOM     24  H   UNL A   1      33.286  28.216  26.288  1.00  0.00     0.347 HD
ENDBRANCH  19  21
ENDBRANCH  18  19
ENDBRANCH  16  18
ENDBRANCH  13  16
ENDBRANCH   7  13
ENDBRANCH   3   6
ENDBRANCH   1   2
BRANCH   1  25
ATOM     25  C   UNL A   1      38.441  19.685  25.132  1.00  0.00     0.042 C 
BRANCH  25  26
ATOM     26  C   UNL A   1      39.538  20.055  26.126  1.00  0.00     0.118 C 
BRANCH  26  27
ATOM     27  N   UNL A   1      40.622  19.084  26.124  1.00  0.00    -0.352 N 
ATOM     28  C   UNL A   1      41.978  19.290  26.089  1.00  0.00     0.251 C 
ATOM     29  H   UNL A   1      40.341  18.141  26.152  1.00  0.00     0.163 HD
ATOM     30  O   UNL A   1      42.726  18.347  25.848  1.00  0.00    -0.269 OA
BRANCH  28  31
ATOM     31  C   UNL A   1      42.535  20.637  26.336  1.00  0.00     0.039 A 
ATOM     32  C   UNL A   1      43.014  21.379  25.253  1.00  0.00     0.014 A 
ATOM     33  C   UNL A   1      42.625  21.152  27.633  1.00  0.00     0.014 A 
ATOM     34  C   UNL A   1      43.540  22.655  25.466  1.00  0.00     0.010 A 
ATOM     35  C   UNL A   1      43.085  22.450  27.835  1.00  0.00     0.010 A 
ATOM     36  C   UNL A   1      43.556  23.210  26.755  1.00  0.00    -0.014 A 
BRANCH  36  37
ATOM     37  C   UNL A   1      44.071  24.582  26.996  1.00  0.00     0.031 A 
ATOM     38  C   UNL A   1      43.133  25.673  27.433  1.00  0.00     0.074 A 
ATOM     39  C   UNL A   1      45.369  24.854  26.763  1.00  0.00     0.049 A 
ATOM     40  N   UNL A   1      43.379  26.944  27.625  1.00  0.00    -0.248 NA
ATOM     41  C   UNL A   1      41.729  25.293  27.659  1.00  0.00     0.031 C 
ATOM     42  C   UNL A   1      46.363  23.884  26.298  1.00  0.00     0.029 A 
ATOM     43  N   UNL A   1      46.075  26.024  26.879  1.00  0.00    -0.354 N 
ATOM     44  C   UNL A   1      42.163  27.515  27.979  1.00  0.00     0.074 A 
ATOM     45  C   UNL A   1      41.171  26.464  27.926  1.00  0.00     0.031 C 
ATOM     46  C   UNL A   1      47.555  24.493  26.195  1.00  0.00     0.029 A 
ATOM     47  C   UNL A   1      47.403  25.902  26.549  1.00  0.00     0.049 A 
ATOM     48  H   UNL A   1      45.667  26.872  27.170  1.00  0.00     0.167 HD
ATOM     49  C   UNL A   1      41.903  28.795  28.338  1.00  0.00     0.037 A 
ATOM     50  C   UNL A   1      48.389  26.820  26.529  1.00  0.00     0.037 A 
ATOM     51  C   UNL A   1      42.904  29.827  28.415  1.00  0.00     0.049 A 
ATOM     52  C   UNL A   1      48.080  28.234  26.931  1.00  0.00     0.074 A 
ATOM     53  C   UNL A   1      42.755  31.141  28.823  1.00  0.00     0.029 A 
ATOM     54  N   UNL A   1      44.241  29.662  28.077  1.00  0.00    -0.354 N 
ATOM     55  N   UNL A   1      46.934  28.749  27.308  1.00  0.00    -0.248 NA
ATOM     56  C   UNL A   1      49.193  29.193  26.908  1.00  0.00     0.031 C 
ATOM     57  C   UNL A   1      43.991  31.780  28.693  1.00  0.00     0.029 A 
ATOM     58  C   UNL A   1      44.922  30.855  28.249  1.00  0.00     0.049 A 
ATOM     59  H   UNL A   1      44.643  28.821  27.763  1.00  0.00     0.167 HD
ATOM     60  C   UNL A   1      47.189  30.088  27.582  1.00  0.00     0.074 A 
ATOM     61  C   UNL A   1      48.602  30.300  27.339  1.00  0.00     0.031 C 
ATOM     62  C   UNL A   1      46.330  31.050  27.997  1.00  0.00     0.037 A 
BRANCH  49  63
ATOM     63  C   UNL A   1      40.482  29.148  28.683  1.00  0.00     0.058 A 
ATOM     64  C   UNL A   1      39.546  29.418  27.672  1.00  0.00     0.135 A 
ATOM     65  C   UNL A   1      40.052  29.252  30.017  1.00  0.00     0.135 A 
ATOM     66  F   UNL A   1      39.899  29.330  26.381  1.00  0.00    -0.206 F 
ATOM     67  C   UNL A   1      38.235  29.779  27.971  1.00  0.00     0.059 A 
ATOM     68  C   UNL A   1      38.739  29.585  30.338  1.00  0.00     0.059 A 
ATOM     69  F   UNL A   1      40.901  28.986  31.023  1.00  0.00    -0.206 F 
ATOM     70  C   UNL A   1      37.840  29.857  29.307  1.00  0.00     0.060 A 
BRANCH  70  71
ATOM     71  S   UNL A   1      36.121  30.265  29.679  1.00  0.00     0.124 S 
ATOM     72  O   UNL A   1      35.425  29.709  28.524  1.00  0.00    -0.237 OA
ATOM     73  O   UNL A   1      35.907  29.573  30.946  1.00  0.00    -0.237 OA
ATOM     74  O   UNL A   1      36.132  31.723  29.766  1.00  0.00    -0.744 OA
ENDBRANCH  70  71
ENDBRANCH  49  63
BRANCH  50  75
ATOM     75  C   UNL A   1      49.764  26.401  26.152  1.00  0.00     0.058 A 
ATOM     76  C   UNL A   1      50.645  25.851  27.097  1.00  0.00     0.135 A 
ATOM     77  C   UNL A   1      50.248  26.620  24.854  1.00  0.00     0.135 A 
ATOM     78  F   UNL A   1      50.232  25.632  28.354  1.00  0.00    -0.206 F 
ATOM     79  C   UNL A   1      51.969  25.570  26.778  1.00  0.00     0.059 A 
ATOM     80  C   UNL A   1      51.563  26.327  24.505  1.00  0.00     0.059 A 
ATOM     81  F   UNL A   1      49.437  27.133  23.916  1.00  0.00    -0.206 F 
ATOM     82  C   UNL A   1      52.422  25.824  25.482  1.00  0.00     0.060 A 
BRANCH  82  83
ATOM     83  S   UNL A   1      54.159  25.506  25.104  1.00  0.00     0.124 S 
ATOM     84  O   UNL A   1      54.174  24.050  25.014  1.00  0.00    -0.237 OA
ATOM     85  O   UNL A   1      54.334  26.224  23.846  1.00  0.00    -0.237 OA
ATOM     86  O   UNL A   1      54.863  26.071  26.251  1.00  0.00    -0.744 OA
ENDBRANCH  82  83
ENDBRANCH  50  75
BRANCH  62  87
ATOM     87  C   UNL A   1      46.885  32.428  28.225  1.00  0.00     0.058 A 
ATOM     88  C   UNL A   1      47.407  32.787  29.478  1.00  0.00     0.135 A 
ATOM     89  C   UNL A   1      46.821  33.418  27.232  1.00  0.00     0.135 A 
ATOM     90  F   UNL A   1      47.487  31.879  30.464  1.00  0.00    -0.206 F 
ATOM     91  C   UNL A   1      47.824  34.086  29.746  1.00  0.00     0.059 A 
ATOM     92  C   UNL A   1      47.255  34.718  27.471  1.00  0.00     0.059 A 
ATOM     93  F   UNL A   1      46.342  33.120  26.013  1.00  0.00    -0.206 F 
ATOM     94  C   UNL A   1      47.737  35.047  28.738  1.00  0.00     0.060 A 
BRANCH  94  95
ATOM     95  S   UNL A   1      48.280  36.729  29.103  1.00  0.00     0.124 S 
ATOM     96  O   UNL A   1      49.456  36.490  29.933  1.00  0.00    -0.237 OA
ATOM     97  O   UNL A   1      48.542  37.266  27.772  1.00  0.00    -0.237 OA
ATOM     98  O   UNL A   1      47.133  37.313  29.791  1.00  0.00    -0.744 OA
ENDBRANCH  94  95
ENDBRANCH  62  87
ENDBRANCH  36  37
ENDBRANCH  28  31
ENDBRANCH  26  27
ENDBRANCH  25  26
ENDBRANCH   1  25
TORSDOF 18
ENDMDL
