MODEL 1
REMARK VINA RESULT:     -12.0      0.000      0.000
REMARK SMILES O=C(NCCCNC(=O)c1cccc(S(=O)(=O)Oc2ccccc2)c1)c1ccc(-c2c3nc(c(-c4c(F)cc(S(=O)(=O)[O-])cc4F)c4ccc([nH]4)c(-c4c(F)cc(S(=O)(=O)[O-])cc4F)c4nc(c(-c5c(F)cc(S(=O)(=O)[O-])cc5F)c5ccc2[nH]5)C=C4)C=C3)cc1
REMARK SMILES IDX 5 1 4 2 3 3 1 4 2 5 26 7 27 8 91 9 28 10 90 11 29 12 30 13
REMARK SMILES IDX 31 14 84 15 32 16 89 17 83 18 85 19 33 20 88 21 82 22 81 23
REMARK SMILES IDX 34 25 68 26 47 27 67 28 48 29 51 30 66 31 86 32 49 33 50 34
REMARK SMILES IDX 65 36 87 37 52 38 35 39 36 40 45 41 37 42 38 43 44 44 46 45
REMARK SMILES IDX 39 46 40 47 41 48 42 49 43 50 69 51 70 52 79 53 71 54 72 55
REMARK SMILES IDX 78 56 80 57 73 58 74 59 75 60 76 61 77 62 53 63 54 64 63 65
REMARK SMILES IDX 55 66 56 67 62 68 64 69 57 70 58 71 59 72 60 73 61 74 6 75
REMARK SMILES IDX 7 76 8 77 9 79 10 80 11 81 25 82 12 83 14 84 13 85 15 86
REMARK SMILES IDX 16 87 17 88 18 89 19 90 20 91 24 92 21 93 23 94 22 95
REMARK H PARENT 3 6 85 24 51 35 7 78
REMARK Flexibility Score: inf
ROOT
ATOM      1  C   UNL A   1      39.184  22.423  26.488  1.00  0.00     0.042 C 
ENDROOT
BRANCH   1   2
ATOM      2  C   UNL A   1      40.409  23.103  27.084  1.00  0.00     0.118 C 
BRANCH   2   3
ATOM      3  N   UNL A   1      41.219  23.800  26.093  1.00  0.00    -0.352 N 
ATOM      4  O   UNL A   1      42.151  25.524  24.993  1.00  0.00    -0.269 OA
ATOM      5  C   UNL A   1      41.584  25.124  26.008  1.00  0.00     0.251 C 
ATOM      6  H   UNL A   1      41.560  23.231  25.365  1.00  0.00     0.163 HD
BRANCH   5   7
ATOM      7  C   UNL A   1      41.276  26.068  27.105  1.00  0.00     0.039 A 
ATOM      8  C   UNL A   1      41.967  27.274  27.236  1.00  0.00     0.014 A 
ATOM      9  C   UNL A   1      40.262  25.749  28.014  1.00  0.00     0.014 A 
ATOM     10  C   UNL A   1      41.776  28.062  28.366  1.00  0.00     0.010 A 
ATOM     11  C   UNL A   1      40.001  26.595  29.098  1.00  0.00     0.010 A 
ATOM     12  C   UNL A   1      40.790  27.736  29.311  1.00  0.00    -0.014 A 
BRANCH  12  13
ATOM     13  C   UNL A   1      40.594  28.616  30.493  1.00  0.00     0.031 A 
ATOM     14  C   UNL A   1      41.503  28.525  31.691  1.00  0.00     0.074 A 
ATOM     15  C   UNL A   1      39.611  29.539  30.463  1.00  0.00     0.049 A 
ATOM     16  N   UNL A   1      41.501  29.247  32.783  1.00  0.00    -0.248 NA
ATOM     17  C   UNL A   1      42.540  27.482  31.666  1.00  0.00     0.031 C 
ATOM     18  C   UNL A   1      38.658  29.718  29.365  1.00  0.00     0.029 A 
ATOM     19  N   UNL A   1      39.266  30.514  31.364  1.00  0.00    -0.354 N 
ATOM     20  C   UNL A   1      42.511  28.731  33.586  1.00  0.00     0.074 A 
ATOM     21  C   UNL A   1      43.093  27.619  32.863  1.00  0.00     0.031 C 
ATOM     22  C   UNL A   1      37.879  30.777  29.627  1.00  0.00     0.029 A 
ATOM     23  C   UNL A   1      38.236  31.317  30.935  1.00  0.00     0.049 A 
ATOM     24  H   UNL A   1      39.713  30.629  32.233  1.00  0.00     0.167 HD
ATOM     25  C   UNL A   1      42.922  29.148  34.809  1.00  0.00     0.037 A 
ATOM     26  C   UNL A   1      37.640  32.369  31.526  1.00  0.00     0.037 A 
ATOM     27  C   UNL A   1      42.358  30.273  35.512  1.00  0.00     0.049 A 
ATOM     28  C   UNL A   1      38.118  32.818  32.875  1.00  0.00     0.074 A 
ATOM     29  C   UNL A   1      42.733  30.800  36.736  1.00  0.00     0.029 A 
ATOM     30  N   UNL A   1      41.301  31.047  35.054  1.00  0.00    -0.354 N 
ATOM     31  N   UNL A   1      39.092  32.333  33.607  1.00  0.00    -0.248 NA
ATOM     32  C   UNL A   1      37.413  33.954  33.483  1.00  0.00     0.031 C 
ATOM     33  C   UNL A   1      41.880  31.869  37.035  1.00  0.00     0.029 A 
ATOM     34  C   UNL A   1      40.999  32.035  35.977  1.00  0.00     0.049 A 
ATOM     35  H   UNL A   1      40.833  30.912  34.198  1.00  0.00     0.167 HD
ATOM     36  C   UNL A   1      39.133  33.118  34.752  1.00  0.00     0.074 A 
ATOM     37  C   UNL A   1      38.091  34.116  34.611  1.00  0.00     0.031 C 
ATOM     38  C   UNL A   1      39.961  33.023  35.821  1.00  0.00     0.037 A 
BRANCH  25  39
ATOM     39  C   UNL A   1      44.019  28.366  35.477  1.00  0.00     0.058 A 
ATOM     40  C   UNL A   1      43.745  27.297  36.345  1.00  0.00     0.135 A 
ATOM     41  C   UNL A   1      45.366  28.682  35.234  1.00  0.00     0.135 A 
ATOM     42  F   UNL A   1      42.476  26.960  36.625  1.00  0.00    -0.206 F 
ATOM     43  C   UNL A   1      44.767  26.594  36.978  1.00  0.00     0.059 A 
ATOM     44  C   UNL A   1      46.404  27.978  35.837  1.00  0.00     0.059 A 
ATOM     45  F   UNL A   1      45.684  29.692  34.409  1.00  0.00    -0.206 F 
ATOM     46  C   UNL A   1      46.094  26.948  36.725  1.00  0.00     0.060 A 
BRANCH  46  47
ATOM     47  S   UNL A   1      47.409  26.048  37.573  1.00  0.00     0.124 S 
ATOM     48  O   UNL A   1      47.536  26.817  38.806  1.00  0.00    -0.237 OA
ATOM     49  O   UNL A   1      46.837  24.712  37.715  1.00  0.00    -0.237 OA
ATOM     50  O   UNL A   1      48.537  26.148  36.651  1.00  0.00    -0.744 OA
ENDBRANCH  46  47
ENDBRANCH  25  39
BRANCH  26  51
ATOM     51  C   UNL A   1      36.542  33.079  30.821  1.00  0.00     0.058 A 
ATOM     52  C   UNL A   1      35.209  32.926  31.228  1.00  0.00     0.135 A 
ATOM     53  C   UNL A   1      36.808  33.959  29.760  1.00  0.00     0.135 A 
ATOM     54  F   UNL A   1      34.908  32.092  32.235  1.00  0.00    -0.206 F 
ATOM     55  C   UNL A   1      34.176  33.622  30.610  1.00  0.00     0.059 A 
ATOM     56  C   UNL A   1      35.795  34.684  29.142  1.00  0.00     0.059 A 
ATOM     57  F   UNL A   1      38.070  34.152  29.347  1.00  0.00    -0.206 F 
ATOM     58  C   UNL A   1      34.480  34.503  29.572  1.00  0.00     0.060 A 
BRANCH  58  59
ATOM     59  S   UNL A   1      33.143  35.461  28.826  1.00  0.00     0.124 S 
ATOM     60  O   UNL A   1      32.447  34.438  28.053  1.00  0.00    -0.237 OA
ATOM     61  O   UNL A   1      32.435  35.967  29.998  1.00  0.00    -0.237 OA
ATOM     62  O   UNL A   1      33.850  36.472  28.046  1.00  0.00    -0.744 OA
ENDBRANCH  58  59
ENDBRANCH  26  51
BRANCH  38  63
ATOM     63  C   UNL A   1      39.794  34.045  36.909  1.00  0.00     0.058 A 
ATOM     64  C   UNL A   1      40.415  35.302  36.842  1.00  0.00     0.135 A 
ATOM     65  C   UNL A   1      38.980  33.773  38.020  1.00  0.00     0.135 A 
ATOM     66  F   UNL A   1      41.210  35.608  35.805  1.00  0.00    -0.206 F 
ATOM     67  C   UNL A   1      40.257  36.244  37.854  1.00  0.00     0.059 A 
ATOM     68  C   UNL A   1      38.789  34.708  39.031  1.00  0.00     0.059 A 
ATOM     69  F   UNL A   1      38.357  32.587  38.126  1.00  0.00    -0.206 F 
ATOM     70  C   UNL A   1      39.444  35.937  38.946  1.00  0.00     0.060 A 
BRANCH  70  71
ATOM     71  S   UNL A   1      39.228  37.171  40.246  1.00  0.00     0.124 S 
ATOM     72  O   UNL A   1      38.472  38.204  39.545  1.00  0.00    -0.237 OA
ATOM     73  O   UNL A   1      38.493  36.430  41.266  1.00  0.00    -0.237 OA
ATOM     74  O   UNL A   1      40.597  37.527  40.604  1.00  0.00    -0.744 OA
ENDBRANCH  70  71
ENDBRANCH  38  63
ENDBRANCH  12  13
ENDBRANCH   5   7
ENDBRANCH   2   3
ENDBRANCH   1   2
BRANCH   1  75
ATOM     75  C   UNL A   1      38.073  23.373  26.064  1.00  0.00     0.118 C 
BRANCH  75  76
ATOM     76  N   UNL A   1      37.718  23.235  24.657  1.00  0.00    -0.352 N 
ATOM     77  C   UNL A   1      36.492  23.240  24.042  1.00  0.00     0.251 C 
ATOM     78  H   UNL A   1      38.483  23.118  24.049  1.00  0.00     0.163 HD
ATOM     79  O   UNL A   1      36.398  22.937  22.857  1.00  0.00    -0.269 OA
BRANCH  77  80
ATOM     80  C   UNL A   1      35.275  23.611  24.795  1.00  0.00     0.041 A 
ATOM     81  C   UNL A   1      34.725  22.684  25.688  1.00  0.00     0.014 A 
ATOM     82  C   UNL A   1      34.657  24.847  24.596  1.00  0.00     0.037 A 
ATOM     83  C   UNL A   1      33.591  23.018  26.432  1.00  0.00     0.002 A 
ATOM     84  C   UNL A   1      33.547  25.186  25.370  1.00  0.00     0.106 A 
ATOM     85  C   UNL A   1      33.011  24.280  26.291  1.00  0.00     0.024 A 
BRANCH  84  86
ATOM     86  S   UNL A   1      32.867  26.830  25.266  1.00  0.00     0.339 S 
ATOM     87  O   UNL A   1      33.736  27.564  24.377  1.00  0.00    -0.181 OA
ATOM     88  O   UNL A   1      31.451  26.651  24.981  1.00  0.00    -0.181 OA
BRANCH  86  89
ATOM     89  O   UNL A   1      33.033  27.402  26.790  1.00  0.00    -0.379 OA
BRANCH  89  90
ATOM     90  C   UNL A   1      33.375  28.710  27.001  1.00  0.00     0.142 A 
ATOM     91  C   UNL A   1      34.704  28.976  27.336  1.00  0.00     0.048 A 
ATOM     92  C   UNL A   1      32.436  29.740  26.992  1.00  0.00     0.048 A 
ATOM     93  C   UNL A   1      35.101  30.281  27.629  1.00  0.00     0.004 A 
ATOM     94  C   UNL A   1      32.836  31.045  27.286  1.00  0.00     0.004 A 
ATOM     95  C   UNL A   1      34.167  31.316  27.601  1.00  0.00     0.000 A 
ENDBRANCH  89  90
ENDBRANCH  86  89
ENDBRANCH  84  86
ENDBRANCH  77  80
ENDBRANCH  75  76
ENDBRANCH   1  75
TORSDOF 16
ENDMDL
MODEL 2
REMARK VINA RESULT:     -11.9      6.493     12.182
REMARK SMILES O=C(NCCCNC(=O)c1cccc(S(=O)(=O)Oc2ccccc2)c1)c1ccc(-c2c3nc(c(-c4c(F)cc(S(=O)(=O)[O-])cc4F)c4ccc([nH]4)c(-c4c(F)cc(S(=O)(=O)[O-])cc4F)c4nc(c(-c5c(F)cc(S(=O)(=O)[O-])cc5F)c5ccc2[nH]5)C=C4)C=C3)cc1
REMARK SMILES IDX 5 1 4 2 3 3 1 4 2 5 26 7 27 8 91 9 28 10 90 11 29 12 30 13
REMARK SMILES IDX 31 14 84 15 32 16 89 17 83 18 85 19 33 20 88 21 82 22 81 23
REMARK SMILES IDX 34 25 68 26 47 27 67 28 48 29 51 30 66 31 86 32 49 33 50 34
REMARK SMILES IDX 65 36 87 37 52 38 35 39 36 40 45 41 37 42 38 43 44 44 46 45
REMARK SMILES IDX 39 46 40 47 41 48 42 49 43 50 69 51 70 52 79 53 71 54 72 55
REMARK SMILES IDX 78 56 80 57 73 58 74 59 75 60 76 61 77 62 53 63 54 64 63 65
REMARK SMILES IDX 55 66 56 67 62 68 64 69 57 70 58 71 59 72 60 73 61 74 6 75
REMARK SMILES IDX 7 76 8 77 9 79 10 80 11 81 25 82 12 83 14 84 13 85 15 86
REMARK SMILES IDX 16 87 17 88 18 89 19 90 20 91 24 92 21 93 23 94 22 95
REMARK H PARENT 3 6 85 24 51 35 7 78
REMARK Flexibility Score: inf
ROOT
ATOM      1  C   UNL A   1      34.395  31.063  27.525  1.00  0.00     0.042 C 
ENDROOT
BRANCH   1   2
ATOM      2  C   UNL A   1      35.589  31.481  28.373  1.00  0.00     0.118 C 
BRANCH   2   3
ATOM      3  N   UNL A   1      35.512  31.006  29.749  1.00  0.00    -0.352 N 
ATOM      4  O   UNL A   1      36.092  29.887  31.610  1.00  0.00    -0.269 OA
ATOM      5  C   UNL A   1      36.431  30.324  30.512  1.00  0.00     0.251 C 
ATOM      6  H   UNL A   1      34.663  31.205  30.206  1.00  0.00     0.163 HD
BRANCH   5   7
ATOM      7  C   UNL A   1      37.806  30.088  30.014  1.00  0.00     0.039 A 
ATOM      8  C   UNL A   1      38.072  29.996  28.647  1.00  0.00     0.014 A 
ATOM      9  C   UNL A   1      38.852  29.970  30.934  1.00  0.00     0.014 A 
ATOM     10  C   UNL A   1      39.336  29.609  28.213  1.00  0.00     0.010 A 
ATOM     11  C   UNL A   1      40.146  29.679  30.487  1.00  0.00     0.010 A 
ATOM     12  C   UNL A   1      40.390  29.447  29.125  1.00  0.00    -0.014 A 
BRANCH  12  13
ATOM     13  C   UNL A   1      41.735  29.059  28.624  1.00  0.00     0.031 A 
ATOM     14  C   UNL A   1      42.874  30.045  28.610  1.00  0.00     0.074 A 
ATOM     15  C   UNL A   1      41.939  27.789  28.219  1.00  0.00     0.049 A 
ATOM     16  N   UNL A   1      44.119  29.859  28.250  1.00  0.00    -0.248 NA
ATOM     17  C   UNL A   1      42.577  31.418  29.044  1.00  0.00     0.031 C 
ATOM     18  C   UNL A   1      40.912  26.746  28.174  1.00  0.00     0.029 A 
ATOM     19  N   UNL A   1      43.077  27.153  27.795  1.00  0.00    -0.354 N 
ATOM     20  C   UNL A   1      44.746  31.092  28.386  1.00  0.00     0.074 A 
ATOM     21  C   UNL A   1      43.737  32.025  28.842  1.00  0.00     0.031 C 
ATOM     22  C   UNL A   1      41.479  25.586  27.808  1.00  0.00     0.029 A 
ATOM     23  C   UNL A   1      42.894  25.816  27.536  1.00  0.00     0.049 A 
ATOM     24  H   UNL A   1      43.943  27.609  27.688  1.00  0.00     0.167 HD
ATOM     25  C   UNL A   1      46.043  31.416  28.159  1.00  0.00     0.037 A 
ATOM     26  C   UNL A   1      43.764  24.875  27.122  1.00  0.00     0.037 A 
ATOM     27  C   UNL A   1      47.050  30.476  27.733  1.00  0.00     0.049 A 
ATOM     28  C   UNL A   1      45.195  25.256  26.886  1.00  0.00     0.074 A 
ATOM     29  C   UNL A   1      48.399  30.698  27.516  1.00  0.00     0.029 A 
ATOM     30  N   UNL A   1      46.819  29.135  27.459  1.00  0.00    -0.354 N 
ATOM     31  N   UNL A   1      45.775  26.422  27.045  1.00  0.00    -0.248 NA
ATOM     32  C   UNL A   1      46.093  24.195  26.410  1.00  0.00     0.031 C 
ATOM     33  C   UNL A   1      48.976  29.501  27.077  1.00  0.00     0.029 A 
ATOM     34  C   UNL A   1      47.995  28.522  27.059  1.00  0.00     0.049 A 
ATOM     35  H   UNL A   1      45.946  28.686  27.536  1.00  0.00     0.167 HD
ATOM     36  C   UNL A   1      47.109  26.231  26.710  1.00  0.00     0.074 A 
ATOM     37  C   UNL A   1      47.253  24.834  26.348  1.00  0.00     0.031 C 
ATOM     38  C   UNL A   1      48.123  27.130  26.706  1.00  0.00     0.037 A 
BRANCH  25  39
ATOM     39  C   UNL A   1      46.442  32.854  28.343  1.00  0.00     0.058 A 
ATOM     40  C   UNL A   1      46.911  33.344  29.572  1.00  0.00     0.135 A 
ATOM     41  C   UNL A   1      46.366  33.755  27.267  1.00  0.00     0.135 A 
ATOM     42  F   UNL A   1      46.992  32.531  30.637  1.00  0.00    -0.206 F 
ATOM     43  C   UNL A   1      47.255  34.682  29.739  1.00  0.00     0.059 A 
ATOM     44  C   UNL A   1      46.726  35.092  27.404  1.00  0.00     0.059 A 
ATOM     45  F   UNL A   1      45.928  33.339  26.068  1.00  0.00    -0.206 F 
ATOM     46  C   UNL A   1      47.151  35.551  28.651  1.00  0.00     0.060 A 
BRANCH  46  47
ATOM     47  S   UNL A   1      47.572  37.291  28.886  1.00  0.00     0.124 S 
ATOM     48  O   UNL A   1      49.023  37.260  28.737  1.00  0.00    -0.237 OA
ATOM     49  O   UNL A   1      46.838  37.942  27.804  1.00  0.00    -0.237 OA
ATOM     50  O   UNL A   1      47.084  37.580  30.232  1.00  0.00    -0.744 OA
ENDBRANCH  46  47
ENDBRANCH  25  39
BRANCH  26  51
ATOM     51  C   UNL A   1      43.295  23.478  26.933  1.00  0.00     0.058 A 
ATOM     52  C   UNL A   1      43.043  22.973  25.650  1.00  0.00     0.135 A 
ATOM     53  C   UNL A   1      43.139  22.609  28.024  1.00  0.00     0.135 A 
ATOM     54  F   UNL A   1      43.176  23.768  24.578  1.00  0.00    -0.206 F 
ATOM     55  C   UNL A   1      42.651  21.652  25.453  1.00  0.00     0.059 A 
ATOM     56  C   UNL A   1      42.771  21.279  27.851  1.00  0.00     0.059 A 
ATOM     57  F   UNL A   1      43.386  23.043  29.270  1.00  0.00    -0.206 F 
ATOM     58  C   UNL A   1      42.525  20.812  26.560  1.00  0.00     0.060 A 
BRANCH  58  59
ATOM     59  S   UNL A   1      42.091  19.080  26.290  1.00  0.00     0.124 S 
ATOM     60  O   UNL A   1      42.317  18.513  27.614  1.00  0.00    -0.237 OA
ATOM     61  O   UNL A   1      40.698  19.173  25.865  1.00  0.00    -0.237 OA
ATOM     62  O   UNL A   1      43.028  18.659  25.252  1.00  0.00    -0.744 OA
ENDBRANCH  58  59
ENDBRANCH  26  51
BRANCH  38  63
ATOM     63  C   UNL A   1      49.486  26.623  26.328  1.00  0.00     0.058 A 
ATOM     64  C   UNL A   1      49.990  26.759  25.026  1.00  0.00     0.135 A 
ATOM     65  C   UNL A   1      50.307  26.014  27.291  1.00  0.00     0.135 A 
ATOM     66  F   UNL A   1      49.240  27.325  24.068  1.00  0.00    -0.206 F 
ATOM     67  C   UNL A   1      51.252  26.286  24.683  1.00  0.00     0.059 A 
ATOM     68  C   UNL A   1      51.581  25.555  26.977  1.00  0.00     0.059 A 
ATOM     69  F   UNL A   1      49.874  25.868  28.554  1.00  0.00    -0.206 F 
ATOM     70  C   UNL A   1      52.040  25.682  25.665  1.00  0.00     0.060 A 
BRANCH  70  71
ATOM     71  S   UNL A   1      53.685  25.087  25.218  1.00  0.00     0.124 S 
ATOM     72  O   UNL A   1      53.854  25.664  23.889  1.00  0.00    -0.237 OA
ATOM     73  O   UNL A   1      54.523  25.658  26.268  1.00  0.00    -0.237 OA
ATOM     74  O   UNL A   1      53.542  23.635  25.260  1.00  0.00    -0.744 OA
ENDBRANCH  70  71
ENDBRANCH  38  63
ENDBRANCH  12  13
ENDBRANCH   5   7
ENDBRANCH   2   3
ENDBRANCH   1   2
BRANCH   1  75
ATOM     75  C   UNL A   1      34.363  29.586  27.158  1.00  0.00     0.118 C 
BRANCH  75  76
ATOM     76  N   UNL A   1      33.252  28.875  27.778  1.00  0.00    -0.352 N 
ATOM     77  C   UNL A   1      32.152  28.277  27.218  1.00  0.00     0.251 C 
ATOM     78  H   UNL A   1      33.299  28.813  28.760  1.00  0.00     0.163 HD
ATOM     79  O   UNL A   1      31.239  27.875  27.934  1.00  0.00    -0.269 OA
BRANCH  77  80
ATOM     80  C   UNL A   1      32.052  28.109  25.753  1.00  0.00     0.041 A 
ATOM     81  C   UNL A   1      31.402  29.097  25.003  1.00  0.00     0.014 A 
ATOM     82  C   UNL A   1      32.559  26.970  25.125  1.00  0.00     0.037 A 
ATOM     83  C   UNL A   1      31.317  28.976  23.613  1.00  0.00     0.002 A 
ATOM     84  C   UNL A   1      32.502  26.877  23.734  1.00  0.00     0.106 A 
ATOM     85  C   UNL A   1      31.887  27.875  22.972  1.00  0.00     0.024 A 
BRANCH  84  86
ATOM     86  S   UNL A   1      33.316  25.525  22.907  1.00  0.00     0.339 S 
ATOM     87  O   UNL A   1      33.763  26.047  21.637  1.00  0.00    -0.181 OA
ATOM     88  O   UNL A   1      34.247  24.972  23.880  1.00  0.00    -0.181 OA
BRANCH  86  89
ATOM     89  O   UNL A   1      32.106  24.450  22.662  1.00  0.00    -0.379 OA
BRANCH  89  90
ATOM     90  C   UNL A   1      32.065  23.285  23.378  1.00  0.00     0.142 A 
ATOM     91  C   UNL A   1      31.545  23.349  24.672  1.00  0.00     0.048 A 
ATOM     92  C   UNL A   1      32.608  22.093  22.900  1.00  0.00     0.048 A 
ATOM     93  C   UNL A   1      31.537  22.209  25.477  1.00  0.00     0.004 A 
ATOM     94  C   UNL A   1      32.599  20.955  23.707  1.00  0.00     0.004 A 
ATOM     95  C   UNL A   1      32.061  21.011  24.994  1.00  0.00     0.000 A 
ENDBRANCH  89  90
ENDBRANCH  86  89
ENDBRANCH  84  86
ENDBRANCH  77  80
ENDBRANCH  75  76
ENDBRANCH   1  75
TORSDOF 16
ENDMDL
MODEL 3
REMARK VINA RESULT:     -11.8      4.668     10.421
REMARK SMILES O=C(NCCCNC(=O)c1cccc(S(=O)(=O)Oc2ccccc2)c1)c1ccc(-c2c3nc(c(-c4c(F)cc(S(=O)(=O)[O-])cc4F)c4ccc([nH]4)c(-c4c(F)cc(S(=O)(=O)[O-])cc4F)c4nc(c(-c5c(F)cc(S(=O)(=O)[O-])cc5F)c5ccc2[nH]5)C=C4)C=C3)cc1
REMARK SMILES IDX 5 1 4 2 3 3 1 4 2 5 26 7 27 8 91 9 28 10 90 11 29 12 30 13
REMARK SMILES IDX 31 14 84 15 32 16 89 17 83 18 85 19 33 20 88 21 82 22 81 23
REMARK SMILES IDX 34 25 68 26 47 27 67 28 48 29 51 30 66 31 86 32 49 33 50 34
REMARK SMILES IDX 65 36 87 37 52 38 35 39 36 40 45 41 37 42 38 43 44 44 46 45
REMARK SMILES IDX 39 46 40 47 41 48 42 49 43 50 69 51 70 52 79 53 71 54 72 55
REMARK SMILES IDX 78 56 80 57 73 58 74 59 75 60 76 61 77 62 53 63 54 64 63 65
REMARK SMILES IDX 55 66 56 67 62 68 64 69 57 70 58 71 59 72 60 73 61 74 6 75
REMARK SMILES IDX 7 76 8 77 9 79 10 80 11 81 25 82 12 83 14 84 13 85 15 86
REMARK SMILES IDX 16 87 17 88 18 89 19 90 20 91 24 92 21 93 23 94 22 95
REMARK H PARENT 3 6 85 24 51 35 7 78
REMARK Flexibility Score: inf
ROOT
ATOM      1  C   UNL A   1      33.817  28.214  25.801  1.00  0.00     0.042 C 
ENDROOT
BRANCH   1   2
ATOM      2  C   UNL A   1      33.548  28.412  27.287  1.00  0.00     0.118 C 
BRANCH   2   3
ATOM      3  N   UNL A   1      33.483  29.815  27.677  1.00  0.00    -0.352 N 
ATOM      4  O   UNL A   1      34.110  31.751  28.630  1.00  0.00    -0.269 OA
ATOM      5  C   UNL A   1      34.435  30.631  28.242  1.00  0.00     0.251 C 
ATOM      6  H   UNL A   1      32.615  30.249  27.508  1.00  0.00     0.163 HD
BRANCH   5   7
ATOM      7  C   UNL A   1      35.830  30.165  28.413  1.00  0.00     0.039 A 
ATOM      8  C   UNL A   1      36.260  29.601  29.616  1.00  0.00     0.014 A 
ATOM      9  C   UNL A   1      36.723  30.280  27.343  1.00  0.00     0.014 A 
ATOM     10  C   UNL A   1      37.610  29.326  29.807  1.00  0.00     0.010 A 
ATOM     11  C   UNL A   1      38.062  29.908  27.506  1.00  0.00     0.010 A 
ATOM     12  C   UNL A   1      38.529  29.474  28.756  1.00  0.00    -0.014 A 
BRANCH  12  13
ATOM     13  C   UNL A   1      39.960  29.145  28.988  1.00  0.00     0.031 A 
ATOM     14  C   UNL A   1      40.882  30.120  29.674  1.00  0.00     0.074 A 
ATOM     15  C   UNL A   1      40.420  27.934  28.615  1.00  0.00     0.049 A 
ATOM     16  N   UNL A   1      42.142  29.974  29.996  1.00  0.00    -0.248 NA
ATOM     17  C   UNL A   1      40.320  31.431  30.035  1.00  0.00     0.031 C 
ATOM     18  C   UNL A   1      39.629  26.908  27.931  1.00  0.00     0.029 A 
ATOM     19  N   UNL A   1      41.650  27.350  28.779  1.00  0.00    -0.354 N 
ATOM     20  C   UNL A   1      42.534  31.179  30.569  1.00  0.00     0.074 A 
ATOM     21  C   UNL A   1      41.380  32.053  30.532  1.00  0.00     0.031 C 
ATOM     22  C   UNL A   1      40.372  25.800  27.791  1.00  0.00     0.029 A 
ATOM     23  C   UNL A   1      41.708  26.055  28.320  1.00  0.00     0.049 A 
ATOM     24  H   UNL A   1      42.417  27.811  29.186  1.00  0.00     0.167 HD
ATOM     25  C   UNL A   1      43.740  31.522  31.085  1.00  0.00     0.037 A 
ATOM     26  C   UNL A   1      42.721  25.169  28.320  1.00  0.00     0.037 A 
ATOM     27  C   UNL A   1      44.876  30.638  31.145  1.00  0.00     0.049 A 
ATOM     28  C   UNL A   1      44.044  25.570  28.904  1.00  0.00     0.074 A 
ATOM     29  C   UNL A   1      46.128  30.880  31.686  1.00  0.00     0.029 A 
ATOM     30  N   UNL A   1      44.901  29.343  30.649  1.00  0.00    -0.354 N 
ATOM     31  N   UNL A   1      44.386  26.705  29.465  1.00  0.00    -0.248 NA
ATOM     32  C   UNL A   1      45.120  24.571  28.853  1.00  0.00     0.031 C 
ATOM     33  C   UNL A   1      46.920  29.743  31.485  1.00  0.00     0.029 A 
ATOM     34  C   UNL A   1      46.150  28.778  30.856  1.00  0.00     0.049 A 
ATOM     35  H   UNL A   1      44.142  28.891  30.213  1.00  0.00     0.167 HD
ATOM     36  C   UNL A   1      45.710  26.551  29.854  1.00  0.00     0.074 A 
ATOM     37  C   UNL A   1      46.105  25.208  29.472  1.00  0.00     0.031 C 
ATOM     38  C   UNL A   1      46.525  27.440  30.473  1.00  0.00     0.037 A 
BRANCH  25  39
ATOM     39  C   UNL A   1      43.899  32.926  31.602  1.00  0.00     0.058 A 
ATOM     40  C   UNL A   1      44.365  33.969  30.787  1.00  0.00     0.135 A 
ATOM     41  C   UNL A   1      43.566  33.235  32.932  1.00  0.00     0.135 A 
ATOM     42  F   UNL A   1      44.710  33.729  29.512  1.00  0.00    -0.206 F 
ATOM     43  C   UNL A   1      44.531  35.259  31.281  1.00  0.00     0.059 A 
ATOM     44  C   UNL A   1      43.702  34.523  33.441  1.00  0.00     0.059 A 
ATOM     45  F   UNL A   1      43.111  32.276  33.754  1.00  0.00    -0.206 F 
ATOM     46  C   UNL A   1      44.206  35.525  32.612  1.00  0.00     0.060 A 
BRANCH  46  47
ATOM     47  S   UNL A   1      44.453  37.196  33.250  1.00  0.00     0.124 S 
ATOM     48  O   UNL A   1      43.225  37.399  34.012  1.00  0.00    -0.237 OA
ATOM     49  O   UNL A   1      45.673  37.055  34.040  1.00  0.00    -0.237 OA
ATOM     50  O   UNL A   1      44.583  38.005  32.041  1.00  0.00    -0.744 OA
ENDBRANCH  46  47
ENDBRANCH  25  39
BRANCH  26  51
ATOM     51  C   UNL A   1      42.503  23.808  27.766  1.00  0.00     0.058 A 
ATOM     52  C   UNL A   1      42.516  23.585  26.382  1.00  0.00     0.135 A 
ATOM     53  C   UNL A   1      42.326  22.699  28.609  1.00  0.00     0.135 A 
ATOM     54  F   UNL A   1      42.677  24.615  25.538  1.00  0.00    -0.206 F 
ATOM     55  C   UNL A   1      42.362  22.309  25.851  1.00  0.00     0.059 A 
ATOM     56  C   UNL A   1      42.194  21.411  28.103  1.00  0.00     0.059 A 
ATOM     57  F   UNL A   1      42.325  22.861  29.941  1.00  0.00    -0.206 F 
ATOM     58  C   UNL A   1      42.208  21.227  26.720  1.00  0.00     0.060 A 
BRANCH  58  59
ATOM     59  S   UNL A   1      42.087  19.565  26.025  1.00  0.00     0.124 S 
ATOM     60  O   UNL A   1      40.667  19.485  25.704  1.00  0.00    -0.237 OA
ATOM     61  O   UNL A   1      42.996  19.641  24.885  1.00  0.00    -0.237 OA
ATOM     62  O   UNL A   1      42.538  18.711  27.119  1.00  0.00    -0.744 OA
ENDBRANCH  58  59
ENDBRANCH  26  51
BRANCH  38  63
ATOM     63  C   UNL A   1      47.915  26.977  30.807  1.00  0.00     0.058 A 
ATOM     64  C   UNL A   1      48.997  27.211  29.945  1.00  0.00     0.135 A 
ATOM     65  C   UNL A   1      48.170  26.312  32.017  1.00  0.00     0.135 A 
ATOM     66  F   UNL A   1      48.805  27.834  28.772  1.00  0.00    -0.206 F 
ATOM     67  C   UNL A   1      50.282  26.778  30.260  1.00  0.00     0.059 A 
ATOM     68  C   UNL A   1      49.449  25.891  32.363  1.00  0.00     0.059 A 
ATOM     69  F   UNL A   1      47.168  26.072  32.879  1.00  0.00    -0.206 F 
ATOM     70  C   UNL A   1      50.497  26.116  31.470  1.00  0.00     0.060 A 
BRANCH  70  71
ATOM     71  S   UNL A   1      52.170  25.575  31.881  1.00  0.00     0.124 S 
ATOM     72  O   UNL A   1      52.891  25.894  30.653  1.00  0.00    -0.237 OA
ATOM     73  O   UNL A   1      52.493  26.402  33.039  1.00  0.00    -0.237 OA
ATOM     74  O   UNL A   1      52.004  24.152  32.162  1.00  0.00    -0.744 OA
ENDBRANCH  70  71
ENDBRANCH  38  63
ENDBRANCH  12  13
ENDBRANCH   5   7
ENDBRANCH   2   3
ENDBRANCH   1   2
BRANCH   1  75
ATOM     75  C   UNL A   1      33.082  29.184  24.887  1.00  0.00     0.118 C 
BRANCH  75  76
ATOM     76  N   UNL A   1      33.606  29.184  23.527  1.00  0.00    -0.352 N 
ATOM     77  C   UNL A   1      33.675  28.177  22.598  1.00  0.00     0.251 C 
ATOM     78  H   UNL A   1      33.970  30.047  23.225  1.00  0.00     0.163 HD
ATOM     79  O   UNL A   1      34.312  28.339  21.562  1.00  0.00    -0.269 OA
BRANCH  77  80
ATOM     80  C   UNL A   1      32.985  26.890  22.831  1.00  0.00     0.041 A 
ATOM     81  C   UNL A   1      31.585  26.872  22.865  1.00  0.00     0.014 A 
ATOM     82  C   UNL A   1      33.709  25.717  23.054  1.00  0.00     0.037 A 
ATOM     83  C   UNL A   1      30.906  25.665  23.056  1.00  0.00     0.002 A 
ATOM     84  C   UNL A   1      33.022  24.513  23.207  1.00  0.00     0.106 A 
ATOM     85  C   UNL A   1      31.624  24.478  23.206  1.00  0.00     0.024 A 
BRANCH  84  86
ATOM     86  S   UNL A   1      33.933  22.984  23.296  1.00  0.00     0.339 S 
ATOM     87  O   UNL A   1      32.975  21.934  23.043  1.00  0.00    -0.181 OA
ATOM     88  O   UNL A   1      35.104  23.175  22.453  1.00  0.00    -0.181 OA
BRANCH  86  89
ATOM     89  O   UNL A   1      34.412  22.923  24.860  1.00  0.00    -0.379 OA
BRANCH  89  90
ATOM     90  C   UNL A   1      35.742  22.848  25.171  1.00  0.00     0.142 A 
ATOM     91  C   UNL A   1      36.358  21.601  25.047  1.00  0.00     0.048 A 
ATOM     92  C   UNL A   1      36.451  23.929  25.692  1.00  0.00     0.048 A 
ATOM     93  C   UNL A   1      37.695  21.445  25.412  1.00  0.00     0.004 A 
ATOM     94  C   UNL A   1      37.788  23.770  26.057  1.00  0.00     0.004 A 
ATOM     95  C   UNL A   1      38.412  22.531  25.914  1.00  0.00     0.000 A 
ENDBRANCH  89  90
ENDBRANCH  86  89
ENDBRANCH  84  86
ENDBRANCH  77  80
ENDBRANCH  75  76
ENDBRANCH   1  75
TORSDOF 16
ENDMDL
