MODEL 1
REMARK VINA RESULT:     -11.3      0.000      0.000
REMARK SMILES C#CCN(CC(=O)NCCCNC(=O)c1ccc(-c2c3nc(c(-c4c(F)cc(S(=O)(=O)[O-])cc4F)c4ccc([nH]4)c(-c4c(F)cc(S(=O)(=O)[O-])cc4F)c4nc(c(-c5c(F)cc(S(=O)(=O)[O-])cc5F)c5ccc2[nH]5)C=C4)C=C3)cc1)C(=O)c1c[nH]c(=O)[nH]1
REMARK SMILES IDX 10 1 9 2 8 3 6 4 7 5 5 7 4 8 3 9 2 10 1 11 81 12 82 13 83 14
REMARK SMILES IDX 84 15 88 16 85 17 86 18 87 21 11 22 12 23 13 24 14 26 15 27
REMARK SMILES IDX 16 28 80 29 17 30 79 31 18 32 19 33 20 34 73 35 21 36 78 37
REMARK SMILES IDX 72 38 74 39 22 40 77 41 71 42 70 43 23 45 57 46 36 47 56 48
REMARK SMILES IDX 37 49 40 50 55 51 75 52 38 53 39 54 54 56 76 57 41 58 24 59
REMARK SMILES IDX 25 60 34 61 26 62 27 63 33 64 35 65 28 66 29 67 30 68 31 69
REMARK SMILES IDX 32 70 58 71 59 72 68 73 60 74 61 75 67 76 69 77 62 78 63 79
REMARK SMILES IDX 64 80 65 81 66 82 42 83 43 84 52 85 44 86 45 87 51 88 53 89
REMARK SMILES IDX 46 90 47 91 48 92 49 93 50 94
REMARK H PARENT 8 6 88 19 85 20 12 25 74 44 40 55
REMARK Flexibility Score: inf
ROOT
ATOM      1  C   UNL A   1      37.401  23.377  25.501  1.00  0.00     0.042 C 
ENDROOT
BRANCH   1   2
ATOM      2  C   UNL A   1      35.944  23.830  25.483  1.00  0.00     0.117 C 
BRANCH   2   3
ATOM      3  N   UNL A   1      35.121  23.188  26.485  1.00  0.00    -0.354 N 
ATOM      4  C   UNL A   1      34.646  21.911  26.536  1.00  0.00     0.239 C 
ATOM      5  O   UNL A   1      34.272  21.496  27.637  1.00  0.00    -0.273 OA
ATOM      6  H   UNL A   1      34.866  23.759  27.246  1.00  0.00     0.163 HD
BRANCH   4   7
ATOM      7  C   UNL A   1      34.675  20.971  25.318  1.00  0.00     0.220 C 
BRANCH   7   8
ATOM      8  N   UNL A   1      33.367  20.500  24.853  1.00  0.00    -0.317 N 
BRANCH   8   9
ATOM      9  C   UNL A   1      32.971  19.135  25.192  1.00  0.00     0.210 C 
BRANCH   9  10
ATOM     10  C   UNL A   1      33.558  18.120  24.225  1.00  0.00    -0.085 C 
ATOM     11  C   UNL A   1      34.062  17.249  23.395  1.00  0.00     0.006 C 
ENDBRANCH   9  10
ENDBRANCH   8   9
BRANCH   8  12
ATOM     12  C   UNL A   1      32.434  21.302  24.201  1.00  0.00     0.273 C 
ATOM     13  O   UNL A   1      32.200  21.217  22.998  1.00  0.00    -0.267 OA
BRANCH  12  14
ATOM     14  C   UNL A   1      31.631  22.256  25.005  1.00  0.00     0.125 A 
ATOM     15  C   UNL A   1      31.289  23.524  24.732  1.00  0.00     0.119 A 
ATOM     16  N   UNL A   1      31.017  21.885  26.181  1.00  0.00    -0.302 N 
ATOM     17  N   UNL A   1      30.493  23.991  25.749  1.00  0.00    -0.312 N 
ATOM     18  C   UNL A   1      30.292  22.968  26.684  1.00  0.00     0.323 A 
ATOM     19  H   UNL A   1      31.078  20.997  26.600  1.00  0.00     0.172 HD
ATOM     20  H   UNL A   1      30.121  24.900  25.810  1.00  0.00     0.171 HD
ATOM     21  O   UNL A   1      29.632  23.016  27.707  1.00  0.00    -0.248 OA
ENDBRANCH  12  14
ENDBRANCH   8  12
ENDBRANCH   7   8
ENDBRANCH   4   7
ENDBRANCH   2   3
ENDBRANCH   1   2
BRANCH   1  22
ATOM     22  C   UNL A   1      38.292  24.136  26.477  1.00  0.00     0.118 C 
BRANCH  22  23
ATOM     23  N   UNL A   1      39.703  24.033  26.140  1.00  0.00    -0.352 N 
ATOM     24  C   UNL A   1      40.777  24.800  26.509  1.00  0.00     0.251 C 
ATOM     25  H   UNL A   1      39.926  23.281  25.544  1.00  0.00     0.163 HD
ATOM     26  O   UNL A   1      41.837  24.652  25.903  1.00  0.00    -0.269 OA
BRANCH  24  27
ATOM     27  C   UNL A   1      40.685  25.790  27.607  1.00  0.00     0.039 A 
ATOM     28  C   UNL A   1      39.658  25.650  28.546  1.00  0.00     0.014 A 
ATOM     29  C   UNL A   1      41.543  26.891  27.681  1.00  0.00     0.014 A 
ATOM     30  C   UNL A   1      39.515  26.588  29.570  1.00  0.00     0.010 A 
ATOM     31  C   UNL A   1      41.453  27.778  28.754  1.00  0.00     0.010 A 
ATOM     32  C   UNL A   1      40.427  27.648  29.699  1.00  0.00    -0.014 A 
BRANCH  32  33
ATOM     33  C   UNL A   1      40.302  28.631  30.807  1.00  0.00     0.031 A 
ATOM     34  C   UNL A   1      41.166  28.512  32.035  1.00  0.00     0.074 A 
ATOM     35  C   UNL A   1      39.387  29.618  30.719  1.00  0.00     0.049 A 
ATOM     36  N   UNL A   1      41.191  29.264  33.105  1.00  0.00    -0.248 NA
ATOM     37  C   UNL A   1      42.113  27.384  32.078  1.00  0.00     0.031 C 
ATOM     38  C   UNL A   1      38.459  29.811  29.602  1.00  0.00     0.029 A 
ATOM     39  N   UNL A   1      39.085  30.643  31.580  1.00  0.00    -0.354 N 
ATOM     40  C   UNL A   1      42.143  28.701  33.947  1.00  0.00     0.074 A 
ATOM     41  C   UNL A   1      42.631  27.508  33.292  1.00  0.00     0.031 C 
ATOM     42  C   UNL A   1      37.716  30.904  29.830  1.00  0.00     0.029 A 
ATOM     43  C   UNL A   1      38.083  31.468  31.126  1.00  0.00     0.049 A 
ATOM     44  H   UNL A   1      39.542  30.775  32.442  1.00  0.00     0.167 HD
ATOM     45  C   UNL A   1      42.590  29.152  35.145  1.00  0.00     0.037 A 
ATOM     46  C   UNL A   1      37.520  32.554  31.690  1.00  0.00     0.037 A 
ATOM     47  C   UNL A   1      42.111  30.352  35.782  1.00  0.00     0.049 A 
ATOM     48  C   UNL A   1      38.024  33.026  33.028  1.00  0.00     0.074 A 
ATOM     49  C   UNL A   1      42.536  30.924  36.969  1.00  0.00     0.029 A 
ATOM     50  N   UNL A   1      41.097  31.162  35.290  1.00  0.00    -0.354 N 
ATOM     51  N   UNL A   1      38.976  32.521  33.776  1.00  0.00    -0.248 NA
ATOM     52  C   UNL A   1      37.383  34.221  33.594  1.00  0.00     0.031 C 
ATOM     53  C   UNL A   1      41.743  32.047  37.222  1.00  0.00     0.029 A 
ATOM     54  C   UNL A   1      40.863  32.212  36.164  1.00  0.00     0.049 A 
ATOM     55  H   UNL A   1      40.614  31.012  34.446  1.00  0.00     0.167 HD
ATOM     56  C   UNL A   1      39.065  33.351  34.889  1.00  0.00     0.074 A 
ATOM     57  C   UNL A   1      38.085  34.401  34.704  1.00  0.00     0.031 C 
ATOM     58  C   UNL A   1      39.884  33.253  35.966  1.00  0.00     0.037 A 
BRANCH  45  59
ATOM     59  C   UNL A   1      43.656  28.348  35.842  1.00  0.00     0.058 A 
ATOM     60  C   UNL A   1      43.336  27.316  36.740  1.00  0.00     0.135 A 
ATOM     61  C   UNL A   1      45.016  28.583  35.579  1.00  0.00     0.135 A 
ATOM     62  F   UNL A   1      42.054  27.055  37.040  1.00  0.00    -0.206 F 
ATOM     63  C   UNL A   1      44.323  26.569  37.374  1.00  0.00     0.059 A 
ATOM     64  C   UNL A   1      46.020  27.826  36.178  1.00  0.00     0.059 A 
ATOM     65  F   UNL A   1      45.383  29.556  34.730  1.00  0.00    -0.206 F 
ATOM     66  C   UNL A   1      45.663  26.830  37.086  1.00  0.00     0.060 A 
BRANCH  66  67
ATOM     67  S   UNL A   1      46.928  25.845  37.914  1.00  0.00     0.124 S 
ATOM     68  O   UNL A   1      47.906  25.668  36.845  1.00  0.00    -0.237 OA
ATOM     69  O   UNL A   1      47.339  26.721  39.006  1.00  0.00    -0.237 OA
ATOM     70  O   UNL A   1      46.213  24.638  38.316  1.00  0.00    -0.744 OA
ENDBRANCH  66  67
ENDBRANCH  45  59
BRANCH  46  71
ATOM     71  C   UNL A   1      36.430  33.281  30.983  1.00  0.00     0.058 A 
ATOM     72  C   UNL A   1      35.100  33.193  31.420  1.00  0.00     0.135 A 
ATOM     73  C   UNL A   1      36.696  34.083  29.862  1.00  0.00     0.135 A 
ATOM     74  F   UNL A   1      34.793  32.436  32.484  1.00  0.00    -0.206 F 
ATOM     75  C   UNL A   1      34.070  33.856  30.760  1.00  0.00     0.059 A 
ATOM     76  C   UNL A   1      35.688  34.779  29.204  1.00  0.00     0.059 A 
ATOM     77  F   UNL A   1      37.955  34.216  29.412  1.00  0.00    -0.206 F 
ATOM     78  C   UNL A   1      34.375  34.648  29.653  1.00  0.00     0.060 A 
BRANCH  78  79
ATOM     79  S   UNL A   1      33.035  35.536  28.830  1.00  0.00     0.124 S 
ATOM     80  O   UNL A   1      33.772  36.525  28.053  1.00  0.00    -0.237 OA
ATOM     81  O   UNL A   1      32.391  34.474  28.064  1.00  0.00    -0.237 OA
ATOM     82  O   UNL A   1      32.247  36.063  29.941  1.00  0.00    -0.744 OA
ENDBRANCH  78  79
ENDBRANCH  46  71
BRANCH  58  83
ATOM     83  C   UNL A   1      39.778  34.325  37.017  1.00  0.00     0.058 A 
ATOM     84  C   UNL A   1      38.984  34.162  38.162  1.00  0.00     0.135 A 
ATOM     85  C   UNL A   1      40.512  35.516  36.894  1.00  0.00     0.135 A 
ATOM     86  F   UNL A   1      38.255  33.047  38.328  1.00  0.00    -0.206 F 
ATOM     87  C   UNL A   1      38.897  35.155  39.134  1.00  0.00     0.059 A 
ATOM     88  C   UNL A   1      40.468  36.507  37.869  1.00  0.00     0.059 A 
ATOM     89  F   UNL A   1      41.297  35.719  35.824  1.00  0.00    -0.206 F 
ATOM     90  C   UNL A   1      39.644  36.323  38.978  1.00  0.00     0.060 A 
BRANCH  90  91
ATOM     91  S   UNL A   1      39.543  37.590  40.260  1.00  0.00     0.124 S 
ATOM     92  O   UNL A   1      38.993  36.833  41.380  1.00  0.00    -0.237 OA
ATOM     93  O   UNL A   1      40.935  38.006  40.398  1.00  0.00    -0.237 OA
ATOM     94  O   UNL A   1      38.650  38.590  39.681  1.00  0.00    -0.744 OA
ENDBRANCH  90  91
ENDBRANCH  58  83
ENDBRANCH  32  33
ENDBRANCH  24  27
ENDBRANCH  22  23
ENDBRANCH   1  22
TORSDOF 18
ENDMDL
MODEL 2
REMARK VINA RESULT:     -11.2      7.136     13.809
REMARK SMILES C#CCN(CC(=O)NCCCNC(=O)c1ccc(-c2c3nc(c(-c4c(F)cc(S(=O)(=O)[O-])cc4F)c4ccc([nH]4)c(-c4c(F)cc(S(=O)(=O)[O-])cc4F)c4nc(c(-c5c(F)cc(S(=O)(=O)[O-])cc5F)c5ccc2[nH]5)C=C4)C=C3)cc1)C(=O)c1c[nH]c(=O)[nH]1
REMARK SMILES IDX 10 1 9 2 8 3 6 4 7 5 5 7 4 8 3 9 2 10 1 11 81 12 82 13 83 14
REMARK SMILES IDX 84 15 88 16 85 17 86 18 87 21 11 22 12 23 13 24 14 26 15 27
REMARK SMILES IDX 16 28 80 29 17 30 79 31 18 32 19 33 20 34 73 35 21 36 78 37
REMARK SMILES IDX 72 38 74 39 22 40 77 41 71 42 70 43 23 45 57 46 36 47 56 48
REMARK SMILES IDX 37 49 40 50 55 51 75 52 38 53 39 54 54 56 76 57 41 58 24 59
REMARK SMILES IDX 25 60 34 61 26 62 27 63 33 64 35 65 28 66 29 67 30 68 31 69
REMARK SMILES IDX 32 70 58 71 59 72 68 73 60 74 61 75 67 76 69 77 62 78 63 79
REMARK SMILES IDX 64 80 65 81 66 82 42 83 43 84 52 85 44 86 45 87 51 88 53 89
REMARK SMILES IDX 46 90 47 91 48 92 49 93 50 94
REMARK H PARENT 8 6 88 19 85 20 12 25 74 44 40 55
REMARK Flexibility Score: inf
ROOT
ATOM      1  C   UNL A   1      34.971  32.042  27.937  1.00  0.00     0.042 C 
ENDROOT
BRANCH   1   2
ATOM      2  C   UNL A   1      35.862  33.234  28.276  1.00  0.00     0.117 C 
BRANCH   2   3
ATOM      3  N   UNL A   1      35.327  34.505  27.839  1.00  0.00    -0.354 N 
ATOM      4  C   UNL A   1      34.345  35.273  28.390  1.00  0.00     0.239 C 
ATOM      5  O   UNL A   1      34.305  36.460  28.051  1.00  0.00    -0.273 OA
ATOM      6  H   UNL A   1      35.732  34.870  27.019  1.00  0.00     0.163 HD
BRANCH   4   7
ATOM      7  C   UNL A   1      33.393  34.742  29.477  1.00  0.00     0.220 C 
BRANCH   7   8
ATOM      8  N   UNL A   1      33.840  34.938  30.859  1.00  0.00    -0.317 N 
BRANCH   8   9
ATOM      9  C   UNL A   1      33.481  36.189  31.523  1.00  0.00     0.210 C 
BRANCH   9  10
ATOM     10  C   UNL A   1      32.151  36.081  32.251  1.00  0.00    -0.085 C 
ATOM     11  C   UNL A   1      31.010  35.987  32.875  1.00  0.00     0.006 C 
ENDBRANCH   9  10
ENDBRANCH   8   9
BRANCH   8  12
ATOM     12  C   UNL A   1      34.493  33.968  31.614  1.00  0.00     0.273 C 
ATOM     13  O   UNL A   1      34.018  32.856  31.834  1.00  0.00    -0.267 OA
BRANCH  12  14
ATOM     14  C   UNL A   1      35.858  34.258  32.118  1.00  0.00     0.125 A 
ATOM     15  C   UNL A   1      36.284  34.418  33.380  1.00  0.00     0.119 A 
ATOM     16  N   UNL A   1      36.951  34.309  31.281  1.00  0.00    -0.302 N 
ATOM     17  N   UNL A   1      37.643  34.618  33.360  1.00  0.00    -0.312 N 
ATOM     18  C   UNL A   1      38.101  34.545  32.039  1.00  0.00     0.323 A 
ATOM     19  H   UNL A   1      36.926  34.196  30.304  1.00  0.00     0.172 HD
ATOM     20  H   UNL A   1      38.206  34.785  34.150  1.00  0.00     0.171 HD
ATOM     21  O   UNL A   1      39.247  34.662  31.642  1.00  0.00    -0.248 OA
ENDBRANCH  12  14
ENDBRANCH   8  12
ENDBRANCH   7   8
ENDBRANCH   4   7
ENDBRANCH   2   3
ENDBRANCH   1   2
BRANCH   1  22
ATOM     22  C   UNL A   1      35.340  30.747  28.653  1.00  0.00     0.118 C 
BRANCH  22  23
ATOM     23  N   UNL A   1      35.520  30.934  30.084  1.00  0.00    -0.352 N 
ATOM     24  C   UNL A   1      36.565  30.613  30.910  1.00  0.00     0.251 C 
ATOM     25  H   UNL A   1      34.761  31.367  30.538  1.00  0.00     0.163 HD
ATOM     26  O   UNL A   1      36.385  30.659  32.126  1.00  0.00    -0.269 OA
BRANCH  24  27
ATOM     27  C   UNL A   1      37.888  30.218  30.374  1.00  0.00     0.039 A 
ATOM     28  C   UNL A   1      38.869  29.787  31.273  1.00  0.00     0.014 A 
ATOM     29  C   UNL A   1      38.200  30.339  29.017  1.00  0.00     0.014 A 
ATOM     30  C   UNL A   1      40.141  29.448  30.808  1.00  0.00     0.010 A 
ATOM     31  C   UNL A   1      39.442  29.917  28.544  1.00  0.00     0.010 A 
ATOM     32  C   UNL A   1      40.433  29.486  29.435  1.00  0.00    -0.014 A 
BRANCH  32  33
ATOM     33  C   UNL A   1      41.775  29.093  28.930  1.00  0.00     0.031 A 
ATOM     34  C   UNL A   1      42.887  30.107  28.849  1.00  0.00     0.074 A 
ATOM     35  C   UNL A   1      41.985  27.828  28.515  1.00  0.00     0.049 A 
ATOM     36  N   UNL A   1      44.115  29.955  28.425  1.00  0.00    -0.248 NA
ATOM     37  C   UNL A   1      42.572  31.480  29.280  1.00  0.00     0.031 C 
ATOM     38  C   UNL A   1      40.974  26.767  28.499  1.00  0.00     0.029 A 
ATOM     39  N   UNL A   1      43.112  27.217  28.028  1.00  0.00    -0.354 N 
ATOM     40  C   UNL A   1      44.714  31.205  28.530  1.00  0.00     0.074 A 
ATOM     41  C   UNL A   1      43.698  32.120  29.000  1.00  0.00     0.031 C 
ATOM     42  C   UNL A   1      41.535  25.630  28.058  1.00  0.00     0.029 A 
ATOM     43  C   UNL A   1      42.932  25.888  27.721  1.00  0.00     0.049 A 
ATOM     44  H   UNL A   1      43.970  27.685  27.908  1.00  0.00     0.167 HD
ATOM     45  C   UNL A   1      46.001  31.553  28.285  1.00  0.00     0.037 A 
ATOM     46  C   UNL A   1      43.793  24.980  27.220  1.00  0.00     0.037 A 
ATOM     47  C   UNL A   1      47.012  30.632  27.834  1.00  0.00     0.049 A 
ATOM     48  C   UNL A   1      45.212  25.396  26.941  1.00  0.00     0.074 A 
ATOM     49  C   UNL A   1      48.356  30.872  27.607  1.00  0.00     0.029 A 
ATOM     50  N   UNL A   1      46.791  29.294  27.536  1.00  0.00    -0.354 N 
ATOM     51  N   UNL A   1      45.779  26.566  27.116  1.00  0.00    -0.248 NA
ATOM     52  C   UNL A   1      46.112  24.365  26.406  1.00  0.00     0.031 C 
ATOM     53  C   UNL A   1      48.935  29.696  27.120  1.00  0.00     0.029 A 
ATOM     54  C   UNL A   1      47.966  28.705  27.101  1.00  0.00     0.049 A 
ATOM     55  H   UNL A   1      45.926  28.833  27.621  1.00  0.00     0.167 HD
ATOM     56  C   UNL A   1      47.107  26.406  26.736  1.00  0.00     0.074 A 
ATOM     57  C   UNL A   1      47.263  25.021  26.342  1.00  0.00     0.031 C 
ATOM     58  C   UNL A   1      48.108  27.322  26.713  1.00  0.00     0.037 A 
BRANCH  45  59
ATOM     59  C   UNL A   1      46.391  32.991  28.504  1.00  0.00     0.058 A 
ATOM     60  C   UNL A   1      46.304  33.947  27.477  1.00  0.00     0.135 A 
ATOM     61  C   UNL A   1      46.818  33.432  29.768  1.00  0.00     0.135 A 
ATOM     62  F   UNL A   1      45.915  33.581  26.245  1.00  0.00    -0.206 F 
ATOM     63  C   UNL A   1      46.655  35.276  27.686  1.00  0.00     0.059 A 
ATOM     64  C   UNL A   1      47.144  34.765  30.008  1.00  0.00     0.059 A 
ATOM     65  F   UNL A   1      46.920  32.565  30.788  1.00  0.00    -0.206 F 
ATOM     66  C   UNL A   1      47.073  35.677  28.955  1.00  0.00     0.060 A 
BRANCH  66  67
ATOM     67  S   UNL A   1      47.518  37.408  29.208  1.00  0.00     0.124 S 
ATOM     68  O   UNL A   1      46.222  37.998  29.526  1.00  0.00    -0.237 OA
ATOM     69  O   UNL A   1      48.465  37.327  30.314  1.00  0.00    -0.237 OA
ATOM     70  O   UNL A   1      48.089  37.804  27.924  1.00  0.00    -0.744 OA
ENDBRANCH  66  67
ENDBRANCH  45  59
BRANCH  46  71
ATOM     71  C   UNL A   1      43.341  23.584  26.969  1.00  0.00     0.058 A 
ATOM     72  C   UNL A   1      43.136  23.114  25.664  1.00  0.00     0.135 A 
ATOM     73  C   UNL A   1      43.111  22.691  28.028  1.00  0.00     0.135 A 
ATOM     74  F   UNL A   1      43.336  23.930  24.618  1.00  0.00    -0.206 F 
ATOM     75  C   UNL A   1      42.699  21.816  25.416  1.00  0.00     0.059 A 
ATOM     76  C   UNL A   1      42.705  21.379  27.804  1.00  0.00     0.059 A 
ATOM     77  F   UNL A   1      43.310  23.084  29.297  1.00  0.00    -0.206 F 
ATOM     78  C   UNL A   1      42.489  20.955  26.494  1.00  0.00     0.060 A 
BRANCH  78  79
ATOM     79  S   UNL A   1      41.963  19.261  26.157  1.00  0.00     0.124 S 
ATOM     80  O   UNL A   1      42.355  18.582  27.386  1.00  0.00    -0.237 OA
ATOM     81  O   UNL A   1      40.527  19.423  25.948  1.00  0.00    -0.237 OA
ATOM     82  O   UNL A   1      42.725  18.902  24.965  1.00  0.00    -0.744 OA
ENDBRANCH  78  79
ENDBRANCH  46  71
BRANCH  58  83
ATOM     83  C   UNL A   1      49.469  26.850  26.278  1.00  0.00     0.058 A 
ATOM     84  C   UNL A   1      49.926  27.025  24.963  1.00  0.00     0.135 A 
ATOM     85  C   UNL A   1      50.342  26.251  27.200  1.00  0.00     0.135 A 
ATOM     86  F   UNL A   1      49.130  27.585  24.038  1.00  0.00    -0.206 F 
ATOM     87  C   UNL A   1      51.189  26.594  24.569  1.00  0.00     0.059 A 
ATOM     88  C   UNL A   1      51.623  25.844  26.838  1.00  0.00     0.059 A 
ATOM     89  F   UNL A   1      49.961  26.071  28.474  1.00  0.00    -0.206 F 
ATOM     90  C   UNL A   1      52.031  26.006  25.515  1.00  0.00     0.060 A 
BRANCH  90  91
ATOM     91  S   UNL A   1      53.677  25.476  24.997  1.00  0.00     0.124 S 
ATOM     92  O   UNL A   1      53.634  25.746  23.563  1.00  0.00    -0.237 OA
ATOM     93  O   UNL A   1      54.546  26.347  25.781  1.00  0.00    -0.237 OA
ATOM     94  O   UNL A   1      53.713  24.065  25.367  1.00  0.00    -0.744 OA
ENDBRANCH  90  91
ENDBRANCH  58  83
ENDBRANCH  32  33
ENDBRANCH  24  27
ENDBRANCH  22  23
ENDBRANCH   1  22
TORSDOF 18
ENDMDL
MODEL 3
REMARK VINA RESULT:     -11.1      1.340      2.688
REMARK SMILES C#CCN(CC(=O)NCCCNC(=O)c1ccc(-c2c3nc(c(-c4c(F)cc(S(=O)(=O)[O-])cc4F)c4ccc([nH]4)c(-c4c(F)cc(S(=O)(=O)[O-])cc4F)c4nc(c(-c5c(F)cc(S(=O)(=O)[O-])cc5F)c5ccc2[nH]5)C=C4)C=C3)cc1)C(=O)c1c[nH]c(=O)[nH]1
REMARK SMILES IDX 10 1 9 2 8 3 6 4 7 5 5 7 4 8 3 9 2 10 1 11 81 12 82 13 83 14
REMARK SMILES IDX 84 15 88 16 85 17 86 18 87 21 11 22 12 23 13 24 14 26 15 27
REMARK SMILES IDX 16 28 80 29 17 30 79 31 18 32 19 33 20 34 73 35 21 36 78 37
REMARK SMILES IDX 72 38 74 39 22 40 77 41 71 42 70 43 23 45 57 46 36 47 56 48
REMARK SMILES IDX 37 49 40 50 55 51 75 52 38 53 39 54 54 56 76 57 41 58 24 59
REMARK SMILES IDX 25 60 34 61 26 62 27 63 33 64 35 65 28 66 29 67 30 68 31 69
REMARK SMILES IDX 32 70 58 71 59 72 68 73 60 74 61 75 67 76 69 77 62 78 63 79
REMARK SMILES IDX 64 80 65 81 66 82 42 83 43 84 52 85 44 86 45 87 51 88 53 89
REMARK SMILES IDX 46 90 47 91 48 92 49 93 50 94
REMARK H PARENT 8 6 88 19 85 20 12 25 74 44 40 55
REMARK Flexibility Score: inf
ROOT
ATOM      1  C   UNL A   1      39.343  22.507  26.526  1.00  0.00     0.042 C 
ENDROOT
BRANCH   1   2
ATOM      2  C   UNL A   1      38.159  23.412  26.199  1.00  0.00     0.117 C 
BRANCH   2   3
ATOM      3  N   UNL A   1      37.689  23.288  24.836  1.00  0.00    -0.354 N 
ATOM      4  C   UNL A   1      36.831  22.382  24.289  1.00  0.00     0.239 C 
ATOM      5  O   UNL A   1      36.313  22.683  23.209  1.00  0.00    -0.273 OA
ATOM      6  H   UNL A   1      38.043  23.961  24.209  1.00  0.00     0.163 HD
BRANCH   4   7
ATOM      7  C   UNL A   1      36.418  21.091  25.018  1.00  0.00     0.220 C 
BRANCH   7   8
ATOM      8  N   UNL A   1      35.014  21.021  25.431  1.00  0.00    -0.317 N 
BRANCH   8   9
ATOM      9  C   UNL A   1      34.660  21.551  26.746  1.00  0.00     0.210 C 
BRANCH   9  10
ATOM     10  C   UNL A   1      33.729  22.748  26.641  1.00  0.00    -0.085 C 
ATOM     11  C   UNL A   1      32.930  23.775  26.550  1.00  0.00     0.006 C 
ENDBRANCH   9  10
ENDBRANCH   8   9
BRANCH   8  12
ATOM     12  C   UNL A   1      33.979  20.579  24.611  1.00  0.00     0.273 C 
ATOM     13  O   UNL A   1      33.354  21.323  23.859  1.00  0.00    -0.267 OA
BRANCH  12  14
ATOM     14  C   UNL A   1      33.659  19.130  24.588  1.00  0.00     0.125 A 
ATOM     15  C   UNL A   1      32.478  18.521  24.414  1.00  0.00     0.119 A 
ATOM     16  N   UNL A   1      34.640  18.164  24.655  1.00  0.00    -0.302 N 
ATOM     17  N   UNL A   1      32.682  17.163  24.414  1.00  0.00    -0.312 N 
ATOM     18  C   UNL A   1      34.050  16.902  24.556  1.00  0.00     0.323 A 
ATOM     19  H   UNL A   1      35.603  18.337  24.757  1.00  0.00     0.172 HD
ATOM     20  H   UNL A   1      31.977  16.480  24.326  1.00  0.00     0.171 HD
ATOM     21  O   UNL A   1      34.600  15.815  24.587  1.00  0.00    -0.248 OA
ENDBRANCH  12  14
ENDBRANCH   8  12
ENDBRANCH   7   8
ENDBRANCH   4   7
ENDBRANCH   2   3
ENDBRANCH   1   2
BRANCH   1  22
ATOM     22  C   UNL A   1      40.547  23.225  27.125  1.00  0.00     0.118 C 
BRANCH  22  23
ATOM     23  N   UNL A   1      41.262  24.027  26.145  1.00  0.00    -0.352 N 
ATOM     24  C   UNL A   1      41.505  25.374  26.087  1.00  0.00     0.251 C 
ATOM     25  H   UNL A   1      41.636  23.513  25.393  1.00  0.00     0.163 HD
ATOM     26  O   UNL A   1      41.932  25.847  25.035  1.00  0.00    -0.269 OA
BRANCH  24  27
ATOM     27  C   UNL A   1      41.268  26.258  27.252  1.00  0.00     0.039 A 
ATOM     28  C   UNL A   1      42.135  27.337  27.456  1.00  0.00     0.014 A 
ATOM     29  C   UNL A   1      40.259  25.997  28.182  1.00  0.00     0.014 A 
ATOM     30  C   UNL A   1      41.967  28.166  28.567  1.00  0.00     0.010 A 
ATOM     31  C   UNL A   1      40.039  26.876  29.242  1.00  0.00     0.010 A 
ATOM     32  C   UNL A   1      40.902  27.959  29.458  1.00  0.00    -0.014 A 
BRANCH  32  33
ATOM     33  C   UNL A   1      40.697  28.858  30.624  1.00  0.00     0.031 A 
ATOM     34  C   UNL A   1      41.543  28.707  31.863  1.00  0.00     0.074 A 
ATOM     35  C   UNL A   1      39.729  29.795  30.579  1.00  0.00     0.049 A 
ATOM     36  N   UNL A   1      41.502  29.387  32.979  1.00  0.00    -0.248 NA
ATOM     37  C   UNL A   1      42.553  27.635  31.855  1.00  0.00     0.031 C 
ATOM     38  C   UNL A   1      38.813  30.008  29.455  1.00  0.00     0.029 A 
ATOM     39  N   UNL A   1      39.350  30.741  31.497  1.00  0.00    -0.354 N 
ATOM     40  C   UNL A   1      42.469  28.825  33.805  1.00  0.00     0.074 A 
ATOM     41  C   UNL A   1      43.038  27.707  33.086  1.00  0.00     0.031 C 
ATOM     42  C   UNL A   1      38.003  31.040  29.736  1.00  0.00     0.029 A 
ATOM     43  C   UNL A   1      38.311  31.537  31.074  1.00  0.00     0.049 A 
ATOM     44  H   UNL A   1      39.782  30.842  32.377  1.00  0.00     0.167 HD
ATOM     45  C   UNL A   1      42.865  29.220  35.040  1.00  0.00     0.037 A 
ATOM     46  C   UNL A   1      37.674  32.549  31.694  1.00  0.00     0.037 A 
ATOM     47  C   UNL A   1      42.304  30.346  35.742  1.00  0.00     0.049 A 
ATOM     48  C   UNL A   1      38.123  32.959  33.071  1.00  0.00     0.074 A 
ATOM     49  C   UNL A   1      42.671  30.862  36.973  1.00  0.00     0.029 A 
ATOM     50  N   UNL A   1      41.254  31.128  35.280  1.00  0.00    -0.354 N 
ATOM     51  N   UNL A   1      39.088  32.461  33.807  1.00  0.00    -0.248 NA
ATOM     52  C   UNL A   1      37.402  34.075  33.698  1.00  0.00     0.031 C 
ATOM     53  C   UNL A   1      41.808  31.918  37.280  1.00  0.00     0.029 A 
ATOM     54  C   UNL A   1      40.942  32.103  36.214  1.00  0.00     0.049 A 
ATOM     55  H   UNL A   1      40.798  31.006  34.417  1.00  0.00     0.167 HD
ATOM     56  C   UNL A   1      39.106  33.219  34.973  1.00  0.00     0.074 A 
ATOM     57  C   UNL A   1      38.070  34.221  34.834  1.00  0.00     0.031 C 
ATOM     58  C   UNL A   1      39.908  33.097  36.062  1.00  0.00     0.037 A 
BRANCH  45  59
ATOM     59  C   UNL A   1      43.962  28.434  35.708  1.00  0.00     0.058 A 
ATOM     60  C   UNL A   1      45.318  28.746  35.516  1.00  0.00     0.135 A 
ATOM     61  C   UNL A   1      43.654  27.382  36.587  1.00  0.00     0.135 A 
ATOM     62  F   UNL A   1      45.673  29.733  34.678  1.00  0.00    -0.206 F 
ATOM     63  C   UNL A   1      46.328  28.025  36.143  1.00  0.00     0.059 A 
ATOM     64  C   UNL A   1      44.649  26.667  37.251  1.00  0.00     0.059 A 
ATOM     65  F   UNL A   1      42.376  27.039  36.811  1.00  0.00    -0.206 F 
ATOM     66  C   UNL A   1      45.984  26.987  37.010  1.00  0.00     0.060 A 
BRANCH  66  67
ATOM     67  S   UNL A   1      47.309  26.067  37.820  1.00  0.00     0.124 S 
ATOM     68  O   UNL A   1      47.074  24.716  37.320  1.00  0.00    -0.237 OA
ATOM     69  O   UNL A   1      48.505  26.730  37.310  1.00  0.00    -0.237 OA
ATOM     70  O   UNL A   1      47.043  26.265  39.242  1.00  0.00    -0.744 OA
ENDBRANCH  66  67
ENDBRANCH  45  59
BRANCH  46  71
ATOM     71  C   UNL A   1      36.558  33.258  31.010  1.00  0.00     0.058 A 
ATOM     72  C   UNL A   1      36.801  34.114  29.927  1.00  0.00     0.135 A 
ATOM     73  C   UNL A   1      35.227  33.089  31.422  1.00  0.00     0.135 A 
ATOM     74  F   UNL A   1      38.056  34.314  29.498  1.00  0.00    -0.206 F 
ATOM     75  C   UNL A   1      35.768  34.795  29.288  1.00  0.00     0.059 A 
ATOM     76  C   UNL A   1      34.174  33.734  30.781  1.00  0.00     0.059 A 
ATOM     77  F   UNL A   1      34.936  32.267  32.444  1.00  0.00    -0.206 F 
ATOM     78  C   UNL A   1      34.457  34.596  29.722  1.00  0.00     0.060 A 
BRANCH  78  79
ATOM     79  S   UNL A   1      33.121  35.452  28.859  1.00  0.00     0.124 S 
ATOM     80  O   UNL A   1      33.862  36.420  28.059  1.00  0.00    -0.237 OA
ATOM     81  O   UNL A   1      32.489  34.363  28.119  1.00  0.00    -0.237 OA
ATOM     82  O   UNL A   1      32.321  36.009  29.945  1.00  0.00    -0.744 OA
ENDBRANCH  78  79
ENDBRANCH  46  71
BRANCH  58  83
ATOM     83  C   UNL A   1      39.718  34.089  37.176  1.00  0.00     0.058 A 
ATOM     84  C   UNL A   1      38.908  33.808  38.287  1.00  0.00     0.135 A 
ATOM     85  C   UNL A   1      40.388  35.324  37.151  1.00  0.00     0.135 A 
ATOM     86  F   UNL A   1      38.239  32.646  38.361  1.00  0.00    -0.206 F 
ATOM     87  C   UNL A   1      38.744  34.727  39.319  1.00  0.00     0.059 A 
ATOM     88  C   UNL A   1      40.266  36.244  38.188  1.00  0.00     0.059 A 
ATOM     89  F   UNL A   1      41.185  35.640  36.118  1.00  0.00    -0.206 F 
ATOM     90  C   UNL A   1      39.429  35.942  39.260  1.00  0.00     0.060 A 
BRANCH  90  91
ATOM     91  S   UNL A   1      39.228  37.114  40.618  1.00  0.00     0.124 S 
ATOM     92  O   UNL A   1      40.593  37.603  40.789  1.00  0.00    -0.237 OA
ATOM     93  O   UNL A   1      38.276  38.072  40.066  1.00  0.00    -0.237 OA
ATOM     94  O   UNL A   1      38.717  36.289  41.709  1.00  0.00    -0.744 OA
ENDBRANCH  90  91
ENDBRANCH  58  83
ENDBRANCH  32  33
ENDBRANCH  24  27
ENDBRANCH  22  23
ENDBRANCH   1  22
TORSDOF 18
ENDMDL
