MODEL 1
REMARK VINA RESULT:     -11.4      0.000      0.000
REMARK SMILES COC(=O)C[C@@H](NC(=O)c1ccccc1C(=O)NCCCNC(=O)c1ccc(-c2c3nc(c(-c4c(F)cc(S(=O)(=O)[O-])cc4F)c4ccc([nH]4)c(-c4c(F)cc(S(=O)(=O)[O-])cc4F)c4nc(c(-c5c(F)cc(S(=O)(=O)[O-])cc5F)c5ccc2[nH]5)C=C4)C=C3)cc1)c1cccc(C)c1C
REMARK SMILES IDX 19 1 18 2 16 3 17 4 15 6 10 7 11 8 12 9 14 10 13 11 8 12
REMARK SMILES IDX 7 13 9 15 6 16 5 17 3 18 4 19 2 20 1 21 91 22 92 23 97 24
REMARK SMILES IDX 93 25 95 26 98 27 94 28 96 29 20 30 21 31 22 32 23 33 24 35
REMARK SMILES IDX 25 36 26 37 90 38 27 39 89 40 28 41 29 42 30 43 83 44 31 45
REMARK SMILES IDX 88 46 82 47 84 48 32 49 87 50 81 51 80 52 33 54 67 55 46 56
REMARK SMILES IDX 66 57 47 58 50 59 65 60 85 61 48 62 49 63 64 65 86 66 51 67
REMARK SMILES IDX 34 68 35 69 44 70 36 71 37 72 43 73 45 74 38 75 39 76 40 77
REMARK SMILES IDX 41 78 42 79 68 80 69 81 78 82 70 83 71 84 77 85 79 86 72 87
REMARK SMILES IDX 73 88 74 89 75 90 76 91 52 92 53 93 62 94 54 95 55 96 61 97
REMARK SMILES IDX 63 98 56 99 57 100 58 101 59 102 60 103
REMARK H PARENT 18 5 7 14 22 34 84 53 50 64
REMARK Flexibility Score: inf
ROOT
ATOM      1  C   UNL A   1      37.821  21.352  25.133  1.00  0.00     0.118 C 
ENDROOT
BRANCH   1   2
ATOM      2  N   UNL A   1      37.126  21.905  24.005  1.00  0.00    -0.352 N 
ATOM      3  C   UNL A   1      36.101  22.772  23.788  1.00  0.00     0.252 C 
ATOM      4  O   UNL A   1      35.940  23.006  22.581  1.00  0.00    -0.269 OA
ATOM      5  H   UNL A   1      37.491  21.563  23.157  1.00  0.00     0.163 HD
BRANCH   3   6
ATOM      6  C   UNL A   1      35.211  23.496  24.766  1.00  0.00     0.052 A 
ATOM      7  C   UNL A   1      34.405  23.060  25.830  1.00  0.00     0.052 A 
ATOM      8  C   UNL A   1      33.588  23.985  26.533  1.00  0.00     0.014 A 
ATOM      9  C   UNL A   1      33.597  25.344  26.243  1.00  0.00     0.001 A 
ATOM     10  C   UNL A   1      35.224  24.902  24.539  1.00  0.00     0.014 A 
ATOM     11  C   UNL A   1      34.439  25.810  25.255  1.00  0.00     0.001 A 
BRANCH   7  12
ATOM     12  C   UNL A   1      34.090  21.691  26.248  1.00  0.00     0.252 C 
ATOM     13  N   UNL A   1      33.589  20.763  25.352  1.00  0.00    -0.345 N 
ATOM     14  H   UNL A   1      34.146  19.961  25.220  1.00  0.00     0.164 HD
ATOM     15  O   UNL A   1      34.526  21.304  27.330  1.00  0.00    -0.269 OA
BRANCH  13  16
ATOM     16  C   UNL A   1      32.331  20.801  24.559  1.00  0.00     0.124 C 
BRANCH  16  17
ATOM     17  C   UNL A   1      32.342  19.687  23.500  1.00  0.00     0.152 C 
BRANCH  17  18
ATOM     18  C   UNL A   1      32.450  18.354  24.202  1.00  0.00     0.307 C 
ATOM     19  O   UNL A   1      32.053  18.154  25.342  1.00  0.00    -0.252 OA
BRANCH  18  20
ATOM     20  O   UNL A   1      33.089  17.449  23.410  1.00  0.00    -0.469 OA
ATOM     21  C   UNL A   1      33.663  16.342  24.113  1.00  0.00     0.282 C 
ENDBRANCH  18  20
ENDBRANCH  17  18
ENDBRANCH  16  17
BRANCH  16  22
ATOM     22  C   UNL A   1      31.890  22.197  24.126  1.00  0.00    -0.022 A 
ATOM     23  C   UNL A   1      32.480  22.663  22.928  1.00  0.00     0.006 A 
ATOM     24  C   UNL A   1      30.998  23.063  24.798  1.00  0.00    -0.043 A 
ATOM     25  C   UNL A   1      32.117  23.858  22.324  1.00  0.00     0.001 A 
ATOM     26  C   UNL A   1      30.701  24.333  24.223  1.00  0.00    -0.048 A 
ATOM     27  C   UNL A   1      30.436  22.726  26.155  1.00  0.00     0.045 C 
ATOM     28  C   UNL A   1      31.216  24.682  22.964  1.00  0.00     0.004 A 
ATOM     29  C   UNL A   1      29.823  25.347  24.907  1.00  0.00     0.044 C 
ENDBRANCH  16  22
ENDBRANCH  13  16
ENDBRANCH   7  12
ENDBRANCH   3   6
ENDBRANCH   1   2
BRANCH   1  30
ATOM     30  C   UNL A   1      38.515  22.399  25.973  1.00  0.00     0.042 C 
BRANCH  30  31
ATOM     31  C   UNL A   1      39.636  21.789  26.785  1.00  0.00     0.118 C 
BRANCH  31  32
ATOM     32  N   UNL A   1      40.190  20.547  26.245  1.00  0.00    -0.352 N 
ATOM     33  C   UNL A   1      41.524  20.309  25.969  1.00  0.00     0.251 C 
ATOM     34  H   UNL A   1      39.557  19.816  26.062  1.00  0.00     0.163 HD
ATOM     35  O   UNL A   1      41.934  19.266  25.488  1.00  0.00    -0.269 OA
BRANCH  33  36
ATOM     36  C   UNL A   1      42.454  21.416  26.236  1.00  0.00     0.039 A 
ATOM     37  C   UNL A   1      42.730  22.330  25.217  1.00  0.00     0.014 A 
ATOM     38  C   UNL A   1      42.850  21.643  27.554  1.00  0.00     0.014 A 
ATOM     39  C   UNL A   1      43.352  23.532  25.540  1.00  0.00     0.010 A 
ATOM     40  C   UNL A   1      43.362  22.882  27.885  1.00  0.00     0.010 A 
ATOM     41  C   UNL A   1      43.630  23.831  26.882  1.00  0.00    -0.014 A 
BRANCH  41  42
ATOM     42  C   UNL A   1      44.279  25.092  27.302  1.00  0.00     0.031 A 
ATOM     43  C   UNL A   1      43.395  26.168  27.867  1.00  0.00     0.074 A 
ATOM     44  C   UNL A   1      45.583  25.314  27.053  1.00  0.00     0.049 A 
ATOM     45  N   UNL A   1      43.631  27.442  28.017  1.00  0.00    -0.248 NA
ATOM     46  C   UNL A   1      42.028  25.759  28.240  1.00  0.00     0.031 C 
ATOM     47  C   UNL A   1      46.520  24.345  26.476  1.00  0.00     0.029 A 
ATOM     48  N   UNL A   1      46.342  26.442  27.226  1.00  0.00    -0.354 N 
ATOM     49  C   UNL A   1      42.424  27.993  28.433  1.00  0.00     0.074 A 
ATOM     50  C   UNL A   1      41.450  26.928  28.461  1.00  0.00     0.031 C 
ATOM     51  C   UNL A   1      47.729  24.920  26.355  1.00  0.00     0.029 A 
ATOM     52  C   UNL A   1      47.641  26.308  26.793  1.00  0.00     0.049 A 
ATOM     53  H   UNL A   1      45.989  27.272  27.623  1.00  0.00     0.167 HD
ATOM     54  C   UNL A   1      42.164  29.274  28.778  1.00  0.00     0.037 A 
ATOM     55  C   UNL A   1      48.633  27.217  26.741  1.00  0.00     0.037 A 
ATOM     56  C   UNL A   1      43.176  30.293  28.819  1.00  0.00     0.049 A 
ATOM     57  C   UNL A   1      48.342  28.622  27.202  1.00  0.00     0.074 A 
ATOM     58  C   UNL A   1      43.062  31.608  29.222  1.00  0.00     0.029 A 
ATOM     59  N   UNL A   1      44.505  30.091  28.465  1.00  0.00    -0.354 N 
ATOM     60  N   UNL A   1      47.203  29.132  27.612  1.00  0.00    -0.248 NA
ATOM     61  C   UNL A   1      49.461  29.573  27.197  1.00  0.00     0.031 C 
ATOM     62  C   UNL A   1      44.319  32.209  29.097  1.00  0.00     0.029 A 
ATOM     63  C   UNL A   1      45.223  31.257  28.648  1.00  0.00     0.049 A 
ATOM     64  H   UNL A   1      44.878  29.243  28.131  1.00  0.00     0.167 HD
ATOM     65  C   UNL A   1      47.475  30.455  27.941  1.00  0.00     0.074 A 
ATOM     66  C   UNL A   1      48.886  30.665  27.685  1.00  0.00     0.031 C 
ATOM     67  C   UNL A   1      46.637  31.412  28.411  1.00  0.00     0.037 A 
BRANCH  54  68
ATOM     68  C   UNL A   1      40.750  29.623  29.147  1.00  0.00     0.058 A 
ATOM     69  C   UNL A   1      40.372  29.878  30.475  1.00  0.00     0.135 A 
ATOM     70  C   UNL A   1      39.752  29.696  28.161  1.00  0.00     0.135 A 
ATOM     71  F   UNL A   1      41.279  29.802  31.463  1.00  0.00    -0.206 F 
ATOM     72  C   UNL A   1      39.052  30.149  30.819  1.00  0.00     0.059 A 
ATOM     73  C   UNL A   1      38.431  29.998  28.478  1.00  0.00     0.059 A 
ATOM     74  F   UNL A   1      40.053  29.457  26.875  1.00  0.00    -0.206 F 
ATOM     75  C   UNL A   1      38.087  30.204  29.814  1.00  0.00     0.060 A 
BRANCH  75  76
ATOM     76  S   UNL A   1      36.378  30.554  30.277  1.00  0.00     0.124 S 
ATOM     77  O   UNL A   1      35.682  30.317  29.016  1.00  0.00    -0.237 OA
ATOM     78  O   UNL A   1      36.131  29.574  31.329  1.00  0.00    -0.237 OA
ATOM     79  O   UNL A   1      36.424  31.944  30.718  1.00  0.00    -0.744 OA
ENDBRANCH  75  76
ENDBRANCH  54  68
BRANCH  55  80
ATOM     80  C   UNL A   1      49.988  26.822  26.269  1.00  0.00     0.058 A 
ATOM     81  C   UNL A   1      50.362  27.014  24.930  1.00  0.00     0.135 A 
ATOM     82  C   UNL A   1      50.944  26.278  27.139  1.00  0.00     0.135 A 
ATOM     83  F   UNL A   1      49.483  27.527  24.056  1.00  0.00    -0.206 F 
ATOM     84  C   UNL A   1      51.629  26.668  24.467  1.00  0.00     0.059 A 
ATOM     85  C   UNL A   1      52.227  25.945  26.705  1.00  0.00     0.059 A 
ATOM     86  F   UNL A   1      50.645  26.090  28.434  1.00  0.00    -0.206 F 
ATOM     87  C   UNL A   1      52.556  26.136  25.364  1.00  0.00     0.060 A 
BRANCH  87  88
ATOM     88  S   UNL A   1      54.214  25.743  24.761  1.00  0.00     0.124 S 
ATOM     89  O   UNL A   1      54.122  26.150  23.364  1.00  0.00    -0.237 OA
ATOM     90  O   UNL A   1      55.056  26.576  25.614  1.00  0.00    -0.237 OA
ATOM     91  O   UNL A   1      54.324  24.306  24.995  1.00  0.00    -0.744 OA
ENDBRANCH  87  88
ENDBRANCH  55  80
BRANCH  67  92
ATOM     92  C   UNL A   1      47.228  32.751  28.734  1.00  0.00     0.058 A 
ATOM     93  C   UNL A   1      47.286  33.776  27.780  1.00  0.00     0.135 A 
ATOM     94  C   UNL A   1      47.635  33.042  30.046  1.00  0.00     0.135 A 
ATOM     95  F   UNL A   1      46.913  33.541  26.511  1.00  0.00    -0.206 F 
ATOM     96  C   UNL A   1      47.728  35.050  28.117  1.00  0.00     0.059 A 
ATOM     97  C   UNL A   1      48.059  34.314  30.409  1.00  0.00     0.059 A 
ATOM     98  F   UNL A   1      47.586  32.093  30.995  1.00  0.00    -0.206 F 
ATOM     99  C   UNL A   1      48.104  35.311  29.436  1.00  0.00     0.060 A 
BRANCH  99 100
ATOM    100  S   UNL A   1      48.598  36.989  29.878  1.00  0.00     0.124 S 
ATOM    101  O   UNL A   1      49.966  37.036  29.374  1.00  0.00    -0.237 OA
ATOM    102  O   UNL A   1      47.626  37.803  29.152  1.00  0.00    -0.237 OA
ATOM    103  O   UNL A   1      48.462  37.012  31.332  1.00  0.00    -0.744 OA
ENDBRANCH  99 100
ENDBRANCH  67  92
ENDBRANCH  41  42
ENDBRANCH  33  36
ENDBRANCH  31  32
ENDBRANCH  30  31
ENDBRANCH   1  30
TORSDOF 19
ENDMDL
MODEL 2
REMARK VINA RESULT:     -11.4      5.851     10.072
REMARK SMILES COC(=O)C[C@@H](NC(=O)c1ccccc1C(=O)NCCCNC(=O)c1ccc(-c2c3nc(c(-c4c(F)cc(S(=O)(=O)[O-])cc4F)c4ccc([nH]4)c(-c4c(F)cc(S(=O)(=O)[O-])cc4F)c4nc(c(-c5c(F)cc(S(=O)(=O)[O-])cc5F)c5ccc2[nH]5)C=C4)C=C3)cc1)c1cccc(C)c1C
REMARK SMILES IDX 19 1 18 2 16 3 17 4 15 6 10 7 11 8 12 9 14 10 13 11 8 12
REMARK SMILES IDX 7 13 9 15 6 16 5 17 3 18 4 19 2 20 1 21 91 22 92 23 97 24
REMARK SMILES IDX 93 25 95 26 98 27 94 28 96 29 20 30 21 31 22 32 23 33 24 35
REMARK SMILES IDX 25 36 26 37 90 38 27 39 89 40 28 41 29 42 30 43 83 44 31 45
REMARK SMILES IDX 88 46 82 47 84 48 32 49 87 50 81 51 80 52 33 54 67 55 46 56
REMARK SMILES IDX 66 57 47 58 50 59 65 60 85 61 48 62 49 63 64 65 86 66 51 67
REMARK SMILES IDX 34 68 35 69 44 70 36 71 37 72 43 73 45 74 38 75 39 76 40 77
REMARK SMILES IDX 41 78 42 79 68 80 69 81 78 82 70 83 71 84 77 85 79 86 72 87
REMARK SMILES IDX 73 88 74 89 75 90 76 91 52 92 53 93 62 94 54 95 55 96 61 97
REMARK SMILES IDX 63 98 56 99 57 100 58 101 59 102 60 103
REMARK H PARENT 18 5 7 14 22 34 84 53 50 64
REMARK Flexibility Score: inf
ROOT
ATOM      1  C   UNL A   1      38.070  21.965  25.410  1.00  0.00     0.118 C 
ENDROOT
BRANCH   1   2
ATOM      2  N   UNL A   1      37.281  22.268  24.249  1.00  0.00    -0.352 N 
ATOM      3  C   UNL A   1      36.143  22.956  23.964  1.00  0.00     0.252 C 
ATOM      4  O   UNL A   1      35.925  23.005  22.745  1.00  0.00    -0.269 OA
ATOM      5  H   UNL A   1      37.670  21.869  23.438  1.00  0.00     0.163 HD
BRANCH   3   6
ATOM      6  C   UNL A   1      35.185  23.678  24.877  1.00  0.00     0.052 A 
ATOM      7  C   UNL A   1      34.363  23.251  25.931  1.00  0.00     0.052 A 
ATOM      8  C   UNL A   1      33.477  24.165  26.562  1.00  0.00     0.014 A 
ATOM      9  C   UNL A   1      33.432  25.509  26.211  1.00  0.00     0.001 A 
ATOM     10  C   UNL A   1      35.140  25.072  24.585  1.00  0.00     0.014 A 
ATOM     11  C   UNL A   1      34.287  25.971  25.232  1.00  0.00     0.001 A 
BRANCH   7  12
ATOM     12  C   UNL A   1      34.097  21.888  26.401  1.00  0.00     0.252 C 
ATOM     13  N   UNL A   1      33.644  20.906  25.538  1.00  0.00    -0.345 N 
ATOM     14  H   UNL A   1      34.234  20.123  25.445  1.00  0.00     0.164 HD
ATOM     15  O   UNL A   1      34.536  21.562  27.502  1.00  0.00    -0.269 OA
BRANCH  13  16
ATOM     16  C   UNL A   1      32.395  20.861  24.732  1.00  0.00     0.124 C 
BRANCH  16  17
ATOM     17  C   UNL A   1      32.411  19.638  23.802  1.00  0.00     0.152 C 
BRANCH  17  18
ATOM     18  C   UNL A   1      32.869  18.435  24.594  1.00  0.00     0.307 C 
ATOM     19  O   UNL A   1      32.286  18.013  25.584  1.00  0.00    -0.252 OA
BRANCH  18  20
ATOM     20  O   UNL A   1      34.029  17.940  24.081  1.00  0.00    -0.469 OA
ATOM     21  C   UNL A   1      33.871  16.771  23.270  1.00  0.00     0.282 C 
ENDBRANCH  18  20
ENDBRANCH  17  18
ENDBRANCH  16  17
BRANCH  16  22
ATOM     22  C   UNL A   1      31.966  22.203  24.143  1.00  0.00    -0.022 A 
ATOM     23  C   UNL A   1      32.618  22.560  22.939  1.00  0.00     0.006 A 
ATOM     24  C   UNL A   1      31.030  23.117  24.678  1.00  0.00    -0.043 A 
ATOM     25  C   UNL A   1      32.279  23.686  22.204  1.00  0.00     0.001 A 
ATOM     26  C   UNL A   1      30.754  24.321  23.967  1.00  0.00    -0.048 A 
ATOM     27  C   UNL A   1      30.396  22.902  26.028  1.00  0.00     0.045 C 
ATOM     28  C   UNL A   1      31.335  24.555  22.711  1.00  0.00     0.004 A 
ATOM     29  C   UNL A   1      29.830  25.383  24.502  1.00  0.00     0.044 C 
ENDBRANCH  16  22
ENDBRANCH  13  16
ENDBRANCH   7  12
ENDBRANCH   3   6
ENDBRANCH   1   2
BRANCH   1  30
ATOM     30  C   UNL A   1      38.496  23.197  26.175  1.00  0.00     0.042 C 
BRANCH  30  31
ATOM     31  C   UNL A   1      39.837  22.985  26.843  1.00  0.00     0.118 C 
BRANCH  31  32
ATOM     32  N   UNL A   1      41.001  23.248  25.997  1.00  0.00    -0.352 N 
ATOM     33  C   UNL A   1      41.766  24.399  26.008  1.00  0.00     0.251 C 
ATOM     34  H   UNL A   1      41.263  22.541  25.362  1.00  0.00     0.163 HD
ATOM     35  O   UNL A   1      42.711  24.585  25.259  1.00  0.00    -0.269 OA
BRANCH  33  36
ATOM     36  C   UNL A   1      41.354  25.449  26.952  1.00  0.00     0.039 A 
ATOM     37  C   UNL A   1      40.774  25.077  28.167  1.00  0.00     0.014 A 
ATOM     38  C   UNL A   1      41.760  26.760  26.702  1.00  0.00     0.014 A 
ATOM     39  C   UNL A   1      40.666  26.026  29.180  1.00  0.00     0.010 A 
ATOM     40  C   UNL A   1      41.754  27.663  27.745  1.00  0.00     0.010 A 
ATOM     41  C   UNL A   1      41.196  27.310  28.988  1.00  0.00    -0.014 A 
BRANCH  41  42
ATOM     42  C   UNL A   1      41.128  28.366  30.022  1.00  0.00     0.031 A 
ATOM     43  C   UNL A   1      42.073  28.254  31.185  1.00  0.00     0.074 A 
ATOM     44  C   UNL A   1      40.163  29.303  29.988  1.00  0.00     0.049 A 
ATOM     45  N   UNL A   1      42.025  28.835  32.352  1.00  0.00    -0.248 NA
ATOM     46  C   UNL A   1      43.181  27.291  31.034  1.00  0.00     0.031 C 
ATOM     47  C   UNL A   1      39.175  29.476  28.919  1.00  0.00     0.029 A 
ATOM     48  N   UNL A   1      39.834  30.272  30.900  1.00  0.00    -0.354 N 
ATOM     49  C   UNL A   1      43.049  28.257  33.093  1.00  0.00     0.074 A 
ATOM     50  C   UNL A   1      43.665  27.248  32.264  1.00  0.00     0.031 C 
ATOM     51  C   UNL A   1      38.360  30.497  29.233  1.00  0.00     0.029 A 
ATOM     52  C   UNL A   1      38.731  31.015  30.545  1.00  0.00     0.049 A 
ATOM     53  H   UNL A   1      40.340  30.423  31.732  1.00  0.00     0.167 HD
ATOM     54  C   UNL A   1      43.447  28.560  34.349  1.00  0.00     0.037 A 
ATOM     55  C   UNL A   1      38.089  31.987  31.222  1.00  0.00     0.037 A 
ATOM     56  C   UNL A   1      42.866  29.627  35.116  1.00  0.00     0.049 A 
ATOM     57  C   UNL A   1      38.596  32.362  32.590  1.00  0.00     0.074 A 
ATOM     58  C   UNL A   1      43.226  30.086  36.367  1.00  0.00     0.029 A 
ATOM     59  N   UNL A   1      41.812  30.421  34.680  1.00  0.00    -0.354 N 
ATOM     60  N   UNL A   1      39.577  31.824  33.278  1.00  0.00    -0.248 NA
ATOM     61  C   UNL A   1      37.917  33.469  33.274  1.00  0.00     0.031 C 
ATOM     62  C   UNL A   1      42.379  31.150  36.696  1.00  0.00     0.029 A 
ATOM     63  C   UNL A   1      41.514  31.374  35.635  1.00  0.00     0.049 A 
ATOM     64  H   UNL A   1      41.346  30.318  33.819  1.00  0.00     0.167 HD
ATOM     65  C   UNL A   1      39.653  32.546  34.463  1.00  0.00     0.074 A 
ATOM     66  C   UNL A   1      38.619  33.561  34.397  1.00  0.00     0.031 C 
ATOM     67  C   UNL A   1      40.496  32.388  35.512  1.00  0.00     0.037 A 
BRANCH  54  68
ATOM     68  C   UNL A   1      44.559  27.743  34.944  1.00  0.00     0.058 A 
ATOM     69  C   UNL A   1      45.907  28.104  34.789  1.00  0.00     0.135 A 
ATOM     70  C   UNL A   1      44.276  26.576  35.673  1.00  0.00     0.135 A 
ATOM     71  F   UNL A   1      46.238  29.197  34.084  1.00  0.00    -0.206 F 
ATOM     72  C   UNL A   1      46.936  27.317  35.297  1.00  0.00     0.059 A 
ATOM     73  C   UNL A   1      45.288  25.791  36.218  1.00  0.00     0.059 A 
ATOM     74  F   UNL A   1      43.006  26.180  35.849  1.00  0.00    -0.206 F 
ATOM     75  C   UNL A   1      46.616  26.159  36.008  1.00  0.00     0.060 A 
BRANCH  75  76
ATOM     76  S   UNL A   1      47.962  25.148  36.658  1.00  0.00     0.124 S 
ATOM     77  O   UNL A   1      47.388  23.808  36.566  1.00  0.00    -0.237 OA
ATOM     78  O   UNL A   1      49.048  25.435  35.727  1.00  0.00    -0.237 OA
ATOM     79  O   UNL A   1      48.149  25.660  38.011  1.00  0.00    -0.744 OA
ENDBRANCH  75  76
ENDBRANCH  54  68
BRANCH  55  80
ATOM     80  C   UNL A   1      36.929  32.687  30.607  1.00  0.00     0.058 A 
ATOM     81  C   UNL A   1      35.616  32.341  30.960  1.00  0.00     0.135 A 
ATOM     82  C   UNL A   1      37.099  33.729  29.683  1.00  0.00     0.135 A 
ATOM     83  F   UNL A   1      35.398  31.348  31.836  1.00  0.00    -0.206 F 
ATOM     84  C   UNL A   1      34.513  32.992  30.412  1.00  0.00     0.059 A 
ATOM     85  C   UNL A   1      36.013  34.412  29.137  1.00  0.00     0.059 A 
ATOM     86  F   UNL A   1      38.334  34.113  29.323  1.00  0.00    -0.206 F 
ATOM     87  C   UNL A   1      34.723  34.029  29.503  1.00  0.00     0.060 A 
BRANCH  87  88
ATOM     88  S   UNL A   1      33.285  34.901  28.841  1.00  0.00     0.124 S 
ATOM     89  O   UNL A   1      32.789  33.945  27.858  1.00  0.00    -0.237 OA
ATOM     90  O   UNL A   1      32.459  35.079  30.031  1.00  0.00    -0.237 OA
ATOM     91  O   UNL A   1      33.859  36.128  28.296  1.00  0.00    -0.744 OA
ENDBRANCH  87  88
ENDBRANCH  55  80
BRANCH  67  92
ATOM     92  C   UNL A   1      40.381  33.362  36.646  1.00  0.00     0.058 A 
ATOM     93  C   UNL A   1      39.503  33.141  37.716  1.00  0.00     0.135 A 
ATOM     94  C   UNL A   1      41.242  34.469  36.712  1.00  0.00     0.135 A 
ATOM     95  F   UNL A   1      38.657  32.098  37.693  1.00  0.00    -0.206 F 
ATOM     96  C   UNL A   1      39.483  33.986  38.819  1.00  0.00     0.059 A 
ATOM     97  C   UNL A   1      41.255  35.313  37.815  1.00  0.00     0.059 A 
ATOM     98  F   UNL A   1      42.107  34.712  35.714  1.00  0.00    -0.206 F 
ATOM     99  C   UNL A   1      40.370  35.065  38.863  1.00  0.00     0.060 A 
BRANCH  99 100
ATOM    100  S   UNL A   1      40.390  36.107  40.336  1.00  0.00     0.124 S 
ATOM    101  O   UNL A   1      38.974  36.410  40.502  1.00  0.00    -0.237 OA
ATOM    102  O   UNL A   1      40.972  35.219  41.339  1.00  0.00    -0.237 OA
ATOM    103  O   UNL A   1      41.233  37.234  39.943  1.00  0.00    -0.744 OA
ENDBRANCH  99 100
ENDBRANCH  67  92
ENDBRANCH  41  42
ENDBRANCH  33  36
ENDBRANCH  31  32
ENDBRANCH  30  31
ENDBRANCH   1  30
TORSDOF 19
ENDMDL
MODEL 3
REMARK VINA RESULT:     -11.2      6.342     10.967
REMARK SMILES COC(=O)C[C@@H](NC(=O)c1ccccc1C(=O)NCCCNC(=O)c1ccc(-c2c3nc(c(-c4c(F)cc(S(=O)(=O)[O-])cc4F)c4ccc([nH]4)c(-c4c(F)cc(S(=O)(=O)[O-])cc4F)c4nc(c(-c5c(F)cc(S(=O)(=O)[O-])cc5F)c5ccc2[nH]5)C=C4)C=C3)cc1)c1cccc(C)c1C
REMARK SMILES IDX 19 1 18 2 16 3 17 4 15 6 10 7 11 8 12 9 14 10 13 11 8 12
REMARK SMILES IDX 7 13 9 15 6 16 5 17 3 18 4 19 2 20 1 21 91 22 92 23 97 24
REMARK SMILES IDX 93 25 95 26 98 27 94 28 96 29 20 30 21 31 22 32 23 33 24 35
REMARK SMILES IDX 25 36 26 37 90 38 27 39 89 40 28 41 29 42 30 43 83 44 31 45
REMARK SMILES IDX 88 46 82 47 84 48 32 49 87 50 81 51 80 52 33 54 67 55 46 56
REMARK SMILES IDX 66 57 47 58 50 59 65 60 85 61 48 62 49 63 64 65 86 66 51 67
REMARK SMILES IDX 34 68 35 69 44 70 36 71 37 72 43 73 45 74 38 75 39 76 40 77
REMARK SMILES IDX 41 78 42 79 68 80 69 81 78 82 70 83 71 84 77 85 79 86 72 87
REMARK SMILES IDX 73 88 74 89 75 90 76 91 52 92 53 93 62 94 54 95 55 96 61 97
REMARK SMILES IDX 63 98 56 99 57 100 58 101 59 102 60 103
REMARK H PARENT 18 5 7 14 22 34 84 53 50 64
REMARK Flexibility Score: inf
ROOT
ATOM      1  C   UNL A   1      36.179  23.888  25.508  1.00  0.00     0.118 C 
ENDROOT
BRANCH   1   2
ATOM      2  N   UNL A   1      35.650  23.698  24.186  1.00  0.00    -0.352 N 
ATOM      3  C   UNL A   1      34.426  23.656  23.595  1.00  0.00     0.252 C 
ATOM      4  O   UNL A   1      34.510  23.560  22.362  1.00  0.00    -0.269 OA
ATOM      5  H   UNL A   1      36.369  23.560  23.528  1.00  0.00     0.163 HD
BRANCH   3   6
ATOM      6  C   UNL A   1      33.047  23.758  24.197  1.00  0.00     0.052 A 
ATOM      7  C   UNL A   1      31.942  24.578  23.922  1.00  0.00     0.052 A 
ATOM      8  C   UNL A   1      30.779  24.507  24.735  1.00  0.00     0.014 A 
ATOM      9  C   UNL A   1      30.666  23.597  25.780  1.00  0.00     0.001 A 
ATOM     10  C   UNL A   1      32.866  22.809  25.245  1.00  0.00     0.014 A 
ATOM     11  C   UNL A   1      31.707  22.726  26.022  1.00  0.00     0.001 A 
BRANCH   7  12
ATOM     12  C   UNL A   1      31.839  25.711  22.997  1.00  0.00     0.252 C 
ATOM     13  N   UNL A   1      31.957  27.015  23.443  1.00  0.00    -0.345 N 
ATOM     14  H   UNL A   1      32.702  27.528  23.053  1.00  0.00     0.164 HD
ATOM     15  O   UNL A   1      31.918  25.480  21.793  1.00  0.00    -0.269 OA
BRANCH  13  16
ATOM     16  C   UNL A   1      31.122  27.755  24.427  1.00  0.00     0.124 C 
BRANCH  16  17
ATOM     17  C   UNL A   1      29.864  28.309  23.740  1.00  0.00     0.152 C 
BRANCH  17  18
ATOM     18  C   UNL A   1      30.290  29.289  22.671  1.00  0.00     0.307 C 
ATOM     19  O   UNL A   1      31.325  29.182  22.027  1.00  0.00    -0.252 OA
BRANCH  18  20
ATOM     20  O   UNL A   1      29.394  30.310  22.576  1.00  0.00    -0.469 OA
ATOM     21  C   UNL A   1      28.205  29.993  21.845  1.00  0.00     0.282 C 
ENDBRANCH  18  20
ENDBRANCH  17  18
ENDBRANCH  16  17
BRANCH  16  22
ATOM     22  C   UNL A   1      31.900  28.685  25.355  1.00  0.00    -0.022 A 
ATOM     23  C   UNL A   1      31.367  29.989  25.475  1.00  0.00     0.006 A 
ATOM     24  C   UNL A   1      33.087  28.392  26.066  1.00  0.00    -0.043 A 
ATOM     25  C   UNL A   1      31.874  30.933  26.355  1.00  0.00     0.001 A 
ATOM     26  C   UNL A   1      33.660  29.399  26.897  1.00  0.00    -0.048 A 
ATOM     27  C   UNL A   1      33.817  27.087  25.887  1.00  0.00     0.045 C 
ATOM     28  C   UNL A   1      33.010  30.630  27.077  1.00  0.00     0.004 A 
ATOM     29  C   UNL A   1      34.961  29.200  27.629  1.00  0.00     0.044 C 
ENDBRANCH  16  22
ENDBRANCH  13  16
ENDBRANCH   7  12
ENDBRANCH   3   6
ENDBRANCH   1   2
BRANCH   1  30
ATOM     30  C   UNL A   1      37.486  23.163  25.732  1.00  0.00     0.042 C 
BRANCH  30  31
ATOM     31  C   UNL A   1      38.479  24.046  26.456  1.00  0.00     0.118 C 
BRANCH  31  32
ATOM     32  N   UNL A   1      39.883  23.802  26.126  1.00  0.00    -0.352 N 
ATOM     33  C   UNL A   1      40.957  24.566  26.543  1.00  0.00     0.251 C 
ATOM     34  H   UNL A   1      40.081  23.024  25.556  1.00  0.00     0.163 HD
ATOM     35  O   UNL A   1      42.110  24.340  26.214  1.00  0.00    -0.269 OA
BRANCH  33  36
ATOM     36  C   UNL A   1      40.643  25.731  27.383  1.00  0.00     0.039 A 
ATOM     37  C   UNL A   1      39.779  25.571  28.469  1.00  0.00     0.014 A 
ATOM     38  C   UNL A   1      41.389  26.896  27.205  1.00  0.00     0.014 A 
ATOM     39  C   UNL A   1      39.718  26.570  29.436  1.00  0.00     0.010 A 
ATOM     40  C   UNL A   1      41.410  27.830  28.222  1.00  0.00     0.010 A 
ATOM     41  C   UNL A   1      40.566  27.683  29.338  1.00  0.00    -0.014 A 
BRANCH  41  42
ATOM     42  C   UNL A   1      40.565  28.778  30.332  1.00  0.00     0.031 A 
ATOM     43  C   UNL A   1      41.524  28.665  31.484  1.00  0.00     0.074 A 
ATOM     44  C   UNL A   1      39.644  29.758  30.278  1.00  0.00     0.049 A 
ATOM     45  N   UNL A   1      41.523  29.291  32.628  1.00  0.00    -0.248 NA
ATOM     46  C   UNL A   1      42.583  27.647  31.352  1.00  0.00     0.031 C 
ATOM     47  C   UNL A   1      38.647  29.937  29.219  1.00  0.00     0.029 A 
ATOM     48  N   UNL A   1      39.377  30.775  31.158  1.00  0.00    -0.354 N 
ATOM     49  C   UNL A   1      42.532  28.693  33.375  1.00  0.00     0.074 A 
ATOM     50  C   UNL A   1      43.086  27.626  32.575  1.00  0.00     0.031 C 
ATOM     51  C   UNL A   1      37.886  31.007  29.507  1.00  0.00     0.029 A 
ATOM     52  C   UNL A   1      38.304  31.555  30.792  1.00  0.00     0.049 A 
ATOM     53  H   UNL A   1      39.903  30.932  31.975  1.00  0.00     0.167 HD
ATOM     54  C   UNL A   1      42.966  29.024  34.612  1.00  0.00     0.037 A 
ATOM     55  C   UNL A   1      37.719  32.580  31.441  1.00  0.00     0.037 A 
ATOM     56  C   UNL A   1      42.448  30.144  35.347  1.00  0.00     0.049 A 
ATOM     57  C   UNL A   1      38.267  32.982  32.786  1.00  0.00     0.074 A 
ATOM     58  C   UNL A   1      42.851  30.632  36.574  1.00  0.00     0.029 A 
ATOM     59  N   UNL A   1      41.425  30.970  34.898  1.00  0.00    -0.354 N 
ATOM     60  N   UNL A   1      39.233  32.424  33.479  1.00  0.00    -0.248 NA
ATOM     61  C   UNL A   1      37.652  34.145  33.439  1.00  0.00     0.031 C 
ATOM     62  C   UNL A   1      42.060  31.746  36.876  1.00  0.00     0.029 A 
ATOM     63  C   UNL A   1      41.188  31.971  35.821  1.00  0.00     0.049 A 
ATOM     64  H   UNL A   1      40.940  30.858  34.048  1.00  0.00     0.167 HD
ATOM     65  C   UNL A   1      39.363  33.185  34.634  1.00  0.00     0.074 A 
ATOM     66  C   UNL A   1      38.377  34.245  34.546  1.00  0.00     0.031 C 
ATOM     67  C   UNL A   1      40.217  33.027  35.676  1.00  0.00     0.037 A 
BRANCH  54  68
ATOM     68  C   UNL A   1      44.048  28.178  35.220  1.00  0.00     0.058 A 
ATOM     69  C   UNL A   1      43.754  27.057  36.014  1.00  0.00     0.135 A 
ATOM     70  C   UNL A   1      45.401  28.495  35.016  1.00  0.00     0.135 A 
ATOM     71  F   UNL A   1      42.478  26.719  36.261  1.00  0.00    -0.206 F 
ATOM     72  C   UNL A   1      44.758  26.307  36.618  1.00  0.00     0.059 A 
ATOM     73  C   UNL A   1      46.423  27.739  35.584  1.00  0.00     0.059 A 
ATOM     74  F   UNL A   1      45.742  29.557  34.271  1.00  0.00    -0.206 F 
ATOM     75  C   UNL A   1      46.091  26.658  36.400  1.00  0.00     0.060 A 
BRANCH  75  76
ATOM     76  S   UNL A   1      47.381  25.677  37.193  1.00  0.00     0.124 S 
ATOM     77  O   UNL A   1      47.254  26.100  38.584  1.00  0.00    -0.237 OA
ATOM     78  O   UNL A   1      46.956  24.311  36.907  1.00  0.00    -0.237 OA
ATOM     79  O   UNL A   1      48.600  26.106  36.514  1.00  0.00    -0.744 OA
ENDBRANCH  75  76
ENDBRANCH  54  68
BRANCH  55  80
ATOM     80  C   UNL A   1      36.582  33.311  30.819  1.00  0.00     0.058 A 
ATOM     81  C   UNL A   1      35.287  33.203  31.348  1.00  0.00     0.135 A 
ATOM     82  C   UNL A   1      36.762  34.152  29.710  1.00  0.00     0.135 A 
ATOM     83  F   UNL A   1      35.060  32.409  32.405  1.00  0.00    -0.206 F 
ATOM     84  C   UNL A   1      34.210  33.889  30.794  1.00  0.00     0.059 A 
ATOM     85  C   UNL A   1      35.705  34.867  29.151  1.00  0.00     0.059 A 
ATOM     86  F   UNL A   1      37.984  34.305  29.175  1.00  0.00    -0.206 F 
ATOM     87  C   UNL A   1      34.430  34.722  29.697  1.00  0.00     0.060 A 
BRANCH  87  88
ATOM     88  S   UNL A   1      33.032  35.649  29.022  1.00  0.00     0.124 S 
ATOM     89  O   UNL A   1      32.318  36.028  30.236  1.00  0.00    -0.237 OA
ATOM     90  O   UNL A   1      33.699  36.734  28.309  1.00  0.00    -0.237 OA
ATOM     91  O   UNL A   1      32.360  34.671  28.172  1.00  0.00    -0.744 OA
ENDBRANCH  87  88
ENDBRANCH  55  80
BRANCH  67  92
ATOM     92  C   UNL A   1      40.166  34.046  36.774  1.00  0.00     0.058 A 
ATOM     93  C   UNL A   1      40.945  35.210  36.730  1.00  0.00     0.135 A 
ATOM     94  C   UNL A   1      39.243  33.904  37.822  1.00  0.00     0.135 A 
ATOM     95  F   UNL A   1      41.846  35.385  35.749  1.00  0.00    -0.206 F 
ATOM     96  C   UNL A   1      40.809  36.205  37.691  1.00  0.00     0.059 A 
ATOM     97  C   UNL A   1      39.074  34.896  38.780  1.00  0.00     0.059 A 
ATOM     98  F   UNL A   1      38.468  32.810  37.897  1.00  0.00    -0.206 F 
ATOM     99  C   UNL A   1      39.864  36.042  38.707  1.00  0.00     0.060 A 
BRANCH  99 100
ATOM    100  S   UNL A   1      39.641  37.377  39.901  1.00  0.00     0.124 S 
ATOM    101  O   UNL A   1      38.458  38.048  39.374  1.00  0.00    -0.237 OA
ATOM    102  O   UNL A   1      39.452  36.648  41.153  1.00  0.00    -0.237 OA
ATOM    103  O   UNL A   1      40.887  38.131  39.805  1.00  0.00    -0.744 OA
ENDBRANCH  99 100
ENDBRANCH  67  92
ENDBRANCH  41  42
ENDBRANCH  33  36
ENDBRANCH  31  32
ENDBRANCH  30  31
ENDBRANCH   1  30
TORSDOF 19
ENDMDL
