MODEL 1
REMARK VINA RESULT:     -12.8      0.000      0.000
REMARK SMILES CC(C)[N@@H+](C)Cc1cc2c(cc1Cl)C=C(C(=O)NCCCNC(=O)c1ccc(-c3c4nc(c(-c5c(F)cc(S(=O)(=O)[O-])cc5F)c5ccc([nH]5)c(-c5c(F)cc(S(=O)(=O)[O-])cc5F)c5nc(c(-c6c(F)cc(S(=O)(=O)[O-])cc6F)c6ccc3[nH]6)C=C5)C=C4)cc1)[C@@H](C(F)(F)F)O2
REMARK SMILES IDX 20 1 19 2 18 3 16 4 17 5 15 7 7 8 8 9 12 10 9 11 11 12 13 13
REMARK SMILES IDX 10 14 96 15 14 16 91 17 6 18 4 19 5 20 2 22 1 23 3 24 92 25
REMARK SMILES IDX 93 26 94 27 95 28 21 29 22 30 23 31 24 33 25 34 26 35 90 36
REMARK SMILES IDX 27 37 89 38 28 39 29 40 30 41 83 42 31 43 88 44 82 45 84 46
REMARK SMILES IDX 32 47 87 48 81 49 80 50 33 52 67 53 46 54 66 55 47 56 50 57
REMARK SMILES IDX 65 58 85 59 48 60 49 61 64 63 86 64 51 65 34 66 35 67 44 68
REMARK SMILES IDX 36 69 37 70 43 71 45 72 38 73 39 74 40 75 41 76 42 77 68 78
REMARK SMILES IDX 69 79 78 80 70 81 71 82 77 83 79 84 72 85 73 86 74 87 75 88
REMARK SMILES IDX 76 89 52 90 53 91 62 92 54 93 55 94 61 95 63 96 56 97 57 98
REMARK SMILES IDX 58 99 59 100 60 101
REMARK H PARENT 18 6 4 21 22 32 84 51 50 62
REMARK Flexibility Score: inf
ROOT
ATOM      1  C   UNL A   1      39.242  22.129  26.363  1.00  0.00     0.042 C 
ENDROOT
BRANCH   1   2
ATOM      2  C   UNL A   1      38.000  22.771  25.766  1.00  0.00     0.118 C 
BRANCH   2   3
ATOM      3  N   UNL A   1      36.789  22.037  26.100  1.00  0.00    -0.352 N 
ATOM      4  C   UNL A   1      35.458  22.177  25.903  1.00  0.00     0.251 C 
ATOM      5  O   UNL A   1      34.758  21.285  26.394  1.00  0.00    -0.270 OA
ATOM      6  H   UNL A   1      36.994  21.217  26.606  1.00  0.00     0.163 HD
BRANCH   4   7
ATOM      7  C   UNL A   1      34.814  23.286  25.143  1.00  0.00     0.067 C 
ATOM      8  C   UNL A   1      32.236  27.418  23.863  1.00  0.00     0.029 A 
ATOM      9  C   UNL A   1      32.961  26.447  23.151  1.00  0.00     0.058 A 
ATOM     10  C   UNL A   1      32.399  27.459  25.259  1.00  0.00     0.050 A 
ATOM     11  C   UNL A   1      33.681  25.462  23.818  1.00  0.00     0.128 A 
ATOM     12  C   UNL A   1      33.151  26.480  25.924  1.00  0.00     0.033 A 
ATOM     13  Cl  UNL A   1      31.730  28.720  26.235  1.00  0.00    -0.084 Cl
ATOM     14  C   UNL A   1      33.764  25.454  25.206  1.00  0.00     0.019 A 
ATOM     15  O   UNL A   1      34.290  24.516  23.044  1.00  0.00    -0.475 OA
ATOM     16  C   UNL A   1      34.487  24.375  25.866  1.00  0.00     0.025 C 
ATOM     17  C   UNL A   1      34.471  23.220  23.680  1.00  0.00     0.314 C 
BRANCH   8  18
ATOM     18  C   UNL A   1      31.326  28.342  23.081  1.00  0.00     0.300 C 
BRANCH  18  19
ATOM     19  N   UNL A   1      29.915  28.420  23.493  1.00  0.00    -0.332 N 
ATOM     20  C   UNL A   1      29.218  27.141  23.476  1.00  0.00     0.333 C 
ATOM     21  H   UNL A   1      30.071  28.694  24.463  1.00  0.00     0.348 HD
BRANCH  19  22
ATOM     22  C   UNL A   1      29.072  29.545  23.062  1.00  0.00     0.177 C 
ATOM     23  C   UNL A   1      29.593  30.230  21.794  1.00  0.00     0.075 C 
ATOM     24  C   UNL A   1      27.566  29.279  22.948  1.00  0.00     0.075 C 
ENDBRANCH  19  22
ENDBRANCH  18  19
ENDBRANCH   8  18
BRANCH  17  25
ATOM     25  C   UNL A   1      33.239  22.337  23.392  1.00  0.00     0.429 C 
ATOM     26  F   UNL A   1      32.874  22.440  22.090  1.00  0.00    -0.167 F 
ATOM     27  F   UNL A   1      33.474  21.022  23.621  1.00  0.00    -0.167 F 
ATOM     28  F   UNL A   1      32.166  22.674  24.141  1.00  0.00    -0.167 F 
ENDBRANCH  17  25
ENDBRANCH   4   7
ENDBRANCH   2   3
ENDBRANCH   1   2
BRANCH   1  29
ATOM     29  C   UNL A   1      40.160  23.145  27.034  1.00  0.00     0.118 C 
BRANCH  29  30
ATOM     30  N   UNL A   1      40.876  23.970  26.062  1.00  0.00    -0.352 N 
ATOM     31  C   UNL A   1      41.248  25.292  26.117  1.00  0.00     0.251 C 
ATOM     32  H   UNL A   1      41.135  23.502  25.236  1.00  0.00     0.163 HD
ATOM     33  O   UNL A   1      41.640  25.854  25.097  1.00  0.00    -0.269 OA
BRANCH  31  34
ATOM     34  C   UNL A   1      41.158  26.036  27.390  1.00  0.00     0.039 A 
ATOM     35  C   UNL A   1      40.040  25.890  28.210  1.00  0.00     0.014 A 
ATOM     36  C   UNL A   1      42.199  26.888  27.771  1.00  0.00     0.014 A 
ATOM     37  C   UNL A   1      39.869  26.740  29.293  1.00  0.00     0.010 A 
ATOM     38  C   UNL A   1      42.074  27.664  28.927  1.00  0.00     0.010 A 
ATOM     39  C   UNL A   1      40.882  27.637  29.669  1.00  0.00    -0.014 A 
BRANCH  39  40
ATOM     40  C   UNL A   1      40.650  28.529  30.836  1.00  0.00     0.031 A 
ATOM     41  C   UNL A   1      41.576  28.503  32.023  1.00  0.00     0.074 A 
ATOM     42  C   UNL A   1      39.652  29.432  30.774  1.00  0.00     0.049 A 
ATOM     43  N   UNL A   1      41.559  29.255  33.094  1.00  0.00    -0.248 NA
ATOM     44  C   UNL A   1      42.658  27.504  32.013  1.00  0.00     0.031 C 
ATOM     45  C   UNL A   1      38.696  29.556  29.669  1.00  0.00     0.029 A 
ATOM     46  N   UNL A   1      39.301  30.447  31.627  1.00  0.00    -0.354 N 
ATOM     47  C   UNL A   1      42.606  28.809  33.892  1.00  0.00     0.074 A 
ATOM     48  C   UNL A   1      43.225  27.702  33.196  1.00  0.00     0.031 C 
ATOM     49  C   UNL A   1      37.927  30.634  29.870  1.00  0.00     0.029 A 
ATOM     50  C   UNL A   1      38.282  31.237  31.150  1.00  0.00     0.049 A 
ATOM     51  H   UNL A   1      39.736  30.595  32.497  1.00  0.00     0.167 HD
ATOM     52  C   UNL A   1      43.022  29.288  35.089  1.00  0.00     0.037 A 
ATOM     53  C   UNL A   1      37.692  32.325  31.682  1.00  0.00     0.037 A 
ATOM     54  C   UNL A   1      42.422  30.412  35.760  1.00  0.00     0.049 A 
ATOM     55  C   UNL A   1      38.155  32.821  33.020  1.00  0.00     0.074 A 
ATOM     56  C   UNL A   1      42.779  30.983  36.969  1.00  0.00     0.029 A 
ATOM     57  N   UNL A   1      41.345  31.141  35.277  1.00  0.00    -0.354 N 
ATOM     58  N   UNL A   1      39.139  32.375  33.764  1.00  0.00    -0.248 NA
ATOM     59  C   UNL A   1      37.420  33.950  33.600  1.00  0.00     0.031 C 
ATOM     60  C   UNL A   1      41.897  32.035  37.232  1.00  0.00     0.029 A 
ATOM     61  C   UNL A   1      41.014  32.145  36.171  1.00  0.00     0.049 A 
ATOM     62  H   UNL A   1      40.885  30.970  34.423  1.00  0.00     0.167 HD
ATOM     63  C   UNL A   1      39.139  33.168  34.904  1.00  0.00     0.074 A 
ATOM     64  C   UNL A   1      38.074  34.138  34.740  1.00  0.00     0.031 C 
ATOM     65  C   UNL A   1      39.944  33.094  35.992  1.00  0.00     0.037 A 
BRANCH  52  66
ATOM     66  C   UNL A   1      44.175  28.594  35.759  1.00  0.00     0.058 A 
ATOM     67  C   UNL A   1      45.505  28.979  35.524  1.00  0.00     0.135 A 
ATOM     68  C   UNL A   1      43.946  27.561  36.682  1.00  0.00     0.135 A 
ATOM     69  F   UNL A   1      45.781  29.950  34.638  1.00  0.00    -0.206 F 
ATOM     70  C   UNL A   1      46.568  28.351  36.166  1.00  0.00     0.059 A 
ATOM     71  C   UNL A   1      44.993  26.933  37.352  1.00  0.00     0.059 A 
ATOM     72  F   UNL A   1      42.695  27.153  36.943  1.00  0.00    -0.206 F 
ATOM     73  C   UNL A   1      46.302  27.328  37.077  1.00  0.00     0.060 A 
BRANCH  73  74
ATOM     74  S   UNL A   1      47.694  26.524  37.900  1.00  0.00     0.124 S 
ATOM     75  O   UNL A   1      48.478  26.062  36.760  1.00  0.00    -0.237 OA
ATOM     76  O   UNL A   1      48.278  27.620  38.667  1.00  0.00    -0.237 OA
ATOM     77  O   UNL A   1      47.061  25.474  38.693  1.00  0.00    -0.744 OA
ENDBRANCH  73  74
ENDBRANCH  52  66
BRANCH  53  78
ATOM     78  C   UNL A   1      36.601  33.005  30.938  1.00  0.00     0.058 A 
ATOM     79  C   UNL A   1      35.259  32.833  31.309  1.00  0.00     0.135 A 
ATOM     80  C   UNL A   1      36.881  33.886  29.882  1.00  0.00     0.135 A 
ATOM     81  F   UNL A   1      34.942  31.996  32.309  1.00  0.00    -0.206 F 
ATOM     82  C   UNL A   1      34.234  33.515  30.663  1.00  0.00     0.059 A 
ATOM     83  C   UNL A   1      35.875  34.598  29.237  1.00  0.00     0.059 A 
ATOM     84  F   UNL A   1      38.151  34.095  29.501  1.00  0.00    -0.206 F 
ATOM     85  C   UNL A   1      34.554  34.402  29.632  1.00  0.00     0.060 A 
BRANCH  85  86
ATOM     86  S   UNL A   1      33.224  35.345  28.855  1.00  0.00     0.124 S 
ATOM     87  O   UNL A   1      32.491  35.831  30.017  1.00  0.00    -0.237 OA
ATOM     88  O   UNL A   1      33.963  36.351  28.098  1.00  0.00    -0.237 OA
ATOM     89  O   UNL A   1      32.535  34.346  28.044  1.00  0.00    -0.744 OA
ENDBRANCH  85  86
ENDBRANCH  53  78
BRANCH  65  90
ATOM     90  C   UNL A   1      39.704  34.084  37.094  1.00  0.00     0.058 A 
ATOM     91  C   UNL A   1      38.876  33.772  38.183  1.00  0.00     0.135 A 
ATOM     92  C   UNL A   1      40.361  35.324  37.099  1.00  0.00     0.135 A 
ATOM     93  F   UNL A   1      38.220  32.601  38.219  1.00  0.00    -0.206 F 
ATOM     94  C   UNL A   1      38.704  34.659  39.239  1.00  0.00     0.059 A 
ATOM     95  C   UNL A   1      40.219  36.219  38.154  1.00  0.00     0.059 A 
ATOM     96  F   UNL A   1      41.168  35.665  36.081  1.00  0.00    -0.206 F 
ATOM     97  C   UNL A   1      39.384  35.879  39.218  1.00  0.00     0.060 A 
BRANCH  97  98
ATOM     98  S   UNL A   1      39.193  36.998  40.622  1.00  0.00     0.124 S 
ATOM     99  O   UNL A   1      38.611  36.112  41.625  1.00  0.00    -0.237 OA
ATOM    100  O   UNL A   1      40.566  37.423  40.871  1.00  0.00    -0.237 OA
ATOM    101  O   UNL A   1      38.304  38.035  40.110  1.00  0.00    -0.744 OA
ENDBRANCH  97  98
ENDBRANCH  65  90
ENDBRANCH  39  40
ENDBRANCH  31  34
ENDBRANCH  29  30
ENDBRANCH   1  29
TORSDOF 17
ENDMDL
MODEL 2
REMARK VINA RESULT:     -12.8      6.676     11.999
REMARK SMILES CC(C)[N@@H+](C)Cc1cc2c(cc1Cl)C=C(C(=O)NCCCNC(=O)c1ccc(-c3c4nc(c(-c5c(F)cc(S(=O)(=O)[O-])cc5F)c5ccc([nH]5)c(-c5c(F)cc(S(=O)(=O)[O-])cc5F)c5nc(c(-c6c(F)cc(S(=O)(=O)[O-])cc6F)c6ccc3[nH]6)C=C5)C=C4)cc1)[C@@H](C(F)(F)F)O2
REMARK SMILES IDX 20 1 19 2 18 3 16 4 17 5 15 7 7 8 8 9 12 10 9 11 11 12 13 13
REMARK SMILES IDX 10 14 96 15 14 16 91 17 6 18 4 19 5 20 2 22 1 23 3 24 92 25
REMARK SMILES IDX 93 26 94 27 95 28 21 29 22 30 23 31 24 33 25 34 26 35 90 36
REMARK SMILES IDX 27 37 89 38 28 39 29 40 30 41 83 42 31 43 88 44 82 45 84 46
REMARK SMILES IDX 32 47 87 48 81 49 80 50 33 52 67 53 46 54 66 55 47 56 50 57
REMARK SMILES IDX 65 58 85 59 48 60 49 61 64 63 86 64 51 65 34 66 35 67 44 68
REMARK SMILES IDX 36 69 37 70 43 71 45 72 38 73 39 74 40 75 41 76 42 77 68 78
REMARK SMILES IDX 69 79 78 80 70 81 71 82 77 83 79 84 72 85 73 86 74 87 75 88
REMARK SMILES IDX 76 89 52 90 53 91 62 92 54 93 55 94 61 95 63 96 56 97 57 98
REMARK SMILES IDX 58 99 59 100 60 101
REMARK H PARENT 18 6 4 21 22 32 84 51 50 62
REMARK Flexibility Score: inf
ROOT
ATOM      1  C   UNL A   1      34.120  28.844  27.069  1.00  0.00     0.042 C 
ENDROOT
BRANCH   1   2
ATOM      2  C   UNL A   1      33.300  29.675  26.094  1.00  0.00     0.118 C 
BRANCH   2   3
ATOM      3  N   UNL A   1      33.634  29.381  24.708  1.00  0.00    -0.352 N 
ATOM      4  C   UNL A   1      33.655  28.295  23.903  1.00  0.00     0.251 C 
ATOM      5  O   UNL A   1      34.037  28.505  22.747  1.00  0.00    -0.270 OA
ATOM      6  H   UNL A   1      33.923  30.191  24.228  1.00  0.00     0.163 HD
BRANCH   4   7
ATOM      7  C   UNL A   1      33.242  26.920  24.303  1.00  0.00     0.067 C 
ATOM      8  C   UNL A   1      33.131  21.963  25.188  1.00  0.00     0.029 A 
ATOM      9  C   UNL A   1      32.226  23.021  25.380  1.00  0.00     0.058 A 
ATOM     10  C   UNL A   1      34.468  22.293  24.905  1.00  0.00     0.050 A 
ATOM     11  C   UNL A   1      32.602  24.337  25.137  1.00  0.00     0.128 A 
ATOM     12  C   UNL A   1      34.849  23.626  24.690  1.00  0.00     0.033 A 
ATOM     13  Cl  UNL A   1      35.725  21.107  24.843  1.00  0.00    -0.084 Cl
ATOM     14  C   UNL A   1      33.906  24.650  24.769  1.00  0.00     0.019 A 
ATOM     15  O   UNL A   1      31.633  25.289  25.277  1.00  0.00    -0.475 OA
ATOM     16  C   UNL A   1      34.245  26.036  24.475  1.00  0.00     0.025 C 
ATOM     17  C   UNL A   1      31.812  26.477  24.457  1.00  0.00     0.314 C 
BRANCH   8  18
ATOM     18  C   UNL A   1      32.603  20.547  25.287  1.00  0.00     0.300 C 
BRANCH  18  19
ATOM     19  N   UNL A   1      32.733  19.686  24.101  1.00  0.00    -0.332 N 
ATOM     20  C   UNL A   1      32.142  20.243  22.893  1.00  0.00     0.333 C 
ATOM     21  H   UNL A   1      33.749  19.723  24.015  1.00  0.00     0.348 HD
BRANCH  19  22
ATOM     22  C   UNL A   1      32.559  18.229  24.213  1.00  0.00     0.177 C 
ATOM     23  C   UNL A   1      33.435  17.445  23.230  1.00  0.00     0.075 C 
ATOM     24  C   UNL A   1      32.658  17.626  25.620  1.00  0.00     0.075 C 
ENDBRANCH  19  22
ENDBRANCH  18  19
ENDBRANCH   8  18
BRANCH  17  25
ATOM     25  C   UNL A   1      31.099  26.274  23.105  1.00  0.00     0.429 C 
ATOM     26  F   UNL A   1      30.092  25.374  23.229  1.00  0.00    -0.167 F 
ATOM     27  F   UNL A   1      30.540  27.413  22.632  1.00  0.00    -0.167 F 
ATOM     28  F   UNL A   1      31.928  25.820  22.138  1.00  0.00    -0.167 F 
ENDBRANCH  17  25
ENDBRANCH   4   7
ENDBRANCH   2   3
ENDBRANCH   1   2
BRANCH   1  29
ATOM     29  C   UNL A   1      35.359  29.580  27.565  1.00  0.00     0.118 C 
BRANCH  29  30
ATOM     30  N   UNL A   1      35.271  29.915  28.986  1.00  0.00    -0.352 N 
ATOM     31  C   UNL A   1      36.235  29.901  29.966  1.00  0.00     0.251 C 
ATOM     32  H   UNL A   1      34.378  30.196  29.289  1.00  0.00     0.163 HD
ATOM     33  O   UNL A   1      35.902  29.996  31.145  1.00  0.00    -0.269 OA
BRANCH  31  34
ATOM     34  C   UNL A   1      37.660  29.755  29.604  1.00  0.00     0.039 A 
ATOM     35  C   UNL A   1      38.084  30.032  28.306  1.00  0.00     0.014 A 
ATOM     36  C   UNL A   1      38.582  29.338  30.569  1.00  0.00     0.014 A 
ATOM     37  C   UNL A   1      39.375  29.698  27.921  1.00  0.00     0.010 A 
ATOM     38  C   UNL A   1      39.912  29.108  30.204  1.00  0.00     0.010 A 
ATOM     39  C   UNL A   1      40.307  29.234  28.863  1.00  0.00    -0.014 A 
BRANCH  39  40
ATOM     40  C   UNL A   1      41.677  28.887  28.401  1.00  0.00     0.031 A 
ATOM     41  C   UNL A   1      42.800  29.885  28.499  1.00  0.00     0.074 A 
ATOM     42  C   UNL A   1      41.922  27.630  27.982  1.00  0.00     0.049 A 
ATOM     43  N   UNL A   1      44.066  29.729  28.204  1.00  0.00    -0.248 NA
ATOM     44  C   UNL A   1      42.465  31.233  28.986  1.00  0.00     0.031 C 
ATOM     45  C   UNL A   1      40.912  26.574  27.854  1.00  0.00     0.029 A 
ATOM     46  N   UNL A   1      43.094  27.008  27.634  1.00  0.00    -0.354 N 
ATOM     47  C   UNL A   1      44.671  30.957  28.445  1.00  0.00     0.074 A 
ATOM     48  C   UNL A   1      43.630  31.859  28.888  1.00  0.00     0.031 C 
ATOM     49  C   UNL A   1      41.518  25.421  27.541  1.00  0.00     0.029 A 
ATOM     50  C   UNL A   1      42.946  25.666  27.373  1.00  0.00     0.049 A 
ATOM     51  H   UNL A   1      43.957  27.477  27.576  1.00  0.00     0.167 HD
ATOM     52  C   UNL A   1      45.977  31.296  28.323  1.00  0.00     0.037 A 
ATOM     53  C   UNL A   1      43.856  24.733  27.030  1.00  0.00     0.037 A 
ATOM     54  C   UNL A   1      47.012  30.383  27.915  1.00  0.00     0.049 A 
ATOM     55  C   UNL A   1      45.292  25.141  26.878  1.00  0.00     0.074 A 
ATOM     56  C   UNL A   1      48.367  30.626  27.774  1.00  0.00     0.029 A 
ATOM     57  N   UNL A   1      46.810  29.050  27.590  1.00  0.00    -0.354 N 
ATOM     58  N   UNL A   1      45.839  26.312  27.099  1.00  0.00    -0.248 NA
ATOM     59  C   UNL A   1      46.228  24.111  26.413  1.00  0.00     0.031 C 
ATOM     60  C   UNL A   1      48.978  29.449  27.330  1.00  0.00     0.029 A 
ATOM     61  C   UNL A   1      48.012  28.462  27.231  1.00  0.00     0.049 A 
ATOM     62  H   UNL A   1      45.940  28.589  27.610  1.00  0.00     0.167 HD
ATOM     63  C   UNL A   1      47.186  26.161  26.796  1.00  0.00     0.074 A 
ATOM     64  C   UNL A   1      47.375  24.779  26.401  1.00  0.00     0.031 C 
ATOM     65  C   UNL A   1      48.175  27.086  26.834  1.00  0.00     0.037 A 
BRANCH  52  66
ATOM     66  C   UNL A   1      46.362  32.717  28.624  1.00  0.00     0.058 A 
ATOM     67  C   UNL A   1      46.798  33.109  29.901  1.00  0.00     0.135 A 
ATOM     68  C   UNL A   1      46.339  33.692  27.613  1.00  0.00     0.135 A 
ATOM     69  F   UNL A   1      46.823  32.222  30.908  1.00  0.00    -0.206 F 
ATOM     70  C   UNL A   1      47.177  34.421  30.168  1.00  0.00     0.059 A 
ATOM     71  C   UNL A   1      46.735  35.005  27.853  1.00  0.00     0.059 A 
ATOM     72  F   UNL A   1      45.930  33.372  26.376  1.00  0.00    -0.206 F 
ATOM     73  C   UNL A   1      47.142  35.362  29.138  1.00  0.00     0.060 A 
BRANCH  73  74
ATOM     74  S   UNL A   1      47.638  37.059  29.504  1.00  0.00     0.124 S 
ATOM     75  O   UNL A   1      46.989  37.280  30.792  1.00  0.00    -0.237 OA
ATOM     76  O   UNL A   1      49.094  36.958  29.538  1.00  0.00    -0.237 OA
ATOM     77  O   UNL A   1      47.091  37.823  28.387  1.00  0.00    -0.744 OA
ENDBRANCH  73  74
ENDBRANCH  52  66
BRANCH  53  78
ATOM     78  C   UNL A   1      43.420  23.330  26.810  1.00  0.00     0.058 A 
ATOM     79  C   UNL A   1      43.320  22.801  25.516  1.00  0.00     0.135 A 
ATOM     80  C   UNL A   1      43.154  22.475  27.891  1.00  0.00     0.135 A 
ATOM     81  F   UNL A   1      43.559  23.582  24.452  1.00  0.00    -0.206 F 
ATOM     82  C   UNL A   1      42.977  21.471  25.300  1.00  0.00     0.059 A 
ATOM     83  C   UNL A   1      42.833  21.135  27.701  1.00  0.00     0.059 A 
ATOM     84  F   UNL A   1      43.251  22.931  29.150  1.00  0.00    -0.206 F 
ATOM     85  C   UNL A   1      42.743  20.643  26.401  1.00  0.00     0.060 A 
BRANCH  85  86
ATOM     86  S   UNL A   1      42.379  18.897  26.112  1.00  0.00     0.124 S 
ATOM     87  O   UNL A   1      43.371  18.554  25.100  1.00  0.00    -0.237 OA
ATOM     88  O   UNL A   1      42.590  18.318  27.436  1.00  0.00    -0.237 OA
ATOM     89  O   UNL A   1      40.992  18.915  25.660  1.00  0.00    -0.744 OA
ENDBRANCH  85  86
ENDBRANCH  53  78
BRANCH  65  90
ATOM     90  C   UNL A   1      49.551  26.639  26.434  1.00  0.00     0.058 A 
ATOM     91  C   UNL A   1      50.394  25.980  27.342  1.00  0.00     0.135 A 
ATOM     92  C   UNL A   1      50.003  26.805  25.115  1.00  0.00     0.135 A 
ATOM     93  F   UNL A   1      50.008  25.806  28.616  1.00  0.00    -0.206 F 
ATOM     94  C   UNL A   1      51.642  25.505  26.958  1.00  0.00     0.059 A 
ATOM     95  C   UNL A   1      51.241  26.320  24.704  1.00  0.00     0.059 A 
ATOM     96  F   UNL A   1      49.230  27.424  24.209  1.00  0.00    -0.206 F 
ATOM     97  C   UNL A   1      52.055  25.676  25.634  1.00  0.00     0.060 A 
BRANCH  97  98
ATOM     98  S   UNL A   1      53.656  25.006  25.137  1.00  0.00     0.124 S 
ATOM     99  O   UNL A   1      53.411  23.570  25.216  1.00  0.00    -0.237 OA
ATOM    100  O   UNL A   1      53.816  25.549  23.792  1.00  0.00    -0.237 OA
ATOM    101  O   UNL A   1      54.573  25.542  26.137  1.00  0.00    -0.744 OA
ENDBRANCH  97  98
ENDBRANCH  65  90
ENDBRANCH  39  40
ENDBRANCH  31  34
ENDBRANCH  29  30
ENDBRANCH   1  29
TORSDOF 17
ENDMDL
MODEL 3
REMARK VINA RESULT:     -12.6      6.576     11.956
REMARK SMILES CC(C)[N@@H+](C)Cc1cc2c(cc1Cl)C=C(C(=O)NCCCNC(=O)c1ccc(-c3c4nc(c(-c5c(F)cc(S(=O)(=O)[O-])cc5F)c5ccc([nH]5)c(-c5c(F)cc(S(=O)(=O)[O-])cc5F)c5nc(c(-c6c(F)cc(S(=O)(=O)[O-])cc6F)c6ccc3[nH]6)C=C5)C=C4)cc1)[C@@H](C(F)(F)F)O2
REMARK SMILES IDX 20 1 19 2 18 3 16 4 17 5 15 7 7 8 8 9 12 10 9 11 11 12 13 13
REMARK SMILES IDX 10 14 96 15 14 16 91 17 6 18 4 19 5 20 2 22 1 23 3 24 92 25
REMARK SMILES IDX 93 26 94 27 95 28 21 29 22 30 23 31 24 33 25 34 26 35 90 36
REMARK SMILES IDX 27 37 89 38 28 39 29 40 30 41 83 42 31 43 88 44 82 45 84 46
REMARK SMILES IDX 32 47 87 48 81 49 80 50 33 52 67 53 46 54 66 55 47 56 50 57
REMARK SMILES IDX 65 58 85 59 48 60 49 61 64 63 86 64 51 65 34 66 35 67 44 68
REMARK SMILES IDX 36 69 37 70 43 71 45 72 38 73 39 74 40 75 41 76 42 77 68 78
REMARK SMILES IDX 69 79 78 80 70 81 71 82 77 83 79 84 72 85 73 86 74 87 75 88
REMARK SMILES IDX 76 89 52 90 53 91 62 92 54 93 55 94 61 95 63 96 56 97 57 98
REMARK SMILES IDX 58 99 59 100 60 101
REMARK H PARENT 18 6 4 21 22 32 84 51 50 62
REMARK Flexibility Score: inf
ROOT
ATOM      1  C   UNL A   1      33.832  31.210  27.512  1.00  0.00     0.042 C 
ENDROOT
BRANCH   1   2
ATOM      2  C   UNL A   1      33.192  30.061  26.749  1.00  0.00     0.118 C 
BRANCH   2   3
ATOM      3  N   UNL A   1      32.033  30.492  25.981  1.00  0.00    -0.352 N 
ATOM      4  C   UNL A   1      31.235  29.978  25.017  1.00  0.00     0.251 C 
ATOM      5  O   UNL A   1      30.337  30.729  24.623  1.00  0.00    -0.270 OA
ATOM      6  H   UNL A   1      31.754  31.403  26.231  1.00  0.00     0.163 HD
BRANCH   4   7
ATOM      7  C   UNL A   1      31.357  28.609  24.440  1.00  0.00     0.067 C 
ATOM      8  C   UNL A   1      31.613  23.616  23.832  1.00  0.00     0.029 A 
ATOM      9  C   UNL A   1      31.680  24.721  22.966  1.00  0.00     0.058 A 
ATOM     10  C   UNL A   1      31.148  23.841  25.140  1.00  0.00     0.050 A 
ATOM     11  C   UNL A   1      31.452  26.011  23.433  1.00  0.00     0.128 A 
ATOM     12  C   UNL A   1      30.890  25.142  25.598  1.00  0.00     0.033 A 
ATOM     13  Cl  UNL A   1      30.825  22.552  26.246  1.00  0.00    -0.084 Cl
ATOM     14  C   UNL A   1      31.079  26.236  24.753  1.00  0.00     0.019 A 
ATOM     15  O   UNL A   1      31.615  27.027  22.536  1.00  0.00    -0.475 OA
ATOM     16  C   UNL A   1      30.899  27.606  25.214  1.00  0.00     0.025 C 
ATOM     17  C   UNL A   1      32.000  28.305  23.113  1.00  0.00     0.314 C 
BRANCH   8  18
ATOM     18  C   UNL A   1      32.056  22.269  23.303  1.00  0.00     0.300 C 
BRANCH  18  19
ATOM     19  N   UNL A   1      33.361  21.755  23.750  1.00  0.00    -0.332 N 
ATOM     20  C   UNL A   1      33.285  20.514  24.508  1.00  0.00     0.333 C 
ATOM     21  H   UNL A   1      33.751  21.553  22.829  1.00  0.00     0.348 HD
BRANCH  19  22
ATOM     22  C   UNL A   1      34.396  22.676  24.247  1.00  0.00     0.177 C 
ATOM     23  C   UNL A   1      34.554  22.628  25.771  1.00  0.00     0.075 C 
ATOM     24  C   UNL A   1      35.767  22.612  23.562  1.00  0.00     0.075 C 
ENDBRANCH  19  22
ENDBRANCH  18  19
ENDBRANCH   8  18
BRANCH  17  25
ATOM     25  C   UNL A   1      33.539  28.400  23.157  1.00  0.00     0.429 C 
ATOM     26  F   UNL A   1      33.941  29.685  22.993  1.00  0.00    -0.167 F 
ATOM     27  F   UNL A   1      34.055  27.985  24.339  1.00  0.00    -0.167 F 
ATOM     28  F   UNL A   1      34.137  27.664  22.194  1.00  0.00    -0.167 F 
ENDBRANCH  17  25
ENDBRANCH   4   7
ENDBRANCH   2   3
ENDBRANCH   1   2
BRANCH   1  29
ATOM     29  C   UNL A   1      35.233  30.872  28.008  1.00  0.00     0.118 C 
BRANCH  29  30
ATOM     30  N   UNL A   1      35.321  30.886  29.468  1.00  0.00    -0.352 N 
ATOM     31  C   UNL A   1      36.263  30.343  30.309  1.00  0.00     0.251 C 
ATOM     32  H   UNL A   1      34.589  31.362  29.921  1.00  0.00     0.163 HD
ATOM     33  O   UNL A   1      36.029  30.271  31.513  1.00  0.00    -0.269 OA
BRANCH  31  34
ATOM     34  C   UNL A   1      37.539  29.835  29.766  1.00  0.00     0.039 A 
ATOM     35  C   UNL A   1      38.441  29.174  30.597  1.00  0.00     0.014 A 
ATOM     36  C   UNL A   1      37.840  30.021  28.413  1.00  0.00     0.014 A 
ATOM     37  C   UNL A   1      39.716  28.885  30.133  1.00  0.00     0.010 A 
ATOM     38  C   UNL A   1      39.087  29.626  27.919  1.00  0.00     0.010 A 
ATOM     39  C   UNL A   1      40.057  29.104  28.789  1.00  0.00    -0.014 A 
BRANCH  39  40
ATOM     40  C   UNL A   1      41.437  28.780  28.340  1.00  0.00     0.031 A 
ATOM     41  C   UNL A   1      42.541  29.799  28.441  1.00  0.00     0.074 A 
ATOM     42  C   UNL A   1      41.709  27.525  27.930  1.00  0.00     0.049 A 
ATOM     43  N   UNL A   1      43.811  29.665  28.157  1.00  0.00    -0.248 NA
ATOM     44  C   UNL A   1      42.177  31.144  28.917  1.00  0.00     0.031 C 
ATOM     45  C   UNL A   1      40.720  26.450  27.801  1.00  0.00     0.029 A 
ATOM     46  N   UNL A   1      42.895  26.923  27.595  1.00  0.00    -0.354 N 
ATOM     47  C   UNL A   1      44.391  30.905  28.395  1.00  0.00     0.074 A 
ATOM     48  C   UNL A   1      43.330  31.791  28.824  1.00  0.00     0.031 C 
ATOM     49  C   UNL A   1      41.349  25.307  27.498  1.00  0.00     0.029 A 
ATOM     50  C   UNL A   1      42.774  25.578  27.340  1.00  0.00     0.049 A 
ATOM     51  H   UNL A   1      43.749  27.408  27.541  1.00  0.00     0.167 HD
ATOM     52  C   UNL A   1      45.692  31.268  28.281  1.00  0.00     0.037 A 
ATOM     53  C   UNL A   1      43.703  24.660  27.010  1.00  0.00     0.037 A 
ATOM     54  C   UNL A   1      46.747  30.373  27.886  1.00  0.00     0.049 A 
ATOM     55  C   UNL A   1      45.133  25.093  26.867  1.00  0.00     0.074 A 
ATOM     56  C   UNL A   1      48.098  30.640  27.754  1.00  0.00     0.029 A 
ATOM     57  N   UNL A   1      46.572  29.034  27.567  1.00  0.00    -0.354 N 
ATOM     58  N   UNL A   1      45.657  26.276  27.085  1.00  0.00    -0.248 NA
ATOM     59  C   UNL A   1      46.092  24.079  26.415  1.00  0.00     0.031 C 
ATOM     60  C   UNL A   1      48.735  29.472  27.322  1.00  0.00     0.029 A 
ATOM     61  C   UNL A   1      47.788  28.467  27.221  1.00  0.00     0.049 A 
ATOM     62  H   UNL A   1      45.711  28.557  27.584  1.00  0.00     0.167 HD
ATOM     63  C   UNL A   1      47.009  26.148  26.793  1.00  0.00     0.074 A 
ATOM     64  C   UNL A   1      47.226  24.768  26.408  1.00  0.00     0.031 C 
ATOM     65  C   UNL A   1      47.980  27.092  26.833  1.00  0.00     0.037 A 
BRANCH  52  66
ATOM     66  C   UNL A   1      46.048  32.698  28.577  1.00  0.00     0.058 A 
ATOM     67  C   UNL A   1      46.433  33.112  29.862  1.00  0.00     0.135 A 
ATOM     68  C   UNL A   1      46.048  33.660  27.553  1.00  0.00     0.135 A 
ATOM     69  F   UNL A   1      46.434  32.238  30.881  1.00  0.00    -0.206 F 
ATOM     70  C   UNL A   1      46.786  34.432  30.126  1.00  0.00     0.059 A 
ATOM     71  C   UNL A   1      46.419  34.981  27.790  1.00  0.00     0.059 A 
ATOM     72  F   UNL A   1      45.687  33.319  26.306  1.00  0.00    -0.206 F 
ATOM     73  C   UNL A   1      46.775  35.359  29.083  1.00  0.00     0.060 A 
BRANCH  73  74
ATOM     74  S   UNL A   1      47.237  37.068  29.444  1.00  0.00     0.124 S 
ATOM     75  O   UNL A   1      48.371  36.878  30.342  1.00  0.00    -0.237 OA
ATOM     76  O   UNL A   1      47.558  37.590  28.120  1.00  0.00    -0.237 OA
ATOM     77  O   UNL A   1      46.035  37.622  30.060  1.00  0.00    -0.744 OA
ENDBRANCH  73  74
ENDBRANCH  52  66
BRANCH  53  78
ATOM     78  C   UNL A   1      43.296  23.248  26.795  1.00  0.00     0.058 A 
ATOM     79  C   UNL A   1      43.293  22.686  25.510  1.00  0.00     0.135 A 
ATOM     80  C   UNL A   1      42.961  22.416  27.875  1.00  0.00     0.135 A 
ATOM     81  F   UNL A   1      43.601  23.443  24.446  1.00  0.00    -0.206 F 
ATOM     82  C   UNL A   1      42.976  21.348  25.303  1.00  0.00     0.059 A 
ATOM     83  C   UNL A   1      42.664  21.069  27.696  1.00  0.00     0.059 A 
ATOM     84  F   UNL A   1      42.964  22.904  29.125  1.00  0.00    -0.206 F 
ATOM     85  C   UNL A   1      42.671  20.545  26.405  1.00  0.00     0.060 A 
BRANCH  85  86
ATOM     86  S   UNL A   1      42.343  18.789  26.136  1.00  0.00     0.124 S 
ATOM     87  O   UNL A   1      40.936  18.809  25.754  1.00  0.00    -0.237 OA
ATOM     88  O   UNL A   1      43.289  18.460  25.073  1.00  0.00    -0.237 OA
ATOM     89  O   UNL A   1      42.639  18.190  27.433  1.00  0.00    -0.744 OA
ENDBRANCH  85  86
ENDBRANCH  53  78
BRANCH  65  90
ATOM     90  C   UNL A   1      49.367  26.669  26.447  1.00  0.00     0.058 A 
ATOM     91  C   UNL A   1      50.241  26.100  27.385  1.00  0.00     0.135 A 
ATOM     92  C   UNL A   1      49.800  26.765  25.115  1.00  0.00     0.135 A 
ATOM     93  F   UNL A   1      49.875  25.995  28.672  1.00  0.00    -0.206 F 
ATOM     94  C   UNL A   1      51.502  25.645  27.017  1.00  0.00     0.059 A 
ATOM     95  C   UNL A   1      51.050  26.298  24.721  1.00  0.00     0.059 A 
ATOM     96  F   UNL A   1      48.997  27.296  24.180  1.00  0.00    -0.206 F 
ATOM     97  C   UNL A   1      51.896  25.744  25.681  1.00  0.00     0.060 A 
BRANCH  97  98
ATOM     98  S   UNL A   1      53.515  25.099  25.209  1.00  0.00     0.124 S 
ATOM     99  O   UNL A   1      53.317  23.663  25.367  1.00  0.00    -0.237 OA
ATOM    100  O   UNL A   1      53.650  25.574  23.835  1.00  0.00    -0.237 OA
ATOM    101  O   UNL A   1      54.420  25.719  26.172  1.00  0.00    -0.744 OA
ENDBRANCH  97  98
ENDBRANCH  65  90
ENDBRANCH  39  40
ENDBRANCH  31  34
ENDBRANCH  29  30
ENDBRANCH   1  29
TORSDOF 17
ENDMDL
