MODEL 1
REMARK VINA RESULT:     -14.2      0.000      0.000
REMARK SMILES Cc1ccc(/C=C(\NC(=O)c2cccc(C)c2)C(=O)NCCCNC(=O)c2ccc(-c3c4nc(c(-c5c(F)cc(S(=O)(=O)[O-])cc5F)c5ccc([nH]5)c(-c5c(F)cc(S(=O)(=O)[O-])cc5F)c5nc(c(-c6c(F)cc(S(=O)(=O)[O-])cc6F)c6ccc3[nH]6)C=C5)C=C4)cc2)cc1
REMARK SMILES IDX 22 1 21 2 20 3 18 4 19 5 7 7 6 8 5 9 1 10 2 11 3 12 94 13
REMARK SMILES IDX 4 14 93 15 8 16 9 17 10 19 11 20 12 21 17 22 13 23 15 24
REMARK SMILES IDX 14 25 16 26 23 27 24 28 25 29 26 31 27 32 28 33 92 34 29 35
REMARK SMILES IDX 91 36 30 37 31 38 32 39 85 40 33 41 90 42 84 43 86 44 34 45
REMARK SMILES IDX 89 46 83 47 82 48 35 50 69 51 48 52 68 53 49 54 52 55 67 56
REMARK SMILES IDX 87 57 50 58 51 59 66 61 88 62 53 63 36 64 37 65 46 66 38 67
REMARK SMILES IDX 39 68 45 69 47 70 40 71 41 72 42 73 43 74 44 75 70 76 71 77
REMARK SMILES IDX 80 78 72 79 73 80 79 81 81 82 74 83 75 84 76 85 77 86 78 87
REMARK SMILES IDX 54 88 55 89 64 90 56 91 57 92 63 93 65 94 58 95 59 96 60 97
REMARK SMILES IDX 61 98 62 99
REMARK H PARENT 20 6 8 18 24 30 86 49 52 60
REMARK Flexibility Score: inf
ROOT
ATOM      1  C   UNL A   1      33.016  29.947  27.280  1.00  0.00     0.042 C 
ENDROOT
BRANCH   1   2
ATOM      2  C   UNL A   1      32.362  28.590  27.091  1.00  0.00     0.118 C 
BRANCH   2   3
ATOM      3  N   UNL A   1      32.057  28.257  25.710  1.00  0.00    -0.351 N 
ATOM      4  C   UNL A   1      32.098  27.130  24.960  1.00  0.00     0.267 C 
ATOM      5  O   UNL A   1      31.608  27.218  23.828  1.00  0.00    -0.268 OA
ATOM      6  H   UNL A   1      31.748  29.038  25.197  1.00  0.00     0.163 HD
BRANCH   4   7
ATOM      7  C   UNL A   1      32.755  25.834  25.396  1.00  0.00     0.107 C 
ATOM      8  C   UNL A   1      33.904  25.538  24.738  1.00  0.00     0.040 C 
BRANCH   8   9
ATOM      9  C   UNL A   1      34.835  24.379  24.820  1.00  0.00    -0.023 A 
ATOM     10  C   UNL A   1      37.579  21.012  24.773  1.00  0.00     0.044 C 
ATOM     11  C   UNL A   1      36.604  22.149  24.779  1.00  0.00    -0.051 A 
ATOM     12  C   UNL A   1      36.377  22.861  25.956  1.00  0.00     0.004 A 
ATOM     13  C   UNL A   1      35.926  22.537  23.624  1.00  0.00     0.004 A 
ATOM     14  C   UNL A   1      35.485  23.940  25.979  1.00  0.00     0.008 A 
ATOM     15  C   UNL A   1      35.057  23.638  23.646  1.00  0.00     0.008 A 
ENDBRANCH   8   9
BRANCH   7  16
ATOM     16  N   UNL A   1      32.315  25.032  26.414  1.00  0.00    -0.317 N 
ATOM     17  C   UNL A   1      32.093  23.676  26.512  1.00  0.00     0.255 C 
ATOM     18  H   UNL A   1      32.120  25.523  27.244  1.00  0.00     0.170 HD
ATOM     19  O   UNL A   1      31.972  23.211  27.649  1.00  0.00    -0.269 OA
BRANCH  17  20
ATOM     20  C   UNL A   1      31.936  22.771  25.344  1.00  0.00     0.040 A 
ATOM     21  C   UNL A   1      31.334  23.349  24.213  1.00  0.00     0.014 A 
ATOM     22  C   UNL A   1      32.491  21.493  25.256  1.00  0.00     0.017 A 
ATOM     23  C   UNL A   1      31.384  22.701  22.982  1.00  0.00     0.001 A 
ATOM     24  C   UNL A   1      32.558  20.844  24.014  1.00  0.00    -0.050 A 
ATOM     25  C   UNL A   1      32.009  21.461  22.882  1.00  0.00     0.003 A 
ATOM     26  C   UNL A   1      33.295  19.546  23.857  1.00  0.00     0.044 C 
ENDBRANCH  17  20
ENDBRANCH   7  16
ENDBRANCH   4   7
ENDBRANCH   2   3
ENDBRANCH   1   2
BRANCH   1  27
ATOM     27  C   UNL A   1      34.530  29.815  27.240  1.00  0.00     0.118 C 
BRANCH  27  28
ATOM     28  N   UNL A   1      35.308  30.996  27.588  1.00  0.00    -0.352 N 
ATOM     29  C   UNL A   1      36.558  31.027  28.215  1.00  0.00     0.251 C 
ATOM     30  H   UNL A   1      34.911  31.867  27.355  1.00  0.00     0.163 HD
ATOM     31  O   UNL A   1      37.015  32.044  28.681  1.00  0.00    -0.269 OA
BRANCH  29  32
ATOM     32  C   UNL A   1      37.326  29.755  28.237  1.00  0.00     0.039 A 
ATOM     33  C   UNL A   1      37.330  29.013  29.422  1.00  0.00     0.014 A 
ATOM     34  C   UNL A   1      38.277  29.529  27.249  1.00  0.00     0.014 A 
ATOM     35  C   UNL A   1      38.438  28.224  29.728  1.00  0.00     0.010 A 
ATOM     36  C   UNL A   1      39.426  28.856  27.609  1.00  0.00     0.010 A 
ATOM     37  C   UNL A   1      39.532  28.244  28.870  1.00  0.00    -0.014 A 
BRANCH  37  38
ATOM     38  C   UNL A   1      40.857  27.710  29.187  1.00  0.00     0.031 A 
ATOM     39  C   UNL A   1      41.177  26.317  28.791  1.00  0.00     0.074 A 
ATOM     40  C   UNL A   1      41.826  28.523  29.662  1.00  0.00     0.049 A 
ATOM     41  N   UNL A   1      42.267  25.690  29.067  1.00  0.00    -0.248 NA
ATOM     42  C   UNL A   1      40.215  25.488  28.073  1.00  0.00     0.031 C 
ATOM     43  C   UNL A   1      43.270  28.307  29.595  1.00  0.00     0.029 A 
ATOM     44  N   UNL A   1      41.682  29.630  30.505  1.00  0.00    -0.354 N 
ATOM     45  C   UNL A   1      42.272  24.502  28.362  1.00  0.00     0.074 A 
ATOM     46  C   UNL A   1      40.946  24.406  27.808  1.00  0.00     0.031 C 
ATOM     47  C   UNL A   1      43.872  29.066  30.523  1.00  0.00     0.029 A 
ATOM     48  C   UNL A   1      42.823  29.655  31.335  1.00  0.00     0.049 A 
ATOM     49  H   UNL A   1      40.932  30.266  30.517  1.00  0.00     0.167 HD
ATOM     50  C   UNL A   1      43.442  23.809  28.250  1.00  0.00     0.037 A 
ATOM     51  C   UNL A   1      42.717  29.481  32.687  1.00  0.00     0.037 A 
ATOM     52  C   UNL A   1      44.427  24.328  29.204  1.00  0.00     0.049 A 
ATOM     53  C   UNL A   1      43.440  28.259  33.215  1.00  0.00     0.074 A 
ATOM     54  C   UNL A   1      45.497  25.201  29.095  1.00  0.00     0.029 A 
ATOM     55  N   UNL A   1      44.176  24.188  30.568  1.00  0.00    -0.354 N 
ATOM     56  N   UNL A   1      43.860  27.274  32.470  1.00  0.00    -0.248 NA
ATOM     57  C   UNL A   1      43.733  28.047  34.630  1.00  0.00     0.031 C 
ATOM     58  C   UNL A   1      45.821  25.663  30.399  1.00  0.00     0.029 A 
ATOM     59  C   UNL A   1      44.973  25.045  31.303  1.00  0.00     0.049 A 
ATOM     60  H   UNL A   1      43.521  23.565  30.955  1.00  0.00     0.167 HD
ATOM     61  C   UNL A   1      44.407  26.297  33.261  1.00  0.00     0.074 A 
ATOM     62  C   UNL A   1      44.340  26.848  34.603  1.00  0.00     0.031 C 
ATOM     63  C   UNL A   1      44.850  25.108  32.754  1.00  0.00     0.037 A 
BRANCH  50  64
ATOM     64  C   UNL A   1      43.777  22.852  27.110  1.00  0.00     0.058 A 
ATOM     65  C   UNL A   1      43.022  21.670  26.924  1.00  0.00     0.135 A 
ATOM     66  C   UNL A   1      44.875  22.967  26.233  1.00  0.00     0.135 A 
ATOM     67  F   UNL A   1      41.900  21.440  27.620  1.00  0.00    -0.206 F 
ATOM     68  C   UNL A   1      43.384  20.658  26.025  1.00  0.00     0.059 A 
ATOM     69  C   UNL A   1      45.284  21.954  25.360  1.00  0.00     0.059 A 
ATOM     70  F   UNL A   1      45.591  24.088  26.129  1.00  0.00    -0.206 F 
ATOM     71  C   UNL A   1      44.540  20.793  25.270  1.00  0.00     0.060 A 
BRANCH  71  72
ATOM     72  S   UNL A   1      45.049  19.461  24.169  1.00  0.00     0.124 S 
ATOM     73  O   UNL A   1      44.463  19.872  22.897  1.00  0.00    -0.237 OA
ATOM     74  O   UNL A   1      46.503  19.533  24.256  1.00  0.00    -0.237 OA
ATOM     75  O   UNL A   1      44.447  18.273  24.769  1.00  0.00    -0.744 OA
ENDBRANCH  71  72
ENDBRANCH  50  64
BRANCH  51  76
ATOM     76  C   UNL A   1      41.464  30.055  33.249  1.00  0.00     0.058 A 
ATOM     77  C   UNL A   1      41.414  31.452  33.422  1.00  0.00     0.135 A 
ATOM     78  C   UNL A   1      40.246  29.365  33.163  1.00  0.00     0.135 A 
ATOM     79  F   UNL A   1      42.552  32.158  33.530  1.00  0.00    -0.206 F 
ATOM     80  C   UNL A   1      40.221  32.155  33.322  1.00  0.00     0.059 A 
ATOM     81  C   UNL A   1      39.033  30.052  33.074  1.00  0.00     0.059 A 
ATOM     82  F   UNL A   1      40.232  28.034  33.005  1.00  0.00    -0.206 F 
ATOM     83  C   UNL A   1      39.047  31.449  33.070  1.00  0.00     0.060 A 
BRANCH  83  84
ATOM     84  S   UNL A   1      37.610  32.397  32.518  1.00  0.00     0.124 S 
ATOM     85  O   UNL A   1      38.210  33.347  31.587  1.00  0.00    -0.237 OA
ATOM     86  O   UNL A   1      36.796  31.350  31.908  1.00  0.00    -0.237 OA
ATOM     87  O   UNL A   1      37.086  32.963  33.755  1.00  0.00    -0.744 OA
ENDBRANCH  83  84
ENDBRANCH  51  76
BRANCH  63  88
ATOM     88  C   UNL A   1      45.263  23.906  33.572  1.00  0.00     0.058 A 
ATOM     89  C   UNL A   1      46.490  23.799  34.249  1.00  0.00     0.135 A 
ATOM     90  C   UNL A   1      44.338  22.862  33.819  1.00  0.00     0.135 A 
ATOM     91  F   UNL A   1      47.408  24.775  34.187  1.00  0.00    -0.206 F 
ATOM     92  C   UNL A   1      46.806  22.707  35.061  1.00  0.00     0.059 A 
ATOM     93  C   UNL A   1      44.610  21.793  34.669  1.00  0.00     0.059 A 
ATOM     94  F   UNL A   1      43.124  22.857  33.248  1.00  0.00    -0.206 F 
ATOM     95  C   UNL A   1      45.859  21.709  35.267  1.00  0.00     0.060 A 
BRANCH  95  96
ATOM     96  S   UNL A   1      46.225  20.330  36.370  1.00  0.00     0.124 S 
ATOM     97  O   UNL A   1      45.806  20.870  37.659  1.00  0.00    -0.237 OA
ATOM     98  O   UNL A   1      45.393  19.256  35.837  1.00  0.00    -0.237 OA
ATOM     99  O   UNL A   1      47.662  20.142  36.196  1.00  0.00    -0.744 OA
ENDBRANCH  95  96
ENDBRANCH  63  88
ENDBRANCH  37  38
ENDBRANCH  29  32
ENDBRANCH  27  28
ENDBRANCH   1  27
TORSDOF 16
ENDMDL
MODEL 2
REMARK VINA RESULT:     -14.1      1.476      2.428
REMARK SMILES Cc1ccc(/C=C(\NC(=O)c2cccc(C)c2)C(=O)NCCCNC(=O)c2ccc(-c3c4nc(c(-c5c(F)cc(S(=O)(=O)[O-])cc5F)c5ccc([nH]5)c(-c5c(F)cc(S(=O)(=O)[O-])cc5F)c5nc(c(-c6c(F)cc(S(=O)(=O)[O-])cc6F)c6ccc3[nH]6)C=C5)C=C4)cc2)cc1
REMARK SMILES IDX 22 1 21 2 20 3 18 4 19 5 7 7 6 8 5 9 1 10 2 11 3 12 94 13
REMARK SMILES IDX 4 14 93 15 8 16 9 17 10 19 11 20 12 21 17 22 13 23 15 24
REMARK SMILES IDX 14 25 16 26 23 27 24 28 25 29 26 31 27 32 28 33 92 34 29 35
REMARK SMILES IDX 91 36 30 37 31 38 32 39 85 40 33 41 90 42 84 43 86 44 34 45
REMARK SMILES IDX 89 46 83 47 82 48 35 50 69 51 48 52 68 53 49 54 52 55 67 56
REMARK SMILES IDX 87 57 50 58 51 59 66 61 88 62 53 63 36 64 37 65 46 66 38 67
REMARK SMILES IDX 39 68 45 69 47 70 40 71 41 72 42 73 43 74 44 75 70 76 71 77
REMARK SMILES IDX 80 78 72 79 73 80 79 81 81 82 74 83 75 84 76 85 77 86 78 87
REMARK SMILES IDX 54 88 55 89 64 90 56 91 57 92 63 93 65 94 58 95 59 96 60 97
REMARK SMILES IDX 61 98 62 99
REMARK H PARENT 20 6 8 18 24 30 86 49 52 60
REMARK Flexibility Score: inf
ROOT
ATOM      1  C   UNL A   1      33.107  30.214  27.171  1.00  0.00     0.042 C 
ENDROOT
BRANCH   1   2
ATOM      2  C   UNL A   1      32.569  29.502  25.943  1.00  0.00     0.118 C 
BRANCH   2   3
ATOM      3  N   UNL A   1      33.427  29.591  24.774  1.00  0.00    -0.351 N 
ATOM      4  C   UNL A   1      33.877  28.718  23.841  1.00  0.00     0.267 C 
ATOM      5  O   UNL A   1      34.490  29.215  22.889  1.00  0.00    -0.268 OA
ATOM      6  H   UNL A   1      33.762  30.505  24.624  1.00  0.00     0.163 HD
BRANCH   4   7
ATOM      7  C   UNL A   1      33.736  27.211  23.940  1.00  0.00     0.107 C 
ATOM      8  C   UNL A   1      33.793  26.724  25.205  1.00  0.00     0.040 C 
BRANCH   8   9
ATOM      9  C   UNL A   1      33.735  25.339  25.748  1.00  0.00    -0.023 A 
ATOM     10  C   UNL A   1      33.850  21.307  27.362  1.00  0.00     0.044 C 
ATOM     11  C   UNL A   1      33.821  22.683  26.771  1.00  0.00    -0.051 A 
ATOM     12  C   UNL A   1      32.633  23.412  26.772  1.00  0.00     0.004 A 
ATOM     13  C   UNL A   1      34.965  23.274  26.234  1.00  0.00     0.004 A 
ATOM     14  C   UNL A   1      32.587  24.708  26.242  1.00  0.00     0.008 A 
ATOM     15  C   UNL A   1      34.920  24.583  25.734  1.00  0.00     0.008 A 
ENDBRANCH   8   9
BRANCH   7  16
ATOM     16  N   UNL A   1      33.492  26.372  22.887  1.00  0.00    -0.317 N 
ATOM     17  C   UNL A   1      32.378  26.140  22.109  1.00  0.00     0.255 C 
ATOM     18  H   UNL A   1      34.270  25.825  22.632  1.00  0.00     0.170 HD
ATOM     19  O   UNL A   1      32.555  25.532  21.050  1.00  0.00    -0.269 OA
BRANCH  17  20
ATOM     20  C   UNL A   1      30.997  26.524  22.498  1.00  0.00     0.040 A 
ATOM     21  C   UNL A   1      30.317  25.590  23.298  1.00  0.00     0.014 A 
ATOM     22  C   UNL A   1      30.434  27.782  22.270  1.00  0.00     0.017 A 
ATOM     23  C   UNL A   1      29.141  25.948  23.950  1.00  0.00     0.001 A 
ATOM     24  C   UNL A   1      29.258  28.152  22.939  1.00  0.00    -0.050 A 
ATOM     25  C   UNL A   1      28.624  27.231  23.783  1.00  0.00     0.003 A 
ATOM     26  C   UNL A   1      28.721  29.551  22.845  1.00  0.00     0.044 C 
ENDBRANCH  17  20
ENDBRANCH   7  16
ENDBRANCH   4   7
ENDBRANCH   2   3
ENDBRANCH   1   2
BRANCH   1  27
ATOM     27  C   UNL A   1      34.603  29.981  27.306  1.00  0.00     0.118 C 
BRANCH  27  28
ATOM     28  N   UNL A   1      35.425  31.134  27.647  1.00  0.00    -0.352 N 
ATOM     29  C   UNL A   1      36.682  31.120  28.262  1.00  0.00     0.251 C 
ATOM     30  H   UNL A   1      35.057  32.019  27.420  1.00  0.00     0.163 HD
ATOM     31  O   UNL A   1      37.180  32.119  28.725  1.00  0.00    -0.269 OA
BRANCH  29  32
ATOM     32  C   UNL A   1      37.405  29.821  28.274  1.00  0.00     0.039 A 
ATOM     33  C   UNL A   1      37.405  29.083  29.462  1.00  0.00     0.014 A 
ATOM     34  C   UNL A   1      38.330  29.559  27.270  1.00  0.00     0.014 A 
ATOM     35  C   UNL A   1      38.489  28.256  29.750  1.00  0.00     0.010 A 
ATOM     36  C   UNL A   1      39.461  28.848  27.612  1.00  0.00     0.010 A 
ATOM     37  C   UNL A   1      39.568  28.236  28.873  1.00  0.00    -0.014 A 
BRANCH  37  38
ATOM     38  C   UNL A   1      40.878  27.656  29.168  1.00  0.00     0.031 A 
ATOM     39  C   UNL A   1      41.133  26.243  28.795  1.00  0.00     0.074 A 
ATOM     40  C   UNL A   1      41.891  28.440  29.600  1.00  0.00     0.049 A 
ATOM     41  N   UNL A   1      42.205  25.579  29.056  1.00  0.00    -0.248 NA
ATOM     42  C   UNL A   1      40.121  25.438  28.120  1.00  0.00     0.031 C 
ATOM     43  C   UNL A   1      43.323  28.165  29.502  1.00  0.00     0.029 A 
ATOM     44  N   UNL A   1      41.813  29.569  30.422  1.00  0.00    -0.354 N 
ATOM     45  C   UNL A   1      42.144  24.378  28.378  1.00  0.00     0.074 A 
ATOM     46  C   UNL A   1      40.802  24.323  27.860  1.00  0.00     0.031 C 
ATOM     47  C   UNL A   1      43.978  28.918  30.397  1.00  0.00     0.029 A 
ATOM     48  C   UNL A   1      42.975  29.566  31.222  1.00  0.00     0.049 A 
ATOM     49  H   UNL A   1      41.089  30.235  30.439  1.00  0.00     0.167 HD
ATOM     50  C   UNL A   1      43.283  23.636  28.252  1.00  0.00     0.037 A 
ATOM     51  C   UNL A   1      42.898  29.424  32.580  1.00  0.00     0.037 A 
ATOM     52  C   UNL A   1      44.312  24.135  29.169  1.00  0.00     0.049 A 
ATOM     53  C   UNL A   1      43.586  28.186  33.116  1.00  0.00     0.074 A 
ATOM     54  C   UNL A   1      45.412  24.963  29.013  1.00  0.00     0.029 A 
ATOM     55  N   UNL A   1      44.092  24.034  30.542  1.00  0.00    -0.354 N 
ATOM     56  N   UNL A   1      43.947  27.169  32.382  1.00  0.00    -0.248 NA
ATOM     57  C   UNL A   1      43.907  27.993  34.528  1.00  0.00     0.031 C 
ATOM     58  C   UNL A   1      45.788  25.439  30.298  1.00  0.00     0.029 A 
ATOM     59  C   UNL A   1      44.941  24.875  31.237  1.00  0.00     0.049 A 
ATOM     60  H   UNL A   1      43.423  23.446  30.959  1.00  0.00     0.167 HD
ATOM     61  C   UNL A   1      44.476  26.189  33.181  1.00  0.00     0.074 A 
ATOM     62  C   UNL A   1      44.466  26.769  34.511  1.00  0.00     0.031 C 
ATOM     63  C   UNL A   1      44.858  24.972  32.690  1.00  0.00     0.037 A 
BRANCH  50  64
ATOM     64  C   UNL A   1      43.550  22.643  27.126  1.00  0.00     0.058 A 
ATOM     65  C   UNL A   1      42.803  21.445  27.036  1.00  0.00     0.135 A 
ATOM     66  C   UNL A   1      44.581  22.740  26.168  1.00  0.00     0.135 A 
ATOM     67  F   UNL A   1      41.738  21.225  27.820  1.00  0.00    -0.206 F 
ATOM     68  C   UNL A   1      43.116  20.405  26.150  1.00  0.00     0.059 A 
ATOM     69  C   UNL A   1      44.942  21.702  25.304  1.00  0.00     0.059 A 
ATOM     70  F   UNL A   1      45.268  23.866  25.972  1.00  0.00    -0.206 F 
ATOM     71  C   UNL A   1      44.211  20.529  25.308  1.00  0.00     0.060 A 
BRANCH  71  72
ATOM     72  S   UNL A   1      44.661  19.164  24.221  1.00  0.00     0.124 S 
ATOM     73  O   UNL A   1      44.423  19.733  22.899  1.00  0.00    -0.237 OA
ATOM     74  O   UNL A   1      46.058  18.938  24.578  1.00  0.00    -0.237 OA
ATOM     75  O   UNL A   1      43.738  18.100  24.610  1.00  0.00    -0.744 OA
ENDBRANCH  71  72
ENDBRANCH  50  64
BRANCH  51  76
ATOM     76  C   UNL A   1      41.683  30.060  33.160  1.00  0.00     0.058 A 
ATOM     77  C   UNL A   1      41.700  31.459  33.321  1.00  0.00     0.135 A 
ATOM     78  C   UNL A   1      40.434  29.425  33.105  1.00  0.00     0.135 A 
ATOM     79  F   UNL A   1      42.871  32.113  33.400  1.00  0.00    -0.206 F 
ATOM     80  C   UNL A   1      40.538  32.214  33.237  1.00  0.00     0.059 A 
ATOM     81  C   UNL A   1      39.252  30.166  33.033  1.00  0.00     0.059 A 
ATOM     82  F   UNL A   1      40.357  28.094  32.960  1.00  0.00    -0.206 F 
ATOM     83  C   UNL A   1      39.329  31.560  33.015  1.00  0.00     0.060 A 
BRANCH  83  84
ATOM     84  S   UNL A   1      37.925  32.568  32.482  1.00  0.00     0.124 S 
ATOM     85  O   UNL A   1      36.999  31.559  31.979  1.00  0.00    -0.237 OA
ATOM     86  O   UNL A   1      37.538  33.202  33.739  1.00  0.00    -0.237 OA
ATOM     87  O   UNL A   1      38.508  33.454  31.482  1.00  0.00    -0.744 OA
ENDBRANCH  83  84
ENDBRANCH  51  76
BRANCH  63  88
ATOM     88  C   UNL A   1      45.245  23.772  33.523  1.00  0.00     0.058 A 
ATOM     89  C   UNL A   1      46.540  23.542  34.017  1.00  0.00     0.135 A 
ATOM     90  C   UNL A   1      44.251  22.873  33.979  1.00  0.00     0.135 A 
ATOM     91  F   UNL A   1      47.549  24.385  33.749  1.00  0.00    -0.206 F 
ATOM     92  C   UNL A   1      46.845  22.463  34.851  1.00  0.00     0.059 A 
ATOM     93  C   UNL A   1      44.520  21.825  34.856  1.00  0.00     0.059 A 
ATOM     94  F   UNL A   1      42.971  22.996  33.595  1.00  0.00    -0.206 F 
ATOM     95  C   UNL A   1      45.828  21.611  35.267  1.00  0.00     0.060 A 
BRANCH  95  96
ATOM     96  S   UNL A   1      46.191  20.257  36.401  1.00  0.00     0.124 S 
ATOM     97  O   UNL A   1      45.695  20.795  37.664  1.00  0.00    -0.237 OA
ATOM     98  O   UNL A   1      45.421  19.148  35.845  1.00  0.00    -0.237 OA
ATOM     99  O   UNL A   1      47.639  20.118  36.294  1.00  0.00    -0.744 OA
ENDBRANCH  95  96
ENDBRANCH  63  88
ENDBRANCH  37  38
ENDBRANCH  29  32
ENDBRANCH  27  28
ENDBRANCH   1  27
TORSDOF 16
ENDMDL
MODEL 3
REMARK VINA RESULT:     -14.0      4.615     11.270
REMARK SMILES Cc1ccc(/C=C(\NC(=O)c2cccc(C)c2)C(=O)NCCCNC(=O)c2ccc(-c3c4nc(c(-c5c(F)cc(S(=O)(=O)[O-])cc5F)c5ccc([nH]5)c(-c5c(F)cc(S(=O)(=O)[O-])cc5F)c5nc(c(-c6c(F)cc(S(=O)(=O)[O-])cc6F)c6ccc3[nH]6)C=C5)C=C4)cc2)cc1
REMARK SMILES IDX 22 1 21 2 20 3 18 4 19 5 7 7 6 8 5 9 1 10 2 11 3 12 94 13
REMARK SMILES IDX 4 14 93 15 8 16 9 17 10 19 11 20 12 21 17 22 13 23 15 24
REMARK SMILES IDX 14 25 16 26 23 27 24 28 25 29 26 31 27 32 28 33 92 34 29 35
REMARK SMILES IDX 91 36 30 37 31 38 32 39 85 40 33 41 90 42 84 43 86 44 34 45
REMARK SMILES IDX 89 46 83 47 82 48 35 50 69 51 48 52 68 53 49 54 52 55 67 56
REMARK SMILES IDX 87 57 50 58 51 59 66 61 88 62 53 63 36 64 37 65 46 66 38 67
REMARK SMILES IDX 39 68 45 69 47 70 40 71 41 72 42 73 43 74 44 75 70 76 71 77
REMARK SMILES IDX 80 78 72 79 73 80 79 81 81 82 74 83 75 84 76 85 77 86 78 87
REMARK SMILES IDX 54 88 55 89 64 90 56 91 57 92 63 93 65 94 58 95 59 96 60 97
REMARK SMILES IDX 61 98 62 99
REMARK H PARENT 20 6 8 18 24 30 86 49 52 60
REMARK Flexibility Score: inf
ROOT
ATOM      1  C   UNL A   1      37.637  22.228  25.287  1.00  0.00     0.042 C 
ENDROOT
BRANCH   1   2
ATOM      2  C   UNL A   1      36.616  22.749  24.292  1.00  0.00     0.118 C 
BRANCH   2   3
ATOM      3  N   UNL A   1      35.250  22.334  24.560  1.00  0.00    -0.351 N 
ATOM      4  C   UNL A   1      34.041  22.945  24.561  1.00  0.00     0.267 C 
ATOM      5  O   UNL A   1      33.062  22.201  24.703  1.00  0.00    -0.268 OA
ATOM      6  H   UNL A   1      35.189  21.381  24.799  1.00  0.00     0.163 HD
BRANCH   4   7
ATOM      7  C   UNL A   1      33.839  24.445  24.474  1.00  0.00     0.107 C 
ATOM      8  C   UNL A   1      33.478  25.032  25.642  1.00  0.00     0.040 C 
BRANCH   8   9
ATOM      9  C   UNL A   1      33.152  26.441  25.997  1.00  0.00    -0.023 A 
ATOM     10  C   UNL A   1      32.428  30.634  26.873  1.00  0.00     0.044 C 
ATOM     11  C   UNL A   1      32.705  29.187  26.598  1.00  0.00    -0.051 A 
ATOM     12  C   UNL A   1      31.692  28.245  26.763  1.00  0.00     0.004 A 
ATOM     13  C   UNL A   1      33.954  28.753  26.155  1.00  0.00     0.004 A 
ATOM     14  C   UNL A   1      31.923  26.891  26.493  1.00  0.00     0.008 A 
ATOM     15  C   UNL A   1      34.171  27.400  25.856  1.00  0.00     0.008 A 
ENDBRANCH   8   9
BRANCH   7  16
ATOM     16  N   UNL A   1      34.064  25.206  23.359  1.00  0.00    -0.317 N 
ATOM     17  C   UNL A   1      33.307  26.147  22.695  1.00  0.00     0.255 C 
ATOM     18  H   UNL A   1      34.945  25.050  22.949  1.00  0.00     0.170 HD
ATOM     19  O   UNL A   1      33.898  26.870  21.888  1.00  0.00    -0.269 OA
BRANCH  17  20
ATOM     20  C   UNL A   1      31.838  26.297  22.855  1.00  0.00     0.040 A 
ATOM     21  C   UNL A   1      31.148  25.123  23.202  1.00  0.00     0.014 A 
ATOM     22  C   UNL A   1      31.165  27.521  22.854  1.00  0.00     0.017 A 
ATOM     23  C   UNL A   1      29.831  25.186  23.648  1.00  0.00     0.001 A 
ATOM     24  C   UNL A   1      29.843  27.591  23.319  1.00  0.00    -0.050 A 
ATOM     25  C   UNL A   1      29.189  26.419  23.721  1.00  0.00     0.003 A 
ATOM     26  C   UNL A   1      29.150  28.912  23.486  1.00  0.00     0.044 C 
ENDBRANCH  17  20
ENDBRANCH   7  16
ENDBRANCH   4   7
ENDBRANCH   2   3
ENDBRANCH   1   2
BRANCH   1  27
ATOM     27  C   UNL A   1      38.161  23.363  26.152  1.00  0.00     0.118 C 
BRANCH  27  28
ATOM     28  N   UNL A   1      39.321  23.080  26.986  1.00  0.00    -0.352 N 
ATOM     29  C   UNL A   1      40.157  24.012  27.611  1.00  0.00     0.251 C 
ATOM     30  H   UNL A   1      39.540  22.130  27.127  1.00  0.00     0.163 HD
ATOM     31  O   UNL A   1      41.227  23.700  28.078  1.00  0.00    -0.269 OA
BRANCH  29  32
ATOM     32  C   UNL A   1      39.644  25.403  27.720  1.00  0.00     0.039 A 
ATOM     33  C   UNL A   1      40.131  26.353  26.818  1.00  0.00     0.014 A 
ATOM     34  C   UNL A   1      39.004  25.791  28.892  1.00  0.00     0.014 A 
ATOM     35  C   UNL A   1      40.206  27.689  27.210  1.00  0.00     0.010 A 
ATOM     36  C   UNL A   1      39.199  27.084  29.328  1.00  0.00     0.010 A 
ATOM     37  C   UNL A   1      39.847  28.027  28.511  1.00  0.00    -0.014 A 
BRANCH  37  38
ATOM     38  C   UNL A   1      40.136  29.308  29.154  1.00  0.00     0.031 A 
ATOM     39  C   UNL A   1      39.106  30.374  29.114  1.00  0.00     0.074 A 
ATOM     40  C   UNL A   1      41.237  29.453  29.925  1.00  0.00     0.049 A 
ATOM     41  N   UNL A   1      39.245  31.570  29.570  1.00  0.00    -0.248 NA
ATOM     42  C   UNL A   1      37.812  30.161  28.476  1.00  0.00     0.031 C 
ATOM     43  C   UNL A   1      41.450  30.440  30.982  1.00  0.00     0.029 A 
ATOM     44  N   UNL A   1      42.490  28.855  29.754  1.00  0.00    -0.354 N 
ATOM     45  C   UNL A   1      38.013  32.193  29.530  1.00  0.00     0.074 A 
ATOM     46  C   UNL A   1      37.174  31.288  28.789  1.00  0.00     0.031 C 
ATOM     47  C   UNL A   1      42.766  30.565  31.207  1.00  0.00     0.029 A 
ATOM     48  C   UNL A   1      43.448  29.799  30.181  1.00  0.00     0.049 A 
ATOM     49  H   UNL A   1      42.668  27.953  29.405  1.00  0.00     0.167 HD
ATOM     50  C   UNL A   1      37.839  33.350  30.233  1.00  0.00     0.037 A 
ATOM     51  C   UNL A   1      44.352  30.334  29.305  1.00  0.00     0.037 A 
ATOM     52  C   UNL A   1      39.138  33.886  30.650  1.00  0.00     0.049 A 
ATOM     53  C   UNL A   1      44.237  31.834  29.131  1.00  0.00     0.074 A 
ATOM     54  C   UNL A   1      39.854  33.843  31.835  1.00  0.00     0.029 A 
ATOM     55  N   UNL A   1      40.033  34.313  29.670  1.00  0.00    -0.354 N 
ATOM     56  N   UNL A   1      43.205  32.540  29.502  1.00  0.00    -0.248 NA
ATOM     57  C   UNL A   1      45.275  32.653  28.511  1.00  0.00     0.031 C 
ATOM     58  C   UNL A   1      41.210  34.151  31.540  1.00  0.00     0.029 A 
ATOM     59  C   UNL A   1      41.311  34.415  30.184  1.00  0.00     0.049 A 
ATOM     60  H   UNL A   1      39.786  34.515  28.739  1.00  0.00     0.167 HD
ATOM     61  C   UNL A   1      43.388  33.850  29.140  1.00  0.00     0.074 A 
ATOM     62  C   UNL A   1      44.717  33.875  28.559  1.00  0.00     0.031 C 
ATOM     63  C   UNL A   1      42.425  34.801  29.326  1.00  0.00     0.037 A 
BRANCH  50  64
ATOM     64  C   UNL A   1      36.498  33.849  30.763  1.00  0.00     0.058 A 
ATOM     65  C   UNL A   1      35.475  34.239  29.867  1.00  0.00     0.135 A 
ATOM     66  C   UNL A   1      36.179  34.071  32.119  1.00  0.00     0.135 A 
ATOM     67  F   UNL A   1      35.582  34.026  28.548  1.00  0.00    -0.206 F 
ATOM     68  C   UNL A   1      34.297  34.880  30.274  1.00  0.00     0.059 A 
ATOM     69  C   UNL A   1      35.033  34.748  32.548  1.00  0.00     0.059 A 
ATOM     70  F   UNL A   1      36.931  33.601  33.115  1.00  0.00    -0.206 F 
ATOM     71  C   UNL A   1      34.099  35.162  31.617  1.00  0.00     0.060 A 
BRANCH  71  72
ATOM     72  S   UNL A   1      32.621  36.053  32.135  1.00  0.00     0.124 S 
ATOM     73  O   UNL A   1      32.231  36.740  30.908  1.00  0.00    -0.237 OA
ATOM     74  O   UNL A   1      31.747  34.967  32.565  1.00  0.00    -0.237 OA
ATOM     75  O   UNL A   1      33.104  36.925  33.203  1.00  0.00    -0.744 OA
ENDBRANCH  71  72
ENDBRANCH  50  64
BRANCH  51  76
ATOM     76  C   UNL A   1      44.778  29.370  28.253  1.00  0.00     0.058 A 
ATOM     77  C   UNL A   1      45.714  28.384  28.620  1.00  0.00     0.135 A 
ATOM     78  C   UNL A   1      43.979  29.122  27.127  1.00  0.00     0.135 A 
ATOM     79  F   UNL A   1      46.518  28.581  29.679  1.00  0.00    -0.206 F 
ATOM     80  C   UNL A   1      45.726  27.133  28.020  1.00  0.00     0.059 A 
ATOM     81  C   UNL A   1      43.985  27.875  26.500  1.00  0.00     0.059 A 
ATOM     82  F   UNL A   1      43.075  30.028  26.727  1.00  0.00    -0.206 F 
ATOM     83  C   UNL A   1      44.803  26.866  27.012  1.00  0.00     0.060 A 
BRANCH  83  84
ATOM     84  S   UNL A   1      44.547  25.134  26.558  1.00  0.00     0.124 S 
ATOM     85  O   UNL A   1      45.736  24.848  25.762  1.00  0.00    -0.237 OA
ATOM     86  O   UNL A   1      44.507  24.499  27.873  1.00  0.00    -0.237 OA
ATOM     87  O   UNL A   1      43.284  25.159  25.831  1.00  0.00    -0.744 OA
ENDBRANCH  83  84
ENDBRANCH  51  76
BRANCH  63  88
ATOM     88  C   UNL A   1      42.460  36.205  28.767  1.00  0.00     0.058 A 
ATOM     89  C   UNL A   1      43.064  37.295  29.415  1.00  0.00     0.135 A 
ATOM     90  C   UNL A   1      41.996  36.458  27.453  1.00  0.00     0.135 A 
ATOM     91  F   UNL A   1      43.641  37.159  30.619  1.00  0.00    -0.206 F 
ATOM     92  C   UNL A   1      43.147  38.562  28.833  1.00  0.00     0.059 A 
ATOM     93  C   UNL A   1      42.120  37.698  26.831  1.00  0.00     0.059 A 
ATOM     94  F   UNL A   1      41.417  35.495  26.720  1.00  0.00    -0.206 F 
ATOM     95  C   UNL A   1      42.675  38.754  27.539  1.00  0.00     0.060 A 
BRANCH  95  96
ATOM     96  S   UNL A   1      42.840  40.365  26.746  1.00  0.00     0.124 S 
ATOM     97  O   UNL A   1      41.503  40.556  26.193  1.00  0.00    -0.237 OA
ATOM     98  O   UNL A   1      43.192  41.243  27.858  1.00  0.00    -0.237 OA
ATOM     99  O   UNL A   1      43.905  40.145  25.773  1.00  0.00    -0.744 OA
ENDBRANCH  95  96
ENDBRANCH  63  88
ENDBRANCH  37  38
ENDBRANCH  29  32
ENDBRANCH  27  28
ENDBRANCH   1  27
TORSDOF 16
ENDMDL
