MODEL 1
REMARK VINA RESULT:     -10.7      0.000      0.000
REMARK SMILES [NH3+][C@H](Cc1ccc(O)c(F)c1)C(=O)NCCCNC(=O)c1ccc(-c2c3nc(c(-c4c(F)cc(S(=O)(=O)[O-])cc4F)c4ccc([nH]4)c(-c4c(F)cc(S(=O)(=O)[O-])cc4F)c4nc(c(-c5c(F)cc(S(=O)(=O)[O-])cc5F)c5ccc2[nH]5)C=C4)C=C3)cc1
REMARK SMILES IDX 16 1 15 2 14 3 12 4 13 5 2 7 1 8 3 12 4 13 5 14 11 15 6 16
REMARK SMILES IDX 9 17 7 18 10 19 8 20 17 22 18 23 19 24 20 26 21 27 22 28
REMARK SMILES IDX 86 29 23 30 85 31 24 32 25 33 26 34 79 35 27 36 84 37 78 38
REMARK SMILES IDX 80 39 28 40 83 41 77 42 76 43 29 45 63 46 42 47 62 48 43 49
REMARK SMILES IDX 46 50 61 51 81 52 44 53 45 54 60 56 82 57 47 58 30 59 31 60
REMARK SMILES IDX 40 61 32 62 33 63 39 64 41 65 34 66 35 67 36 68 37 69 38 70
REMARK SMILES IDX 64 71 65 72 74 73 66 74 67 75 73 76 75 77 68 78 69 79 70 80
REMARK SMILES IDX 71 81 72 82 48 83 49 84 58 85 50 86 51 87 57 88 59 89 52 90
REMARK SMILES IDX 53 91 54 92 55 93 56 94
REMARK H PARENT 14 6 1 9 1 10 1 11 8 21 18 25 80 44 46 55
REMARK Flexibility Score: inf
ROOT
ATOM      1  C   UNL A   1      34.507  34.424  28.459  1.00  0.00     0.042 C 
ENDROOT
BRANCH   1   2
ATOM      2  C   UNL A   1      33.167  34.730  29.119  1.00  0.00     0.118 C 
BRANCH   2   3
ATOM      3  N   UNL A   1      33.135  36.059  29.702  1.00  0.00    -0.351 N 
ATOM      4  C   UNL A   1      32.944  36.471  30.991  1.00  0.00     0.278 C 
ATOM      5  O   UNL A   1      32.898  37.688  31.193  1.00  0.00    -0.268 OA
ATOM      6  H   UNL A   1      33.273  36.789  29.057  1.00  0.00     0.163 HD
BRANCH   4   7
ATOM      7  C   UNL A   1      32.808  35.464  32.155  1.00  0.00     0.275 C 
BRANCH   7   8
ATOM      8  N   UNL A   1      31.436  35.536  32.709  1.00  0.00    -0.347 N 
ATOM      9  H   UNL A   1      31.412  35.075  33.619  1.00  0.00     0.345 HD
ATOM     10  H   UNL A   1      30.787  35.070  32.075  1.00  0.00     0.345 HD
ATOM     11  H   UNL A   1      31.163  36.513  32.816  1.00  0.00     0.345 HD
ENDBRANCH   7   8
BRANCH   7  12
ATOM     12  C   UNL A   1      33.996  35.565  33.143  1.00  0.00     0.111 C 
BRANCH  12  13
ATOM     13  C   UNL A   1      34.842  34.320  33.280  1.00  0.00    -0.038 A 
ATOM     14  C   UNL A   1      34.623  33.212  32.443  1.00  0.00     0.008 A 
ATOM     15  C   UNL A   1      35.869  34.253  34.230  1.00  0.00     0.047 A 
ATOM     16  C   UNL A   1      35.436  32.080  32.515  1.00  0.00     0.049 A 
ATOM     17  C   UNL A   1      36.669  33.114  34.311  1.00  0.00     0.165 A 
ATOM     18  C   UNL A   1      36.466  32.039  33.448  1.00  0.00     0.151 A 
ATOM     19  F   UNL A   1      37.648  33.074  35.226  1.00  0.00    -0.203 F 
BRANCH  18  20
ATOM     20  O   UNL A   1      37.290  30.953  33.525  1.00  0.00    -0.505 OA
ATOM     21  H   UNL A   1      37.039  30.210  34.037  1.00  0.00     0.293 HD
ENDBRANCH  18  20
ENDBRANCH  12  13
ENDBRANCH   7  12
ENDBRANCH   4   7
ENDBRANCH   2   3
ENDBRANCH   1   2
BRANCH   1  22
ATOM     22  C   UNL A   1      35.072  33.060  28.833  1.00  0.00     0.118 C 
BRANCH  22  23
ATOM     23  N   UNL A   1      34.199  31.969  28.418  1.00  0.00    -0.352 N 
ATOM     24  C   UNL A   1      34.506  30.676  28.070  1.00  0.00     0.251 C 
ATOM     25  H   UNL A   1      33.241  32.193  28.379  1.00  0.00     0.163 HD
ATOM     26  O   UNL A   1      33.649  29.975  27.536  1.00  0.00    -0.269 OA
BRANCH  24  27
ATOM     27  C   UNL A   1      35.861  30.137  28.315  1.00  0.00     0.039 A 
ATOM     28  C   UNL A   1      36.779  30.105  27.262  1.00  0.00     0.014 A 
ATOM     29  C   UNL A   1      36.228  29.658  29.576  1.00  0.00     0.014 A 
ATOM     30  C   UNL A   1      38.086  29.673  27.496  1.00  0.00     0.010 A 
ATOM     31  C   UNL A   1      37.551  29.308  29.827  1.00  0.00     0.010 A 
ATOM     32  C   UNL A   1      38.497  29.318  28.791  1.00  0.00    -0.014 A 
BRANCH  32  33
ATOM     33  C   UNL A   1      39.912  28.979  29.090  1.00  0.00     0.031 A 
ATOM     34  C   UNL A   1      40.838  30.019  29.658  1.00  0.00     0.074 A 
ATOM     35  C   UNL A   1      40.381  27.756  28.774  1.00  0.00     0.049 A 
ATOM     36  N   UNL A   1      42.121  29.939  29.898  1.00  0.00    -0.248 NA
ATOM     37  C   UNL A   1      40.250  31.331  29.976  1.00  0.00     0.031 C 
ATOM     38  C   UNL A   1      39.591  26.676  28.175  1.00  0.00     0.029 A 
ATOM     39  N   UNL A   1      41.636  27.216  28.895  1.00  0.00    -0.354 N 
ATOM     40  C   UNL A   1      42.497  31.187  30.381  1.00  0.00     0.074 A 
ATOM     41  C   UNL A   1      41.316  32.023  30.351  1.00  0.00     0.031 C 
ATOM     42  C   UNL A   1      40.375  25.601  28.000  1.00  0.00     0.029 A 
ATOM     43  C   UNL A   1      41.732  25.925  28.427  1.00  0.00     0.049 A 
ATOM     44  H   UNL A   1      42.398  27.707  29.280  1.00  0.00     0.167 HD
ATOM     45  C   UNL A   1      43.709  31.592  30.828  1.00  0.00     0.037 A 
ATOM     46  C   UNL A   1      42.794  25.102  28.337  1.00  0.00     0.037 A 
ATOM     47  C   UNL A   1      44.876  30.748  30.868  1.00  0.00     0.049 A 
ATOM     48  C   UNL A   1      44.137  25.583  28.818  1.00  0.00     0.074 A 
ATOM     49  C   UNL A   1      46.136  31.045  31.358  1.00  0.00     0.029 A 
ATOM     50  N   UNL A   1      44.931  29.445  30.394  1.00  0.00    -0.354 N 
ATOM     51  N   UNL A   1      44.458  26.744  29.336  1.00  0.00    -0.248 NA
ATOM     52  C   UNL A   1      45.259  24.643  28.704  1.00  0.00     0.031 C 
ATOM     53  C   UNL A   1      46.966  29.943  31.131  1.00  0.00     0.029 A 
ATOM     54  C   UNL A   1      46.210  28.936  30.552  1.00  0.00     0.049 A 
ATOM     55  H   UNL A   1      44.172  28.954  30.004  1.00  0.00     0.167 HD
ATOM     56  C   UNL A   1      45.814  26.667  29.632  1.00  0.00     0.074 A 
ATOM     57  C   UNL A   1      46.248  25.338  29.250  1.00  0.00     0.031 C 
ATOM     58  C   UNL A   1      46.628  27.611  30.167  1.00  0.00     0.037 A 
BRANCH  45  59
ATOM     59  C   UNL A   1      43.839  33.012  31.309  1.00  0.00     0.058 A 
ATOM     60  C   UNL A   1      44.290  34.040  30.465  1.00  0.00     0.135 A 
ATOM     61  C   UNL A   1      43.470  33.359  32.619  1.00  0.00     0.135 A 
ATOM     62  F   UNL A   1      44.671  33.764  29.207  1.00  0.00    -0.206 F 
ATOM     63  C   UNL A   1      44.399  35.353  30.910  1.00  0.00     0.059 A 
ATOM     64  C   UNL A   1      43.541  34.672  33.077  1.00  0.00     0.059 A 
ATOM     65  F   UNL A   1      43.032  32.417  33.470  1.00  0.00    -0.206 F 
ATOM     66  C   UNL A   1      44.021  35.659  32.218  1.00  0.00     0.060 A 
BRANCH  66  67
ATOM     67  S   UNL A   1      44.164  37.371  32.776  1.00  0.00     0.124 S 
ATOM     68  O   UNL A   1      45.559  37.423  33.201  1.00  0.00    -0.237 OA
ATOM     69  O   UNL A   1      43.841  38.120  31.565  1.00  0.00    -0.237 OA
ATOM     70  O   UNL A   1      43.178  37.463  33.848  1.00  0.00    -0.744 OA
ENDBRANCH  66  67
ENDBRANCH  45  59
BRANCH  46  71
ATOM     71  C   UNL A   1      42.630  23.735  27.773  1.00  0.00     0.058 A 
ATOM     72  C   UNL A   1      42.645  23.520  26.387  1.00  0.00     0.135 A 
ATOM     73  C   UNL A   1      42.467  22.616  28.605  1.00  0.00     0.135 A 
ATOM     74  F   UNL A   1      42.791  24.558  25.550  1.00  0.00    -0.206 F 
ATOM     75  C   UNL A   1      42.489  22.249  25.844  1.00  0.00     0.059 A 
ATOM     76  C   UNL A   1      42.336  21.331  28.087  1.00  0.00     0.059 A 
ATOM     77  F   UNL A   1      42.462  22.764  29.939  1.00  0.00    -0.206 F 
ATOM     78  C   UNL A   1      42.340  21.160  26.703  1.00  0.00     0.060 A 
BRANCH  78  79
ATOM     79  S   UNL A   1      42.190  19.508  25.989  1.00  0.00     0.124 S 
ATOM     80  O   UNL A   1      43.056  19.613  24.821  1.00  0.00    -0.237 OA
ATOM     81  O   UNL A   1      42.678  18.661  27.074  1.00  0.00    -0.237 OA
ATOM     82  O   UNL A   1      40.761  19.391  25.710  1.00  0.00    -0.744 OA
ENDBRANCH  78  79
ENDBRANCH  46  71
BRANCH  58  83
ATOM     83  C   UNL A   1      48.067  27.236  30.395  1.00  0.00     0.058 A 
ATOM     84  C   UNL A   1      49.062  27.519  29.448  1.00  0.00     0.135 A 
ATOM     85  C   UNL A   1      48.463  26.632  31.601  1.00  0.00     0.135 A 
ATOM     86  F   UNL A   1      48.738  28.087  28.276  1.00  0.00    -0.206 F 
ATOM     87  C   UNL A   1      50.397  27.198  29.678  1.00  0.00     0.059 A 
ATOM     88  C   UNL A   1      49.795  26.330  31.864  1.00  0.00     0.059 A 
ATOM     89  F   UNL A   1      47.552  26.347  32.545  1.00  0.00    -0.206 F 
ATOM     90  C   UNL A   1      50.754  26.608  30.891  1.00  0.00     0.060 A 
BRANCH  90  91
ATOM     91  S   UNL A   1      52.494  26.233  31.191  1.00  0.00     0.124 S 
ATOM     92  O   UNL A   1      53.012  26.137  29.830  1.00  0.00    -0.237 OA
ATOM     93  O   UNL A   1      52.936  27.393  31.958  1.00  0.00    -0.237 OA
ATOM     94  O   UNL A   1      52.450  24.977  31.934  1.00  0.00    -0.744 OA
ENDBRANCH  90  91
ENDBRANCH  58  83
ENDBRANCH  32  33
ENDBRANCH  24  27
ENDBRANCH  22  23
ENDBRANCH   1  22
TORSDOF 17
ENDMDL
MODEL 2
REMARK VINA RESULT:     -10.7      2.502      3.034
REMARK SMILES [NH3+][C@H](Cc1ccc(O)c(F)c1)C(=O)NCCCNC(=O)c1ccc(-c2c3nc(c(-c4c(F)cc(S(=O)(=O)[O-])cc4F)c4ccc([nH]4)c(-c4c(F)cc(S(=O)(=O)[O-])cc4F)c4nc(c(-c5c(F)cc(S(=O)(=O)[O-])cc5F)c5ccc2[nH]5)C=C4)C=C3)cc1
REMARK SMILES IDX 16 1 15 2 14 3 12 4 13 5 2 7 1 8 3 12 4 13 5 14 11 15 6 16
REMARK SMILES IDX 9 17 7 18 10 19 8 20 17 22 18 23 19 24 20 26 21 27 22 28
REMARK SMILES IDX 86 29 23 30 85 31 24 32 25 33 26 34 79 35 27 36 84 37 78 38
REMARK SMILES IDX 80 39 28 40 83 41 77 42 76 43 29 45 63 46 42 47 62 48 43 49
REMARK SMILES IDX 46 50 61 51 81 52 44 53 45 54 60 56 82 57 47 58 30 59 31 60
REMARK SMILES IDX 40 61 32 62 33 63 39 64 41 65 34 66 35 67 36 68 37 69 38 70
REMARK SMILES IDX 64 71 65 72 74 73 66 74 67 75 73 76 75 77 68 78 69 79 70 80
REMARK SMILES IDX 71 81 72 82 48 83 49 84 58 85 50 86 51 87 57 88 59 89 52 90
REMARK SMILES IDX 53 91 54 92 55 93 56 94
REMARK H PARENT 14 6 1 9 1 10 1 11 8 21 18 25 80 44 46 55
REMARK Flexibility Score: inf
ROOT
ATOM      1  C   UNL A   1      34.401  34.534  28.379  1.00  0.00     0.042 C 
ENDROOT
BRANCH   1   2
ATOM      2  C   UNL A   1      32.985  34.907  28.803  1.00  0.00     0.118 C 
BRANCH   2   3
ATOM      3  N   UNL A   1      32.938  36.181  29.495  1.00  0.00    -0.351 N 
ATOM      4  C   UNL A   1      33.045  36.488  30.822  1.00  0.00     0.278 C 
ATOM      5  O   UNL A   1      32.898  37.672  31.141  1.00  0.00    -0.268 OA
ATOM      6  H   UNL A   1      32.805  36.958  28.907  1.00  0.00     0.163 HD
BRANCH   4   7
ATOM      7  C   UNL A   1      33.354  35.409  31.884  1.00  0.00     0.275 C 
BRANCH   7   8
ATOM      8  N   UNL A   1      32.125  35.116  32.659  1.00  0.00    -0.347 N 
ATOM      9  H   UNL A   1      31.546  34.455  32.140  1.00  0.00     0.345 HD
ATOM     10  H   UNL A   1      31.604  35.979  32.810  1.00  0.00     0.345 HD
ATOM     11  H   UNL A   1      32.380  34.710  33.560  1.00  0.00     0.345 HD
ENDBRANCH   7   8
BRANCH   7  12
ATOM     12  C   UNL A   1      34.648  35.731  32.670  1.00  0.00     0.111 C 
BRANCH  12  13
ATOM     13  C   UNL A   1      35.417  34.536  33.185  1.00  0.00    -0.038 A 
ATOM     14  C   UNL A   1      36.209  34.642  34.342  1.00  0.00     0.008 A 
ATOM     15  C   UNL A   1      35.343  33.300  32.532  1.00  0.00     0.047 A 
ATOM     16  C   UNL A   1      36.876  33.532  34.865  1.00  0.00     0.049 A 
ATOM     17  C   UNL A   1      36.023  32.198  33.048  1.00  0.00     0.165 A 
ATOM     18  C   UNL A   1      36.773  32.308  34.217  1.00  0.00     0.151 A 
ATOM     19  F   UNL A   1      35.934  31.024  32.406  1.00  0.00    -0.203 F 
BRANCH  18  20
ATOM     20  O   UNL A   1      37.396  31.202  34.719  1.00  0.00    -0.505 OA
ATOM     21  H   UNL A   1      38.249  30.964  34.413  1.00  0.00     0.293 HD
ENDBRANCH  18  20
ENDBRANCH  12  13
ENDBRANCH   7  12
ENDBRANCH   4   7
ENDBRANCH   2   3
ENDBRANCH   1   2
BRANCH   1  22
ATOM     22  C   UNL A   1      34.810  33.127  28.795  1.00  0.00     0.118 C 
BRANCH  22  23
ATOM     23  N   UNL A   1      34.147  32.102  27.999  1.00  0.00    -0.352 N 
ATOM     24  C   UNL A   1      34.600  30.870  27.592  1.00  0.00     0.251 C 
ATOM     25  H   UNL A   1      33.235  32.327  27.707  1.00  0.00     0.163 HD
ATOM     26  O   UNL A   1      33.969  30.247  26.740  1.00  0.00    -0.269 OA
BRANCH  24  27
ATOM     27  C   UNL A   1      35.844  30.306  28.157  1.00  0.00     0.039 A 
ATOM     28  C   UNL A   1      37.040  30.458  27.448  1.00  0.00     0.014 A 
ATOM     29  C   UNL A   1      35.837  29.625  29.377  1.00  0.00     0.014 A 
ATOM     30  C   UNL A   1      38.237  30.002  28.005  1.00  0.00     0.010 A 
ATOM     31  C   UNL A   1      37.039  29.247  29.967  1.00  0.00     0.010 A 
ATOM     32  C   UNL A   1      38.253  29.436  29.290  1.00  0.00    -0.014 A 
BRANCH  32  33
ATOM     33  C   UNL A   1      39.527  29.061  29.956  1.00  0.00     0.031 A 
ATOM     34  C   UNL A   1      40.035  29.857  31.126  1.00  0.00     0.074 A 
ATOM     35  C   UNL A   1      40.266  28.052  29.452  1.00  0.00     0.049 A 
ATOM     36  N   UNL A   1      41.164  29.739  31.776  1.00  0.00    -0.248 NA
ATOM     37  C   UNL A   1      39.172  30.944  31.617  1.00  0.00     0.031 C 
ATOM     38  C   UNL A   1      39.901  27.236  28.291  1.00  0.00     0.029 A 
ATOM     39  N   UNL A   1      41.482  27.548  29.838  1.00  0.00    -0.354 N 
ATOM     40  C   UNL A   1      41.154  30.740  32.741  1.00  0.00     0.074 A 
ATOM     41  C   UNL A   1      39.930  31.489  32.558  1.00  0.00     0.031 C 
ATOM     42  C   UNL A   1      40.862  26.324  28.073  1.00  0.00     0.029 A 
ATOM     43  C   UNL A   1      41.932  26.519  29.045  1.00  0.00     0.049 A 
ATOM     44  H   UNL A   1      41.986  27.892  30.611  1.00  0.00     0.167 HD
ATOM     45  C   UNL A   1      42.071  30.998  33.704  1.00  0.00     0.037 A 
ATOM     46  C   UNL A   1      43.084  25.821  29.085  1.00  0.00     0.037 A 
ATOM     47  C   UNL A   1      43.280  30.237  33.888  1.00  0.00     0.049 A 
ATOM     48  C   UNL A   1      44.098  26.141  30.150  1.00  0.00     0.074 A 
ATOM     49  C   UNL A   1      44.245  30.380  34.871  1.00  0.00     0.029 A 
ATOM     50  N   UNL A   1      43.697  29.197  33.071  1.00  0.00    -0.354 N 
ATOM     51  N   UNL A   1      44.040  27.046  31.096  1.00  0.00    -0.248 NA
ATOM     52  C   UNL A   1      45.332  25.345  30.152  1.00  0.00     0.031 C 
ATOM     53  C   UNL A   1      45.270  29.464  34.616  1.00  0.00     0.029 A 
ATOM     54  C   UNL A   1      44.918  28.709  33.508  1.00  0.00     0.049 A 
ATOM     55  H   UNL A   1      43.198  28.854  32.294  1.00  0.00     0.167 HD
ATOM     56  C   UNL A   1      45.218  26.914  31.822  1.00  0.00     0.074 A 
ATOM     57  C   UNL A   1      45.962  25.829  31.214  1.00  0.00     0.031 C 
ATOM     58  C   UNL A   1      45.648  27.628  32.893  1.00  0.00     0.037 A 
BRANCH  45  59
ATOM     59  C   UNL A   1      41.805  32.151  34.633  1.00  0.00     0.058 A 
ATOM     60  C   UNL A   1      42.306  33.437  34.377  1.00  0.00     0.135 A 
ATOM     61  C   UNL A   1      41.005  31.979  35.775  1.00  0.00     0.135 A 
ATOM     62  F   UNL A   1      43.089  33.657  33.308  1.00  0.00    -0.206 F 
ATOM     63  C   UNL A   1      42.049  34.503  35.232  1.00  0.00     0.059 A 
ATOM     64  C   UNL A   1      40.709  33.038  36.628  1.00  0.00     0.059 A 
ATOM     65  F   UNL A   1      40.499  30.770  36.070  1.00  0.00    -0.206 F 
ATOM     66  C   UNL A   1      41.249  34.294  36.356  1.00  0.00     0.060 A 
BRANCH  66  67
ATOM     67  S   UNL A   1      40.921  35.691  37.452  1.00  0.00     0.124 S 
ATOM     68  O   UNL A   1      40.306  35.025  38.595  1.00  0.00    -0.237 OA
ATOM     69  O   UNL A   1      42.260  36.229  37.677  1.00  0.00    -0.237 OA
ATOM     70  O   UNL A   1      40.032  36.539  36.666  1.00  0.00    -0.744 OA
ENDBRANCH  66  67
ENDBRANCH  45  59
BRANCH  46  71
ATOM     71  C   UNL A   1      43.336  24.745  28.088  1.00  0.00     0.058 A 
ATOM     72  C   UNL A   1      44.010  25.018  26.888  1.00  0.00     0.135 A 
ATOM     73  C   UNL A   1      42.922  23.424  28.317  1.00  0.00     0.135 A 
ATOM     74  F   UNL A   1      44.420  26.267  26.619  1.00  0.00    -0.206 F 
ATOM     75  C   UNL A   1      44.251  24.025  25.944  1.00  0.00     0.059 A 
ATOM     76  C   UNL A   1      43.175  22.407  27.401  1.00  0.00     0.059 A 
ATOM     77  F   UNL A   1      42.289  23.106  29.457  1.00  0.00    -0.206 F 
ATOM     78  C   UNL A   1      43.833  22.721  26.213  1.00  0.00     0.060 A 
BRANCH  78  79
ATOM     79  S   UNL A   1      44.196  21.429  25.004  1.00  0.00     0.124 S 
ATOM     80  O   UNL A   1      45.520  20.993  25.429  1.00  0.00    -0.237 OA
ATOM     81  O   UNL A   1      43.107  20.483  25.233  1.00  0.00    -0.237 OA
ATOM     82  O   UNL A   1      44.141  22.138  23.729  1.00  0.00    -0.744 OA
ENDBRANCH  78  79
ENDBRANCH  46  71
BRANCH  58  83
ATOM     83  C   UNL A   1      46.974  27.246  33.493  1.00  0.00     0.058 A 
ATOM     84  C   UNL A   1      48.168  27.866  33.098  1.00  0.00     0.135 A 
ATOM     85  C   UNL A   1      47.041  26.283  34.514  1.00  0.00     0.135 A 
ATOM     86  F   UNL A   1      48.162  28.786  32.120  1.00  0.00    -0.206 F 
ATOM     87  C   UNL A   1      49.388  27.530  33.679  1.00  0.00     0.059 A 
ATOM     88  C   UNL A   1      48.245  25.954  35.130  1.00  0.00     0.059 A 
ATOM     89  F   UNL A   1      45.926  25.666  34.937  1.00  0.00    -0.206 F 
ATOM     90  C   UNL A   1      49.415  26.576  34.697  1.00  0.00     0.060 A 
BRANCH  90  91
ATOM     91  S   UNL A   1      50.998  26.179  35.468  1.00  0.00     0.124 S 
ATOM     92  O   UNL A   1      50.602  25.958  36.855  1.00  0.00    -0.237 OA
ATOM     93  O   UNL A   1      51.416  24.991  34.730  1.00  0.00    -0.237 OA
ATOM     94  O   UNL A   1      51.803  27.373  35.229  1.00  0.00    -0.744 OA
ENDBRANCH  90  91
ENDBRANCH  58  83
ENDBRANCH  32  33
ENDBRANCH  24  27
ENDBRANCH  22  23
ENDBRANCH   1  22
TORSDOF 17
ENDMDL
MODEL 3
REMARK VINA RESULT:     -10.5      3.265     12.012
REMARK SMILES [NH3+][C@H](Cc1ccc(O)c(F)c1)C(=O)NCCCNC(=O)c1ccc(-c2c3nc(c(-c4c(F)cc(S(=O)(=O)[O-])cc4F)c4ccc([nH]4)c(-c4c(F)cc(S(=O)(=O)[O-])cc4F)c4nc(c(-c5c(F)cc(S(=O)(=O)[O-])cc5F)c5ccc2[nH]5)C=C4)C=C3)cc1
REMARK SMILES IDX 16 1 15 2 14 3 12 4 13 5 2 7 1 8 3 12 4 13 5 14 11 15 6 16
REMARK SMILES IDX 9 17 7 18 10 19 8 20 17 22 18 23 19 24 20 26 21 27 22 28
REMARK SMILES IDX 86 29 23 30 85 31 24 32 25 33 26 34 79 35 27 36 84 37 78 38
REMARK SMILES IDX 80 39 28 40 83 41 77 42 76 43 29 45 63 46 42 47 62 48 43 49
REMARK SMILES IDX 46 50 61 51 81 52 44 53 45 54 60 56 82 57 47 58 30 59 31 60
REMARK SMILES IDX 40 61 32 62 33 63 39 64 41 65 34 66 35 67 36 68 37 69 38 70
REMARK SMILES IDX 64 71 65 72 74 73 66 74 67 75 73 76 75 77 68 78 69 79 70 80
REMARK SMILES IDX 71 81 72 82 48 83 49 84 58 85 50 86 51 87 57 88 59 89 52 90
REMARK SMILES IDX 53 91 54 92 55 93 56 94
REMARK H PARENT 14 6 1 9 1 10 1 11 8 21 18 25 80 44 46 55
REMARK Flexibility Score: inf
ROOT
ATOM      1  C   UNL A   1      42.257  21.121  26.543  1.00  0.00     0.042 C 
ENDROOT
BRANCH   1   2
ATOM      2  C   UNL A   1      42.145  19.817  25.760  1.00  0.00     0.118 C 
BRANCH   2   3
ATOM      3  N   UNL A   1      43.285  18.947  25.980  1.00  0.00    -0.351 N 
ATOM      4  C   UNL A   1      44.468  18.829  25.306  1.00  0.00     0.278 C 
ATOM      5  O   UNL A   1      45.243  17.942  25.678  1.00  0.00    -0.268 OA
ATOM      6  H   UNL A   1      43.189  18.337  26.744  1.00  0.00     0.163 HD
BRANCH   4   7
ATOM      7  C   UNL A   1      44.837  19.771  24.138  1.00  0.00     0.275 C 
BRANCH   7   8
ATOM      8  N   UNL A   1      45.042  18.971  22.907  1.00  0.00    -0.347 N 
ATOM      9  H   UNL A   1      45.973  18.554  22.925  1.00  0.00     0.345 HD
ATOM     10  H   UNL A   1      44.955  19.575  22.090  1.00  0.00     0.345 HD
ATOM     11  H   UNL A   1      44.339  18.233  22.861  1.00  0.00     0.345 HD
ENDBRANCH   7   8
BRANCH   7  12
ATOM     12  C   UNL A   1      45.940  20.779  24.540  1.00  0.00     0.111 C 
BRANCH  12  13
ATOM     13  C   UNL A   1      45.453  22.118  25.046  1.00  0.00    -0.038 A 
ATOM     14  C   UNL A   1      44.670  22.948  24.224  1.00  0.00     0.008 A 
ATOM     15  C   UNL A   1      45.757  22.548  26.342  1.00  0.00     0.047 A 
ATOM     16  C   UNL A   1      44.159  24.159  24.698  1.00  0.00     0.049 A 
ATOM     17  C   UNL A   1      45.260  23.765  26.807  1.00  0.00     0.165 A 
ATOM     18  C   UNL A   1      44.452  24.560  25.996  1.00  0.00     0.151 A 
ATOM     19  F   UNL A   1      45.562  24.155  28.054  1.00  0.00    -0.203 F 
BRANCH  18  20
ATOM     20  O   UNL A   1      43.948  25.728  26.491  1.00  0.00    -0.505 OA
ATOM     21  H   UNL A   1      43.033  25.914  26.412  1.00  0.00     0.293 HD
ENDBRANCH  18  20
ENDBRANCH  12  13
ENDBRANCH   7  12
ENDBRANCH   4   7
ENDBRANCH   2   3
ENDBRANCH   1   2
BRANCH   1  22
ATOM     22  C   UNL A   1      40.961  21.531  27.231  1.00  0.00     0.118 C 
BRANCH  22  23
ATOM     23  N   UNL A   1      39.879  21.756  26.280  1.00  0.00    -0.352 N 
ATOM     24  C   UNL A   1      39.058  22.844  26.118  1.00  0.00     0.251 C 
ATOM     25  H   UNL A   1      39.710  21.011  25.659  1.00  0.00     0.163 HD
ATOM     26  O   UNL A   1      38.062  22.748  25.404  1.00  0.00    -0.269 OA
BRANCH  24  27
ATOM     27  C   UNL A   1      39.355  24.116  26.813  1.00  0.00     0.039 A 
ATOM     28  C   UNL A   1      38.853  24.318  28.101  1.00  0.00     0.014 A 
ATOM     29  C   UNL A   1      40.121  25.110  26.198  1.00  0.00     0.014 A 
ATOM     30  C   UNL A   1      39.190  25.478  28.801  1.00  0.00     0.010 A 
ATOM     31  C   UNL A   1      40.525  26.225  26.926  1.00  0.00     0.010 A 
ATOM     32  C   UNL A   1      40.069  26.419  28.238  1.00  0.00    -0.014 A 
BRANCH  32  33
ATOM     33  C   UNL A   1      40.544  27.595  29.011  1.00  0.00     0.031 A 
ATOM     34  C   UNL A   1      41.875  27.557  29.711  1.00  0.00     0.074 A 
ATOM     35  C   UNL A   1      39.738  28.667  29.147  1.00  0.00     0.049 A 
ATOM     36  N   UNL A   1      42.416  28.446  30.503  1.00  0.00    -0.248 NA
ATOM     37  C   UNL A   1      42.696  26.351  29.514  1.00  0.00     0.031 C 
ATOM     38  C   UNL A   1      38.405  28.803  28.554  1.00  0.00     0.029 A 
ATOM     39  N   UNL A   1      39.912  29.840  29.838  1.00  0.00    -0.354 N 
ATOM     40  C   UNL A   1      43.631  27.905  30.908  1.00  0.00     0.074 A 
ATOM     41  C   UNL A   1      43.723  26.587  30.316  1.00  0.00     0.031 C 
ATOM     42  C   UNL A   1      37.892  29.997  28.892  1.00  0.00     0.029 A 
ATOM     43  C   UNL A   1      38.835  30.692  29.762  1.00  0.00     0.049 A 
ATOM     44  H   UNL A   1      40.731  30.051  30.343  1.00  0.00     0.167 HD
ATOM     45  C   UNL A   1      44.589  28.462  31.686  1.00  0.00     0.037 A 
ATOM     46  C   UNL A   1      38.623  31.891  30.339  1.00  0.00     0.037 A 
ATOM     47  C   UNL A   1      44.495  29.781  32.259  1.00  0.00     0.049 A 
ATOM     48  C   UNL A   1      39.693  32.480  31.218  1.00  0.00     0.074 A 
ATOM     49  C   UNL A   1      45.437  30.461  33.012  1.00  0.00     0.029 A 
ATOM     50  N   UNL A   1      43.393  30.617  32.151  1.00  0.00    -0.354 N 
ATOM     51  N   UNL A   1      40.865  31.983  31.535  1.00  0.00    -0.248 NA
ATOM     52  C   UNL A   1      39.414  33.792  31.817  1.00  0.00     0.031 C 
ATOM     53  C   UNL A   1      44.884  31.683  33.404  1.00  0.00     0.029 A 
ATOM     54  C   UNL A   1      43.619  31.792  32.849  1.00  0.00     0.049 A 
ATOM     55  H   UNL A   1      42.571  30.406  31.653  1.00  0.00     0.167 HD
ATOM     56  C   UNL A   1      41.472  32.930  32.351  1.00  0.00     0.074 A 
ATOM     57  C   UNL A   1      40.545  34.038  32.464  1.00  0.00     0.031 C 
ATOM     58  C   UNL A   1      42.686  32.887  32.954  1.00  0.00     0.037 A 
BRANCH  45  59
ATOM     59  C   UNL A   1      45.825  27.650  31.964  1.00  0.00     0.058 A 
ATOM     60  C   UNL A   1      46.968  27.744  31.154  1.00  0.00     0.135 A 
ATOM     61  C   UNL A   1      45.884  26.797  33.078  1.00  0.00     0.135 A 
ATOM     62  F   UNL A   1      46.964  28.532  30.067  1.00  0.00    -0.206 F 
ATOM     63  C   UNL A   1      48.113  27.000  31.421  1.00  0.00     0.059 A 
ATOM     64  C   UNL A   1      47.029  26.066  33.382  1.00  0.00     0.059 A 
ATOM     65  F   UNL A   1      44.819  26.668  33.888  1.00  0.00    -0.206 F 
ATOM     66  C   UNL A   1      48.134  26.164  32.538  1.00  0.00     0.060 A 
BRANCH  66  67
ATOM     67  S   UNL A   1      49.630  25.210  32.871  1.00  0.00     0.124 S 
ATOM     68  O   UNL A   1      49.111  24.140  33.717  1.00  0.00    -0.237 OA
ATOM     69  O   UNL A   1      50.049  24.812  31.531  1.00  0.00    -0.237 OA
ATOM     70  O   UNL A   1      50.504  26.170  33.539  1.00  0.00    -0.744 OA
ENDBRANCH  66  67
ENDBRANCH  45  59
BRANCH  46  71
ATOM     71  C   UNL A   1      37.346  32.616  30.100  1.00  0.00     0.058 A 
ATOM     72  C   UNL A   1      37.245  33.585  29.090  1.00  0.00     0.135 A 
ATOM     73  C   UNL A   1      36.199  32.349  30.863  1.00  0.00     0.135 A 
ATOM     74  F   UNL A   1      38.315  33.881  28.337  1.00  0.00    -0.206 F 
ATOM     75  C   UNL A   1      36.060  34.274  28.855  1.00  0.00     0.059 A 
ATOM     76  C   UNL A   1      34.994  33.004  30.630  1.00  0.00     0.059 A 
ATOM     77  F   UNL A   1      36.237  31.418  31.830  1.00  0.00    -0.206 F 
ATOM     78  C   UNL A   1      34.938  33.973  29.629  1.00  0.00     0.060 A 
BRANCH  78  79
ATOM     79  S   UNL A   1      33.391  34.836  29.282  1.00  0.00     0.124 S 
ATOM     80  O   UNL A   1      33.873  36.077  28.688  1.00  0.00    -0.237 OA
ATOM     81  O   UNL A   1      32.722  33.910  28.372  1.00  0.00    -0.237 OA
ATOM     82  O   UNL A   1      32.773  34.962  30.599  1.00  0.00    -0.744 OA
ENDBRANCH  78  79
ENDBRANCH  46  71
BRANCH  58  83
ATOM     83  C   UNL A   1      43.095  34.081  33.774  1.00  0.00     0.058 A 
ATOM     84  C   UNL A   1      43.724  35.193  33.194  1.00  0.00     0.135 A 
ATOM     85  C   UNL A   1      42.807  34.133  35.148  1.00  0.00     0.135 A 
ATOM     86  F   UNL A   1      44.030  35.192  31.887  1.00  0.00    -0.206 F 
ATOM     87  C   UNL A   1      44.072  36.307  33.952  1.00  0.00     0.059 A 
ATOM     88  C   UNL A   1      43.119  35.249  35.918  1.00  0.00     0.059 A 
ATOM     89  F   UNL A   1      42.199  33.099  35.750  1.00  0.00    -0.206 F 
ATOM     90  C   UNL A   1      43.761  36.327  35.312  1.00  0.00     0.060 A 
BRANCH  90  91
ATOM     91  S   UNL A   1      44.184  37.795  36.274  1.00  0.00     0.124 S 
ATOM     92  O   UNL A   1      45.592  37.555  36.574  1.00  0.00    -0.237 OA
ATOM     93  O   UNL A   1      43.911  38.876  35.331  1.00  0.00    -0.237 OA
ATOM     94  O   UNL A   1      43.279  37.726  37.417  1.00  0.00    -0.744 OA
ENDBRANCH  90  91
ENDBRANCH  58  83
ENDBRANCH  32  33
ENDBRANCH  24  27
ENDBRANCH  22  23
ENDBRANCH   1  22
TORSDOF 17
ENDMDL
