MODEL 1
REMARK VINA RESULT:     -13.1      0.000      0.000
REMARK SMILES CC1(C)CCCC[C@H]1NC(=O)Nc1ccccc1C(=O)NCCCNC(=O)c1ccc(-c2c3nc(c(-c4c(F)cc(S(=O)(=O)[O-])cc4F)c4ccc([nH]4)c(-c4c(F)cc(S(=O)(=O)[O-])cc4F)c4nc(c(-c5c(F)cc(S(=O)(=O)[O-])cc5F)c5ccc2[nH]5)C=C4)C=C3)cc1
REMARK SMILES IDX 23 1 22 2 21 3 19 4 20 5 18 7 13 8 14 9 15 10 17 11 16 12
REMARK SMILES IDX 12 13 9 14 10 15 11 17 8 19 1 20 2 21 3 22 4 23 5 24 7 25
REMARK SMILES IDX 6 26 24 27 25 28 26 29 27 31 28 32 29 33 93 34 30 35 92 36
REMARK SMILES IDX 31 37 32 38 33 39 86 40 34 41 91 42 85 43 87 44 35 45 90 46
REMARK SMILES IDX 84 47 83 48 36 50 70 51 49 52 69 53 50 54 53 55 68 56 88 57
REMARK SMILES IDX 51 58 52 59 67 61 89 62 54 63 37 64 38 65 47 66 39 67 40 68
REMARK SMILES IDX 46 69 48 70 41 71 42 72 43 73 44 74 45 75 71 76 72 77 81 78
REMARK SMILES IDX 73 79 74 80 80 81 82 82 75 83 76 84 77 85 78 86 79 87 55 88
REMARK SMILES IDX 56 89 65 90 57 91 58 92 64 93 66 94 59 95 60 96 61 97 62 98
REMARK SMILES IDX 63 99
REMARK H PARENT 21 6 9 16 12 18 25 30 87 49 53 60
REMARK Flexibility Score: inf
ROOT
ATOM      1  C   UNL A   1      33.646  30.261  27.249  1.00  0.00     0.042 C 
ENDROOT
BRANCH   1   2
ATOM      2  C   UNL A   1      32.697  29.083  27.239  1.00  0.00     0.118 C 
BRANCH   2   3
ATOM      3  N   UNL A   1      33.300  27.836  26.829  1.00  0.00    -0.352 N 
ATOM      4  C   UNL A   1      32.875  26.894  25.932  1.00  0.00     0.253 C 
ATOM      5  O   UNL A   1      33.617  25.923  25.754  1.00  0.00    -0.269 OA
ATOM      6  H   UNL A   1      34.158  27.630  27.266  1.00  0.00     0.163 HD
BRANCH   4   7
ATOM      7  C   UNL A   1      31.544  26.907  25.251  1.00  0.00     0.063 A 
ATOM      8  C   UNL A   1      30.422  26.079  25.445  1.00  0.00     0.055 A 
ATOM      9  C   UNL A   1      29.352  26.170  24.527  1.00  0.00     0.027 A 
ATOM     10  C   UNL A   1      29.308  27.153  23.539  1.00  0.00     0.002 A 
ATOM     11  C   UNL A   1      31.464  27.913  24.254  1.00  0.00     0.016 A 
ATOM     12  C   UNL A   1      30.353  28.053  23.424  1.00  0.00     0.001 A 
BRANCH   8  13
ATOM     13  N   UNL A   1      30.160  25.160  26.484  1.00  0.00    -0.307 N 
ATOM     14  N   UNL A   1      30.654  22.978  25.695  1.00  0.00    -0.335 N 
ATOM     15  C   UNL A   1      30.087  23.817  26.578  1.00  0.00     0.319 C 
ATOM     16  H   UNL A   1      30.224  22.097  25.606  1.00  0.00     0.165 HD
ATOM     17  O   UNL A   1      29.513  23.329  27.556  1.00  0.00    -0.248 OA
ATOM     18  H   UNL A   1      29.991  25.605  27.345  1.00  0.00     0.171 HD
BRANCH  14  19
ATOM     19  C   UNL A   1      31.813  23.199  24.855  1.00  0.00     0.089 C 
ATOM     20  C   UNL A   1      32.428  20.721  24.482  1.00  0.00     0.013 C 
ATOM     21  C   UNL A   1      32.904  22.095  24.997  1.00  0.00    -0.015 C 
ATOM     22  C   UNL A   1      33.324  21.916  26.472  1.00  0.00     0.013 C 
ATOM     23  C   UNL A   1      34.134  22.584  24.189  1.00  0.00     0.008 C 
ATOM     24  C   UNL A   1      33.813  22.976  22.739  1.00  0.00     0.001 C 
ATOM     25  C   UNL A   1      31.406  23.391  23.393  1.00  0.00     0.025 C 
ATOM     26  C   UNL A   1      32.607  23.905  22.607  1.00  0.00     0.002 C 
ENDBRANCH  14  19
ENDBRANCH   8  13
ENDBRANCH   4   7
ENDBRANCH   2   3
ENDBRANCH   1   2
BRANCH   1  27
ATOM     27  C   UNL A   1      34.984  29.941  27.907  1.00  0.00     0.118 C 
BRANCH  27  28
ATOM     28  N   UNL A   1      35.273  30.718  29.116  1.00  0.00    -0.352 N 
ATOM     29  C   UNL A   1      36.423  30.825  29.871  1.00  0.00     0.251 C 
ATOM     30  H   UNL A   1      34.516  31.254  29.446  1.00  0.00     0.163 HD
ATOM     31  O   UNL A   1      36.440  31.509  30.886  1.00  0.00    -0.269 OA
BRANCH  29  32
ATOM     32  C   UNL A   1      37.624  30.060  29.481  1.00  0.00     0.039 A 
ATOM     33  C   UNL A   1      37.983  29.988  28.133  1.00  0.00     0.014 A 
ATOM     34  C   UNL A   1      38.440  29.491  30.453  1.00  0.00     0.014 A 
ATOM     35  C   UNL A   1      39.231  29.468  27.780  1.00  0.00     0.010 A 
ATOM     36  C   UNL A   1      39.731  29.111  30.118  1.00  0.00     0.010 A 
ATOM     37  C   UNL A   1      40.146  29.095  28.777  1.00  0.00    -0.014 A 
BRANCH  37  38
ATOM     38  C   UNL A   1      41.538  28.678  28.465  1.00  0.00     0.031 A 
ATOM     39  C   UNL A   1      42.632  29.713  28.438  1.00  0.00     0.074 A 
ATOM     40  C   UNL A   1      41.800  27.407  28.096  1.00  0.00     0.049 A 
ATOM     41  N   UNL A   1      43.863  29.608  28.008  1.00  0.00    -0.248 NA
ATOM     42  C   UNL A   1      42.274  31.068  28.896  1.00  0.00     0.031 C 
ATOM     43  C   UNL A   1      40.817  26.323  28.003  1.00  0.00     0.029 A 
ATOM     44  N   UNL A   1      42.977  26.813  27.711  1.00  0.00    -0.354 N 
ATOM     45  C   UNL A   1      44.401  30.888  28.092  1.00  0.00     0.074 A 
ATOM     46  C   UNL A   1      43.345  31.763  28.552  1.00  0.00     0.031 C 
ATOM     47  C   UNL A   1      41.437  25.193  27.628  1.00  0.00     0.029 A 
ATOM     48  C   UNL A   1      42.852  25.477  27.411  1.00  0.00     0.049 A 
ATOM     49  H   UNL A   1      43.831  27.299  27.654  1.00  0.00     0.167 HD
ATOM     50  C   UNL A   1      45.668  31.294  27.843  1.00  0.00     0.037 A 
ATOM     51  C   UNL A   1      43.774  24.581  27.007  1.00  0.00     0.037 A 
ATOM     52  C   UNL A   1      46.733  30.403  27.473  1.00  0.00     0.049 A 
ATOM     53  C   UNL A   1      45.197  25.034  26.828  1.00  0.00     0.074 A 
ATOM     54  C   UNL A   1      48.072  30.691  27.280  1.00  0.00     0.029 A 
ATOM     55  N   UNL A   1      46.581  29.039  27.269  1.00  0.00    -0.354 N 
ATOM     56  N   UNL A   1      45.699  26.240  26.955  1.00  0.00    -0.248 NA
ATOM     57  C   UNL A   1      46.181  24.007  26.461  1.00  0.00     0.031 C 
ATOM     58  C   UNL A   1      48.728  29.501  26.946  1.00  0.00     0.029 A 
ATOM     59  C   UNL A   1      47.803  28.469  26.960  1.00  0.00     0.049 A 
ATOM     60  H   UNL A   1      45.729  28.548  27.335  1.00  0.00     0.167 HD
ATOM     61  C   UNL A   1      47.061  26.111  26.712  1.00  0.00     0.074 A 
ATOM     62  C   UNL A   1      47.307  24.710  26.437  1.00  0.00     0.031 C 
ATOM     63  C   UNL A   1      48.024  27.067  26.713  1.00  0.00     0.037 A 
BRANCH  50  64
ATOM     64  C   UNL A   1      45.965  32.761  27.994  1.00  0.00     0.058 A 
ATOM     65  C   UNL A   1      46.390  33.303  29.218  1.00  0.00     0.135 A 
ATOM     66  C   UNL A   1      45.817  33.636  26.906  1.00  0.00     0.135 A 
ATOM     67  F   UNL A   1      46.530  32.514  30.294  1.00  0.00    -0.206 F 
ATOM     68  C   UNL A   1      46.612  34.667  29.371  1.00  0.00     0.059 A 
ATOM     69  C   UNL A   1      46.064  35.001  27.029  1.00  0.00     0.059 A 
ATOM     70  F   UNL A   1      45.415  33.172  25.713  1.00  0.00    -0.206 F 
ATOM     71  C   UNL A   1      46.439  35.509  28.272  1.00  0.00     0.060 A 
BRANCH  71  72
ATOM     72  S   UNL A   1      46.716  37.280  28.489  1.00  0.00     0.124 S 
ATOM     73  O   UNL A   1      48.111  37.304  28.918  1.00  0.00    -0.237 OA
ATOM     74  O   UNL A   1      46.457  37.806  27.153  1.00  0.00    -0.237 OA
ATOM     75  O   UNL A   1      45.738  37.652  29.506  1.00  0.00    -0.744 OA
ENDBRANCH  71  72
ENDBRANCH  50  64
BRANCH  51  76
ATOM     76  C   UNL A   1      43.392  23.159  26.797  1.00  0.00     0.058 A 
ATOM     77  C   UNL A   1      43.332  22.620  25.503  1.00  0.00     0.135 A 
ATOM     78  C   UNL A   1      43.099  22.309  27.873  1.00  0.00     0.135 A 
ATOM     79  F   UNL A   1      43.600  23.395  24.441  1.00  0.00    -0.206 F 
ATOM     80  C   UNL A   1      42.979  21.293  25.280  1.00  0.00     0.059 A 
ATOM     81  C   UNL A   1      42.763  20.972  27.677  1.00  0.00     0.059 A 
ATOM     82  F   UNL A   1      43.162  22.770  29.132  1.00  0.00    -0.206 F 
ATOM     83  C   UNL A   1      42.696  20.476  26.375  1.00  0.00     0.060 A 
BRANCH  83  84
ATOM     84  S   UNL A   1      42.288  18.740  26.080  1.00  0.00     0.124 S 
ATOM     85  O   UNL A   1      42.592  18.142  27.374  1.00  0.00    -0.237 OA
ATOM     86  O   UNL A   1      40.873  18.813  25.727  1.00  0.00    -0.237 OA
ATOM     87  O   UNL A   1      43.180  18.369  24.985  1.00  0.00    -0.744 OA
ENDBRANCH  83  84
ENDBRANCH  51  76
BRANCH  63  88
ATOM     88  C   UNL A   1      49.435  26.624  26.458  1.00  0.00     0.058 A 
ATOM     89  C   UNL A   1      50.216  26.042  27.467  1.00  0.00     0.135 A 
ATOM     90  C   UNL A   1      49.986  26.728  25.172  1.00  0.00     0.135 A 
ATOM     91  F   UNL A   1      49.733  25.927  28.714  1.00  0.00    -0.206 F 
ATOM     92  C   UNL A   1      51.506  25.591  27.213  1.00  0.00     0.059 A 
ATOM     93  C   UNL A   1      51.266  26.263  24.890  1.00  0.00     0.059 A 
ATOM     94  F   UNL A   1      49.273  27.269  24.171  1.00  0.00    -0.206 F 
ATOM     95  C   UNL A   1      52.022  25.705  25.919  1.00  0.00     0.060 A 
BRANCH  95  96
ATOM     96  S   UNL A   1      53.682  25.077  25.590  1.00  0.00     0.124 S 
ATOM     97  O   UNL A   1      54.383  25.441  26.817  1.00  0.00    -0.237 OA
ATOM     98  O   UNL A   1      53.446  23.650  25.394  1.00  0.00    -0.237 OA
ATOM     99  O   UNL A   1      54.088  25.808  24.392  1.00  0.00    -0.744 OA
ENDBRANCH  95  96
ENDBRANCH  63  88
ENDBRANCH  37  38
ENDBRANCH  29  32
ENDBRANCH  27  28
ENDBRANCH   1  27
TORSDOF 15
ENDMDL
MODEL 2
REMARK VINA RESULT:     -12.8      2.597      3.616
REMARK SMILES CC1(C)CCCC[C@H]1NC(=O)Nc1ccccc1C(=O)NCCCNC(=O)c1ccc(-c2c3nc(c(-c4c(F)cc(S(=O)(=O)[O-])cc4F)c4ccc([nH]4)c(-c4c(F)cc(S(=O)(=O)[O-])cc4F)c4nc(c(-c5c(F)cc(S(=O)(=O)[O-])cc5F)c5ccc2[nH]5)C=C4)C=C3)cc1
REMARK SMILES IDX 23 1 22 2 21 3 19 4 20 5 18 7 13 8 14 9 15 10 17 11 16 12
REMARK SMILES IDX 12 13 9 14 10 15 11 17 8 19 1 20 2 21 3 22 4 23 5 24 7 25
REMARK SMILES IDX 6 26 24 27 25 28 26 29 27 31 28 32 29 33 93 34 30 35 92 36
REMARK SMILES IDX 31 37 32 38 33 39 86 40 34 41 91 42 85 43 87 44 35 45 90 46
REMARK SMILES IDX 84 47 83 48 36 50 70 51 49 52 69 53 50 54 53 55 68 56 88 57
REMARK SMILES IDX 51 58 52 59 67 61 89 62 54 63 37 64 38 65 47 66 39 67 40 68
REMARK SMILES IDX 46 69 48 70 41 71 42 72 43 73 44 74 45 75 71 76 72 77 81 78
REMARK SMILES IDX 73 79 74 80 80 81 82 82 75 83 76 84 77 85 78 86 79 87 55 88
REMARK SMILES IDX 56 89 65 90 57 91 58 92 64 93 66 94 59 95 60 96 61 97 62 98
REMARK SMILES IDX 63 99
REMARK H PARENT 21 6 9 16 12 18 25 30 87 49 53 60
REMARK Flexibility Score: inf
ROOT
ATOM      1  C   UNL A   1      31.964  28.123  27.627  1.00  0.00     0.042 C 
ENDROOT
BRANCH   1   2
ATOM      2  C   UNL A   1      31.278  27.485  26.439  1.00  0.00     0.118 C 
BRANCH   2   3
ATOM      3  N   UNL A   1      31.275  26.040  26.459  1.00  0.00    -0.352 N 
ATOM      4  C   UNL A   1      31.691  25.137  25.519  1.00  0.00     0.253 C 
ATOM      5  O   UNL A   1      31.597  23.942  25.818  1.00  0.00    -0.269 OA
ATOM      6  H   UNL A   1      30.916  25.640  27.284  1.00  0.00     0.163 HD
BRANCH   4   7
ATOM      7  C   UNL A   1      32.139  25.491  24.138  1.00  0.00     0.063 A 
ATOM      8  C   UNL A   1      32.254  24.681  22.991  1.00  0.00     0.055 A 
ATOM      9  C   UNL A   1      32.897  25.217  21.852  1.00  0.00     0.027 A 
ATOM     10  C   UNL A   1      33.275  26.557  21.779  1.00  0.00     0.002 A 
ATOM     11  C   UNL A   1      32.510  26.856  24.029  1.00  0.00     0.016 A 
ATOM     12  C   UNL A   1      33.048  27.391  22.860  1.00  0.00     0.001 A 
BRANCH   8  13
ATOM     13  N   UNL A   1      31.770  23.375  22.768  1.00  0.00    -0.307 N 
ATOM     14  N   UNL A   1      33.532  21.842  23.181  1.00  0.00    -0.335 N 
ATOM     15  C   UNL A   1      32.326  22.150  22.677  1.00  0.00     0.319 C 
ATOM     16  H   UNL A   1      34.008  21.106  22.732  1.00  0.00     0.165 HD
ATOM     17  O   UNL A   1      31.671  21.248  22.146  1.00  0.00    -0.248 OA
ATOM     18  H   UNL A   1      30.793  23.352  22.652  1.00  0.00     0.171 HD
BRANCH  14  19
ATOM     19  C   UNL A   1      34.226  22.449  24.299  1.00  0.00     0.089 C 
ATOM     20  C   UNL A   1      35.629  20.393  24.974  1.00  0.00     0.013 C 
ATOM     21  C   UNL A   1      34.590  21.439  25.428  1.00  0.00    -0.015 C 
ATOM     22  C   UNL A   1      33.342  20.672  25.912  1.00  0.00     0.013 C 
ATOM     23  C   UNL A   1      35.144  22.279  26.609  1.00  0.00     0.008 C 
ATOM     24  C   UNL A   1      36.281  23.233  26.219  1.00  0.00     0.001 C 
ATOM     25  C   UNL A   1      35.457  23.224  23.828  1.00  0.00     0.025 C 
ATOM     26  C   UNL A   1      35.979  24.075  24.979  1.00  0.00     0.002 C 
ENDBRANCH  14  19
ENDBRANCH   8  13
ENDBRANCH   4   7
ENDBRANCH   2   3
ENDBRANCH   1   2
BRANCH   1  27
ATOM     27  C   UNL A   1      33.265  28.826  27.256  1.00  0.00     0.118 C 
BRANCH  27  28
ATOM     28  N   UNL A   1      33.407  30.179  27.802  1.00  0.00    -0.352 N 
ATOM     29  C   UNL A   1      34.499  30.831  28.338  1.00  0.00     0.251 C 
ATOM     30  H   UNL A   1      32.580  30.714  27.786  1.00  0.00     0.163 HD
ATOM     31  O   UNL A   1      34.390  31.965  28.784  1.00  0.00    -0.269 OA
BRANCH  29  32
ATOM     32  C   UNL A   1      35.795  30.128  28.425  1.00  0.00     0.039 A 
ATOM     33  C   UNL A   1      36.640  30.111  27.314  1.00  0.00     0.014 A 
ATOM     34  C   UNL A   1      36.209  29.566  29.628  1.00  0.00     0.014 A 
ATOM     35  C   UNL A   1      37.953  29.654  27.456  1.00  0.00     0.010 A 
ATOM     36  C   UNL A   1      37.547  29.251  29.804  1.00  0.00     0.010 A 
ATOM     37  C   UNL A   1      38.440  29.292  28.722  1.00  0.00    -0.014 A 
BRANCH  37  38
ATOM     38  C   UNL A   1      39.865  28.942  28.958  1.00  0.00     0.031 A 
ATOM     39  C   UNL A   1      40.804  29.990  29.499  1.00  0.00     0.074 A 
ATOM     40  C   UNL A   1      40.341  27.737  28.583  1.00  0.00     0.049 A 
ATOM     41  N   UNL A   1      42.108  29.963  29.599  1.00  0.00    -0.248 NA
ATOM     42  C   UNL A   1      40.199  31.264  29.925  1.00  0.00     0.031 C 
ATOM     43  C   UNL A   1      39.556  26.659  27.973  1.00  0.00     0.029 A 
ATOM     44  N   UNL A   1      41.611  27.218  28.645  1.00  0.00    -0.354 N 
ATOM     45  C   UNL A   1      42.476  31.228  30.041  1.00  0.00     0.074 A 
ATOM     46  C   UNL A   1      41.268  32.017  30.129  1.00  0.00     0.031 C 
ATOM     47  C   UNL A   1      40.351  25.599  27.756  1.00  0.00     0.029 A 
ATOM     48  C   UNL A   1      41.710  25.932  28.167  1.00  0.00     0.049 A 
ATOM     49  H   UNL A   1      42.380  27.721  28.997  1.00  0.00     0.167 HD
ATOM     50  C   UNL A   1      43.705  31.685  30.378  1.00  0.00     0.037 A 
ATOM     51  C   UNL A   1      42.776  25.114  28.073  1.00  0.00     0.037 A 
ATOM     52  C   UNL A   1      44.888  30.868  30.374  1.00  0.00     0.049 A 
ATOM     53  C   UNL A   1      44.116  25.610  28.544  1.00  0.00     0.074 A 
ATOM     54  C   UNL A   1      46.168  31.202  30.778  1.00  0.00     0.029 A 
ATOM     55  N   UNL A   1      44.926  29.542  29.970  1.00  0.00    -0.354 N 
ATOM     56  N   UNL A   1      44.441  26.796  29.003  1.00  0.00    -0.248 NA
ATOM     57  C   UNL A   1      45.234  24.657  28.493  1.00  0.00     0.031 C 
ATOM     58  C   UNL A   1      46.984  30.078  30.605  1.00  0.00     0.029 A 
ATOM     59  C   UNL A   1      46.206  29.039  30.122  1.00  0.00     0.049 A 
ATOM     60  H   UNL A   1      44.156  29.033  29.625  1.00  0.00     0.167 HD
ATOM     61  C   UNL A   1      45.791  26.723  29.322  1.00  0.00     0.074 A 
ATOM     62  C   UNL A   1      46.222  25.375  29.011  1.00  0.00     0.031 C 
ATOM     63  C   UNL A   1      46.603  27.685  29.826  1.00  0.00     0.037 A 
BRANCH  50  64
ATOM     64  C   UNL A   1      43.815  33.123  30.806  1.00  0.00     0.058 A 
ATOM     65  C   UNL A   1      44.080  34.147  29.882  1.00  0.00     0.135 A 
ATOM     66  C   UNL A   1      43.660  33.481  32.155  1.00  0.00     0.135 A 
ATOM     67  F   UNL A   1      44.255  33.857  28.583  1.00  0.00    -0.206 F 
ATOM     68  C   UNL A   1      44.236  35.468  30.286  1.00  0.00     0.059 A 
ATOM     69  C   UNL A   1      43.781  34.802  32.577  1.00  0.00     0.059 A 
ATOM     70  F   UNL A   1      43.404  32.543  33.080  1.00  0.00    -0.206 F 
ATOM     71  C   UNL A   1      44.091  35.785  31.638  1.00  0.00     0.060 A 
BRANCH  71  72
ATOM     72  S   UNL A   1      44.311  37.502  32.150  1.00  0.00     0.124 S 
ATOM     73  O   UNL A   1      43.826  38.219  30.975  1.00  0.00    -0.237 OA
ATOM     74  O   UNL A   1      43.465  37.588  33.336  1.00  0.00    -0.237 OA
ATOM     75  O   UNL A   1      45.744  37.600  32.400  1.00  0.00    -0.744 OA
ENDBRANCH  71  72
ENDBRANCH  50  64
BRANCH  51  76
ATOM     76  C   UNL A   1      42.610  23.727  27.564  1.00  0.00     0.058 A 
ATOM     77  C   UNL A   1      42.411  22.660  28.452  1.00  0.00     0.135 A 
ATOM     78  C   UNL A   1      42.630  23.440  26.191  1.00  0.00     0.135 A 
ATOM     79  F   UNL A   1      42.389  22.884  29.775  1.00  0.00    -0.206 F 
ATOM     80  C   UNL A   1      42.252  21.353  28.001  1.00  0.00     0.059 A 
ATOM     81  C   UNL A   1      42.453  22.143  25.714  1.00  0.00     0.059 A 
ATOM     82  F   UNL A   1      42.797  24.428  25.299  1.00  0.00    -0.206 F 
ATOM     83  C   UNL A   1      42.275  21.105  26.628  1.00  0.00     0.060 A 
BRANCH  83  84
ATOM     84  S   UNL A   1      42.018  19.412  26.049  1.00  0.00     0.124 S 
ATOM     85  O   UNL A   1      42.366  18.640  27.236  1.00  0.00    -0.237 OA
ATOM     86  O   UNL A   1      40.604  19.422  25.685  1.00  0.00    -0.237 OA
ATOM     87  O   UNL A   1      42.944  19.300  24.926  1.00  0.00    -0.744 OA
ENDBRANCH  83  84
ENDBRANCH  51  76
BRANCH  63  88
ATOM     88  C   UNL A   1      48.025  27.304  30.118  1.00  0.00     0.058 A 
ATOM     89  C   UNL A   1      49.051  27.527  29.189  1.00  0.00     0.135 A 
ATOM     90  C   UNL A   1      48.370  26.769  31.369  1.00  0.00     0.135 A 
ATOM     91  F   UNL A   1      48.768  28.032  27.977  1.00  0.00    -0.206 F 
ATOM     92  C   UNL A   1      50.374  27.216  29.483  1.00  0.00     0.059 A 
ATOM     93  C   UNL A   1      49.689  26.471  31.693  1.00  0.00     0.059 A 
ATOM     94  F   UNL A   1      47.423  26.547  32.295  1.00  0.00    -0.206 F 
ATOM     95  C   UNL A   1      50.682  26.689  30.740  1.00  0.00     0.060 A 
BRANCH  95  96
ATOM     96  S   UNL A   1      52.408  26.329  31.128  1.00  0.00     0.124 S 
ATOM     97  O   UNL A   1      52.770  27.478  31.953  1.00  0.00    -0.237 OA
ATOM     98  O   UNL A   1      52.314  25.052  31.827  1.00  0.00    -0.237 OA
ATOM     99  O   UNL A   1      53.045  26.272  29.815  1.00  0.00    -0.744 OA
ENDBRANCH  95  96
ENDBRANCH  63  88
ENDBRANCH  37  38
ENDBRANCH  29  32
ENDBRANCH  27  28
ENDBRANCH   1  27
TORSDOF 15
ENDMDL
MODEL 3
REMARK VINA RESULT:     -12.8      6.590     12.142
REMARK SMILES CC1(C)CCCC[C@H]1NC(=O)Nc1ccccc1C(=O)NCCCNC(=O)c1ccc(-c2c3nc(c(-c4c(F)cc(S(=O)(=O)[O-])cc4F)c4ccc([nH]4)c(-c4c(F)cc(S(=O)(=O)[O-])cc4F)c4nc(c(-c5c(F)cc(S(=O)(=O)[O-])cc5F)c5ccc2[nH]5)C=C4)C=C3)cc1
REMARK SMILES IDX 23 1 22 2 21 3 19 4 20 5 18 7 13 8 14 9 15 10 17 11 16 12
REMARK SMILES IDX 12 13 9 14 10 15 11 17 8 19 1 20 2 21 3 22 4 23 5 24 7 25
REMARK SMILES IDX 6 26 24 27 25 28 26 29 27 31 28 32 29 33 93 34 30 35 92 36
REMARK SMILES IDX 31 37 32 38 33 39 86 40 34 41 91 42 85 43 87 44 35 45 90 46
REMARK SMILES IDX 84 47 83 48 36 50 70 51 49 52 69 53 50 54 53 55 68 56 88 57
REMARK SMILES IDX 51 58 52 59 67 61 89 62 54 63 37 64 38 65 47 66 39 67 40 68
REMARK SMILES IDX 46 69 48 70 41 71 42 72 43 73 44 74 45 75 71 76 72 77 81 78
REMARK SMILES IDX 73 79 74 80 80 81 82 82 75 83 76 84 77 85 78 86 79 87 55 88
REMARK SMILES IDX 56 89 65 90 57 91 58 92 64 93 66 94 59 95 60 96 61 97 62 98
REMARK SMILES IDX 63 99
REMARK H PARENT 21 6 9 16 12 18 25 30 87 49 53 60
REMARK Flexibility Score: inf
ROOT
ATOM      1  C   UNL A   1      37.969  22.812  25.751  1.00  0.00     0.042 C 
ENDROOT
BRANCH   1   2
ATOM      2  C   UNL A   1      36.862  23.147  24.775  1.00  0.00     0.118 C 
BRANCH   2   3
ATOM      3  N   UNL A   1      35.807  23.964  25.330  1.00  0.00    -0.352 N 
ATOM      4  C   UNL A   1      34.447  23.845  25.237  1.00  0.00     0.253 C 
ATOM      5  O   UNL A   1      33.774  24.683  25.844  1.00  0.00    -0.269 OA
ATOM      6  H   UNL A   1      36.118  24.733  25.861  1.00  0.00     0.163 HD
BRANCH   4   7
ATOM      7  C   UNL A   1      33.737  22.852  24.374  1.00  0.00     0.063 A 
ATOM      8  C   UNL A   1      33.272  22.975  23.051  1.00  0.00     0.055 A 
ATOM      9  C   UNL A   1      32.449  21.952  22.529  1.00  0.00     0.027 A 
ATOM     10  C   UNL A   1      32.216  20.766  23.224  1.00  0.00     0.002 A 
ATOM     11  C   UNL A   1      33.505  21.626  25.049  1.00  0.00     0.016 A 
ATOM     12  C   UNL A   1      32.776  20.585  24.476  1.00  0.00     0.001 A 
BRANCH   8  13
ATOM     13  N   UNL A   1      33.543  23.982  22.100  1.00  0.00    -0.307 N 
ATOM     14  N   UNL A   1      31.821  25.609  22.218  1.00  0.00    -0.335 N 
ATOM     15  C   UNL A   1      32.865  25.034  21.598  1.00  0.00     0.319 C 
ATOM     16  H   UNL A   1      31.169  26.055  21.631  1.00  0.00     0.165 HD
ATOM     17  O   UNL A   1      33.254  25.528  20.536  1.00  0.00    -0.248 OA
ATOM     18  H   UNL A   1      34.443  23.896  21.709  1.00  0.00     0.171 HD
BRANCH  14  19
ATOM     19  C   UNL A   1      31.528  25.658  23.636  1.00  0.00     0.089 C 
ATOM     20  C   UNL A   1      29.876  27.637  23.563  1.00  0.00     0.013 C 
ATOM     21  C   UNL A   1      31.192  27.089  24.152  1.00  0.00    -0.015 C 
ATOM     22  C   UNL A   1      32.311  28.089  23.791  1.00  0.00     0.013 C 
ATOM     23  C   UNL A   1      31.097  26.990  25.697  1.00  0.00     0.008 C 
ATOM     24  C   UNL A   1      30.144  25.895  26.196  1.00  0.00     0.001 C 
ATOM     25  C   UNL A   1      30.429  24.661  24.007  1.00  0.00     0.025 C 
ATOM     26  C   UNL A   1      30.361  24.539  25.524  1.00  0.00     0.002 C 
ENDBRANCH  14  19
ENDBRANCH   8  13
ENDBRANCH   4   7
ENDBRANCH   2   3
ENDBRANCH   1   2
BRANCH   1  27
ATOM     27  C   UNL A   1      38.750  24.039  26.209  1.00  0.00     0.118 C 
BRANCH  27  28
ATOM     28  N   UNL A   1      40.205  23.863  26.235  1.00  0.00    -0.352 N 
ATOM     29  C   UNL A   1      41.194  24.582  26.875  1.00  0.00     0.251 C 
ATOM     30  H   UNL A   1      40.533  23.101  25.704  1.00  0.00     0.163 HD
ATOM     31  O   UNL A   1      42.372  24.287  26.728  1.00  0.00    -0.269 OA
BRANCH  29  32
ATOM     32  C   UNL A   1      40.826  25.755  27.695  1.00  0.00     0.039 A 
ATOM     33  C   UNL A   1      39.764  25.654  28.596  1.00  0.00     0.014 A 
ATOM     34  C   UNL A   1      41.586  26.918  27.636  1.00  0.00     0.014 A 
ATOM     35  C   UNL A   1      39.558  26.671  29.532  1.00  0.00     0.010 A 
ATOM     36  C   UNL A   1      41.474  27.853  28.653  1.00  0.00     0.010 A 
ATOM     37  C   UNL A   1      40.459  27.743  29.617  1.00  0.00    -0.014 A 
BRANCH  37  38
ATOM     38  C   UNL A   1      40.376  28.772  30.687  1.00  0.00     0.031 A 
ATOM     39  C   UNL A   1      41.269  28.657  31.895  1.00  0.00     0.074 A 
ATOM     40  C   UNL A   1      39.430  29.732  30.634  1.00  0.00     0.049 A 
ATOM     41  N   UNL A   1      41.232  29.322  33.020  1.00  0.00    -0.248 NA
ATOM     42  C   UNL A   1      42.304  27.608  31.856  1.00  0.00     0.031 C 
ATOM     43  C   UNL A   1      38.449  29.909  29.560  1.00  0.00     0.029 A 
ATOM     44  N   UNL A   1      39.127  30.737  31.519  1.00  0.00    -0.354 N 
ATOM     45  C   UNL A   1      42.193  28.734  33.836  1.00  0.00     0.074 A 
ATOM     46  C   UNL A   1      42.751  27.621  33.101  1.00  0.00     0.031 C 
ATOM     47  C   UNL A   1      37.683  30.978  29.829  1.00  0.00     0.029 A 
ATOM     48  C   UNL A   1      38.085  31.539  31.114  1.00  0.00     0.049 A 
ATOM     49  H   UNL A   1      39.610  30.871  32.366  1.00  0.00     0.167 HD
ATOM     50  C   UNL A   1      42.601  29.107  35.072  1.00  0.00     0.037 A 
ATOM     51  C   UNL A   1      37.520  32.606  31.711  1.00  0.00     0.037 A 
ATOM     52  C   UNL A   1      42.105  30.268  35.758  1.00  0.00     0.049 A 
ATOM     53  C   UNL A   1      38.053  33.062  33.042  1.00  0.00     0.074 A 
ATOM     54  C   UNL A   1      42.507  30.789  36.975  1.00  0.00     0.029 A 
ATOM     55  N   UNL A   1      41.113  31.106  35.269  1.00  0.00    -0.354 N 
ATOM     56  N   UNL A   1      38.994  32.522  33.780  1.00  0.00    -0.248 NA
ATOM     57  C   UNL A   1      37.456  34.275  33.618  1.00  0.00     0.031 C 
ATOM     58  C   UNL A   1      41.748  31.937  37.228  1.00  0.00     0.029 A 
ATOM     59  C   UNL A   1      40.894  32.146  36.156  1.00  0.00     0.049 A 
ATOM     60  H   UNL A   1      40.634  30.980  34.418  1.00  0.00     0.167 HD
ATOM     61  C   UNL A   1      39.122  33.344  34.893  1.00  0.00     0.074 A 
ATOM     62  C   UNL A   1      38.168  34.422  34.728  1.00  0.00     0.031 C 
ATOM     63  C   UNL A   1      39.953  33.219  35.957  1.00  0.00     0.037 A 
BRANCH  50  64
ATOM     64  C   UNL A   1      43.654  28.263  35.736  1.00  0.00     0.058 A 
ATOM     65  C   UNL A   1      43.315  27.216  36.607  1.00  0.00     0.135 A 
ATOM     66  C   UNL A   1      45.017  28.508  35.505  1.00  0.00     0.135 A 
ATOM     67  F   UNL A   1      42.027  26.950  36.877  1.00  0.00    -0.206 F 
ATOM     68  C   UNL A   1      44.289  26.472  37.264  1.00  0.00     0.059 A 
ATOM     69  C   UNL A   1      46.009  27.756  36.127  1.00  0.00     0.059 A 
ATOM     70  F   UNL A   1      45.397  29.497  34.680  1.00  0.00    -0.206 F 
ATOM     71  C   UNL A   1      45.634  26.754  37.022  1.00  0.00     0.060 A 
BRANCH  71  72
ATOM     72  S   UNL A   1      46.888  25.790  37.892  1.00  0.00     0.124 S 
ATOM     73  O   UNL A   1      47.697  25.299  36.781  1.00  0.00    -0.237 OA
ATOM     74  O   UNL A   1      47.523  26.792  38.742  1.00  0.00    -0.237 OA
ATOM     75  O   UNL A   1      46.109  24.779  38.598  1.00  0.00    -0.744 OA
ENDBRANCH  71  72
ENDBRANCH  50  64
BRANCH  51  76
ATOM     76  C   UNL A   1      36.424  33.348  31.032  1.00  0.00     0.058 A 
ATOM     77  C   UNL A   1      35.113  33.296  31.529  1.00  0.00     0.135 A 
ATOM     78  C   UNL A   1      36.661  34.132  29.894  1.00  0.00     0.135 A 
ATOM     79  F   UNL A   1      34.836  32.556  32.613  1.00  0.00    -0.206 F 
ATOM     80  C   UNL A   1      34.071  33.982  30.912  1.00  0.00     0.059 A 
ATOM     81  C   UNL A   1      35.638  34.844  29.271  1.00  0.00     0.059 A 
ATOM     82  F   UNL A   1      37.901  34.231  29.391  1.00  0.00    -0.206 F 
ATOM     83  C   UNL A   1      34.344  34.754  29.783  1.00  0.00     0.060 A 
BRANCH  83  84
ATOM     84  S   UNL A   1      32.994  35.682  29.019  1.00  0.00     0.124 S 
ATOM     85  O   UNL A   1      33.720  36.747  28.336  1.00  0.00    -0.237 OA
ATOM     86  O   UNL A   1      32.378  34.676  28.160  1.00  0.00    -0.237 OA
ATOM     87  O   UNL A   1      32.186  36.097  30.162  1.00  0.00    -0.744 OA
ENDBRANCH  83  84
ENDBRANCH  51  76
BRANCH  63  88
ATOM     88  C   UNL A   1      39.904  34.296  37.001  1.00  0.00     0.058 A 
ATOM     89  C   UNL A   1      40.589  35.509  36.837  1.00  0.00     0.135 A 
ATOM     90  C   UNL A   1      39.111  34.134  38.147  1.00  0.00     0.135 A 
ATOM     91  F   UNL A   1      41.364  35.708  35.760  1.00  0.00    -0.206 F 
ATOM     92  C   UNL A   1      40.501  36.522  37.786  1.00  0.00     0.059 A 
ATOM     93  C   UNL A   1      38.991  35.142  39.097  1.00  0.00     0.059 A 
ATOM     94  F   UNL A   1      38.429  32.993  38.342  1.00  0.00    -0.206 F 
ATOM     95  C   UNL A   1      39.698  36.329  38.912  1.00  0.00     0.060 A 
BRANCH  95  96
ATOM     96  S   UNL A   1      39.557  37.666  40.116  1.00  0.00     0.124 S 
ATOM     97  O   UNL A   1      38.572  38.534  39.477  1.00  0.00    -0.237 OA
ATOM     98  O   UNL A   1      39.103  36.966  41.313  1.00  0.00    -0.237 OA
ATOM     99  O   UNL A   1      40.914  38.201  40.187  1.00  0.00    -0.744 OA
ENDBRANCH  95  96
ENDBRANCH  63  88
ENDBRANCH  37  38
ENDBRANCH  29  32
ENDBRANCH  27  28
ENDBRANCH   1  27
TORSDOF 15
ENDMDL
