MODEL 1
REMARK VINA RESULT:      -9.6      0.000      0.000
REMARK SMILES CC(C)C[N@H+](CC[NH+](C)C)[C@@H]1CCC[C@]([NH3+])(C(=O)NCCCNC(=O)c2ccc(-c3c4nc(c(-c5c(F)cc(S(=O)(=O)[O-])cc5F)c5ccc([nH]5)c(-c5c(F)cc(S(=O)(=O)[O-])cc5F)c5nc(c(-c6c(F)cc(S(=O)(=O)[O-])cc6F)c6ccc3[nH]6)C=C5)C=C4)cc2)C1
REMARK SMILES IDX 20 1 19 2 17 3 18 4 15 6 11 7 12 8 92 9 13 10 14 11 5 12
REMARK SMILES IDX 4 14 2 15 1 16 3 17 6 18 7 19 8 20 9 21 10 22 16 24 21 28
REMARK SMILES IDX 22 29 23 30 24 31 25 33 26 34 27 35 91 36 28 37 90 38 29 39
REMARK SMILES IDX 30 40 31 41 84 42 32 43 89 44 83 45 85 46 33 47 88 48 82 49
REMARK SMILES IDX 81 50 34 52 68 53 47 54 67 55 48 56 51 57 66 58 86 59 49 60
REMARK SMILES IDX 50 61 65 63 87 64 52 65 35 66 36 67 45 68 37 69 38 70 44 71
REMARK SMILES IDX 46 72 39 73 40 74 41 75 42 76 43 77 69 78 70 79 79 80 71 81
REMARK SMILES IDX 72 82 78 83 80 84 73 85 74 86 75 87 76 88 77 89 53 90 54 91
REMARK SMILES IDX 63 92 55 93 56 94 62 95 64 96 57 97 58 98 59 99 60 100
REMARK SMILES IDX 61 101
REMARK H PARENT 19 5 5 13 8 23 16 25 16 26 16 27 23 32 85 51 51 62
REMARK Flexibility Score: inf
ROOT
ATOM      1  C   UNL A   1      46.438  22.353  38.551  1.00  0.00     0.118 C 
ENDROOT
BRANCH   1   2
ATOM      2  N   UNL A   1      47.115  21.415  39.430  1.00  0.00    -0.351 N 
ATOM      3  C   UNL A   1      46.404  20.422  40.054  1.00  0.00     0.281 C 
ATOM      4  O   UNL A   1      45.536  20.713  40.880  1.00  0.00    -0.268 OA
ATOM      5  H   UNL A   1      48.084  21.492  39.578  1.00  0.00     0.163 HD
BRANCH   3   6
ATOM      6  C   UNL A   1      46.640  18.931  39.593  1.00  0.00     0.179 C 
ATOM      7  C   UNL A   1      45.691  17.105  41.334  1.00  0.00     0.191 C 
ATOM      8  C   UNL A   1      47.168  16.891  41.752  1.00  0.00     0.065 C 
ATOM      9  C   UNL A   1      45.566  17.869  39.979  1.00  0.00     0.144 C 
ATOM     10  C   UNL A   1      48.136  18.017  41.419  1.00  0.00     0.013 C 
ATOM     11  C   UNL A   1      48.041  18.435  39.953  1.00  0.00     0.079 C 
BRANCH   7  12
ATOM     12  N   UNL A   1      44.781  17.399  42.484  1.00  0.00    -0.327 N 
ATOM     13  H   UNL A   1      44.482  18.340  42.227  1.00  0.00     0.348 HD
BRANCH  12  14
ATOM     14  C   UNL A   1      45.464  17.380  43.783  1.00  0.00     0.265 C 
BRANCH  14  15
ATOM     15  C   UNL A   1      44.740  17.369  45.142  1.00  0.00     0.038 C 
ATOM     16  C   UNL A   1      45.269  16.297  46.092  1.00  0.00     0.013 C 
ATOM     17  C   UNL A   1      44.997  18.756  45.773  1.00  0.00     0.013 C 
ENDBRANCH  14  15
ENDBRANCH  12  14
BRANCH  12  18
ATOM     18  C   UNL A   1      43.542  16.593  42.618  1.00  0.00     0.324 C 
BRANCH  18  19
ATOM     19  C   UNL A   1      43.580  15.038  42.822  1.00  0.00     0.323 C 
BRANCH  19  20
ATOM     20  N   UNL A   1      42.596  13.959  42.564  1.00  0.00    -0.335 N 
ATOM     21  C   UNL A   1      41.579  14.044  43.643  1.00  0.00     0.332 C 
ATOM     22  C   UNL A   1      41.856  13.939  41.313  1.00  0.00     0.332 C 
ATOM     23  H   UNL A   1      43.174  13.120  42.521  1.00  0.00     0.347 HD
ENDBRANCH  19  20
ENDBRANCH  18  19
ENDBRANCH  12  18
ENDBRANCH   7  12
BRANCH   6  24
ATOM     24  N   UNL A   1      46.567  19.029  38.096  1.00  0.00    -0.345 N 
ATOM     25  H   UNL A   1      46.505  18.093  37.695  1.00  0.00     0.345 HD
ATOM     26  H   UNL A   1      47.404  19.495  37.744  1.00  0.00     0.345 HD
ATOM     27  H   UNL A   1      45.742  19.568  37.830  1.00  0.00     0.345 HD
ENDBRANCH   6  24
ENDBRANCH   3   6
ENDBRANCH   1   2
BRANCH   1  28
ATOM     28  C   UNL A   1      47.373  23.172  37.668  1.00  0.00     0.042 C 
BRANCH  28  29
ATOM     29  C   UNL A   1      46.795  24.528  37.287  1.00  0.00     0.118 C 
BRANCH  29  30
ATOM     30  N   UNL A   1      47.437  25.611  38.026  1.00  0.00    -0.352 N 
ATOM     31  C   UNL A   1      47.296  26.966  37.857  1.00  0.00     0.251 C 
ATOM     32  H   UNL A   1      48.053  25.334  38.741  1.00  0.00     0.163 HD
ATOM     33  O   UNL A   1      48.138  27.736  38.325  1.00  0.00    -0.269 OA
BRANCH  31  34
ATOM     34  C   UNL A   1      46.142  27.491  37.102  1.00  0.00     0.039 A 
ATOM     35  C   UNL A   1      44.846  27.107  37.453  1.00  0.00     0.014 A 
ATOM     36  C   UNL A   1      46.353  28.370  36.038  1.00  0.00     0.014 A 
ATOM     37  C   UNL A   1      43.756  27.664  36.777  1.00  0.00     0.010 A 
ATOM     38  C   UNL A   1      45.269  28.992  35.431  1.00  0.00     0.010 A 
ATOM     39  C   UNL A   1      43.959  28.639  35.786  1.00  0.00    -0.014 A 
BRANCH  39  40
ATOM     40  C   UNL A   1      42.825  29.292  35.082  1.00  0.00     0.031 A 
ATOM     41  C   UNL A   1      42.422  28.809  33.714  1.00  0.00     0.074 A 
ATOM     42  C   UNL A   1      42.220  30.364  35.630  1.00  0.00     0.049 A 
ATOM     43  N   UNL A   1      41.548  29.313  32.881  1.00  0.00    -0.248 NA
ATOM     44  C   UNL A   1      43.119  27.618  33.198  1.00  0.00     0.031 C 
ATOM     45  C   UNL A   1      42.551  30.951  36.930  1.00  0.00     0.029 A 
ATOM     46  N   UNL A   1      41.209  31.162  35.156  1.00  0.00    -0.354 N 
ATOM     47  C   UNL A   1      41.606  28.517  31.743  1.00  0.00     0.074 A 
ATOM     48  C   UNL A   1      42.643  27.535  31.965  1.00  0.00     0.031 C 
ATOM     49  C   UNL A   1      41.746  32.002  37.158  1.00  0.00     0.029 A 
ATOM     50  C   UNL A   1      40.874  32.194  36.002  1.00  0.00     0.049 A 
ATOM     51  H   UNL A   1      40.766  31.011  34.290  1.00  0.00     0.167 HD
ATOM     52  C   UNL A   1      40.844  28.581  30.626  1.00  0.00     0.037 A 
ATOM     53  C   UNL A   1      39.976  33.188  35.859  1.00  0.00     0.037 A 
ATOM     54  C   UNL A   1      39.797  29.547  30.426  1.00  0.00     0.049 A 
ATOM     55  C   UNL A   1      39.152  33.249  34.599  1.00  0.00     0.074 A 
ATOM     56  C   UNL A   1      38.931  29.668  29.353  1.00  0.00     0.029 A 
ATOM     57  N   UNL A   1      39.471  30.559  31.319  1.00  0.00    -0.354 N 
ATOM     58  N   UNL A   1      39.179  32.453  33.557  1.00  0.00    -0.248 NA
ATOM     59  C   UNL A   1      38.172  34.340  34.496  1.00  0.00     0.031 C 
ATOM     60  C   UNL A   1      38.118  30.784  29.573  1.00  0.00     0.029 A 
ATOM     61  C   UNL A   1      38.432  31.321  30.812  1.00  0.00     0.049 A 
ATOM     62  H   UNL A   1      39.915  30.713  32.184  1.00  0.00     0.167 HD
ATOM     63  C   UNL A   1      38.196  32.923  32.693  1.00  0.00     0.074 A 
ATOM     64  C   UNL A   1      37.589  34.070  33.336  1.00  0.00     0.031 C 
ATOM     65  C   UNL A   1      37.826  32.448  31.477  1.00  0.00     0.037 A 
BRANCH  52  66
ATOM     66  C   UNL A   1      41.110  27.574  29.539  1.00  0.00     0.058 A 
ATOM     67  C   UNL A   1      42.264  27.640  28.739  1.00  0.00     0.135 A 
ATOM     68  C   UNL A   1      40.220  26.511  29.313  1.00  0.00     0.135 A 
ATOM     69  F   UNL A   1      43.142  28.642  28.900  1.00  0.00    -0.206 F 
ATOM     70  C   UNL A   1      42.507  26.710  27.733  1.00  0.00     0.059 A 
ATOM     71  C   UNL A   1      40.461  25.551  28.335  1.00  0.00     0.059 A 
ATOM     72  F   UNL A   1      39.102  26.398  30.046  1.00  0.00    -0.206 F 
ATOM     73  C   UNL A   1      41.600  25.668  27.539  1.00  0.00     0.060 A 
BRANCH  73  74
ATOM     74  S   UNL A   1      41.938  24.467  26.235  1.00  0.00     0.124 S 
ATOM     75  O   UNL A   1      43.236  23.945  26.649  1.00  0.00    -0.237 OA
ATOM     76  O   UNL A   1      40.814  23.545  26.363  1.00  0.00    -0.237 OA
ATOM     77  O   UNL A   1      41.946  25.275  25.020  1.00  0.00    -0.744 OA
ENDBRANCH  73  74
ENDBRANCH  52  66
BRANCH  53  78
ATOM     78  C   UNL A   1      39.795  34.195  36.940  1.00  0.00     0.058 A 
ATOM     79  C   UNL A   1      40.425  35.447  36.872  1.00  0.00     0.135 A 
ATOM     80  C   UNL A   1      38.987  33.934  38.057  1.00  0.00     0.135 A 
ATOM     81  F   UNL A   1      41.212  35.745  35.827  1.00  0.00    -0.206 F 
ATOM     82  C   UNL A   1      40.279  36.394  37.881  1.00  0.00     0.059 A 
ATOM     83  C   UNL A   1      38.801  34.875  39.065  1.00  0.00     0.059 A 
ATOM     84  F   UNL A   1      38.346  32.759  38.164  1.00  0.00    -0.206 F 
ATOM     85  C   UNL A   1      39.463  36.099  38.974  1.00  0.00     0.060 A 
BRANCH  85  86
ATOM     86  S   UNL A   1      39.250  37.351  40.257  1.00  0.00     0.124 S 
ATOM     87  O   UNL A   1      38.461  38.359  39.557  1.00  0.00    -0.237 OA
ATOM     88  O   UNL A   1      38.552  36.604  41.299  1.00  0.00    -0.237 OA
ATOM     89  O   UNL A   1      40.619  37.736  40.582  1.00  0.00    -0.744 OA
ENDBRANCH  85  86
ENDBRANCH  53  78
BRANCH  65  90
ATOM     90  C   UNL A   1      36.679  33.125  30.780  1.00  0.00     0.058 A 
ATOM     91  C   UNL A   1      35.352  32.971  31.212  1.00  0.00     0.135 A 
ATOM     92  C   UNL A   1      36.923  34.002  29.710  1.00  0.00     0.135 A 
ATOM     93  F   UNL A   1      35.063  32.139  32.225  1.00  0.00    -0.206 F 
ATOM     94  C   UNL A   1      34.307  33.653  30.599  1.00  0.00     0.059 A 
ATOM     95  C   UNL A   1      35.897  34.717  29.103  1.00  0.00     0.059 A 
ATOM     96  F   UNL A   1      38.174  34.192  29.264  1.00  0.00    -0.206 F 
ATOM     97  C   UNL A   1      34.590  34.529  29.549  1.00  0.00     0.060 A 
BRANCH  97  98
ATOM     98  S   UNL A   1      33.229  35.449  28.801  1.00  0.00     0.124 S 
ATOM     99  O   UNL A   1      32.570  34.412  28.014  1.00  0.00    -0.237 OA
ATOM    100  O   UNL A   1      32.494  35.923  29.968  1.00  0.00    -0.237 OA
ATOM    101  O   UNL A   1      33.904  36.489  28.028  1.00  0.00    -0.744 OA
ENDBRANCH  97  98
ENDBRANCH  65  90
ENDBRANCH  39  40
ENDBRANCH  31  34
ENDBRANCH  29  30
ENDBRANCH  28  29
ENDBRANCH   1  28
TORSDOF 20
ENDMDL
MODEL 2
REMARK VINA RESULT:      -9.5      9.240     19.322
REMARK SMILES CC(C)C[N@H+](CC[NH+](C)C)[C@@H]1CCC[C@]([NH3+])(C(=O)NCCCNC(=O)c2ccc(-c3c4nc(c(-c5c(F)cc(S(=O)(=O)[O-])cc5F)c5ccc([nH]5)c(-c5c(F)cc(S(=O)(=O)[O-])cc5F)c5nc(c(-c6c(F)cc(S(=O)(=O)[O-])cc6F)c6ccc3[nH]6)C=C5)C=C4)cc2)C1
REMARK SMILES IDX 20 1 19 2 17 3 18 4 15 6 11 7 12 8 92 9 13 10 14 11 5 12
REMARK SMILES IDX 4 14 2 15 1 16 3 17 6 18 7 19 8 20 9 21 10 22 16 24 21 28
REMARK SMILES IDX 22 29 23 30 24 31 25 33 26 34 27 35 91 36 28 37 90 38 29 39
REMARK SMILES IDX 30 40 31 41 84 42 32 43 89 44 83 45 85 46 33 47 88 48 82 49
REMARK SMILES IDX 81 50 34 52 68 53 47 54 67 55 48 56 51 57 66 58 86 59 49 60
REMARK SMILES IDX 50 61 65 63 87 64 52 65 35 66 36 67 45 68 37 69 38 70 44 71
REMARK SMILES IDX 46 72 39 73 40 74 41 75 42 76 43 77 69 78 70 79 79 80 71 81
REMARK SMILES IDX 72 82 78 83 80 84 73 85 74 86 75 87 76 88 77 89 53 90 54 91
REMARK SMILES IDX 63 92 55 93 56 94 62 95 64 96 57 97 58 98 59 99 60 100
REMARK SMILES IDX 61 101
REMARK H PARENT 19 5 5 13 8 23 16 25 16 26 16 27 23 32 85 51 51 62
REMARK Flexibility Score: inf
ROOT
ATOM      1  C   UNL A   1      46.873  39.212  26.186  1.00  0.00     0.118 C 
ENDROOT
BRANCH   1   2
ATOM      2  N   UNL A   1      46.926  40.632  25.890  1.00  0.00    -0.351 N 
ATOM      3  C   UNL A   1      46.179  41.148  24.862  1.00  0.00     0.281 C 
ATOM      4  O   UNL A   1      46.409  40.804  23.701  1.00  0.00    -0.268 OA
ATOM      5  H   UNL A   1      47.498  41.225  26.427  1.00  0.00     0.163 HD
BRANCH   3   6
ATOM      6  C   UNL A   1      44.957  42.080  25.221  1.00  0.00     0.179 C 
ATOM      7  C   UNL A   1      44.893  44.367  23.796  1.00  0.00     0.191 C 
ATOM      8  C   UNL A   1      45.410  45.060  25.082  1.00  0.00     0.065 C 
ATOM      9  C   UNL A   1      44.333  42.938  24.079  1.00  0.00     0.144 C 
ATOM     10  C   UNL A   1      46.089  44.163  26.107  1.00  0.00     0.013 C 
ATOM     11  C   UNL A   1      45.237  42.945  26.452  1.00  0.00     0.079 C 
BRANCH   7  12
ATOM     12  N   UNL A   1      45.726  44.655  22.586  1.00  0.00    -0.327 N 
ATOM     13  H   UNL A   1      46.066  43.714  22.387  1.00  0.00     0.348 HD
BRANCH  12  14
ATOM     14  C   UNL A   1      46.826  45.590  22.849  1.00  0.00     0.265 C 
BRANCH  14  15
ATOM     15  C   UNL A   1      48.308  45.283  22.569  1.00  0.00     0.038 C 
ATOM     16  C   UNL A   1      49.260  46.031  23.499  1.00  0.00     0.013 C 
ATOM     17  C   UNL A   1      48.481  43.764  22.803  1.00  0.00     0.013 C 
ENDBRANCH  14  15
ENDBRANCH  12  14
BRANCH  12  18
ATOM     18  C   UNL A   1      45.034  45.113  21.355  1.00  0.00     0.324 C 
BRANCH  18  19
ATOM     19  C   UNL A   1      44.353  44.108  20.362  1.00  0.00     0.323 C 
BRANCH  19  20
ATOM     20  N   UNL A   1      42.939  43.840  20.004  1.00  0.00    -0.335 N 
ATOM     21  C   UNL A   1      42.835  44.002  18.531  1.00  0.00     0.332 C 
ATOM     22  C   UNL A   1      42.347  42.548  20.310  1.00  0.00     0.332 C 
ATOM     23  H   UNL A   1      42.420  44.493  20.591  1.00  0.00     0.347 HD
ENDBRANCH  19  20
ENDBRANCH  18  19
ENDBRANCH  12  18
ENDBRANCH   7  12
BRANCH   6  24
ATOM     24  N   UNL A   1      43.886  41.095  25.595  1.00  0.00    -0.345 N 
ATOM     25  H   UNL A   1      44.154  40.163  25.280  1.00  0.00     0.345 HD
ATOM     26  H   UNL A   1      43.007  41.364  25.153  1.00  0.00     0.345 HD
ATOM     27  H   UNL A   1      43.768  41.090  26.609  1.00  0.00     0.345 HD
ENDBRANCH   6  24
ENDBRANCH   3   6
ENDBRANCH   1   2
BRANCH   1  28
ATOM     28  C   UNL A   1      47.985  38.393  25.539  1.00  0.00     0.042 C 
BRANCH  28  29
ATOM     29  C   UNL A   1      48.688  37.464  26.520  1.00  0.00     0.118 C 
BRANCH  29  30
ATOM     30  N   UNL A   1      48.380  37.813  27.903  1.00  0.00    -0.352 N 
ATOM     31  C   UNL A   1      47.610  37.128  28.810  1.00  0.00     0.251 C 
ATOM     32  H   UNL A   1      48.778  38.651  28.231  1.00  0.00     0.163 HD
ATOM     33  O   UNL A   1      47.181  37.704  29.812  1.00  0.00    -0.269 OA
BRANCH  31  34
ATOM     34  C   UNL A   1      47.289  35.709  28.568  1.00  0.00     0.039 A 
ATOM     35  C   UNL A   1      47.607  34.747  29.530  1.00  0.00     0.014 A 
ATOM     36  C   UNL A   1      46.667  35.333  27.376  1.00  0.00     0.014 A 
ATOM     37  C   UNL A   1      47.235  33.416  29.323  1.00  0.00     0.010 A 
ATOM     38  C   UNL A   1      46.217  34.029  27.213  1.00  0.00     0.010 A 
ATOM     39  C   UNL A   1      46.504  33.053  28.180  1.00  0.00    -0.014 A 
BRANCH  39  40
ATOM     40  C   UNL A   1      46.046  31.659  27.949  1.00  0.00     0.031 A 
ATOM     41  C   UNL A   1      44.650  31.259  28.347  1.00  0.00     0.074 A 
ATOM     42  C   UNL A   1      46.905  30.740  27.464  1.00  0.00     0.049 A 
ATOM     43  N   UNL A   1      44.095  30.074  28.346  1.00  0.00    -0.248 NA
ATOM     44  C   UNL A   1      43.770  32.329  28.847  1.00  0.00     0.031 C 
ATOM     45  C   UNL A   1      48.295  30.997  27.083  1.00  0.00     0.029 A 
ATOM     46  N   UNL A   1      46.741  29.398  27.225  1.00  0.00    -0.354 N 
ATOM     47  C   UNL A   1      42.816  30.254  28.859  1.00  0.00     0.074 A 
ATOM     48  C   UNL A   1      42.697  31.649  29.221  1.00  0.00     0.031 C 
ATOM     49  C   UNL A   1      48.849  29.857  26.639  1.00  0.00     0.029 A 
ATOM     50  C   UNL A   1      47.872  28.778  26.749  1.00  0.00     0.049 A 
ATOM     51  H   UNL A   1      45.891  28.924  27.381  1.00  0.00     0.167 HD
ATOM     52  C   UNL A   1      41.821  29.346  28.991  1.00  0.00     0.037 A 
ATOM     53  C   UNL A   1      48.100  27.484  26.447  1.00  0.00     0.037 A 
ATOM     54  C   UNL A   1      41.942  27.965  28.605  1.00  0.00     0.049 A 
ATOM     55  C   UNL A   1      46.984  26.488  26.618  1.00  0.00     0.074 A 
ATOM     56  C   UNL A   1      40.980  26.972  28.648  1.00  0.00     0.029 A 
ATOM     57  N   UNL A   1      43.097  27.382  28.102  1.00  0.00    -0.354 N 
ATOM     58  N   UNL A   1      45.760  26.686  27.051  1.00  0.00    -0.248 NA
ATOM     59  C   UNL A   1      47.273  25.093  26.257  1.00  0.00     0.031 C 
ATOM     60  C   UNL A   1      41.567  25.777  28.222  1.00  0.00     0.029 A 
ATOM     61  C   UNL A   1      42.877  26.038  27.851  1.00  0.00     0.049 A 
ATOM     62  H   UNL A   1      43.947  27.853  27.947  1.00  0.00     0.167 HD
ATOM     63  C   UNL A   1      45.125  25.451  26.978  1.00  0.00     0.074 A 
ATOM     64  C   UNL A   1      46.097  24.514  26.455  1.00  0.00     0.031 C 
ATOM     65  C   UNL A   1      43.852  25.123  27.310  1.00  0.00     0.037 A 
BRANCH  52  66
ATOM     66  C   UNL A   1      40.514  29.818  29.570  1.00  0.00     0.058 A 
ATOM     67  C   UNL A   1      40.367  30.080  30.942  1.00  0.00     0.135 A 
ATOM     68  C   UNL A   1      39.403  30.043  28.740  1.00  0.00     0.135 A 
ATOM     69  F   UNL A   1      41.390  29.868  31.786  1.00  0.00    -0.206 F 
ATOM     70  C   UNL A   1      39.157  30.514  31.477  1.00  0.00     0.059 A 
ATOM     71  C   UNL A   1      38.194  30.510  29.248  1.00  0.00     0.059 A 
ATOM     72  F   UNL A   1      39.485  29.810  27.422  1.00  0.00    -0.206 F 
ATOM     73  C   UNL A   1      38.077  30.727  30.620  1.00  0.00     0.060 A 
BRANCH  73  74
ATOM     74  S   UNL A   1      36.519  31.299  31.330  1.00  0.00     0.124 S 
ATOM     75  O   UNL A   1      36.228  30.236  32.287  1.00  0.00    -0.237 OA
ATOM     76  O   UNL A   1      36.894  32.586  31.908  1.00  0.00    -0.237 OA
ATOM     77  O   UNL A   1      35.624  31.368  30.180  1.00  0.00    -0.744 OA
ENDBRANCH  73  74
ENDBRANCH  52  66
BRANCH  53  78
ATOM     78  C   UNL A   1      49.432  27.058  25.935  1.00  0.00     0.058 A 
ATOM     79  C   UNL A   1      50.404  26.537  26.802  1.00  0.00     0.135 A 
ATOM     80  C   UNL A   1      49.759  27.157  24.574  1.00  0.00     0.135 A 
ATOM     81  F   UNL A   1      50.143  26.427  28.113  1.00  0.00    -0.206 F 
ATOM     82  C   UNL A   1      51.659  26.150  26.343  1.00  0.00     0.059 A 
ATOM     83  C   UNL A   1      50.996  26.748  24.086  1.00  0.00     0.059 A 
ATOM     84  F   UNL A   1      48.859  27.631  23.698  1.00  0.00    -0.206 F 
ATOM     85  C   UNL A   1      51.945  26.257  24.981  1.00  0.00     0.060 A 
BRANCH  85  86
ATOM     86  S   UNL A   1      53.563  25.713  24.392  1.00  0.00     0.124 S 
ATOM     87  O   UNL A   1      54.461  26.448  25.277  1.00  0.00    -0.237 OA
ATOM     88  O   UNL A   1      53.497  24.271  24.605  1.00  0.00    -0.237 OA
ATOM     89  O   UNL A   1      53.571  26.134  22.995  1.00  0.00    -0.744 OA
ENDBRANCH  85  86
ENDBRANCH  53  78
BRANCH  65  90
ATOM     90  C   UNL A   1      43.410  23.706  27.071  1.00  0.00     0.058 A 
ATOM     91  C   UNL A   1      43.311  22.772  28.115  1.00  0.00     0.135 A 
ATOM     92  C   UNL A   1      43.005  23.300  25.789  1.00  0.00     0.135 A 
ATOM     93  F   UNL A   1      43.692  23.105  29.359  1.00  0.00    -0.206 F 
ATOM     94  C   UNL A   1      42.840  21.483  27.893  1.00  0.00     0.059 A 
ATOM     95  C   UNL A   1      42.501  22.026  25.550  1.00  0.00     0.059 A 
ATOM     96  F   UNL A   1      43.070  24.156  24.757  1.00  0.00    -0.206 F 
ATOM     97  C   UNL A   1      42.430  21.121  26.607  1.00  0.00     0.060 A 
BRANCH  97  98
ATOM     98  S   UNL A   1      41.768  19.463  26.346  1.00  0.00     0.124 S 
ATOM     99  O   UNL A   1      42.548  19.011  25.199  1.00  0.00    -0.237 OA
ATOM    100  O   UNL A   1      42.066  18.805  27.614  1.00  0.00    -0.237 OA
ATOM    101  O   UNL A   1      40.350  19.698  26.087  1.00  0.00    -0.744 OA
ENDBRANCH  97  98
ENDBRANCH  65  90
ENDBRANCH  39  40
ENDBRANCH  31  34
ENDBRANCH  29  30
ENDBRANCH  28  29
ENDBRANCH   1  28
TORSDOF 20
ENDMDL
MODEL 3
REMARK VINA RESULT:      -9.5      0.799      8.341
REMARK SMILES CC(C)C[N@H+](CC[NH+](C)C)[C@@H]1CCC[C@]([NH3+])(C(=O)NCCCNC(=O)c2ccc(-c3c4nc(c(-c5c(F)cc(S(=O)(=O)[O-])cc5F)c5ccc([nH]5)c(-c5c(F)cc(S(=O)(=O)[O-])cc5F)c5nc(c(-c6c(F)cc(S(=O)(=O)[O-])cc6F)c6ccc3[nH]6)C=C5)C=C4)cc2)C1
REMARK SMILES IDX 20 1 19 2 17 3 18 4 15 6 11 7 12 8 92 9 13 10 14 11 5 12
REMARK SMILES IDX 4 14 2 15 1 16 3 17 6 18 7 19 8 20 9 21 10 22 16 24 21 28
REMARK SMILES IDX 22 29 23 30 24 31 25 33 26 34 27 35 91 36 28 37 90 38 29 39
REMARK SMILES IDX 30 40 31 41 84 42 32 43 89 44 83 45 85 46 33 47 88 48 82 49
REMARK SMILES IDX 81 50 34 52 68 53 47 54 67 55 48 56 51 57 66 58 86 59 49 60
REMARK SMILES IDX 50 61 65 63 87 64 52 65 35 66 36 67 45 68 37 69 38 70 44 71
REMARK SMILES IDX 46 72 39 73 40 74 41 75 42 76 43 77 69 78 70 79 79 80 71 81
REMARK SMILES IDX 72 82 78 83 80 84 73 85 74 86 75 87 76 88 77 89 53 90 54 91
REMARK SMILES IDX 63 92 55 93 56 94 62 95 64 96 57 97 58 98 59 99 60 100
REMARK SMILES IDX 61 101
REMARK H PARENT 19 5 5 13 8 23 16 25 16 26 16 27 23 32 85 51 51 62
REMARK Flexibility Score: inf
ROOT
ATOM      1  C   UNL A   1      46.544  22.316  38.521  1.00  0.00     0.118 C 
ENDROOT
BRANCH   1   2
ATOM      2  N   UNL A   1      47.174  21.419  39.473  1.00  0.00    -0.351 N 
ATOM      3  C   UNL A   1      46.442  20.422  40.066  1.00  0.00     0.281 C 
ATOM      4  O   UNL A   1      45.506  20.709  40.816  1.00  0.00    -0.268 OA
ATOM      5  H   UNL A   1      48.127  21.525  39.692  1.00  0.00     0.163 HD
BRANCH   3   6
ATOM      6  C   UNL A   1      46.750  18.927  39.664  1.00  0.00     0.179 C 
ATOM      7  C   UNL A   1      45.835  17.124  41.447  1.00  0.00     0.191 C 
ATOM      8  C   UNL A   1      47.309  16.986  41.905  1.00  0.00     0.065 C 
ATOM      9  C   UNL A   1      45.712  17.835  40.063  1.00  0.00     0.144 C 
ATOM     10  C   UNL A   1      48.238  18.140  41.554  1.00  0.00     0.013 C 
ATOM     11  C   UNL A   1      48.162  18.503  40.074  1.00  0.00     0.079 C 
BRANCH   7  12
ATOM     12  N   UNL A   1      44.887  17.419  42.565  1.00  0.00    -0.327 N 
ATOM     13  H   UNL A   1      44.376  18.199  42.151  1.00  0.00     0.348 HD
BRANCH  12  14
ATOM     14  C   UNL A   1      45.561  17.806  43.810  1.00  0.00     0.265 C 
BRANCH  14  15
ATOM     15  C   UNL A   1      44.950  18.739  44.871  1.00  0.00     0.038 C 
ATOM     16  C   UNL A   1      45.928  19.095  45.988  1.00  0.00     0.013 C 
ATOM     17  C   UNL A   1      44.561  20.036  44.125  1.00  0.00     0.013 C 
ENDBRANCH  14  15
ENDBRANCH  12  14
BRANCH  12  18
ATOM     18  C   UNL A   1      43.869  16.394  42.906  1.00  0.00     0.324 C 
BRANCH  18  19
ATOM     19  C   UNL A   1      42.798  15.908  41.868  1.00  0.00     0.323 C 
BRANCH  19  20
ATOM     20  N   UNL A   1      42.852  14.965  40.725  1.00  0.00    -0.335 N 
ATOM     21  C   UNL A   1      41.575  14.206  40.738  1.00  0.00     0.332 C 
ATOM     22  C   UNL A   1      43.002  15.476  39.372  1.00  0.00     0.332 C 
ATOM     23  H   UNL A   1      43.715  14.447  40.888  1.00  0.00     0.347 HD
ENDBRANCH  19  20
ENDBRANCH  18  19
ENDBRANCH  12  18
ENDBRANCH   7  12
BRANCH   6  24
ATOM     24  N   UNL A   1      46.710  18.971  38.163  1.00  0.00    -0.345 N 
ATOM     25  H   UNL A   1      47.559  18.548  37.787  1.00  0.00     0.345 HD
ATOM     26  H   UNL A   1      46.646  19.940  37.852  1.00  0.00     0.345 HD
ATOM     27  H   UNL A   1      45.896  18.453  37.829  1.00  0.00     0.345 HD
ENDBRANCH   6  24
ENDBRANCH   3   6
ENDBRANCH   1   2
BRANCH   1  28
ATOM     28  C   UNL A   1      47.504  23.289  37.844  1.00  0.00     0.042 C 
BRANCH  28  29
ATOM     29  C   UNL A   1      46.875  24.646  37.561  1.00  0.00     0.118 C 
BRANCH  29  30
ATOM     30  N   UNL A   1      47.456  25.692  38.396  1.00  0.00    -0.352 N 
ATOM     31  C   UNL A   1      47.327  27.053  38.281  1.00  0.00     0.251 C 
ATOM     32  H   UNL A   1      48.016  25.379  39.143  1.00  0.00     0.163 HD
ATOM     33  O   UNL A   1      48.129  27.798  38.848  1.00  0.00    -0.269 OA
BRANCH  31  34
ATOM     34  C   UNL A   1      46.234  27.615  37.464  1.00  0.00     0.039 A 
ATOM     35  C   UNL A   1      44.913  27.235  37.711  1.00  0.00     0.014 A 
ATOM     36  C   UNL A   1      46.528  28.525  36.447  1.00  0.00     0.014 A 
ATOM     37  C   UNL A   1      43.879  27.827  36.979  1.00  0.00     0.010 A 
ATOM     38  C   UNL A   1      45.496  29.178  35.786  1.00  0.00     0.010 A 
ATOM     39  C   UNL A   1      44.160  28.830  36.037  1.00  0.00    -0.014 A 
BRANCH  39  40
ATOM     40  C   UNL A   1      43.086  29.518  35.276  1.00  0.00     0.031 A 
ATOM     41  C   UNL A   1      42.337  30.660  35.913  1.00  0.00     0.074 A 
ATOM     42  C   UNL A   1      42.727  29.066  34.058  1.00  0.00     0.049 A 
ATOM     43  N   UNL A   1      41.292  31.312  35.475  1.00  0.00    -0.248 NA
ATOM     44  C   UNL A   1      42.808  31.106  37.236  1.00  0.00     0.031 C 
ATOM     45  C   UNL A   1      43.347  27.941  33.356  1.00  0.00     0.029 A 
ATOM     46  N   UNL A   1      41.742  29.487  33.200  1.00  0.00    -0.354 N 
ATOM     47  C   UNL A   1      40.970  32.226  36.472  1.00  0.00     0.074 A 
ATOM     48  C   UNL A   1      41.890  32.003  37.565  1.00  0.00     0.031 C 
ATOM     49  C   UNL A   1      42.743  27.775  32.168  1.00  0.00     0.029 A 
ATOM     50  C   UNL A   1      41.661  28.747  32.044  1.00  0.00     0.049 A 
ATOM     51  H   UNL A   1      41.147  30.247  33.396  1.00  0.00     0.167 HD
ATOM     52  C   UNL A   1      40.013  33.184  36.467  1.00  0.00     0.037 A 
ATOM     53  C   UNL A   1      40.806  28.835  31.006  1.00  0.00     0.037 A 
ATOM     54  C   UNL A   1      39.119  33.414  35.364  1.00  0.00     0.049 A 
ATOM     55  C   UNL A   1      39.738  29.896  31.029  1.00  0.00     0.074 A 
ATOM     56  C   UNL A   1      38.146  34.389  35.234  1.00  0.00     0.029 A 
ATOM     57  N   UNL A   1      39.087  32.660  34.199  1.00  0.00    -0.354 N 
ATOM     58  N   UNL A   1      39.484  30.791  31.955  1.00  0.00    -0.248 NA
ATOM     59  C   UNL A   1      38.841  29.966  29.867  1.00  0.00     0.031 C 
ATOM     60  C   UNL A   1      37.492  34.193  34.014  1.00  0.00     0.029 A 
ATOM     61  C   UNL A   1      38.098  33.135  33.355  1.00  0.00     0.049 A 
ATOM     62  H   UNL A   1      39.679  31.898  34.002  1.00  0.00     0.167 HD
ATOM     63  C   UNL A   1      38.426  31.552  31.471  1.00  0.00     0.074 A 
ATOM     64  C   UNL A   1      38.090  31.016  30.168  1.00  0.00     0.031 C 
ATOM     65  C   UNL A   1      37.791  32.601  32.050  1.00  0.00     0.037 A 
BRANCH  52  66
ATOM     66  C   UNL A   1      39.890  34.058  37.687  1.00  0.00     0.058 A 
ATOM     67  C   UNL A   1      39.002  33.746  38.730  1.00  0.00     0.135 A 
ATOM     68  C   UNL A   1      40.691  35.202  37.831  1.00  0.00     0.135 A 
ATOM     69  F   UNL A   1      38.200  32.673  38.639  1.00  0.00    -0.206 F 
ATOM     70  C   UNL A   1      38.887  34.556  39.856  1.00  0.00     0.059 A 
ATOM     71  C   UNL A   1      40.617  36.008  38.964  1.00  0.00     0.059 A 
ATOM     72  F   UNL A   1      41.557  35.548  36.866  1.00  0.00    -0.206 F 
ATOM     73  C   UNL A   1      39.701  35.685  39.963  1.00  0.00     0.060 A 
BRANCH  73  74
ATOM     74  S   UNL A   1      39.544  36.719  41.435  1.00  0.00     0.124 S 
ATOM     75  O   UNL A   1      38.611  35.937  42.242  1.00  0.00    -0.237 OA
ATOM     76  O   UNL A   1      40.917  36.770  41.927  1.00  0.00    -0.237 OA
ATOM     77  O   UNL A   1      39.020  37.977  40.914  1.00  0.00    -0.744 OA
ENDBRANCH  73  74
ENDBRANCH  52  66
BRANCH  53  78
ATOM     78  C   UNL A   1      40.933  27.905  29.850  1.00  0.00     0.058 A 
ATOM     79  C   UNL A   1      40.008  26.869  29.654  1.00  0.00     0.135 A 
ATOM     80  C   UNL A   1      41.973  28.034  28.916  1.00  0.00     0.135 A 
ATOM     81  F   UNL A   1      38.998  26.698  30.521  1.00  0.00    -0.206 F 
ATOM     82  C   UNL A   1      40.121  25.980  28.589  1.00  0.00     0.059 A 
ATOM     83  C   UNL A   1      42.091  27.178  27.826  1.00  0.00     0.059 A 
ATOM     84  F   UNL A   1      42.875  29.020  29.047  1.00  0.00    -0.206 F 
ATOM     85  C   UNL A   1      41.166  26.145  27.678  1.00  0.00     0.060 A 
BRANCH  85  86
ATOM     86  S   UNL A   1      41.279  25.011  26.277  1.00  0.00     0.124 S 
ATOM     87  O   UNL A   1      39.984  24.342  26.335  1.00  0.00    -0.237 OA
ATOM     88  O   UNL A   1      41.475  25.927  25.158  1.00  0.00    -0.237 OA
ATOM     89  O   UNL A   1      42.433  24.182  26.608  1.00  0.00    -0.744 OA
ENDBRANCH  85  86
ENDBRANCH  53  78
BRANCH  65  90
ATOM     90  C   UNL A   1      36.704  33.282  31.265  1.00  0.00     0.058 A 
ATOM     91  C   UNL A   1      36.985  34.075  30.141  1.00  0.00     0.135 A 
ATOM     92  C   UNL A   1      35.356  33.072  31.599  1.00  0.00     0.135 A 
ATOM     93  F   UNL A   1      38.256  34.314  29.782  1.00  0.00    -0.206 F 
ATOM     94  C   UNL A   1      35.968  34.647  29.385  1.00  0.00     0.059 A 
ATOM     95  C   UNL A   1      34.323  33.609  30.839  1.00  0.00     0.059 A 
ATOM     96  F   UNL A   1      35.032  32.314  32.658  1.00  0.00    -0.206 F 
ATOM     97  C   UNL A   1      34.639  34.403  29.738  1.00  0.00     0.060 A 
BRANCH  97  98
ATOM     98  S   UNL A   1      33.329  35.106  28.714  1.00  0.00     0.124 S 
ATOM     99  O   UNL A   1      32.821  33.922  28.030  1.00  0.00    -0.237 OA
ATOM    100  O   UNL A   1      32.438  35.694  29.709  1.00  0.00    -0.237 OA
ATOM    101  O   UNL A   1      34.035  36.065  27.869  1.00  0.00    -0.744 OA
ENDBRANCH  97  98
ENDBRANCH  65  90
ENDBRANCH  39  40
ENDBRANCH  31  34
ENDBRANCH  29  30
ENDBRANCH  28  29
ENDBRANCH   1  28
TORSDOF 20
ENDMDL
