MODEL 1
REMARK VINA RESULT:     -11.6      0.000      0.000
REMARK SMILES COC(=O)[C@H]1Sc2nnc(CCC(=O)NCCCNC(=O)c3ccc(-c4c5nc(c(-c6c(F)cc(S(=O)(=O)[O-])cc6F)c6ccc([nH]6)c(-c6c(F)cc(S(=O)(=O)[O-])cc6F)c6nc(c(-c7c(F)cc(S(=O)(=O)[O-])cc7F)c7ccc4[nH]7)C=C6)C=C5)cc3)c(=O)n2N=C1C
REMARK SMILES IDX 16 1 15 2 13 3 14 4 12 6 11 7 10 8 5 9 6 10 92 11 7 12 91 13
REMARK SMILES IDX 93 14 8 15 90 16 9 17 88 18 89 19 3 20 4 21 2 22 1 23 17 24
REMARK SMILES IDX 18 25 19 26 20 27 21 29 22 30 23 31 87 32 24 33 86 34 25 35
REMARK SMILES IDX 26 36 27 37 80 38 28 39 85 40 79 41 81 42 29 43 84 44 78 45
REMARK SMILES IDX 77 46 30 48 64 49 43 50 63 51 44 52 47 53 62 54 82 55 45 56
REMARK SMILES IDX 46 57 61 59 83 60 48 61 31 62 32 63 41 64 33 65 34 66 40 67
REMARK SMILES IDX 42 68 35 69 36 70 37 71 38 72 39 73 65 74 66 75 75 76 67 77
REMARK SMILES IDX 68 78 74 79 76 80 69 81 70 82 71 83 72 84 73 85 49 86 50 87
REMARK SMILES IDX 59 88 51 89 52 90 58 91 60 92 53 93 54 94 55 95 56 96 57 97
REMARK H PARENT 15 5 19 28 81 47 47 58
REMARK Flexibility Score: inf
ROOT
ATOM      1  C   UNL A   1      31.831  29.199  24.233  1.00  0.00     0.117 C 
ENDROOT
BRANCH   1   2
ATOM      2  N   UNL A   1      33.003  29.079  23.366  1.00  0.00    -0.356 N 
ATOM      3  C   UNL A   1      33.381  28.160  22.429  1.00  0.00     0.220 C 
ATOM      4  O   UNL A   1      34.475  28.332  21.883  1.00  0.00    -0.275 OA
ATOM      5  H   UNL A   1      33.652  29.810  23.483  1.00  0.00     0.163 HD
BRANCH   3   6
ATOM      6  C   UNL A   1      32.486  27.003  21.998  1.00  0.00     0.106 C 
BRANCH   6   7
ATOM      7  C   UNL A   1      32.253  25.957  23.097  1.00  0.00     0.074 C 
BRANCH   7   8
ATOM      8  C   UNL A   1      33.490  25.123  23.315  1.00  0.00     0.131 A 
ATOM      9  C   UNL A   1      35.111  21.268  25.926  1.00  0.00     0.210 C 
ATOM     10  S   UNL A   1      36.307  22.012  24.717  1.00  0.00    -0.063 SA
ATOM     11  C   UNL A   1      34.411  22.429  26.649  1.00  0.00     0.061 C 
ATOM     12  C   UNL A   1      35.205  23.222  24.082  1.00  0.00     0.214 A 
ATOM     13  N   UNL A   1      34.343  23.660  26.276  1.00  0.00    -0.171 NA
ATOM     14  C   UNL A   1      33.697  22.327  27.961  1.00  0.00     0.065 C 
ATOM     15  N   UNL A   1      34.984  23.382  22.815  1.00  0.00    -0.123 NA
ATOM     16  N   UNL A   1      34.635  24.014  25.031  1.00  0.00    -0.169 N 
ATOM     17  N   UNL A   1      33.929  24.272  22.435  1.00  0.00    -0.147 NA
ATOM     18  C   UNL A   1      34.094  25.222  24.677  1.00  0.00     0.296 A 
ATOM     19  O   UNL A   1      33.953  26.214  25.348  1.00  0.00    -0.265 OA
BRANCH   9  20
ATOM     20  C   UNL A   1      34.336  20.247  25.076  1.00  0.00     0.325 C 
ATOM     21  O   UNL A   1      34.809  19.245  24.558  1.00  0.00    -0.250 OA
BRANCH  20  22
ATOM     22  O   UNL A   1      33.005  20.547  24.984  1.00  0.00    -0.468 OA
ATOM     23  C   UNL A   1      32.438  20.903  23.696  1.00  0.00     0.282 C 
ENDBRANCH  20  22
ENDBRANCH   9  20
ENDBRANCH   7   8
ENDBRANCH   6   7
ENDBRANCH   3   6
ENDBRANCH   1   2
BRANCH   1  24
ATOM     24  C   UNL A   1      32.204  29.171  25.728  1.00  0.00     0.042 C 
BRANCH  24  25
ATOM     25  C   UNL A   1      32.819  30.422  26.432  1.00  0.00     0.118 C 
BRANCH  25  26
ATOM     26  N   UNL A   1      33.728  30.041  27.559  1.00  0.00    -0.352 N 
ATOM     27  C   UNL A   1      34.470  30.900  28.375  1.00  0.00     0.251 C 
ATOM     28  H   UNL A   1      33.813  29.078  27.747  1.00  0.00     0.163 HD
ATOM     29  O   UNL A   1      34.140  32.060  28.581  1.00  0.00    -0.269 OA
BRANCH  27  30
ATOM     30  C   UNL A   1      35.865  30.424  28.783  1.00  0.00     0.039 A 
ATOM     31  C   UNL A   1      36.271  29.839  29.989  1.00  0.00     0.014 A 
ATOM     32  C   UNL A   1      36.832  30.514  27.778  1.00  0.00     0.014 A 
ATOM     33  C   UNL A   1      37.572  29.255  30.131  1.00  0.00     0.010 A 
ATOM     34  C   UNL A   1      38.065  29.840  27.876  1.00  0.00     0.010 A 
ATOM     35  C   UNL A   1      38.481  29.217  29.060  1.00  0.00    -0.014 A 
BRANCH  35  36
ATOM     36  C   UNL A   1      39.923  28.767  29.148  1.00  0.00     0.031 A 
ATOM     37  C   UNL A   1      40.955  29.806  29.564  1.00  0.00     0.074 A 
ATOM     38  C   UNL A   1      40.382  27.551  28.759  1.00  0.00     0.049 A 
ATOM     39  N   UNL A   1      42.261  29.729  29.605  1.00  0.00    -0.248 NA
ATOM     40  C   UNL A   1      40.430  31.136  29.924  1.00  0.00     0.031 C 
ATOM     41  C   UNL A   1      39.573  26.450  28.238  1.00  0.00     0.029 A 
ATOM     42  N   UNL A   1      41.672  27.049  28.711  1.00  0.00    -0.354 N 
ATOM     43  C   UNL A   1      42.701  30.998  29.975  1.00  0.00     0.074 A 
ATOM     44  C   UNL A   1      41.536  31.849  30.032  1.00  0.00     0.031 C 
ATOM     45  C   UNL A   1      40.377  25.413  27.925  1.00  0.00     0.029 A 
ATOM     46  C   UNL A   1      41.768  25.761  28.223  1.00  0.00     0.049 A 
ATOM     47  H   UNL A   1      42.455  27.568  29.003  1.00  0.00     0.167 HD
ATOM     48  C   UNL A   1      43.944  31.425  30.304  1.00  0.00     0.037 A 
ATOM     49  C   UNL A   1      42.840  24.950  28.047  1.00  0.00     0.037 A 
ATOM     50  C   UNL A   1      45.111  30.591  30.305  1.00  0.00     0.049 A 
ATOM     51  C   UNL A   1      44.226  25.423  28.436  1.00  0.00     0.074 A 
ATOM     52  C   UNL A   1      46.393  30.908  30.720  1.00  0.00     0.029 A 
ATOM     53  N   UNL A   1      45.141  29.276  29.873  1.00  0.00    -0.354 N 
ATOM     54  N   UNL A   1      44.595  26.588  28.912  1.00  0.00    -0.248 NA
ATOM     55  C   UNL A   1      45.338  24.468  28.281  1.00  0.00     0.031 C 
ATOM     56  C   UNL A   1      47.207  29.791  30.509  1.00  0.00     0.029 A 
ATOM     57  C   UNL A   1      46.422  28.770  29.998  1.00  0.00     0.049 A 
ATOM     58  H   UNL A   1      44.366  28.777  29.528  1.00  0.00     0.167 HD
ATOM     59  C   UNL A   1      45.967  26.494  29.143  1.00  0.00     0.074 A 
ATOM     60  C   UNL A   1      46.368  25.159  28.758  1.00  0.00     0.031 C 
ATOM     61  C   UNL A   1      46.813  27.432  29.635  1.00  0.00     0.037 A 
BRANCH  48  62
ATOM     62  C   UNL A   1      44.084  32.854  30.759  1.00  0.00     0.058 A 
ATOM     63  C   UNL A   1      43.877  33.207  32.104  1.00  0.00     0.135 A 
ATOM     64  C   UNL A   1      44.440  33.872  29.863  1.00  0.00     0.135 A 
ATOM     65  F   UNL A   1      43.519  32.274  33.001  1.00  0.00    -0.206 F 
ATOM     66  C   UNL A   1      43.976  34.523  32.534  1.00  0.00     0.059 A 
ATOM     67  C   UNL A   1      44.580  35.194  30.279  1.00  0.00     0.059 A 
ATOM     68  F   UNL A   1      44.653  33.591  28.567  1.00  0.00    -0.206 F 
ATOM     69  C   UNL A   1      44.328  35.511  31.614  1.00  0.00     0.060 A 
BRANCH  69  70
ATOM     70  S   UNL A   1      44.455  37.213  32.199  1.00  0.00     0.124 S 
ATOM     71  O   UNL A   1      44.193  37.962  30.973  1.00  0.00    -0.237 OA
ATOM     72  O   UNL A   1      43.406  37.271  33.212  1.00  0.00    -0.237 OA
ATOM     73  O   UNL A   1      45.821  37.298  32.706  1.00  0.00    -0.744 OA
ENDBRANCH  69  70
ENDBRANCH  48  62
BRANCH  49  74
ATOM     74  C   UNL A   1      42.660  23.550  27.547  1.00  0.00     0.058 A 
ATOM     75  C   UNL A   1      42.726  23.271  26.172  1.00  0.00     0.135 A 
ATOM     76  C   UNL A   1      42.409  22.474  28.412  1.00  0.00     0.135 A 
ATOM     77  F   UNL A   1      42.931  24.268  25.297  1.00  0.00    -0.206 F 
ATOM     78  C   UNL A   1      42.560  21.982  25.672  1.00  0.00     0.059 A 
ATOM     79  C   UNL A   1      42.256  21.169  27.938  1.00  0.00     0.059 A 
ATOM     80  F   UNL A   1      42.321  22.681  29.734  1.00  0.00    -0.206 F 
ATOM     81  C   UNL A   1      42.338  20.933  26.565  1.00  0.00     0.060 A 
BRANCH  81  82
ATOM     82  S   UNL A   1      42.216  19.254  25.904  1.00  0.00     0.124 S 
ATOM     83  O   UNL A   1      40.786  19.141  25.638  1.00  0.00    -0.237 OA
ATOM     84  O   UNL A   1      43.078  19.329  24.729  1.00  0.00    -0.237 OA
ATOM     85  O   UNL A   1      42.722  18.424  26.994  1.00  0.00    -0.744 OA
ENDBRANCH  81  82
ENDBRANCH  49  74
BRANCH  61  86
ATOM     86  C   UNL A   1      48.263  27.073  29.822  1.00  0.00     0.058 A 
ATOM     87  C   UNL A   1      49.212  27.324  28.820  1.00  0.00     0.135 A 
ATOM     88  C   UNL A   1      48.727  26.617  31.068  1.00  0.00     0.135 A 
ATOM     89  F   UNL A   1      48.822  27.760  27.613  1.00  0.00    -0.206 F 
ATOM     90  C   UNL A   1      50.574  27.143  29.050  1.00  0.00     0.059 A 
ATOM     91  C   UNL A   1      50.085  26.448  31.325  1.00  0.00     0.059 A 
ATOM     92  F   UNL A   1      47.860  26.376  32.063  1.00  0.00    -0.206 F 
ATOM     93  C   UNL A   1      51.002  26.717  30.310  1.00  0.00     0.060 A 
BRANCH  93  94
ATOM     94  S   UNL A   1      52.776  26.579  30.619  1.00  0.00     0.124 S 
ATOM     95  O   UNL A   1      53.300  26.427  29.266  1.00  0.00    -0.237 OA
ATOM     96  O   UNL A   1      53.077  27.847  31.278  1.00  0.00    -0.237 OA
ATOM     97  O   UNL A   1      52.883  25.397  31.469  1.00  0.00    -0.744 OA
ENDBRANCH  93  94
ENDBRANCH  61  86
ENDBRANCH  35  36
ENDBRANCH  27  30
ENDBRANCH  25  26
ENDBRANCH  24  25
ENDBRANCH   1  24
TORSDOF 17
ENDMDL
MODEL 2
REMARK VINA RESULT:     -11.4      5.128     10.754
REMARK SMILES COC(=O)[C@H]1Sc2nnc(CCC(=O)NCCCNC(=O)c3ccc(-c4c5nc(c(-c6c(F)cc(S(=O)(=O)[O-])cc6F)c6ccc([nH]6)c(-c6c(F)cc(S(=O)(=O)[O-])cc6F)c6nc(c(-c7c(F)cc(S(=O)(=O)[O-])cc7F)c7ccc4[nH]7)C=C6)C=C5)cc3)c(=O)n2N=C1C
REMARK SMILES IDX 16 1 15 2 13 3 14 4 12 6 11 7 10 8 5 9 6 10 92 11 7 12 91 13
REMARK SMILES IDX 93 14 8 15 90 16 9 17 88 18 89 19 3 20 4 21 2 22 1 23 17 24
REMARK SMILES IDX 18 25 19 26 20 27 21 29 22 30 23 31 87 32 24 33 86 34 25 35
REMARK SMILES IDX 26 36 27 37 80 38 28 39 85 40 79 41 81 42 29 43 84 44 78 45
REMARK SMILES IDX 77 46 30 48 64 49 43 50 63 51 44 52 47 53 62 54 82 55 45 56
REMARK SMILES IDX 46 57 61 59 83 60 48 61 31 62 32 63 41 64 33 65 34 66 40 67
REMARK SMILES IDX 42 68 35 69 36 70 37 71 38 72 39 73 65 74 66 75 75 76 67 77
REMARK SMILES IDX 68 78 74 79 76 80 69 81 70 82 71 83 72 84 73 85 49 86 50 87
REMARK SMILES IDX 59 88 51 89 52 90 58 91 60 92 53 93 54 94 55 95 56 96 57 97
REMARK H PARENT 15 5 19 28 81 47 47 58
REMARK Flexibility Score: inf
ROOT
ATOM      1  C   UNL A   1      36.359  22.438  25.686  1.00  0.00     0.117 C 
ENDROOT
BRANCH   1   2
ATOM      2  N   UNL A   1      35.391  21.638  24.935  1.00  0.00    -0.356 N 
ATOM      3  C   UNL A   1      34.041  21.462  25.043  1.00  0.00     0.220 C 
ATOM      4  O   UNL A   1      33.512  20.672  24.256  1.00  0.00    -0.275 OA
ATOM      5  H   UNL A   1      35.796  21.120  24.203  1.00  0.00     0.163 HD
BRANCH   3   6
ATOM      6  C   UNL A   1      33.182  22.247  26.030  1.00  0.00     0.106 C 
BRANCH   6   7
ATOM      7  C   UNL A   1      31.677  21.980  25.888  1.00  0.00     0.074 C 
BRANCH   7   8
ATOM      8  C   UNL A   1      30.986  23.143  25.221  1.00  0.00     0.131 A 
ATOM      9  C   UNL A   1      31.251  28.051  24.826  1.00  0.00     0.210 C 
ATOM     10  S   UNL A   1      29.937  27.208  23.822  1.00  0.00    -0.063 SA
ATOM     11  C   UNL A   1      31.245  27.405  26.220  1.00  0.00     0.061 C 
ATOM     12  C   UNL A   1      30.357  25.571  24.297  1.00  0.00     0.214 A 
ATOM     13  N   UNL A   1      30.735  26.271  26.559  1.00  0.00    -0.171 NA
ATOM     14  C   UNL A   1      31.820  28.016  27.460  1.00  0.00     0.065 C 
ATOM     15  N   UNL A   1      30.566  24.618  23.443  1.00  0.00    -0.123 NA
ATOM     16  N   UNL A   1      30.400  25.371  25.643  1.00  0.00    -0.169 N 
ATOM     17  N   UNL A   1      31.081  23.381  23.946  1.00  0.00    -0.147 NA
ATOM     18  C   UNL A   1      30.312  24.101  26.148  1.00  0.00     0.296 A 
ATOM     19  O   UNL A   1      29.905  23.741  27.224  1.00  0.00    -0.265 OA
BRANCH   9  20
ATOM     20  C   UNL A   1      32.485  28.004  23.907  1.00  0.00     0.325 C 
ATOM     21  O   UNL A   1      32.555  28.481  22.783  1.00  0.00    -0.250 OA
BRANCH  20  22
ATOM     22  O   UNL A   1      33.555  27.395  24.502  1.00  0.00    -0.468 OA
ATOM     23  C   UNL A   1      33.888  26.027  24.150  1.00  0.00     0.282 C 
ENDBRANCH  20  22
ENDBRANCH   9  20
ENDBRANCH   7   8
ENDBRANCH   6   7
ENDBRANCH   3   6
ENDBRANCH   1   2
BRANCH   1  24
ATOM     24  C   UNL A   1      37.803  22.226  25.190  1.00  0.00     0.042 C 
BRANCH  24  25
ATOM     25  C   UNL A   1      39.015  22.313  26.169  1.00  0.00     0.118 C 
BRANCH  25  26
ATOM     26  N   UNL A   1      39.436  23.728  26.419  1.00  0.00    -0.352 N 
ATOM     27  C   UNL A   1      40.729  24.196  26.666  1.00  0.00     0.251 C 
ATOM     28  H   UNL A   1      38.721  24.405  26.409  1.00  0.00     0.163 HD
ATOM     29  O   UNL A   1      41.728  23.610  26.270  1.00  0.00    -0.269 OA
BRANCH  27  30
ATOM     30  C   UNL A   1      40.868  25.322  27.691  1.00  0.00     0.039 A 
ATOM     31  C   UNL A   1      41.888  26.276  27.809  1.00  0.00     0.014 A 
ATOM     32  C   UNL A   1      39.786  25.458  28.564  1.00  0.00     0.014 A 
ATOM     33  C   UNL A   1      41.759  27.396  28.694  1.00  0.00     0.010 A 
ATOM     34  C   UNL A   1      39.606  26.615  29.345  1.00  0.00     0.010 A 
ATOM     35  C   UNL A   1      40.595  27.601  29.454  1.00  0.00    -0.014 A 
BRANCH  35  36
ATOM     36  C   UNL A   1      40.420  28.657  30.524  1.00  0.00     0.031 A 
ATOM     37  C   UNL A   1      41.265  28.520  31.784  1.00  0.00     0.074 A 
ATOM     38  C   UNL A   1      39.480  29.634  30.504  1.00  0.00     0.049 A 
ATOM     39  N   UNL A   1      41.234  29.205  32.899  1.00  0.00    -0.248 NA
ATOM     40  C   UNL A   1      42.236  27.412  31.799  1.00  0.00     0.031 C 
ATOM     41  C   UNL A   1      38.509  29.876  29.439  1.00  0.00     0.029 A 
ATOM     42  N   UNL A   1      39.165  30.600  31.446  1.00  0.00    -0.354 N 
ATOM     43  C   UNL A   1      42.162  28.596  33.740  1.00  0.00     0.074 A 
ATOM     44  C   UNL A   1      42.651  27.426  33.052  1.00  0.00     0.031 C 
ATOM     45  C   UNL A   1      37.715  30.910  29.783  1.00  0.00     0.029 A 
ATOM     46  C   UNL A   1      38.112  31.421  31.097  1.00  0.00     0.049 A 
ATOM     47  H   UNL A   1      39.655  30.693  32.296  1.00  0.00     0.167 HD
ATOM     48  C   UNL A   1      42.628  28.991  34.950  1.00  0.00     0.037 A 
ATOM     49  C   UNL A   1      37.541  32.466  31.744  1.00  0.00     0.037 A 
ATOM     50  C   UNL A   1      42.199  30.176  35.635  1.00  0.00     0.049 A 
ATOM     51  C   UNL A   1      38.078  32.917  33.086  1.00  0.00     0.074 A 
ATOM     52  C   UNL A   1      42.686  30.711  36.815  1.00  0.00     0.029 A 
ATOM     53  N   UNL A   1      41.182  31.011  35.203  1.00  0.00    -0.354 N 
ATOM     54  N   UNL A   1      39.051  32.402  33.799  1.00  0.00    -0.248 NA
ATOM     55  C   UNL A   1      37.455  34.102  33.705  1.00  0.00     0.031 C 
ATOM     56  C   UNL A   1      41.941  31.855  37.113  1.00  0.00     0.029 A 
ATOM     57  C   UNL A   1      41.017  32.051  36.100  1.00  0.00     0.049 A 
ATOM     58  H   UNL A   1      40.656  30.883  34.381  1.00  0.00     0.167 HD
ATOM     59  C   UNL A   1      39.176  33.214  34.926  1.00  0.00     0.074 A 
ATOM     60  C   UNL A   1      38.183  34.258  34.805  1.00  0.00     0.031 C 
ATOM     61  C   UNL A   1      40.042  33.102  35.964  1.00  0.00     0.037 A 
BRANCH  48  62
ATOM     62  C   UNL A   1      43.716  28.157  35.575  1.00  0.00     0.058 A 
ATOM     63  C   UNL A   1      45.066  28.365  35.242  1.00  0.00     0.135 A 
ATOM     64  C   UNL A   1      43.419  27.161  36.516  1.00  0.00     0.135 A 
ATOM     65  F   UNL A   1      45.405  29.295  34.334  1.00  0.00    -0.206 F 
ATOM     66  C   UNL A   1      46.077  27.587  35.789  1.00  0.00     0.059 A 
ATOM     67  C   UNL A   1      44.422  26.393  37.104  1.00  0.00     0.059 A 
ATOM     68  F   UNL A   1      42.148  26.922  36.873  1.00  0.00    -0.206 F 
ATOM     69  C   UNL A   1      45.746  26.602  36.720  1.00  0.00     0.060 A 
BRANCH  69  70
ATOM     70  S   UNL A   1      47.079  25.608  37.420  1.00  0.00     0.124 S 
ATOM     71  O   UNL A   1      46.999  25.968  38.832  1.00  0.00    -0.237 OA
ATOM     72  O   UNL A   1      46.660  24.250  37.088  1.00  0.00    -0.237 OA
ATOM     73  O   UNL A   1      48.266  26.086  36.717  1.00  0.00    -0.744 OA
ENDBRANCH  69  70
ENDBRANCH  48  62
BRANCH  49  74
ATOM     74  C   UNL A   1      36.429  33.239  31.105  1.00  0.00     0.058 A 
ATOM     75  C   UNL A   1      36.679  34.059  29.992  1.00  0.00     0.135 A 
ATOM     76  C   UNL A   1      35.112  33.190  31.586  1.00  0.00     0.135 A 
ATOM     77  F   UNL A   1      37.927  34.169  29.511  1.00  0.00    -0.206 F 
ATOM     78  C   UNL A   1      35.670  34.793  29.375  1.00  0.00     0.059 A 
ATOM     79  C   UNL A   1      34.077  33.902  30.974  1.00  0.00     0.059 A 
ATOM     80  F   UNL A   1      34.814  32.434  32.653  1.00  0.00    -0.206 F 
ATOM     81  C   UNL A   1      34.367  34.699  29.866  1.00  0.00     0.060 A 
BRANCH  81  82
ATOM     82  S   UNL A   1      33.054  35.588  28.995  1.00  0.00     0.124 S 
ATOM     83  O   UNL A   1      33.817  36.561  28.220  1.00  0.00    -0.237 OA
ATOM     84  O   UNL A   1      32.422  34.519  28.229  1.00  0.00    -0.237 OA
ATOM     85  O   UNL A   1      32.245  36.139  30.078  1.00  0.00    -0.744 OA
ENDBRANCH  81  82
ENDBRANCH  49  74
BRANCH  61  86
ATOM     86  C   UNL A   1      39.998  34.135  37.059  1.00  0.00     0.058 A 
ATOM     87  C   UNL A   1      40.615  35.385  36.908  1.00  0.00     0.135 A 
ATOM     88  C   UNL A   1      39.207  33.926  38.201  1.00  0.00     0.135 A 
ATOM     89  F   UNL A   1      41.382  35.635  35.835  1.00  0.00    -0.206 F 
ATOM     90  C   UNL A   1      40.441  36.397  37.848  1.00  0.00     0.059 A 
ATOM     91  C   UNL A   1      39.003  34.930  39.143  1.00  0.00     0.059 A 
ATOM     92  F   UNL A   1      38.584  32.751  38.385  1.00  0.00    -0.206 F 
ATOM     93  C   UNL A   1      39.623  36.165  38.955  1.00  0.00     0.060 A 
BRANCH  93  94
ATOM     94  S   UNL A   1      39.332  37.520  40.115  1.00  0.00     0.124 S 
ATOM     95  O   UNL A   1      38.428  38.373  39.351  1.00  0.00    -0.237 OA
ATOM     96  O   UNL A   1      38.740  36.830  41.257  1.00  0.00    -0.237 OA
ATOM     97  O   UNL A   1      40.666  38.067  40.343  1.00  0.00    -0.744 OA
ENDBRANCH  93  94
ENDBRANCH  61  86
ENDBRANCH  35  36
ENDBRANCH  27  30
ENDBRANCH  25  26
ENDBRANCH  24  25
ENDBRANCH   1  24
TORSDOF 17
ENDMDL
MODEL 3
REMARK VINA RESULT:     -11.3      4.940     10.501
REMARK SMILES COC(=O)[C@H]1Sc2nnc(CCC(=O)NCCCNC(=O)c3ccc(-c4c5nc(c(-c6c(F)cc(S(=O)(=O)[O-])cc6F)c6ccc([nH]6)c(-c6c(F)cc(S(=O)(=O)[O-])cc6F)c6nc(c(-c7c(F)cc(S(=O)(=O)[O-])cc7F)c7ccc4[nH]7)C=C6)C=C5)cc3)c(=O)n2N=C1C
REMARK SMILES IDX 16 1 15 2 13 3 14 4 12 6 11 7 10 8 5 9 6 10 92 11 7 12 91 13
REMARK SMILES IDX 93 14 8 15 90 16 9 17 88 18 89 19 3 20 4 21 2 22 1 23 17 24
REMARK SMILES IDX 18 25 19 26 20 27 21 29 22 30 23 31 87 32 24 33 86 34 25 35
REMARK SMILES IDX 26 36 27 37 80 38 28 39 85 40 79 41 81 42 29 43 84 44 78 45
REMARK SMILES IDX 77 46 30 48 64 49 43 50 63 51 44 52 47 53 62 54 82 55 45 56
REMARK SMILES IDX 46 57 61 59 83 60 48 61 31 62 32 63 41 64 33 65 34 66 40 67
REMARK SMILES IDX 42 68 35 69 36 70 37 71 38 72 39 73 65 74 66 75 75 76 67 77
REMARK SMILES IDX 68 78 74 79 76 80 69 81 70 82 71 83 72 84 73 85 49 86 50 87
REMARK SMILES IDX 59 88 51 89 52 90 58 91 60 92 53 93 54 94 55 95 56 96 57 97
REMARK H PARENT 15 5 19 28 81 47 47 58
REMARK Flexibility Score: inf
ROOT
ATOM      1  C   UNL A   1      38.066  22.218  25.830  1.00  0.00     0.117 C 
ENDROOT
BRANCH   1   2
ATOM      2  N   UNL A   1      37.634  22.395  24.444  1.00  0.00    -0.356 N 
ATOM      3  C   UNL A   1      36.608  23.087  23.867  1.00  0.00     0.220 C 
ATOM      4  O   UNL A   1      36.493  23.004  22.641  1.00  0.00    -0.275 OA
ATOM      5  H   UNL A   1      38.198  21.916  23.794  1.00  0.00     0.163 HD
BRANCH   3   6
ATOM      6  C   UNL A   1      35.673  23.993  24.661  1.00  0.00     0.106 C 
BRANCH   6   7
ATOM      7  C   UNL A   1      34.187  23.798  24.323  1.00  0.00     0.074 C 
BRANCH   7   8
ATOM      8  C   UNL A   1      33.651  22.545  24.968  1.00  0.00     0.131 A 
ATOM      9  C   UNL A   1      33.054  17.730  24.088  1.00  0.00     0.210 C 
ATOM     10  S   UNL A   1      32.539  18.337  25.766  1.00  0.00    -0.063 SA
ATOM     11  C   UNL A   1      32.551  18.754  23.058  1.00  0.00     0.061 C 
ATOM     12  C   UNL A   1      33.025  20.006  25.520  1.00  0.00     0.214 A 
ATOM     13  N   UNL A   1      32.188  19.971  23.273  1.00  0.00    -0.171 NA
ATOM     14  C   UNL A   1      32.366  18.491  21.596  1.00  0.00     0.065 C 
ATOM     15  N   UNL A   1      33.787  20.650  26.347  1.00  0.00    -0.123 NA
ATOM     16  N   UNL A   1      32.496  20.586  24.408  1.00  0.00    -0.169 N 
ATOM     17  N   UNL A   1      34.261  21.939  25.943  1.00  0.00    -0.147 NA
ATOM     18  C   UNL A   1      32.451  21.951  24.306  1.00  0.00     0.296 A 
ATOM     19  O   UNL A   1      31.685  22.639  23.678  1.00  0.00    -0.265 OA
BRANCH   9  20
ATOM     20  C   UNL A   1      34.550  17.417  24.267  1.00  0.00     0.325 C 
ATOM     21  O   UNL A   1      35.451  18.242  24.310  1.00  0.00    -0.250 OA
BRANCH  20  22
ATOM     22  O   UNL A   1      34.787  16.080  24.428  1.00  0.00    -0.468 OA
ATOM     23  C   UNL A   1      35.680  15.631  25.481  1.00  0.00     0.282 C 
ENDBRANCH  20  22
ENDBRANCH   9  20
ENDBRANCH   7   8
ENDBRANCH   6   7
ENDBRANCH   3   6
ENDBRANCH   1   2
BRANCH   1  24
ATOM     24  C   UNL A   1      39.283  21.279  25.948  1.00  0.00     0.042 C 
BRANCH  24  25
ATOM     25  C   UNL A   1      40.727  21.845  26.127  1.00  0.00     0.118 C 
BRANCH  25  26
ATOM     26  N   UNL A   1      40.725  23.324  26.363  1.00  0.00    -0.352 N 
ATOM     27  C   UNL A   1      41.821  24.190  26.319  1.00  0.00     0.251 C 
ATOM     28  H   UNL A   1      39.854  23.733  26.575  1.00  0.00     0.163 HD
ATOM     29  O   UNL A   1      42.819  23.953  25.651  1.00  0.00    -0.269 OA
BRANCH  27  30
ATOM     30  C   UNL A   1      41.850  25.315  27.354  1.00  0.00     0.039 A 
ATOM     31  C   UNL A   1      42.713  26.417  27.423  1.00  0.00     0.014 A 
ATOM     32  C   UNL A   1      40.821  25.271  28.297  1.00  0.00     0.014 A 
ATOM     33  C   UNL A   1      42.470  27.495  28.335  1.00  0.00     0.010 A 
ATOM     34  C   UNL A   1      40.514  26.379  29.110  1.00  0.00     0.010 A 
ATOM     35  C   UNL A   1      41.341  27.508  29.174  1.00  0.00    -0.014 A 
BRANCH  35  36
ATOM     36  C   UNL A   1      41.075  28.513  30.272  1.00  0.00     0.031 A 
ATOM     37  C   UNL A   1      41.891  28.381  31.552  1.00  0.00     0.074 A 
ATOM     38  C   UNL A   1      40.081  29.436  30.257  1.00  0.00     0.049 A 
ATOM     39  N   UNL A   1      41.788  29.024  32.688  1.00  0.00    -0.248 NA
ATOM     40  C   UNL A   1      42.924  27.331  31.559  1.00  0.00     0.031 C 
ATOM     41  C   UNL A   1      39.128  29.658  29.171  1.00  0.00     0.029 A 
ATOM     42  N   UNL A   1      39.684  30.348  31.221  1.00  0.00    -0.354 N 
ATOM     43  C   UNL A   1      42.727  28.440  33.536  1.00  0.00     0.074 A 
ATOM     44  C   UNL A   1      43.303  27.324  32.824  1.00  0.00     0.031 C 
ATOM     45  C   UNL A   1      38.265  30.633  29.525  1.00  0.00     0.029 A 
ATOM     46  C   UNL A   1      38.595  31.119  30.867  1.00  0.00     0.049 A 
ATOM     47  H   UNL A   1      40.143  30.439  32.087  1.00  0.00     0.167 HD
ATOM     48  C   UNL A   1      43.135  28.818  34.771  1.00  0.00     0.037 A 
ATOM     49  C   UNL A   1      37.946  32.107  31.531  1.00  0.00     0.037 A 
ATOM     50  C   UNL A   1      42.618  29.952  35.482  1.00  0.00     0.049 A 
ATOM     51  C   UNL A   1      38.418  32.540  32.903  1.00  0.00     0.074 A 
ATOM     52  C   UNL A   1      43.039  30.472  36.693  1.00  0.00     0.029 A 
ATOM     53  N   UNL A   1      41.567  30.742  35.048  1.00  0.00    -0.354 N 
ATOM     54  N   UNL A   1      39.399  32.057  33.628  1.00  0.00    -0.248 NA
ATOM     55  C   UNL A   1      37.709  33.665  33.542  1.00  0.00     0.031 C 
ATOM     56  C   UNL A   1      42.221  31.561  37.007  1.00  0.00     0.029 A 
ATOM     57  C   UNL A   1      41.316  31.739  35.974  1.00  0.00     0.049 A 
ATOM     58  H   UNL A   1      41.073  30.613  34.207  1.00  0.00     0.167 HD
ATOM     59  C   UNL A   1      39.445  32.835  34.784  1.00  0.00     0.074 A 
ATOM     60  C   UNL A   1      38.397  33.824  34.668  1.00  0.00     0.031 C 
ATOM     61  C   UNL A   1      40.286  32.737  35.844  1.00  0.00     0.037 A 
BRANCH  48  62
ATOM     62  C   UNL A   1      44.251  28.027  35.400  1.00  0.00     0.058 A 
ATOM     63  C   UNL A   1      45.595  28.379  35.187  1.00  0.00     0.135 A 
ATOM     64  C   UNL A   1      43.986  26.927  36.229  1.00  0.00     0.135 A 
ATOM     65  F   UNL A   1      45.906  29.414  34.390  1.00  0.00    -0.206 F 
ATOM     66  C   UNL A   1      46.636  27.643  35.738  1.00  0.00     0.059 A 
ATOM     67  C   UNL A   1      45.014  26.196  36.821  1.00  0.00     0.059 A 
ATOM     68  F   UNL A   1      42.721  26.548  36.469  1.00  0.00    -0.206 F 
ATOM     69  C   UNL A   1      46.336  26.552  36.554  1.00  0.00     0.060 A 
BRANCH  69  70
ATOM     70  S   UNL A   1      47.706  25.616  37.262  1.00  0.00     0.124 S 
ATOM     71  O   UNL A   1      47.017  24.798  38.255  1.00  0.00    -0.237 OA
ATOM     72  O   UNL A   1      48.223  24.899  36.101  1.00  0.00    -0.237 OA
ATOM     73  O   UNL A   1      48.583  26.651  37.801  1.00  0.00    -0.744 OA
ENDBRANCH  69  70
ENDBRANCH  48  62
BRANCH  49  74
ATOM     74  C   UNL A   1      36.809  32.836  30.885  1.00  0.00     0.058 A 
ATOM     75  C   UNL A   1      35.483  32.562  31.257  1.00  0.00     0.135 A 
ATOM     76  C   UNL A   1      37.012  33.802  29.887  1.00  0.00     0.135 A 
ATOM     77  F   UNL A   1      35.230  31.624  32.183  1.00  0.00    -0.206 F 
ATOM     78  C   UNL A   1      34.402  33.220  30.676  1.00  0.00     0.059 A 
ATOM     79  C   UNL A   1      35.946  34.489  29.300  1.00  0.00     0.059 A 
ATOM     80  F   UNL A   1      38.256  34.097  29.481  1.00  0.00    -0.206 F 
ATOM     81  C   UNL A   1      34.644  34.193  29.705  1.00  0.00     0.060 A 
BRANCH  81  82
ATOM     82  S   UNL A   1      33.234  35.099  29.027  1.00  0.00     0.124 S 
ATOM     83  O   UNL A   1      33.882  36.273  28.452  1.00  0.00    -0.237 OA
ATOM     84  O   UNL A   1      32.690  34.140  28.071  1.00  0.00    -0.237 OA
ATOM     85  O   UNL A   1      32.400  35.350  30.199  1.00  0.00    -0.744 OA
ENDBRANCH  81  82
ENDBRANCH  49  74
BRANCH  61  86
ATOM     86  C   UNL A   1      40.151  33.726  36.970  1.00  0.00     0.058 A 
ATOM     87  C   UNL A   1      40.930  34.892  37.015  1.00  0.00     0.135 A 
ATOM     88  C   UNL A   1      39.132  33.579  37.927  1.00  0.00     0.135 A 
ATOM     89  F   UNL A   1      41.916  35.080  36.125  1.00  0.00    -0.206 F 
ATOM     90  C   UNL A   1      40.696  35.883  37.964  1.00  0.00     0.059 A 
ATOM     91  C   UNL A   1      38.869  34.567  38.871  1.00  0.00     0.059 A 
ATOM     92  F   UNL A   1      38.350  32.488  37.918  1.00  0.00    -0.206 F 
ATOM     93  C   UNL A   1      39.655  35.718  38.880  1.00  0.00     0.060 A 
BRANCH  93  94
ATOM     94  S   UNL A   1      39.306  37.056  40.042  1.00  0.00     0.124 S 
ATOM     95  O   UNL A   1      38.556  36.356  41.080  1.00  0.00    -0.237 OA
ATOM     96  O   UNL A   1      40.645  37.499  40.418  1.00  0.00    -0.237 OA
ATOM     97  O   UNL A   1      38.536  38.008  39.247  1.00  0.00    -0.744 OA
ENDBRANCH  93  94
ENDBRANCH  61  86
ENDBRANCH  35  36
ENDBRANCH  27  30
ENDBRANCH  25  26
ENDBRANCH  24  25
ENDBRANCH   1  24
TORSDOF 17
ENDMDL
