MODEL 1
REMARK VINA RESULT:     -12.4      0.000      0.000
REMARK SMILES Nc1cc(C(=O)NCCCNC(=O)c2ccc(-c3c4nc(c(-c5c(F)cc(S(=O)(=O)[O-])cc5F)c5ccc([nH]5)c(-c5c(F)cc(S(=O)(=O)[O-])cc5F)c5nc(c(-c6c(F)cc(S(=O)(=O)[O-])cc6F)c6ccc3[nH]6)C=C5)C=C4)cc2)ccc1N1CC2(CCOCC2)C1
REMARK SMILES IDX 10 1 9 2 8 3 7 4 5 5 6 6 4 8 2 9 3 10 82 11 81 12 80 13 1 14
REMARK SMILES IDX 83 17 84 18 91 19 85 20 86 21 90 22 87 23 89 24 88 25 11 26
REMARK SMILES IDX 12 27 13 29 14 30 15 31 79 32 16 33 78 34 17 35 18 36 19 37
REMARK SMILES IDX 72 38 20 39 77 40 71 41 73 42 21 43 76 44 70 45 69 46 22 48
REMARK SMILES IDX 56 49 35 50 55 51 36 52 39 53 54 54 74 55 37 56 38 57 53 59
REMARK SMILES IDX 75 60 40 61 23 62 24 63 33 64 25 65 26 66 32 67 34 68 27 69
REMARK SMILES IDX 28 70 29 71 30 72 31 73 57 74 58 75 67 76 59 77 60 78 66 79
REMARK SMILES IDX 68 80 61 81 62 82 63 83 64 84 65 85 41 86 42 87 51 88 43 89
REMARK SMILES IDX 44 90 50 91 52 92 45 93 46 94 47 95 48 96 49 97
REMARK H PARENT 7 7 1 15 1 16 11 28 73 47 39 58
REMARK Flexibility Score: inf
ROOT
ATOM      1  C   UNL A   1      33.587  28.186  27.237  1.00  0.00     0.118 C 
ENDROOT
BRANCH   1   2
ATOM      2  C   UNL A   1      34.016  27.826  25.814  1.00  0.00     0.042 C 
BRANCH   2   3
ATOM      3  C   UNL A   1      32.924  27.105  25.024  1.00  0.00     0.118 C 
BRANCH   3   4
ATOM      4  N   UNL A   1      33.267  27.034  23.617  1.00  0.00    -0.352 N 
ATOM      5  C   UNL A   1      33.609  26.004  22.785  1.00  0.00     0.251 C 
ATOM      6  O   UNL A   1      33.849  26.307  21.613  1.00  0.00    -0.269 OA
ATOM      7  H   UNL A   1      33.248  27.909  23.167  1.00  0.00     0.163 HD
BRANCH   5   8
ATOM      8  C   UNL A   1      33.655  24.567  23.182  1.00  0.00     0.041 A 
ATOM      9  C   UNL A   1      32.784  22.331  22.686  1.00  0.00     0.056 A 
ATOM     10  C   UNL A   1      32.860  23.701  22.415  1.00  0.00     0.041 A 
ATOM     11  C   UNL A   1      33.464  21.810  23.807  1.00  0.00     0.060 A 
ATOM     12  C   UNL A   1      34.279  22.661  24.558  1.00  0.00     0.029 A 
ATOM     13  C   UNL A   1      34.407  24.017  24.221  1.00  0.00     0.016 A 
BRANCH   9  14
ATOM     14  N   UNL A   1      31.880  21.556  21.956  1.00  0.00    -0.397 N 
ATOM     15  H   UNL A   1      31.138  21.987  21.474  1.00  0.00     0.156 HD
ATOM     16  H   UNL A   1      31.987  20.578  21.922  1.00  0.00     0.156 HD
ENDBRANCH   9  14
BRANCH  11  17
ATOM     17  N   UNL A   1      33.290  20.468  24.172  1.00  0.00    -0.369 N 
ATOM     18  C   UNL A   1      34.236  19.499  24.618  1.00  0.00     0.125 C 
ATOM     19  C   UNL A   1      32.167  19.751  24.677  1.00  0.00     0.125 C 
ATOM     20  C   UNL A   1      33.060  18.485  24.549  1.00  0.00     0.010 C 
ATOM     21  C   UNL A   1      32.963  17.462  25.675  1.00  0.00     0.039 C 
ATOM     22  C   UNL A   1      32.926  17.775  23.187  1.00  0.00     0.039 C 
ATOM     23  C   UNL A   1      34.013  16.379  25.446  1.00  0.00     0.161 C 
ATOM     24  C   UNL A   1      33.989  16.689  23.096  1.00  0.00     0.161 C 
ATOM     25  O   UNL A   1      33.832  15.758  24.170  1.00  0.00    -0.381 OA
ENDBRANCH  11  17
ENDBRANCH   5   8
ENDBRANCH   3   4
ENDBRANCH   2   3
ENDBRANCH   1   2
BRANCH   1  26
ATOM     26  N   UNL A   1      33.462  29.627  27.414  1.00  0.00    -0.352 N 
ATOM     27  C   UNL A   1      34.321  30.523  27.996  1.00  0.00     0.251 C 
ATOM     28  H   UNL A   1      32.631  30.018  27.060  1.00  0.00     0.163 HD
ATOM     29  O   UNL A   1      33.914  31.648  28.275  1.00  0.00    -0.269 OA
BRANCH  27  30
ATOM     30  C   UNL A   1      35.722  30.149  28.291  1.00  0.00     0.039 A 
ATOM     31  C   UNL A   1      36.666  30.205  27.262  1.00  0.00     0.014 A 
ATOM     32  C   UNL A   1      36.096  29.686  29.556  1.00  0.00     0.014 A 
ATOM     33  C   UNL A   1      37.992  29.842  27.513  1.00  0.00     0.010 A 
ATOM     34  C   UNL A   1      37.431  29.387  29.822  1.00  0.00     0.010 A 
ATOM     35  C   UNL A   1      38.391  29.456  28.802  1.00  0.00    -0.014 A 
BRANCH  35  36
ATOM     36  C   UNL A   1      39.805  29.114  29.102  1.00  0.00     0.031 A 
ATOM     37  C   UNL A   1      40.722  30.146  29.702  1.00  0.00     0.074 A 
ATOM     38  C   UNL A   1      40.276  27.895  28.775  1.00  0.00     0.049 A 
ATOM     39  N   UNL A   1      42.002  30.064  29.956  1.00  0.00    -0.248 NA
ATOM     40  C   UNL A   1      40.126  31.449  30.037  1.00  0.00     0.031 C 
ATOM     41  C   UNL A   1      39.493  26.826  28.151  1.00  0.00     0.029 A 
ATOM     42  N   UNL A   1      41.529  27.352  28.909  1.00  0.00    -0.354 N 
ATOM     43  C   UNL A   1      42.368  31.306  30.463  1.00  0.00     0.074 A 
ATOM     44  C   UNL A   1      41.184  32.137  30.437  1.00  0.00     0.031 C 
ATOM     45  C   UNL A   1      40.279  25.752  27.973  1.00  0.00     0.029 A 
ATOM     46  C   UNL A   1      41.627  26.066  28.434  1.00  0.00     0.049 A 
ATOM     47  H   UNL A   1      42.287  27.840  29.307  1.00  0.00     0.167 HD
ATOM     48  C   UNL A   1      43.577  31.709  30.926  1.00  0.00     0.037 A 
ATOM     49  C   UNL A   1      42.687  25.236  28.369  1.00  0.00     0.037 A 
ATOM     50  C   UNL A   1      44.742  30.866  30.974  1.00  0.00     0.049 A 
ATOM     51  C   UNL A   1      44.017  25.705  28.894  1.00  0.00     0.074 A 
ATOM     52  C   UNL A   1      46.000  31.161  31.472  1.00  0.00     0.029 A 
ATOM     53  N   UNL A   1      44.796  29.560  30.506  1.00  0.00    -0.354 N 
ATOM     54  N   UNL A   1      44.333  26.866  29.417  1.00  0.00    -0.248 NA
ATOM     55  C   UNL A   1      45.132  24.751  28.826  1.00  0.00     0.031 C 
ATOM     56  C   UNL A   1      46.822  30.046  31.274  1.00  0.00     0.029 A 
ATOM     57  C   UNL A   1      46.066  29.042  30.692  1.00  0.00     0.049 A 
ATOM     58  H   UNL A   1      44.041  29.074  30.102  1.00  0.00     0.167 HD
ATOM     59  C   UNL A   1      45.676  26.773  29.764  1.00  0.00     0.074 A 
ATOM     60  C   UNL A   1      46.109  25.439  29.401  1.00  0.00     0.031 C 
ATOM     61  C   UNL A   1      46.477  27.708  30.332  1.00  0.00     0.037 A 
BRANCH  48  62
ATOM     62  C   UNL A   1      43.695  33.123  31.425  1.00  0.00     0.058 A 
ATOM     63  C   UNL A   1      43.383  33.465  32.751  1.00  0.00     0.135 A 
ATOM     64  C   UNL A   1      44.158  34.145  30.580  1.00  0.00     0.135 A 
ATOM     65  F   UNL A   1      42.922  32.531  33.598  1.00  0.00    -0.206 F 
ATOM     66  C   UNL A   1      43.493  34.773  33.212  1.00  0.00     0.059 A 
ATOM     67  C   UNL A   1      44.303  35.455  31.027  1.00  0.00     0.059 A 
ATOM     68  F   UNL A   1      44.473  33.875  29.303  1.00  0.00    -0.206 F 
ATOM     69  C   UNL A   1      43.953  35.762  32.341  1.00  0.00     0.060 A 
BRANCH  69  70
ATOM     70  S   UNL A   1      44.093  37.454  32.955  1.00  0.00     0.124 S 
ATOM     71  O   UNL A   1      43.074  37.468  34.002  1.00  0.00    -0.237 OA
ATOM     72  O   UNL A   1      45.475  37.506  33.418  1.00  0.00    -0.237 OA
ATOM     73  O   UNL A   1      43.797  38.267  31.780  1.00  0.00    -0.744 OA
ENDBRANCH  69  70
ENDBRANCH  48  62
BRANCH  49  74
ATOM     74  C   UNL A   1      42.524  23.870  27.808  1.00  0.00     0.058 A 
ATOM     75  C   UNL A   1      42.406  22.756  28.652  1.00  0.00     0.135 A 
ATOM     76  C   UNL A   1      42.464  23.651  26.423  1.00  0.00     0.135 A 
ATOM     77  F   UNL A   1      42.463  22.914  29.984  1.00  0.00    -0.206 F 
ATOM     78  C   UNL A   1      42.248  21.470  28.145  1.00  0.00     0.059 A 
ATOM     79  C   UNL A   1      42.282  22.377  25.892  1.00  0.00     0.059 A 
ATOM     80  F   UNL A   1      42.554  24.686  25.574  1.00  0.00    -0.206 F 
ATOM     81  C   UNL A   1      42.184  21.292  26.762  1.00  0.00     0.060 A 
BRANCH  81  82
ATOM     82  S   UNL A   1      41.925  19.626  26.114  1.00  0.00     0.124 S 
ATOM     83  O   UNL A   1      42.391  18.803  27.223  1.00  0.00    -0.237 OA
ATOM     84  O   UNL A   1      40.486  19.612  25.868  1.00  0.00    -0.237 OA
ATOM     85  O   UNL A   1      42.756  19.601  24.914  1.00  0.00    -0.744 OA
ENDBRANCH  81  82
ENDBRANCH  49  74
BRANCH  61  86
ATOM     86  C   UNL A   1      47.897  27.310  30.629  1.00  0.00     0.058 A 
ATOM     87  C   UNL A   1      48.251  26.698  31.840  1.00  0.00     0.135 A 
ATOM     88  C   UNL A   1      48.901  27.498  29.667  1.00  0.00     0.135 A 
ATOM     89  F   UNL A   1      47.328  26.503  32.795  1.00  0.00    -0.206 F 
ATOM     90  C   UNL A   1      49.560  26.303  32.097  1.00  0.00     0.059 A 
ATOM     91  C   UNL A   1      50.212  27.088  29.892  1.00  0.00     0.059 A 
ATOM     92  F   UNL A   1      48.611  28.070  28.488  1.00  0.00    -0.206 F 
ATOM     93  C   UNL A   1      50.534  26.501  31.115  1.00  0.00     0.060 A 
BRANCH  93  94
ATOM     94  S   UNL A   1      52.221  25.952  31.446  1.00  0.00     0.124 S 
ATOM     95  O   UNL A   1      52.836  26.084  30.129  1.00  0.00    -0.237 OA
ATOM     96  O   UNL A   1      52.670  26.907  32.454  1.00  0.00    -0.237 OA
ATOM     97  O   UNL A   1      52.045  24.584  31.923  1.00  0.00    -0.744 OA
ENDBRANCH  93  94
ENDBRANCH  61  86
ENDBRANCH  35  36
ENDBRANCH  27  30
ENDBRANCH   1  26
TORSDOF 15
ENDMDL
MODEL 2
REMARK VINA RESULT:     -12.2      3.566      9.997
REMARK SMILES Nc1cc(C(=O)NCCCNC(=O)c2ccc(-c3c4nc(c(-c5c(F)cc(S(=O)(=O)[O-])cc5F)c5ccc([nH]5)c(-c5c(F)cc(S(=O)(=O)[O-])cc5F)c5nc(c(-c6c(F)cc(S(=O)(=O)[O-])cc6F)c6ccc3[nH]6)C=C5)C=C4)cc2)ccc1N1CC2(CCOCC2)C1
REMARK SMILES IDX 10 1 9 2 8 3 7 4 5 5 6 6 4 8 2 9 3 10 82 11 81 12 80 13 1 14
REMARK SMILES IDX 83 17 84 18 91 19 85 20 86 21 90 22 87 23 89 24 88 25 11 26
REMARK SMILES IDX 12 27 13 29 14 30 15 31 79 32 16 33 78 34 17 35 18 36 19 37
REMARK SMILES IDX 72 38 20 39 77 40 71 41 73 42 21 43 76 44 70 45 69 46 22 48
REMARK SMILES IDX 56 49 35 50 55 51 36 52 39 53 54 54 74 55 37 56 38 57 53 59
REMARK SMILES IDX 75 60 40 61 23 62 24 63 33 64 25 65 26 66 32 67 34 68 27 69
REMARK SMILES IDX 28 70 29 71 30 72 31 73 57 74 58 75 67 76 59 77 60 78 66 79
REMARK SMILES IDX 68 80 61 81 62 82 63 83 64 84 65 85 41 86 42 87 51 88 43 89
REMARK SMILES IDX 44 90 50 91 52 92 45 93 46 94 47 95 48 96 49 97
REMARK H PARENT 7 7 1 15 1 16 11 28 73 47 39 58
REMARK Flexibility Score: inf
ROOT
ATOM      1  C   UNL A   1      36.775  24.041  25.122  1.00  0.00     0.118 C 
ENDROOT
BRANCH   1   2
ATOM      2  C   UNL A   1      35.329  23.547  25.168  1.00  0.00     0.042 C 
BRANCH   2   3
ATOM      3  C   UNL A   1      34.310  24.683  25.267  1.00  0.00     0.118 C 
BRANCH   3   4
ATOM      4  N   UNL A   1      33.251  24.347  26.197  1.00  0.00    -0.352 N 
ATOM      5  C   UNL A   1      31.957  24.767  26.339  1.00  0.00     0.251 C 
ATOM      6  O   UNL A   1      31.319  24.264  27.267  1.00  0.00    -0.269 OA
ATOM      7  H   UNL A   1      33.518  23.676  26.866  1.00  0.00     0.163 HD
BRANCH   5   8
ATOM      8  C   UNL A   1      31.269  25.729  25.429  1.00  0.00     0.041 A 
ATOM      9  C   UNL A   1      31.048  28.093  24.823  1.00  0.00     0.056 A 
ATOM     10  C   UNL A   1      31.628  27.076  25.589  1.00  0.00     0.041 A 
ATOM     11  C   UNL A   1      30.018  27.771  23.914  1.00  0.00     0.060 A 
ATOM     12  C   UNL A   1      29.675  26.428  23.730  1.00  0.00     0.029 A 
ATOM     13  C   UNL A   1      30.326  25.414  24.450  1.00  0.00     0.016 A 
BRANCH   9  14
ATOM     14  N   UNL A   1      31.369  29.419  25.122  1.00  0.00    -0.397 N 
ATOM     15  H   UNL A   1      30.665  30.041  25.416  1.00  0.00     0.156 HD
ATOM     16  H   UNL A   1      32.299  29.731  25.039  1.00  0.00     0.156 HD
ENDBRANCH   9  14
BRANCH  11  17
ATOM     17  N   UNL A   1      29.333  28.790  23.239  1.00  0.00    -0.369 N 
ATOM     18  C   UNL A   1      29.813  29.804  22.359  1.00  0.00     0.125 C 
ATOM     19  C   UNL A   1      27.983  28.909  22.800  1.00  0.00     0.125 C 
ATOM     20  C   UNL A   1      28.362  30.359  22.389  1.00  0.00     0.010 C 
ATOM     21  C   UNL A   1      27.789  30.868  21.071  1.00  0.00     0.039 C 
ATOM     22  C   UNL A   1      28.112  31.396  23.501  1.00  0.00     0.039 C 
ATOM     23  C   UNL A   1      28.391  32.238  20.773  1.00  0.00     0.161 C 
ATOM     24  C   UNL A   1      28.710  32.729  23.069  1.00  0.00     0.161 C 
ATOM     25  O   UNL A   1      28.121  33.155  21.838  1.00  0.00    -0.381 OA
ENDBRANCH  11  17
ENDBRANCH   5   8
ENDBRANCH   3   4
ENDBRANCH   2   3
ENDBRANCH   1   2
BRANCH   1  26
ATOM     26  N   UNL A   1      37.719  22.976  25.435  1.00  0.00    -0.352 N 
ATOM     27  C   UNL A   1      38.937  23.032  26.062  1.00  0.00     0.251 C 
ATOM     28  H   UNL A   1      37.437  22.076  25.153  1.00  0.00     0.163 HD
ATOM     29  O   UNL A   1      39.689  22.063  25.997  1.00  0.00    -0.269 OA
BRANCH  27  30
ATOM     30  C   UNL A   1      39.351  24.241  26.808  1.00  0.00     0.039 A 
ATOM     31  C   UNL A   1      38.896  24.414  28.118  1.00  0.00     0.014 A 
ATOM     32  C   UNL A   1      40.131  25.231  26.204  1.00  0.00     0.014 A 
ATOM     33  C   UNL A   1      39.262  25.554  28.838  1.00  0.00     0.010 A 
ATOM     34  C   UNL A   1      40.549  26.336  26.943  1.00  0.00     0.010 A 
ATOM     35  C   UNL A   1      40.113  26.512  28.265  1.00  0.00    -0.014 A 
BRANCH  35  36
ATOM     36  C   UNL A   1      40.554  27.707  29.029  1.00  0.00     0.031 A 
ATOM     37  C   UNL A   1      41.892  27.713  29.719  1.00  0.00     0.074 A 
ATOM     38  C   UNL A   1      39.722  28.759  29.152  1.00  0.00     0.049 A 
ATOM     39  N   UNL A   1      42.414  28.624  30.498  1.00  0.00    -0.248 NA
ATOM     40  C   UNL A   1      42.743  26.528  29.527  1.00  0.00     0.031 C 
ATOM     41  C   UNL A   1      38.384  28.853  28.563  1.00  0.00     0.029 A 
ATOM     42  N   UNL A   1      39.872  29.947  29.824  1.00  0.00    -0.354 N 
ATOM     43  C   UNL A   1      43.645  28.116  30.903  1.00  0.00     0.074 A 
ATOM     44  C   UNL A   1      43.769  26.798  30.320  1.00  0.00     0.031 C 
ATOM     45  C   UNL A   1      37.844  30.040  28.884  1.00  0.00     0.029 A 
ATOM     46  C   UNL A   1      38.779  30.775  29.731  1.00  0.00     0.049 A 
ATOM     47  H   UNL A   1      40.686  30.183  30.325  1.00  0.00     0.167 HD
ATOM     48  C   UNL A   1      44.591  28.705  31.674  1.00  0.00     0.037 A 
ATOM     49  C   UNL A   1      38.550  31.987  30.274  1.00  0.00     0.037 A 
ATOM     50  C   UNL A   1      44.470  30.028  32.228  1.00  0.00     0.049 A 
ATOM     51  C   UNL A   1      39.618  32.621  31.122  1.00  0.00     0.074 A 
ATOM     52  C   UNL A   1      45.393  30.736  32.978  1.00  0.00     0.029 A 
ATOM     53  N   UNL A   1      43.358  30.846  32.091  1.00  0.00    -0.354 N 
ATOM     54  N   UNL A   1      40.796  32.148  31.453  1.00  0.00    -0.248 NA
ATOM     55  C   UNL A   1      39.330  33.955  31.667  1.00  0.00     0.031 C 
ATOM     56  C   UNL A   1      44.825  31.967  33.324  1.00  0.00     0.029 A 
ATOM     57  C   UNL A   1      43.565  32.044  32.753  1.00  0.00     0.049 A 
ATOM     58  H   UNL A   1      42.540  30.609  31.596  1.00  0.00     0.167 HD
ATOM     59  C   UNL A   1      41.400  33.136  32.223  1.00  0.00     0.074 A 
ATOM     60  C   UNL A   1      40.462  34.237  32.298  1.00  0.00     0.031 C 
ATOM     61  C   UNL A   1      42.621  33.132  32.812  1.00  0.00     0.037 A 
BRANCH  48  62
ATOM     62  C   UNL A   1      45.844  27.922  31.958  1.00  0.00     0.058 A 
ATOM     63  C   UNL A   1      45.961  27.106  33.095  1.00  0.00     0.135 A 
ATOM     64  C   UNL A   1      46.929  27.959  31.067  1.00  0.00     0.135 A 
ATOM     65  F   UNL A   1      44.960  27.045  33.988  1.00  0.00    -0.206 F 
ATOM     66  C   UNL A   1      47.119  26.381  33.356  1.00  0.00     0.059 A 
ATOM     67  C   UNL A   1      48.087  27.221  31.293  1.00  0.00     0.059 A 
ATOM     68  F   UNL A   1      46.871  28.720  29.963  1.00  0.00    -0.206 F 
ATOM     69  C   UNL A   1      48.179  26.447  32.449  1.00  0.00     0.060 A 
BRANCH  69  70
ATOM     70  S   UNL A   1      49.674  25.499  32.802  1.00  0.00     0.124 S 
ATOM     71  O   UNL A   1      49.138  24.395  33.593  1.00  0.00    -0.237 OA
ATOM     72  O   UNL A   1      50.146  25.150  31.467  1.00  0.00    -0.237 OA
ATOM     73  O   UNL A   1      50.512  26.445  33.532  1.00  0.00    -0.744 OA
ENDBRANCH  69  70
ENDBRANCH  48  62
BRANCH  49  74
ATOM     74  C   UNL A   1      37.266  32.687  30.010  1.00  0.00     0.058 A 
ATOM     75  C   UNL A   1      36.130  32.423  30.788  1.00  0.00     0.135 A 
ATOM     76  C   UNL A   1      37.153  33.646  28.991  1.00  0.00     0.135 A 
ATOM     77  F   UNL A   1      36.188  31.511  31.771  1.00  0.00    -0.206 F 
ATOM     78  C   UNL A   1      34.922  33.074  30.560  1.00  0.00     0.059 A 
ATOM     79  C   UNL A   1      35.961  34.327  28.758  1.00  0.00     0.059 A 
ATOM     80  F   UNL A   1      38.216  33.948  28.230  1.00  0.00    -0.206 F 
ATOM     81  C   UNL A   1      34.849  34.027  29.543  1.00  0.00     0.060 A 
BRANCH  81  82
ATOM     82  S   UNL A   1      33.291  34.904  29.288  1.00  0.00     0.124 S 
ATOM     83  O   UNL A   1      32.651  34.078  28.271  1.00  0.00    -0.237 OA
ATOM     84  O   UNL A   1      32.692  34.860  30.618  1.00  0.00    -0.237 OA
ATOM     85  O   UNL A   1      33.722  36.229  28.849  1.00  0.00    -0.744 OA
ENDBRANCH  81  82
ENDBRANCH  49  74
BRANCH  61  86
ATOM     86  C   UNL A   1      43.028  34.370  33.562  1.00  0.00     0.058 A 
ATOM     87  C   UNL A   1      42.811  34.498  34.942  1.00  0.00     0.135 A 
ATOM     88  C   UNL A   1      43.689  35.416  32.900  1.00  0.00     0.135 A 
ATOM     89  F   UNL A   1      42.177  33.529  35.620  1.00  0.00    -0.206 F 
ATOM     90  C   UNL A   1      43.218  35.633  35.638  1.00  0.00     0.059 A 
ATOM     91  C   UNL A   1      44.128  36.548  33.579  1.00  0.00     0.059 A 
ATOM     92  F   UNL A   1      43.929  35.337  31.581  1.00  0.00    -0.206 F 
ATOM     93  C   UNL A   1      43.878  36.652  34.946  1.00  0.00     0.060 A 
BRANCH  93  94
ATOM     94  S   UNL A   1      44.433  38.103  35.866  1.00  0.00     0.124 S 
ATOM     95  O   UNL A   1      45.877  37.892  35.903  1.00  0.00    -0.237 OA
ATOM     96  O   UNL A   1      43.974  39.203  35.025  1.00  0.00    -0.237 OA
ATOM     97  O   UNL A   1      43.747  37.975  37.148  1.00  0.00    -0.744 OA
ENDBRANCH  93  94
ENDBRANCH  61  86
ENDBRANCH  35  36
ENDBRANCH  27  30
ENDBRANCH   1  26
TORSDOF 15
ENDMDL
MODEL 3
REMARK VINA RESULT:     -12.0      3.623      9.854
REMARK SMILES Nc1cc(C(=O)NCCCNC(=O)c2ccc(-c3c4nc(c(-c5c(F)cc(S(=O)(=O)[O-])cc5F)c5ccc([nH]5)c(-c5c(F)cc(S(=O)(=O)[O-])cc5F)c5nc(c(-c6c(F)cc(S(=O)(=O)[O-])cc6F)c6ccc3[nH]6)C=C5)C=C4)cc2)ccc1N1CC2(CCOCC2)C1
REMARK SMILES IDX 10 1 9 2 8 3 7 4 5 5 6 6 4 8 2 9 3 10 82 11 81 12 80 13 1 14
REMARK SMILES IDX 83 17 84 18 91 19 85 20 86 21 90 22 87 23 89 24 88 25 11 26
REMARK SMILES IDX 12 27 13 29 14 30 15 31 79 32 16 33 78 34 17 35 18 36 19 37
REMARK SMILES IDX 72 38 20 39 77 40 71 41 73 42 21 43 76 44 70 45 69 46 22 48
REMARK SMILES IDX 56 49 35 50 55 51 36 52 39 53 54 54 74 55 37 56 38 57 53 59
REMARK SMILES IDX 75 60 40 61 23 62 24 63 33 64 25 65 26 66 32 67 34 68 27 69
REMARK SMILES IDX 28 70 29 71 30 72 31 73 57 74 58 75 67 76 59 77 60 78 66 79
REMARK SMILES IDX 68 80 61 81 62 82 63 83 64 84 65 85 41 86 42 87 51 88 43 89
REMARK SMILES IDX 44 90 50 91 52 92 45 93 46 94 47 95 48 96 49 97
REMARK H PARENT 7 7 1 15 1 16 11 28 73 47 39 58
REMARK Flexibility Score: inf
ROOT
ATOM      1  C   UNL A   1      36.217  23.593  26.172  1.00  0.00     0.118 C 
ENDROOT
BRANCH   1   2
ATOM      2  C   UNL A   1      35.333  23.498  24.929  1.00  0.00     0.042 C 
BRANCH   2   3
ATOM      3  C   UNL A   1      34.243  24.568  24.886  1.00  0.00     0.118 C 
BRANCH   3   4
ATOM      4  N   UNL A   1      33.265  24.352  25.934  1.00  0.00    -0.352 N 
ATOM      5  C   UNL A   1      32.024  24.870  26.183  1.00  0.00     0.251 C 
ATOM      6  O   UNL A   1      31.454  24.457  27.196  1.00  0.00    -0.269 OA
ATOM      7  H   UNL A   1      33.554  23.694  26.606  1.00  0.00     0.163 HD
BRANCH   5   8
ATOM      8  C   UNL A   1      31.312  25.838  25.298  1.00  0.00     0.041 A 
ATOM      9  C   UNL A   1      31.070  28.206  24.717  1.00  0.00     0.056 A 
ATOM     10  C   UNL A   1      31.671  27.185  25.461  1.00  0.00     0.041 A 
ATOM     11  C   UNL A   1      30.019  27.889  23.831  1.00  0.00     0.060 A 
ATOM     12  C   UNL A   1      29.675  26.547  23.645  1.00  0.00     0.029 A 
ATOM     13  C   UNL A   1      30.345  25.529  24.340  1.00  0.00     0.016 A 
BRANCH   9  14
ATOM     14  N   UNL A   1      31.395  29.530  25.019  1.00  0.00    -0.397 N 
ATOM     15  H   UNL A   1      31.418  30.207  24.304  1.00  0.00     0.156 HD
ATOM     16  H   UNL A   1      31.600  29.787  25.947  1.00  0.00     0.156 HD
ENDBRANCH   9  14
BRANCH  11  17
ATOM     17  N   UNL A   1      29.315  28.911  23.181  1.00  0.00    -0.369 N 
ATOM     18  C   UNL A   1      29.768  29.921  22.282  1.00  0.00     0.125 C 
ATOM     19  C   UNL A   1      27.950  29.038  22.794  1.00  0.00     0.125 C 
ATOM     20  C   UNL A   1      28.322  30.485  22.367  1.00  0.00     0.010 C 
ATOM     21  C   UNL A   1      27.703  30.996  21.071  1.00  0.00     0.039 C 
ATOM     22  C   UNL A   1      28.122  31.526  23.486  1.00  0.00     0.039 C 
ATOM     23  C   UNL A   1      28.301  32.363  20.748  1.00  0.00     0.161 C 
ATOM     24  C   UNL A   1      28.711  32.854  23.029  1.00  0.00     0.161 C 
ATOM     25  O   UNL A   1      28.078  33.282  21.821  1.00  0.00    -0.381 OA
ENDBRANCH  11  17
ENDBRANCH   5   8
ENDBRANCH   3   4
ENDBRANCH   2   3
ENDBRANCH   1   2
BRANCH   1  26
ATOM     26  N   UNL A   1      37.236  22.552  26.191  1.00  0.00    -0.352 N 
ATOM     27  C   UNL A   1      38.599  22.651  26.303  1.00  0.00     0.251 C 
ATOM     28  H   UNL A   1      36.891  21.633  26.110  1.00  0.00     0.163 HD
ATOM     29  O   UNL A   1      39.294  21.675  26.038  1.00  0.00    -0.269 OA
BRANCH  27  30
ATOM     30  C   UNL A   1      39.234  23.916  26.736  1.00  0.00     0.039 A 
ATOM     31  C   UNL A   1      39.220  24.248  28.093  1.00  0.00     0.014 A 
ATOM     32  C   UNL A   1      39.787  24.802  25.807  1.00  0.00     0.014 A 
ATOM     33  C   UNL A   1      39.800  25.443  28.524  1.00  0.00     0.010 A 
ATOM     34  C   UNL A   1      40.422  25.963  26.244  1.00  0.00     0.010 A 
ATOM     35  C   UNL A   1      40.429  26.298  27.606  1.00  0.00    -0.014 A 
BRANCH  35  36
ATOM     36  C   UNL A   1      41.095  27.550  28.048  1.00  0.00     0.031 A 
ATOM     37  C   UNL A   1      42.592  27.682  27.962  1.00  0.00     0.074 A 
ATOM     38  C   UNL A   1      40.356  28.540  28.586  1.00  0.00     0.049 A 
ATOM     39  N   UNL A   1      43.359  28.657  28.374  1.00  0.00    -0.248 NA
ATOM     40  C   UNL A   1      43.324  26.559  27.355  1.00  0.00     0.031 C 
ATOM     41  C   UNL A   1      38.902  28.510  28.760  1.00  0.00     0.029 A 
ATOM     42  N   UNL A   1      40.726  29.759  29.097  1.00  0.00    -0.354 N 
ATOM     43  C   UNL A   1      44.663  28.259  28.093  1.00  0.00     0.074 A 
ATOM     44  C   UNL A   1      44.583  26.934  27.518  1.00  0.00     0.031 C 
ATOM     45  C   UNL A   1      38.503  29.663  29.320  1.00  0.00     0.029 A 
ATOM     46  C   UNL A   1      39.672  30.497  29.579  1.00  0.00     0.049 A 
ATOM     47  H   UNL A   1      41.659  30.073  29.117  1.00  0.00     0.167 HD
ATOM     48  C   UNL A   1      45.816  28.945  28.281  1.00  0.00     0.037 A 
ATOM     49  C   UNL A   1      39.650  31.707  30.172  1.00  0.00     0.037 A 
ATOM     50  C   UNL A   1      45.883  30.275  28.829  1.00  0.00     0.049 A 
ATOM     51  C   UNL A   1      40.944  32.451  30.365  1.00  0.00     0.074 A 
ATOM     52  C   UNL A   1      46.996  31.077  29.011  1.00  0.00     0.029 A 
ATOM     53  N   UNL A   1      44.791  31.000  29.283  1.00  0.00    -0.354 N 
ATOM     54  N   UNL A   1      42.162  32.081  30.047  1.00  0.00    -0.248 NA
ATOM     55  C   UNL A   1      40.861  33.778  30.990  1.00  0.00     0.031 C 
ATOM     56  C   UNL A   1      46.581  32.273  29.608  1.00  0.00     0.029 A 
ATOM     57  C   UNL A   1      45.205  32.234  29.757  1.00  0.00     0.049 A 
ATOM     58  H   UNL A   1      43.858  30.684  29.271  1.00  0.00     0.167 HD
ATOM     59  C   UNL A   1      42.987  33.138  30.410  1.00  0.00     0.074 A 
ATOM     60  C   UNL A   1      42.129  34.167  30.961  1.00  0.00     0.031 C 
ATOM     61  C   UNL A   1      44.334  33.248  30.296  1.00  0.00     0.037 A 
BRANCH  48  62
ATOM     62  C   UNL A   1      47.100  28.270  27.882  1.00  0.00     0.058 A 
ATOM     63  C   UNL A   1      47.808  27.449  28.774  1.00  0.00     0.135 A 
ATOM     64  C   UNL A   1      47.613  28.417  26.583  1.00  0.00     0.135 A 
ATOM     65  F   UNL A   1      47.371  27.285  30.033  1.00  0.00    -0.206 F 
ATOM     66  C   UNL A   1      48.995  26.824  28.404  1.00  0.00     0.059 A 
ATOM     67  C   UNL A   1      48.784  27.779  26.181  1.00  0.00     0.059 A 
ATOM     68  F   UNL A   1      46.976  29.189  25.687  1.00  0.00    -0.206 F 
ATOM     69  C   UNL A   1      49.476  26.997  27.105  1.00  0.00     0.060 A 
BRANCH  69  70
ATOM     70  S   UNL A   1      51.016  26.178  26.640  1.00  0.00     0.124 S 
ATOM     71  O   UNL A   1      50.911  26.166  25.184  1.00  0.00    -0.237 OA
ATOM     72  O   UNL A   1      52.027  27.072  27.194  1.00  0.00    -0.237 OA
ATOM     73  O   UNL A   1      50.915  24.874  27.288  1.00  0.00    -0.744 OA
ENDBRANCH  69  70
ENDBRANCH  48  62
BRANCH  49  74
ATOM     74  C   UNL A   1      38.357  32.298  30.603  1.00  0.00     0.058 A 
ATOM     75  C   UNL A   1      37.838  32.038  31.880  1.00  0.00     0.135 A 
ATOM     76  C   UNL A   1      37.625  33.148  29.760  1.00  0.00     0.135 A 
ATOM     77  F   UNL A   1      38.499  31.228  32.721  1.00  0.00    -0.206 F 
ATOM     78  C   UNL A   1      36.632  32.588  32.303  1.00  0.00     0.059 A 
ATOM     79  C   UNL A   1      36.427  33.729  30.169  1.00  0.00     0.059 A 
ATOM     80  F   UNL A   1      38.087  33.442  28.535  1.00  0.00    -0.206 F 
ATOM     81  C   UNL A   1      35.935  33.435  31.439  1.00  0.00     0.060 A 
BRANCH  81  82
ATOM     82  S   UNL A   1      34.397  34.185  32.016  1.00  0.00     0.124 S 
ATOM     83  O   UNL A   1      33.853  33.130  32.862  1.00  0.00    -0.237 OA
ATOM     84  O   UNL A   1      34.878  35.377  32.710  1.00  0.00    -0.237 OA
ATOM     85  O   UNL A   1      33.667  34.445  30.778  1.00  0.00    -0.744 OA
ENDBRANCH  81  82
ENDBRANCH  49  74
BRANCH  61  86
ATOM     86  C   UNL A   1      44.960  34.540  30.745  1.00  0.00     0.058 A 
ATOM     87  C   UNL A   1      45.438  34.710  32.052  1.00  0.00     0.135 A 
ATOM     88  C   UNL A   1      45.129  35.598  29.839  1.00  0.00     0.135 A 
ATOM     89  F   UNL A   1      45.294  33.730  32.958  1.00  0.00    -0.206 F 
ATOM     90  C   UNL A   1      46.046  35.896  32.453  1.00  0.00     0.059 A 
ATOM     91  C   UNL A   1      45.757  36.783  30.210  1.00  0.00     0.059 A 
ATOM     92  F   UNL A   1      44.698  35.481  28.573  1.00  0.00    -0.206 F 
ATOM     93  C   UNL A   1      46.202  36.927  31.524  1.00  0.00     0.060 A 
BRANCH  93  94
ATOM     94  S   UNL A   1      47.024  38.446  32.046  1.00  0.00     0.124 S 
ATOM     95  O   UNL A   1      47.982  38.648  30.965  1.00  0.00    -0.237 OA
ATOM     96  O   UNL A   1      45.919  39.399  32.100  1.00  0.00    -0.237 OA
ATOM     97  O   UNL A   1      47.601  38.093  33.339  1.00  0.00    -0.744 OA
ENDBRANCH  93  94
ENDBRANCH  61  86
ENDBRANCH  35  36
ENDBRANCH  27  30
ENDBRANCH   1  26
TORSDOF 15
ENDMDL
