MODEL 1
REMARK VINA RESULT:     -12.5      0.000      0.000
REMARK SMILES CC1=C[C@H](C)[C@@H](C(=O)NCCCNC(=O)c2ccc(-c3c4nc(c(-c5c(F)cc(S(=O)(=O)[O-])cc5F)c5ccc([nH]5)c(-c5c(F)cc(S(=O)(=O)[O-])cc5F)c5nc(c(-c6c(F)cc(S(=O)(=O)[O-])cc6F)c6ccc3[nH]6)C=C5)C=C4)cc2)[C@H](C(=O)Nc2cccnc2)C1
REMARK SMILES IDX 11 1 10 2 9 3 7 4 8 5 6 7 1 8 2 9 3 10 92 11 4 12 82 13 5 14
REMARK SMILES IDX 83 15 84 16 85 17 86 19 87 20 91 21 88 22 90 23 89 24 12 25
REMARK SMILES IDX 13 26 14 27 15 29 16 30 17 31 81 32 18 33 80 34 19 35 20 36
REMARK SMILES IDX 21 37 74 38 22 39 79 40 73 41 75 42 23 43 78 44 72 45 71 46
REMARK SMILES IDX 24 48 58 49 37 50 57 51 38 52 41 53 56 54 76 55 39 56 40 57
REMARK SMILES IDX 55 59 77 60 42 61 25 62 26 63 35 64 27 65 28 66 34 67 36 68
REMARK SMILES IDX 29 69 30 70 31 71 32 72 33 73 59 74 60 75 69 76 61 77 62 78
REMARK SMILES IDX 68 79 70 80 63 81 64 82 65 83 66 84 67 85 43 86 44 87 53 88
REMARK SMILES IDX 45 89 46 90 52 91 54 92 47 93 48 94 49 95 50 96 51 97
REMARK H PARENT 9 6 85 18 13 28 75 47 41 58
REMARK Flexibility Score: inf
ROOT
ATOM      1  C   UNL A   1      33.961  28.798  27.255  1.00  0.00     0.042 C 
ENDROOT
BRANCH   1   2
ATOM      2  C   UNL A   1      33.131  29.397  26.145  1.00  0.00     0.117 C 
BRANCH   2   3
ATOM      3  N   UNL A   1      33.757  29.324  24.837  1.00  0.00    -0.356 N 
ATOM      4  C   UNL A   1      33.642  28.378  23.859  1.00  0.00     0.224 C 
ATOM      5  O   UNL A   1      34.145  28.631  22.761  1.00  0.00    -0.275 OA
ATOM      6  H   UNL A   1      34.357  30.074  24.623  1.00  0.00     0.163 HD
BRANCH   4   7
ATOM      7  C   UNL A   1      32.924  27.037  24.096  1.00  0.00     0.098 C 
ATOM      8  C   UNL A   1      33.255  23.528  21.359  1.00  0.00     0.039 C 
ATOM      9  C   UNL A   1      33.152  24.666  22.338  1.00  0.00    -0.076 C 
ATOM     10  C   UNL A   1      33.896  24.725  23.460  1.00  0.00    -0.024 C 
ATOM     11  C   UNL A   1      32.218  25.767  21.909  1.00  0.00     0.044 C 
ATOM     12  C   UNL A   1      33.986  25.934  24.361  1.00  0.00     0.022 C 
ATOM     13  C   UNL A   1      31.880  26.807  22.978  1.00  0.00     0.096 C 
ATOM     14  C   UNL A   1      34.125  25.601  25.854  1.00  0.00     0.013 C 
BRANCH  13  15
ATOM     15  C   UNL A   1      30.411  26.737  23.465  1.00  0.00     0.228 C 
ATOM     16  O   UNL A   1      29.626  27.646  23.177  1.00  0.00    -0.274 OA
ATOM     17  N   UNL A   1      29.892  25.633  24.089  1.00  0.00    -0.324 N 
ATOM     18  H   UNL A   1      28.930  25.480  23.944  1.00  0.00     0.169 HD
BRANCH  17  19
ATOM     19  C   UNL A   1      30.533  24.693  24.898  1.00  0.00     0.059 A 
ATOM     20  C   UNL A   1      30.942  23.473  24.386  1.00  0.00     0.029 A 
ATOM     21  C   UNL A   1      30.833  24.964  26.227  1.00  0.00     0.137 A 
ATOM     22  C   UNL A   1      31.491  22.513  25.234  1.00  0.00     0.022 A 
ATOM     23  N   UNL A   1      31.369  24.055  27.078  1.00  0.00    -0.263 NA
ATOM     24  C   UNL A   1      31.652  22.837  26.568  1.00  0.00     0.111 A 
ENDBRANCH  17  19
ENDBRANCH  13  15
ENDBRANCH   4   7
ENDBRANCH   2   3
ENDBRANCH   1   2
BRANCH   1  25
ATOM     25  C   UNL A   1      35.236  29.575  27.491  1.00  0.00     0.118 C 
BRANCH  25  26
ATOM     26  N   UNL A   1      35.289  30.155  28.831  1.00  0.00    -0.352 N 
ATOM     27  C   UNL A   1      36.309  30.157  29.747  1.00  0.00     0.251 C 
ATOM     28  H   UNL A   1      34.467  30.615  29.120  1.00  0.00     0.163 HD
ATOM     29  O   UNL A   1      36.089  30.532  30.899  1.00  0.00    -0.269 OA
BRANCH  27  30
ATOM     30  C   UNL A   1      37.651  29.693  29.353  1.00  0.00     0.039 A 
ATOM     31  C   UNL A   1      38.039  29.779  28.015  1.00  0.00     0.014 A 
ATOM     32  C   UNL A   1      38.534  29.181  30.308  1.00  0.00     0.014 A 
ATOM     33  C   UNL A   1      39.332  29.404  27.651  1.00  0.00     0.010 A 
ATOM     34  C   UNL A   1      39.854  28.938  29.968  1.00  0.00     0.010 A 
ATOM     35  C   UNL A   1      40.259  29.013  28.630  1.00  0.00    -0.014 A 
BRANCH  35  36
ATOM     36  C   UNL A   1      41.645  28.629  28.276  1.00  0.00     0.031 A 
ATOM     37  C   UNL A   1      42.723  29.680  28.243  1.00  0.00     0.074 A 
ATOM     38  C   UNL A   1      41.916  27.355  27.936  1.00  0.00     0.049 A 
ATOM     39  N   UNL A   1      43.983  29.561  27.913  1.00  0.00    -0.248 NA
ATOM     40  C   UNL A   1      42.327  31.058  28.590  1.00  0.00     0.031 C 
ATOM     41  C   UNL A   1      40.936  26.267  27.870  1.00  0.00     0.029 A 
ATOM     42  N   UNL A   1      43.097  26.756  27.579  1.00  0.00    -0.354 N 
ATOM     43  C   UNL A   1      44.518  30.840  27.999  1.00  0.00     0.074 A 
ATOM     44  C   UNL A   1      43.436  31.735  28.336  1.00  0.00     0.031 C 
ATOM     45  C   UNL A   1      41.562  25.128  27.536  1.00  0.00     0.029 A 
ATOM     46  C   UNL A   1      42.978  25.411  27.324  1.00  0.00     0.049 A 
ATOM     47  H   UNL A   1      43.949  27.244  27.512  1.00  0.00     0.167 HD
ATOM     48  C   UNL A   1      45.806  31.230  27.848  1.00  0.00     0.037 A 
ATOM     49  C   UNL A   1      43.909  24.508  26.960  1.00  0.00     0.037 A 
ATOM     50  C   UNL A   1      46.880  30.323  27.547  1.00  0.00     0.049 A 
ATOM     51  C   UNL A   1      45.335  24.963  26.804  1.00  0.00     0.074 A 
ATOM     52  C   UNL A   1      48.231  30.597  27.432  1.00  0.00     0.029 A 
ATOM     53  N   UNL A   1      46.724  28.964  27.315  1.00  0.00    -0.354 N 
ATOM     54  N   UNL A   1      45.838  26.166  26.961  1.00  0.00    -0.248 NA
ATOM     55  C   UNL A   1      46.321  23.942  26.431  1.00  0.00     0.031 C 
ATOM     56  C   UNL A   1      48.886  29.413  27.083  1.00  0.00     0.029 A 
ATOM     57  C   UNL A   1      47.952  28.389  27.035  1.00  0.00     0.049 A 
ATOM     58  H   UNL A   1      45.868  28.480  27.345  1.00  0.00     0.167 HD
ATOM     59  C   UNL A   1      47.203  26.039  26.731  1.00  0.00     0.074 A 
ATOM     60  C   UNL A   1      47.447  24.640  26.441  1.00  0.00     0.031 C 
ATOM     61  C   UNL A   1      48.169  26.991  26.755  1.00  0.00     0.037 A 
BRANCH  48  62
ATOM     62  C   UNL A   1      46.118  32.692  28.019  1.00  0.00     0.058 A 
ATOM     63  C   UNL A   1      46.561  33.214  29.245  1.00  0.00     0.135 A 
ATOM     64  C   UNL A   1      45.999  33.580  26.938  1.00  0.00     0.135 A 
ATOM     65  F   UNL A   1      46.675  32.416  30.319  1.00  0.00    -0.206 F 
ATOM     66  C   UNL A   1      46.846  34.566  29.402  1.00  0.00     0.059 A 
ATOM     67  C   UNL A   1      46.309  34.932  27.064  1.00  0.00     0.059 A 
ATOM     68  F   UNL A   1      45.575  33.139  25.743  1.00  0.00    -0.206 F 
ATOM     69  C   UNL A   1      46.718  35.417  28.304  1.00  0.00     0.060 A 
BRANCH  69  70
ATOM     70  S   UNL A   1      47.104  37.167  28.524  1.00  0.00     0.124 S 
ATOM     71  O   UNL A   1      47.840  37.146  29.784  1.00  0.00    -0.237 OA
ATOM     72  O   UNL A   1      47.894  37.463  27.333  1.00  0.00    -0.237 OA
ATOM     73  O   UNL A   1      45.790  37.801  28.575  1.00  0.00    -0.744 OA
ENDBRANCH  69  70
ENDBRANCH  48  62
BRANCH  49  74
ATOM     74  C   UNL A   1      43.527  23.086  26.750  1.00  0.00     0.058 A 
ATOM     75  C   UNL A   1      43.534  22.518  25.468  1.00  0.00     0.135 A 
ATOM     76  C   UNL A   1      43.162  22.262  27.826  1.00  0.00     0.135 A 
ATOM     77  F   UNL A   1      43.874  23.266  24.405  1.00  0.00    -0.206 F 
ATOM     78  C   UNL A   1      43.173  21.192  25.253  1.00  0.00     0.059 A 
ATOM     79  C   UNL A   1      42.823  20.925  27.641  1.00  0.00     0.059 A 
ATOM     80  F   UNL A   1      43.159  22.749  29.077  1.00  0.00    -0.206 F 
ATOM     81  C   UNL A   1      42.820  20.403  26.348  1.00  0.00     0.060 A 
BRANCH  81  82
ATOM     82  S   UNL A   1      42.390  18.671  26.065  1.00  0.00     0.124 S 
ATOM     83  O   UNL A   1      42.680  18.081  27.367  1.00  0.00    -0.237 OA
ATOM     84  O   UNL A   1      40.979  18.762  25.704  1.00  0.00    -0.237 OA
ATOM     85  O   UNL A   1      43.283  18.277  24.979  1.00  0.00    -0.744 OA
ENDBRANCH  81  82
ENDBRANCH  49  74
BRANCH  61  86
ATOM     86  C   UNL A   1      49.582  26.548  26.492  1.00  0.00     0.058 A 
ATOM     87  C   UNL A   1      50.376  25.982  27.501  1.00  0.00     0.135 A 
ATOM     88  C   UNL A   1      50.127  26.645  25.201  1.00  0.00     0.135 A 
ATOM     89  F   UNL A   1      49.904  25.872  28.753  1.00  0.00    -0.206 F 
ATOM     90  C   UNL A   1      51.673  25.551  27.246  1.00  0.00     0.059 A 
ATOM     91  C   UNL A   1      51.410  26.192  24.917  1.00  0.00     0.059 A 
ATOM     92  F   UNL A   1      49.404  27.168  24.199  1.00  0.00    -0.206 F 
ATOM     93  C   UNL A   1      52.180  25.658  25.949  1.00  0.00     0.060 A 
BRANCH  93  94
ATOM     94  S   UNL A   1      53.854  25.067  25.625  1.00  0.00     0.124 S 
ATOM     95  O   UNL A   1      53.630  23.637  25.438  1.00  0.00    -0.237 OA
ATOM     96  O   UNL A   1      54.222  25.814  24.425  1.00  0.00    -0.237 OA
ATOM     97  O   UNL A   1      54.585  25.435  26.833  1.00  0.00    -0.744 OA
ENDBRANCH  93  94
ENDBRANCH  61  86
ENDBRANCH  35  36
ENDBRANCH  27  30
ENDBRANCH  25  26
ENDBRANCH   1  25
TORSDOF 15
ENDMDL
MODEL 2
REMARK VINA RESULT:     -12.3      6.834     12.120
REMARK SMILES CC1=C[C@H](C)[C@@H](C(=O)NCCCNC(=O)c2ccc(-c3c4nc(c(-c5c(F)cc(S(=O)(=O)[O-])cc5F)c5ccc([nH]5)c(-c5c(F)cc(S(=O)(=O)[O-])cc5F)c5nc(c(-c6c(F)cc(S(=O)(=O)[O-])cc6F)c6ccc3[nH]6)C=C5)C=C4)cc2)[C@H](C(=O)Nc2cccnc2)C1
REMARK SMILES IDX 11 1 10 2 9 3 7 4 8 5 6 7 1 8 2 9 3 10 92 11 4 12 82 13 5 14
REMARK SMILES IDX 83 15 84 16 85 17 86 19 87 20 91 21 88 22 90 23 89 24 12 25
REMARK SMILES IDX 13 26 14 27 15 29 16 30 17 31 81 32 18 33 80 34 19 35 20 36
REMARK SMILES IDX 21 37 74 38 22 39 79 40 73 41 75 42 23 43 78 44 72 45 71 46
REMARK SMILES IDX 24 48 58 49 37 50 57 51 38 52 41 53 56 54 76 55 39 56 40 57
REMARK SMILES IDX 55 59 77 60 42 61 25 62 26 63 35 64 27 65 28 66 34 67 36 68
REMARK SMILES IDX 29 69 30 70 31 71 32 72 33 73 59 74 60 75 69 76 61 77 62 78
REMARK SMILES IDX 68 79 70 80 63 81 64 82 65 83 66 84 67 85 43 86 44 87 53 88
REMARK SMILES IDX 45 89 46 90 52 91 54 92 47 93 48 94 49 95 50 96 51 97
REMARK H PARENT 9 6 85 18 13 28 75 47 41 58
REMARK Flexibility Score: inf
ROOT
ATOM      1  C   UNL A   1      37.515  23.974  25.665  1.00  0.00     0.042 C 
ENDROOT
BRANCH   1   2
ATOM      2  C   UNL A   1      36.822  22.656  25.410  1.00  0.00     0.117 C 
BRANCH   2   3
ATOM      3  N   UNL A   1      35.984  22.211  26.507  1.00  0.00    -0.356 N 
ATOM      4  C   UNL A   1      34.625  22.234  26.642  1.00  0.00     0.224 C 
ATOM      5  O   UNL A   1      34.139  21.635  27.605  1.00  0.00    -0.275 OA
ATOM      6  H   UNL A   1      36.472  21.832  27.274  1.00  0.00     0.163 HD
BRANCH   4   7
ATOM      7  C   UNL A   1      33.716  22.980  25.649  1.00  0.00     0.098 C 
ATOM      8  C   UNL A   1      29.635  24.475  26.662  1.00  0.00     0.039 C 
ATOM      9  C   UNL A   1      31.024  24.035  26.287  1.00  0.00    -0.076 C 
ATOM     10  C   UNL A   1      32.078  24.873  26.301  1.00  0.00    -0.024 C 
ATOM     11  C   UNL A   1      31.145  22.564  25.987  1.00  0.00     0.044 C 
ATOM     12  C   UNL A   1      33.517  24.440  26.142  1.00  0.00     0.022 C 
ATOM     13  C   UNL A   1      32.465  22.120  25.352  1.00  0.00     0.096 C 
ATOM     14  C   UNL A   1      34.398  25.441  25.381  1.00  0.00     0.013 C 
BRANCH  13  15
ATOM     15  C   UNL A   1      32.319  21.672  23.875  1.00  0.00     0.228 C 
ATOM     16  O   UNL A   1      32.551  20.499  23.567  1.00  0.00    -0.274 OA
ATOM     17  N   UNL A   1      31.802  22.487  22.904  1.00  0.00    -0.324 N 
ATOM     18  H   UNL A   1      31.330  22.027  22.174  1.00  0.00     0.169 HD
BRANCH  17  19
ATOM     19  C   UNL A   1      31.849  23.880  22.803  1.00  0.00     0.059 A 
ATOM     20  C   UNL A   1      32.978  24.521  22.322  1.00  0.00     0.029 A 
ATOM     21  C   UNL A   1      30.753  24.668  23.129  1.00  0.00     0.137 A 
ATOM     22  C   UNL A   1      33.040  25.913  22.323  1.00  0.00     0.022 A 
ATOM     23  N   UNL A   1      30.777  26.023  23.138  1.00  0.00    -0.263 NA
ATOM     24  C   UNL A   1      31.934  26.614  22.768  1.00  0.00     0.111 A 
ENDBRANCH  17  19
ENDBRANCH  13  15
ENDBRANCH   4   7
ENDBRANCH   2   3
ENDBRANCH   1   2
BRANCH   1  25
ATOM     25  C   UNL A   1      38.598  23.850  26.712  1.00  0.00     0.118 C 
BRANCH  25  26
ATOM     26  N   UNL A   1      39.935  24.005  26.144  1.00  0.00    -0.352 N 
ATOM     27  C   UNL A   1      40.868  24.989  26.351  1.00  0.00     0.251 C 
ATOM     28  H   UNL A   1      40.209  23.295  25.519  1.00  0.00     0.163 HD
ATOM     29  O   UNL A   1      41.863  25.043  25.627  1.00  0.00    -0.269 OA
BRANCH  27  30
ATOM     30  C   UNL A   1      40.664  25.982  27.420  1.00  0.00     0.039 A 
ATOM     31  C   UNL A   1      39.741  25.717  28.433  1.00  0.00     0.014 A 
ATOM     32  C   UNL A   1      41.393  27.175  27.429  1.00  0.00     0.014 A 
ATOM     33  C   UNL A   1      39.595  26.624  29.482  1.00  0.00     0.010 A 
ATOM     34  C   UNL A   1      41.344  28.005  28.536  1.00  0.00     0.010 A 
ATOM     35  C   UNL A   1      40.420  27.758  29.559  1.00  0.00    -0.014 A 
BRANCH  35  36
ATOM     36  C   UNL A   1      40.302  28.729  30.671  1.00  0.00     0.031 A 
ATOM     37  C   UNL A   1      41.187  28.585  31.881  1.00  0.00     0.074 A 
ATOM     38  C   UNL A   1      39.368  29.698  30.613  1.00  0.00     0.049 A 
ATOM     39  N   UNL A   1      41.209  29.296  32.978  1.00  0.00    -0.248 NA
ATOM     40  C   UNL A   1      42.153  27.470  31.876  1.00  0.00     0.031 C 
ATOM     41  C   UNL A   1      38.412  29.890  29.519  1.00  0.00     0.029 A 
ATOM     42  N   UNL A   1      39.066  30.702  31.496  1.00  0.00    -0.354 N 
ATOM     43  C   UNL A   1      42.171  28.709  33.790  1.00  0.00     0.074 A 
ATOM     44  C   UNL A   1      42.659  27.539  33.097  1.00  0.00     0.031 C 
ATOM     45  C   UNL A   1      37.660  30.971  29.776  1.00  0.00     0.029 A 
ATOM     46  C   UNL A   1      38.049  31.523  31.069  1.00  0.00     0.049 A 
ATOM     47  H   UNL A   1      39.533  30.824  32.353  1.00  0.00     0.167 HD
ATOM     48  C   UNL A   1      42.635  29.129  34.990  1.00  0.00     0.037 A 
ATOM     49  C   UNL A   1      37.496  32.601  31.658  1.00  0.00     0.037 A 
ATOM     50  C   UNL A   1      42.166  30.316  35.652  1.00  0.00     0.049 A 
ATOM     51  C   UNL A   1      38.032  33.053  32.989  1.00  0.00     0.074 A 
ATOM     52  C   UNL A   1      42.607  30.870  36.840  1.00  0.00     0.029 A 
ATOM     53  N   UNL A   1      41.149  31.133  35.181  1.00  0.00    -0.354 N 
ATOM     54  N   UNL A   1      38.995  32.527  33.712  1.00  0.00    -0.248 NA
ATOM     55  C   UNL A   1      37.417  34.246  33.583  1.00  0.00     0.031 C 
ATOM     56  C   UNL A   1      41.824  31.996  37.111  1.00  0.00     0.029 A 
ATOM     57  C   UNL A   1      40.932  32.176  36.065  1.00  0.00     0.049 A 
ATOM     58  H   UNL A   1      40.655  30.993  34.341  1.00  0.00     0.167 HD
ATOM     59  C   UNL A   1      39.117  33.342  34.831  1.00  0.00     0.074 A 
ATOM     60  C   UNL A   1      38.141  34.403  34.681  1.00  0.00     0.031 C 
ATOM     61  C   UNL A   1      39.958  33.224  35.890  1.00  0.00     0.037 A 
BRANCH  48  62
ATOM     62  C   UNL A   1      43.709  28.307  35.650  1.00  0.00     0.058 A 
ATOM     63  C   UNL A   1      45.072  28.532  35.396  1.00  0.00     0.135 A 
ATOM     64  C   UNL A   1      43.375  27.300  36.570  1.00  0.00     0.135 A 
ATOM     65  F   UNL A   1      45.450  29.468  34.511  1.00  0.00    -0.206 F 
ATOM     66  C   UNL A   1      46.063  27.769  36.005  1.00  0.00     0.059 A 
ATOM     67  C   UNL A   1      44.352  26.545  37.215  1.00  0.00     0.059 A 
ATOM     68  F   UNL A   1      42.088  27.037  36.848  1.00  0.00    -0.206 F 
ATOM     69  C   UNL A   1      45.692  26.778  36.914  1.00  0.00     0.060 A 
BRANCH  69  70
ATOM     70  S   UNL A   1      46.993  25.806  37.704  1.00  0.00     0.124 S 
ATOM     71  O   UNL A   1      46.347  24.502  37.825  1.00  0.00    -0.237 OA
ATOM     72  O   UNL A   1      48.077  25.888  36.730  1.00  0.00    -0.237 OA
ATOM     73  O   UNL A   1      47.227  26.509  38.961  1.00  0.00    -0.744 OA
ENDBRANCH  69  70
ENDBRANCH  48  62
BRANCH  49  74
ATOM     74  C   UNL A   1      36.396  33.339  30.980  1.00  0.00     0.058 A 
ATOM     75  C   UNL A   1      36.647  34.127  29.848  1.00  0.00     0.135 A 
ATOM     76  C   UNL A   1      35.072  33.260  31.441  1.00  0.00     0.135 A 
ATOM     77  F   UNL A   1      37.898  34.236  29.371  1.00  0.00    -0.206 F 
ATOM     78  C   UNL A   1      35.632  34.829  29.207  1.00  0.00     0.059 A 
ATOM     79  C   UNL A   1      34.035  33.931  30.800  1.00  0.00     0.059 A 
ATOM     80  F   UNL A   1      34.774  32.502  32.508  1.00  0.00    -0.206 F 
ATOM     81  C   UNL A   1      34.327  34.723  29.691  1.00  0.00     0.060 A 
BRANCH  81  82
ATOM     82  S   UNL A   1      33.009  35.607  28.828  1.00  0.00     0.124 S 
ATOM     83  O   UNL A   1      33.760  36.640  28.125  1.00  0.00    -0.237 OA
ATOM     84  O   UNL A   1      32.433  34.555  27.994  1.00  0.00    -0.237 OA
ATOM     85  O   UNL A   1      32.152  36.075  29.913  1.00  0.00    -0.744 OA
ENDBRANCH  81  82
ENDBRANCH  49  74
BRANCH  61  86
ATOM     86  C   UNL A   1      39.882  34.285  36.952  1.00  0.00     0.058 A 
ATOM     87  C   UNL A   1      40.592  35.491  36.842  1.00  0.00     0.135 A 
ATOM     88  C   UNL A   1      39.047  34.113  38.069  1.00  0.00     0.135 A 
ATOM     89  F   UNL A   1      41.408  35.702  35.797  1.00  0.00    -0.206 F 
ATOM     90  C   UNL A   1      40.499  36.478  37.816  1.00  0.00     0.059 A 
ATOM     91  C   UNL A   1      38.914  35.100  39.038  1.00  0.00     0.059 A 
ATOM     92  F   UNL A   1      38.337  32.983  38.215  1.00  0.00    -0.206 F 
ATOM     93  C   UNL A   1      39.654  36.274  38.909  1.00  0.00     0.060 A 
BRANCH  93  94
ATOM     94  S   UNL A   1      39.519  37.578  40.150  1.00  0.00     0.124 S 
ATOM     95  O   UNL A   1      40.856  38.159  40.113  1.00  0.00    -0.237 OA
ATOM     96  O   UNL A   1      38.449  38.412  39.610  1.00  0.00    -0.237 OA
ATOM     97  O   UNL A   1      39.183  36.853  41.371  1.00  0.00    -0.744 OA
ENDBRANCH  93  94
ENDBRANCH  61  86
ENDBRANCH  35  36
ENDBRANCH  27  30
ENDBRANCH  25  26
ENDBRANCH   1  25
TORSDOF 15
ENDMDL
MODEL 3
REMARK VINA RESULT:     -12.3      3.243      9.354
REMARK SMILES CC1=C[C@H](C)[C@@H](C(=O)NCCCNC(=O)c2ccc(-c3c4nc(c(-c5c(F)cc(S(=O)(=O)[O-])cc5F)c5ccc([nH]5)c(-c5c(F)cc(S(=O)(=O)[O-])cc5F)c5nc(c(-c6c(F)cc(S(=O)(=O)[O-])cc6F)c6ccc3[nH]6)C=C5)C=C4)cc2)[C@H](C(=O)Nc2cccnc2)C1
REMARK SMILES IDX 11 1 10 2 9 3 7 4 8 5 6 7 1 8 2 9 3 10 92 11 4 12 82 13 5 14
REMARK SMILES IDX 83 15 84 16 85 17 86 19 87 20 91 21 88 22 90 23 89 24 12 25
REMARK SMILES IDX 13 26 14 27 15 29 16 30 17 31 81 32 18 33 80 34 19 35 20 36
REMARK SMILES IDX 21 37 74 38 22 39 79 40 73 41 75 42 23 43 78 44 72 45 71 46
REMARK SMILES IDX 24 48 58 49 37 50 57 51 38 52 41 53 56 54 76 55 39 56 40 57
REMARK SMILES IDX 55 59 77 60 42 61 25 62 26 63 35 64 27 65 28 66 34 67 36 68
REMARK SMILES IDX 29 69 30 70 31 71 32 72 33 73 59 74 60 75 69 76 61 77 62 78
REMARK SMILES IDX 68 79 70 80 63 81 64 82 65 83 66 84 67 85 43 86 44 87 53 88
REMARK SMILES IDX 45 89 46 90 52 91 54 92 47 93 48 94 49 95 50 96 51 97
REMARK H PARENT 9 6 85 18 13 28 75 47 41 58
REMARK Flexibility Score: inf
ROOT
ATOM      1  C   UNL A   1      35.126  23.198  25.335  1.00  0.00     0.042 C 
ENDROOT
BRANCH   1   2
ATOM      2  C   UNL A   1      34.054  24.261  25.272  1.00  0.00     0.117 C 
BRANCH   2   3
ATOM      3  N   UNL A   1      34.253  25.235  24.215  1.00  0.00    -0.356 N 
ATOM      4  C   UNL A   1      33.498  26.317  23.863  1.00  0.00     0.224 C 
ATOM      5  O   UNL A   1      33.973  27.095  23.032  1.00  0.00    -0.275 OA
ATOM      6  H   UNL A   1      35.058  25.093  23.667  1.00  0.00     0.163 HD
BRANCH   4   7
ATOM      7  C   UNL A   1      32.102  26.572  24.460  1.00  0.00     0.098 C 
ATOM      8  C   UNL A   1      29.447  29.934  23.212  1.00  0.00     0.039 C 
ATOM      9  C   UNL A   1      30.284  28.757  23.631  1.00  0.00    -0.076 C 
ATOM     10  C   UNL A   1      30.094  27.520  23.133  1.00  0.00    -0.024 C 
ATOM     11  C   UNL A   1      31.403  29.101  24.578  1.00  0.00     0.044 C 
ATOM     12  C   UNL A   1      31.031  26.356  23.356  1.00  0.00     0.022 C 
ATOM     13  C   UNL A   1      32.111  27.913  25.233  1.00  0.00     0.096 C 
ATOM     14  C   UNL A   1      30.332  24.995  23.477  1.00  0.00     0.013 C 
BRANCH  13  15
ATOM     15  C   UNL A   1      31.832  27.789  26.752  1.00  0.00     0.228 C 
ATOM     16  O   UNL A   1      30.900  27.081  27.147  1.00  0.00    -0.274 OA
ATOM     17  N   UNL A   1      32.666  28.319  27.701  1.00  0.00    -0.324 N 
ATOM     18  H   UNL A   1      32.693  27.834  28.557  1.00  0.00     0.169 HD
BRANCH  17  19
ATOM     19  C   UNL A   1      33.483  29.449  27.626  1.00  0.00     0.059 A 
ATOM     20  C   UNL A   1      34.863  29.328  27.601  1.00  0.00     0.029 A 
ATOM     21  C   UNL A   1      32.949  30.725  27.520  1.00  0.00     0.137 A 
ATOM     22  C   UNL A   1      35.660  30.471  27.625  1.00  0.00     0.022 A 
ATOM     23  N   UNL A   1      33.694  31.858  27.538  1.00  0.00    -0.263 NA
ATOM     24  C   UNL A   1      35.034  31.703  27.627  1.00  0.00     0.111 A 
ENDBRANCH  17  19
ENDBRANCH  13  15
ENDBRANCH   4   7
ENDBRANCH   2   3
ENDBRANCH   1   2
BRANCH   1  25
ATOM     25  C   UNL A   1      36.423  23.736  25.894  1.00  0.00     0.118 C 
BRANCH  25  26
ATOM     26  N   UNL A   1      37.404  22.678  26.126  1.00  0.00    -0.352 N 
ATOM     27  C   UNL A   1      38.721  22.769  26.497  1.00  0.00     0.251 C 
ATOM     28  H   UNL A   1      37.069  21.761  25.998  1.00  0.00     0.163 HD
ATOM     29  O   UNL A   1      39.435  21.766  26.451  1.00  0.00    -0.269 OA
BRANCH  27  30
ATOM     30  C   UNL A   1      39.277  24.066  26.925  1.00  0.00     0.039 A 
ATOM     31  C   UNL A   1      39.243  24.411  28.276  1.00  0.00     0.014 A 
ATOM     32  C   UNL A   1      39.842  24.938  25.991  1.00  0.00     0.014 A 
ATOM     33  C   UNL A   1      39.828  25.606  28.693  1.00  0.00     0.010 A 
ATOM     34  C   UNL A   1      40.539  26.054  26.422  1.00  0.00     0.010 A 
ATOM     35  C   UNL A   1      40.510  26.420  27.774  1.00  0.00    -0.014 A 
BRANCH  35  36
ATOM     36  C   UNL A   1      41.159  27.684  28.190  1.00  0.00     0.031 A 
ATOM     37  C   UNL A   1      42.652  27.834  28.056  1.00  0.00     0.074 A 
ATOM     38  C   UNL A   1      40.415  28.667  28.733  1.00  0.00     0.049 A 
ATOM     39  N   UNL A   1      43.416  28.836  28.406  1.00  0.00    -0.248 NA
ATOM     40  C   UNL A   1      43.392  26.691  27.488  1.00  0.00     0.031 C 
ATOM     41  C   UNL A   1      38.970  28.604  28.972  1.00  0.00     0.029 A 
ATOM     42  N   UNL A   1      40.771  29.911  29.187  1.00  0.00    -0.354 N 
ATOM     43  C   UNL A   1      44.715  28.439  28.115  1.00  0.00     0.074 A 
ATOM     44  C   UNL A   1      44.649  27.079  27.633  1.00  0.00     0.031 C 
ATOM     45  C   UNL A   1      38.558  29.772  29.488  1.00  0.00     0.029 A 
ATOM     46  C   UNL A   1      39.711  30.649  29.657  1.00  0.00     0.049 A 
ATOM     47  H   UNL A   1      41.697  30.243  29.178  1.00  0.00     0.167 HD
ATOM     48  C   UNL A   1      45.859  29.157  28.205  1.00  0.00     0.037 A 
ATOM     49  C   UNL A   1      39.677  31.896  30.166  1.00  0.00     0.037 A 
ATOM     50  C   UNL A   1      45.906  30.522  28.653  1.00  0.00     0.049 A 
ATOM     51  C   UNL A   1      40.959  32.678  30.251  1.00  0.00     0.074 A 
ATOM     52  C   UNL A   1      46.999  31.367  28.727  1.00  0.00     0.029 A 
ATOM     53  N   UNL A   1      44.810  31.244  29.102  1.00  0.00    -0.354 N 
ATOM     54  N   UNL A   1      42.172  32.313  29.903  1.00  0.00    -0.248 NA
ATOM     55  C   UNL A   1      40.872  34.041  30.788  1.00  0.00     0.031 C 
ATOM     56  C   UNL A   1      46.573  32.584  29.266  1.00  0.00     0.029 A 
ATOM     57  C   UNL A   1      45.204  32.518  29.476  1.00  0.00     0.049 A 
ATOM     58  H   UNL A   1      43.888  30.902  29.148  1.00  0.00     0.167 HD
ATOM     59  C   UNL A   1      42.986  33.411  30.154  1.00  0.00     0.074 A 
ATOM     60  C   UNL A   1      42.125  34.457  30.669  1.00  0.00     0.031 C 
ATOM     61  C   UNL A   1      44.325  33.544  29.980  1.00  0.00     0.037 A 
BRANCH  48  62
ATOM     62  C   UNL A   1      47.141  28.482  27.800  1.00  0.00     0.058 A 
ATOM     63  C   UNL A   1      47.945  27.804  28.732  1.00  0.00     0.135 A 
ATOM     64  C   UNL A   1      47.561  28.488  26.461  1.00  0.00     0.135 A 
ATOM     65  F   UNL A   1      47.604  27.782  30.031  1.00  0.00    -0.206 F 
ATOM     66  C   UNL A   1      49.132  27.184  28.357  1.00  0.00     0.059 A 
ATOM     67  C   UNL A   1      48.729  27.846  26.057  1.00  0.00     0.059 A 
ATOM     68  F   UNL A   1      46.836  29.124  25.527  1.00  0.00    -0.206 F 
ATOM     69  C   UNL A   1      49.515  27.209  27.016  1.00  0.00     0.060 A 
BRANCH  69  70
ATOM     70  S   UNL A   1      51.052  26.388  26.545  1.00  0.00     0.124 S 
ATOM     71  O   UNL A   1      51.000  26.486  25.089  1.00  0.00    -0.237 OA
ATOM     72  O   UNL A   1      52.060  27.216  27.200  1.00  0.00    -0.237 OA
ATOM     73  O   UNL A   1      50.899  25.042  27.088  1.00  0.00    -0.744 OA
ENDBRANCH  69  70
ENDBRANCH  48  62
BRANCH  49  74
ATOM     74  C   UNL A   1      38.384  32.488  30.603  1.00  0.00     0.058 A 
ATOM     75  C   UNL A   1      37.612  33.264  29.726  1.00  0.00     0.135 A 
ATOM     76  C   UNL A   1      37.887  32.279  31.900  1.00  0.00     0.135 A 
ATOM     77  F   UNL A   1      38.045  33.494  28.477  1.00  0.00    -0.206 F 
ATOM     78  C   UNL A   1      36.405  33.830  30.122  1.00  0.00     0.059 A 
ATOM     79  C   UNL A   1      36.669  32.812  32.310  1.00  0.00     0.059 A 
ATOM     80  F   UNL A   1      38.576  31.527  32.772  1.00  0.00    -0.206 F 
ATOM     81  C   UNL A   1      35.941  33.597  31.417  1.00  0.00     0.060 A 
BRANCH  81  82
ATOM     82  S   UNL A   1      34.352  34.304  31.908  1.00  0.00     0.124 S 
ATOM     83  O   UNL A   1      33.659  34.385  30.628  1.00  0.00    -0.237 OA
ATOM     84  O   UNL A   1      33.851  33.302  32.845  1.00  0.00    -0.237 OA
ATOM     85  O   UNL A   1      34.725  35.581  32.509  1.00  0.00    -0.744 OA
ENDBRANCH  81  82
ENDBRANCH  49  74
BRANCH  61  86
ATOM     86  C   UNL A   1      44.935  34.876  30.316  1.00  0.00     0.058 A 
ATOM     87  C   UNL A   1      45.457  35.148  31.590  1.00  0.00     0.135 A 
ATOM     88  C   UNL A   1      45.046  35.874  29.333  1.00  0.00     0.135 A 
ATOM     89  F   UNL A   1      45.371  34.229  32.566  1.00  0.00    -0.206 F 
ATOM     90  C   UNL A   1      46.042  36.373  31.887  1.00  0.00     0.059 A 
ATOM     91  C   UNL A   1      45.656  37.095  29.599  1.00  0.00     0.059 A 
ATOM     92  F   UNL A   1      44.574  35.659  28.095  1.00  0.00    -0.206 F 
ATOM     93  C   UNL A   1      46.140  37.339  30.883  1.00  0.00     0.060 A 
BRANCH  93  94
ATOM     94  S   UNL A   1      46.931  38.914  31.275  1.00  0.00     0.124 S 
ATOM     95  O   UNL A   1      46.943  39.568  29.971  1.00  0.00    -0.237 OA
ATOM     96  O   UNL A   1      46.019  39.483  32.262  1.00  0.00    -0.237 OA
ATOM     97  O   UNL A   1      48.237  38.519  31.792  1.00  0.00    -0.744 OA
ENDBRANCH  93  94
ENDBRANCH  61  86
ENDBRANCH  35  36
ENDBRANCH  27  30
ENDBRANCH  25  26
ENDBRANCH   1  25
TORSDOF 15
ENDMDL
