MODEL 1
REMARK VINA RESULT:     -11.1      0.000      0.000
REMARK SMILES C[N@H+]1CCO[C@H](CNc2nnc(SCC(=O)NCCCNC(=O)c3ccc(-c4c5nc(c(-c6c(F)cc(S(=O)(=O)[O-])cc6F)c6ccc([nH]6)c(-c6c(F)cc(S(=O)(=O)[O-])cc6F)c6nc(c(-c7c(F)cc(S(=O)(=O)[O-])cc7F)c7ccc4[nH]7)C=C6)C=C5)cc3)s2)C1
REMARK SMILES IDX 18 1 17 2 15 3 16 4 14 6 13 7 12 8 9 9 10 10 90 11 11 12
REMARK SMILES IDX 8 13 7 15 6 16 1 17 2 18 3 19 91 20 4 22 5 23 19 24 20 25
REMARK SMILES IDX 21 26 22 27 23 29 24 30 25 31 89 32 26 33 88 34 27 35 28 36
REMARK SMILES IDX 29 37 82 38 30 39 87 40 81 41 83 42 31 43 86 44 80 45 79 46
REMARK SMILES IDX 32 48 66 49 45 50 65 51 46 52 49 53 64 54 84 55 47 56 48 57
REMARK SMILES IDX 63 59 85 60 50 61 33 62 34 63 43 64 35 65 36 66 42 67 44 68
REMARK SMILES IDX 37 69 38 70 39 71 40 72 41 73 67 74 68 75 77 76 69 77 70 78
REMARK SMILES IDX 76 79 78 80 71 81 72 82 73 83 74 84 75 85 51 86 52 87 61 88
REMARK SMILES IDX 53 89 54 90 60 91 62 92 55 93 56 94 57 95 58 96 59 97
REMARK H PARENT 17 5 8 14 2 21 21 28 83 47 49 58
REMARK Flexibility Score: inf
ROOT
ATOM      1  C   UNL A   1      40.922  20.677  27.186  1.00  0.00     0.117 C 
ENDROOT
BRANCH   1   2
ATOM      2  N   UNL A   1      41.659  19.604  27.827  1.00  0.00    -0.355 N 
ATOM      3  C   UNL A   1      42.435  18.627  27.280  1.00  0.00     0.230 C 
ATOM      4  O   UNL A   1      43.021  17.863  28.053  1.00  0.00    -0.274 OA
ATOM      5  H   UNL A   1      41.585  19.577  28.809  1.00  0.00     0.163 HD
BRANCH   3   6
ATOM      6  C   UNL A   1      42.655  18.536  25.782  1.00  0.00     0.177 C 
BRANCH   6   7
ATOM      7  S   UNL A   1      44.334  18.908  25.248  1.00  0.00    -0.084 SA
BRANCH   7   8
ATOM      8  C   UNL A   1      44.368  20.620  24.895  1.00  0.00     0.176 A 
ATOM      9  C   UNL A   1      44.406  23.001  24.679  1.00  0.00     0.206 A 
ATOM     10  N   UNL A   1      44.513  22.381  23.523  1.00  0.00    -0.119 NA
ATOM     11  S   UNL A   1      44.232  21.911  26.000  1.00  0.00    -0.069 S 
ATOM     12  N   UNL A   1      44.518  21.008  23.648  1.00  0.00    -0.130 NA
BRANCH   9  13
ATOM     13  N   UNL A   1      44.370  24.352  24.771  1.00  0.00    -0.357 N 
ATOM     14  H   UNL A   1      44.027  24.858  24.000  1.00  0.00     0.163 HD
BRANCH  13  15
ATOM     15  C   UNL A   1      44.806  25.103  25.940  1.00  0.00     0.153 C 
BRANCH  15  16
ATOM     16  C   UNL A   1      45.816  26.221  25.601  1.00  0.00     0.192 C 
ATOM     17  C   UNL A   1      46.705  29.203  26.022  1.00  0.00     0.332 C 
ATOM     18  N   UNL A   1      46.011  28.641  24.868  1.00  0.00    -0.333 N 
ATOM     19  C   UNL A   1      46.957  28.147  23.842  1.00  0.00     0.290 C 
ATOM     20  C   UNL A   1      45.101  27.541  25.233  1.00  0.00     0.296 C 
ATOM     21  H   UNL A   1      45.462  29.411  24.484  1.00  0.00     0.348 HD
ATOM     22  C   UNL A   1      47.638  26.813  24.205  1.00  0.00     0.222 C 
ATOM     23  O   UNL A   1      46.687  25.791  24.539  1.00  0.00    -0.365 OA
ENDBRANCH  15  16
ENDBRANCH  13  15
ENDBRANCH   9  13
ENDBRANCH   7   8
ENDBRANCH   6   7
ENDBRANCH   3   6
ENDBRANCH   1   2
BRANCH   1  24
ATOM     24  C   UNL A   1      41.025  21.996  27.948  1.00  0.00     0.042 C 
BRANCH  24  25
ATOM     25  C   UNL A   1      40.157  23.124  27.391  1.00  0.00     0.118 C 
BRANCH  25  26
ATOM     26  N   UNL A   1      40.807  23.857  26.316  1.00  0.00    -0.352 N 
ATOM     27  C   UNL A   1      41.127  25.186  26.209  1.00  0.00     0.251 C 
ATOM     28  H   UNL A   1      41.058  23.309  25.539  1.00  0.00     0.163 HD
ATOM     29  O   UNL A   1      41.521  25.609  25.122  1.00  0.00    -0.269 OA
BRANCH  27  30
ATOM     30  C   UNL A   1      41.003  26.114  27.357  1.00  0.00     0.039 A 
ATOM     31  C   UNL A   1      39.954  25.914  28.261  1.00  0.00     0.014 A 
ATOM     32  C   UNL A   1      41.853  27.212  27.520  1.00  0.00     0.014 A 
ATOM     33  C   UNL A   1      39.782  26.787  29.340  1.00  0.00     0.010 A 
ATOM     34  C   UNL A   1      41.725  28.039  28.637  1.00  0.00     0.010 A 
ATOM     35  C   UNL A   1      40.678  27.846  29.549  1.00  0.00    -0.014 A 
BRANCH  35  36
ATOM     36  C   UNL A   1      40.506  28.771  30.701  1.00  0.00     0.031 A 
ATOM     37  C   UNL A   1      41.392  28.652  31.914  1.00  0.00     0.074 A 
ATOM     38  C   UNL A   1      39.538  29.707  30.667  1.00  0.00     0.049 A 
ATOM     39  N   UNL A   1      41.393  29.367  33.011  1.00  0.00    -0.248 NA
ATOM     40  C   UNL A   1      42.390  27.572  31.902  1.00  0.00     0.031 C 
ATOM     41  C   UNL A   1      38.587  29.901  29.570  1.00  0.00     0.029 A 
ATOM     42  N   UNL A   1      39.195  30.677  31.576  1.00  0.00    -0.354 N 
ATOM     43  C   UNL A   1      42.383  28.821  33.820  1.00  0.00     0.074 A 
ATOM     44  C   UNL A   1      42.920  27.677  33.112  1.00  0.00     0.031 C 
ATOM     45  C   UNL A   1      37.796  30.949  29.853  1.00  0.00     0.029 A 
ATOM     46  C   UNL A   1      38.163  31.484  31.160  1.00  0.00     0.049 A 
ATOM     47  H   UNL A   1      39.646  30.784  32.445  1.00  0.00     0.167 HD
ATOM     48  C   UNL A   1      42.825  29.245  35.030  1.00  0.00     0.037 A 
ATOM     49  C   UNL A   1      37.586  32.543  31.760  1.00  0.00     0.037 A 
ATOM     50  C   UNL A   1      42.304  30.393  35.724  1.00  0.00     0.049 A 
ATOM     51  C   UNL A   1      38.098  33.001  33.098  1.00  0.00     0.074 A 
ATOM     52  C   UNL A   1      42.705  30.925  36.938  1.00  0.00     0.029 A 
ATOM     53  N   UNL A   1      41.267  31.191  35.264  1.00  0.00    -0.354 N 
ATOM     54  N   UNL A   1      39.067  32.500  33.828  1.00  0.00    -0.248 NA
ATOM     55  C   UNL A   1      37.445  34.178  33.688  1.00  0.00     0.031 C 
ATOM     56  C   UNL A   1      41.890  32.028  37.225  1.00  0.00     0.029 A 
ATOM     57  C   UNL A   1      41.009  32.206  36.171  1.00  0.00     0.049 A 
ATOM     58  H   UNL A   1      40.783  31.056  34.417  1.00  0.00     0.167 HD
ATOM     59  C   UNL A   1      39.163  33.322  34.946  1.00  0.00     0.074 A 
ATOM     60  C   UNL A   1      38.157  34.354  34.791  1.00  0.00     0.031 C 
ATOM     61  C   UNL A   1      40.011  33.232  36.001  1.00  0.00     0.037 A 
BRANCH  48  62
ATOM     62  C   UNL A   1      43.935  28.454  35.671  1.00  0.00     0.058 A 
ATOM     63  C   UNL A   1      43.668  27.415  36.578  1.00  0.00     0.135 A 
ATOM     64  C   UNL A   1      45.279  28.739  35.383  1.00  0.00     0.135 A 
ATOM     65  F   UNL A   1      42.402  27.109  36.901  1.00  0.00    -0.206 F 
ATOM     66  C   UNL A   1      44.693  26.720  37.212  1.00  0.00     0.059 A 
ATOM     67  C   UNL A   1      46.321  28.038  35.983  1.00  0.00     0.059 A 
ATOM     68  F   UNL A   1      45.593  29.720  34.520  1.00  0.00    -0.206 F 
ATOM     69  C   UNL A   1      46.017  27.045  36.915  1.00  0.00     0.060 A 
BRANCH  69  70
ATOM     70  S   UNL A   1      47.340  26.162  37.768  1.00  0.00     0.124 S 
ATOM     71  O   UNL A   1      48.512  26.597  37.010  1.00  0.00    -0.237 OA
ATOM     72  O   UNL A   1      47.241  26.687  39.130  1.00  0.00    -0.237 OA
ATOM     73  O   UNL A   1      46.975  24.763  37.611  1.00  0.00    -0.744 OA
ENDBRANCH  69  70
ENDBRANCH  48  62
BRANCH  49  74
ATOM     74  C   UNL A   1      36.496  33.282  31.069  1.00  0.00     0.058 A 
ATOM     75  C   UNL A   1      35.170  33.181  31.517  1.00  0.00     0.135 A 
ATOM     76  C   UNL A   1      36.755  34.112  29.969  1.00  0.00     0.135 A 
ATOM     77  F   UNL A   1      34.874  32.394  32.563  1.00  0.00    -0.206 F 
ATOM     78  C   UNL A   1      34.135  33.863  30.888  1.00  0.00     0.059 A 
ATOM     79  C   UNL A   1      35.738  34.823  29.337  1.00  0.00     0.059 A 
ATOM     80  F   UNL A   1      38.009  34.254  29.514  1.00  0.00    -0.206 F 
ATOM     81  C   UNL A   1      34.430  34.685  29.798  1.00  0.00     0.060 A 
BRANCH  81  82
ATOM     82  S   UNL A   1      33.086  35.608  29.022  1.00  0.00     0.124 S 
ATOM     83  O   UNL A   1      32.322  36.046  30.185  1.00  0.00    -0.237 OA
ATOM     84  O   UNL A   1      33.807  36.654  28.302  1.00  0.00    -0.237 OA
ATOM     85  O   UNL A   1      32.438  34.610  28.178  1.00  0.00    -0.744 OA
ENDBRANCH  81  82
ENDBRANCH  49  74
BRANCH  61  86
ATOM     86  C   UNL A   1      39.916  34.308  37.047  1.00  0.00     0.058 A 
ATOM     87  C   UNL A   1      38.991  34.239  38.101  1.00  0.00     0.135 A 
ATOM     88  C   UNL A   1      40.777  35.417  37.002  1.00  0.00     0.135 A 
ATOM     89  F   UNL A   1      38.144  33.201  38.188  1.00  0.00    -0.206 F 
ATOM     90  C   UNL A   1      38.896  35.250  39.051  1.00  0.00     0.059 A 
ATOM     91  C   UNL A   1      40.716  36.428  37.956  1.00  0.00     0.059 A 
ATOM     92  F   UNL A   1      41.688  35.527  36.022  1.00  0.00    -0.206 F 
ATOM     93  C   UNL A   1      39.759  36.344  38.967  1.00  0.00     0.060 A 
BRANCH  93  94
ATOM     94  S   UNL A   1      39.631  37.651  40.206  1.00  0.00     0.124 S 
ATOM     95  O   UNL A   1      38.248  38.083  40.035  1.00  0.00    -0.237 OA
ATOM     96  O   UNL A   1      39.925  36.939  41.446  1.00  0.00    -0.237 OA
ATOM     97  O   UNL A   1      40.648  38.613  39.789  1.00  0.00    -0.744 OA
ENDBRANCH  93  94
ENDBRANCH  61  86
ENDBRANCH  35  36
ENDBRANCH  27  30
ENDBRANCH  25  26
ENDBRANCH  24  25
ENDBRANCH   1  24
TORSDOF 18
ENDMDL
MODEL 2
REMARK VINA RESULT:     -11.0      3.393      5.765
REMARK SMILES C[N@H+]1CCO[C@H](CNc2nnc(SCC(=O)NCCCNC(=O)c3ccc(-c4c5nc(c(-c6c(F)cc(S(=O)(=O)[O-])cc6F)c6ccc([nH]6)c(-c6c(F)cc(S(=O)(=O)[O-])cc6F)c6nc(c(-c7c(F)cc(S(=O)(=O)[O-])cc7F)c7ccc4[nH]7)C=C6)C=C5)cc3)s2)C1
REMARK SMILES IDX 18 1 17 2 15 3 16 4 14 6 13 7 12 8 9 9 10 10 90 11 11 12
REMARK SMILES IDX 8 13 7 15 6 16 1 17 2 18 3 19 91 20 4 22 5 23 19 24 20 25
REMARK SMILES IDX 21 26 22 27 23 29 24 30 25 31 89 32 26 33 88 34 27 35 28 36
REMARK SMILES IDX 29 37 82 38 30 39 87 40 81 41 83 42 31 43 86 44 80 45 79 46
REMARK SMILES IDX 32 48 66 49 45 50 65 51 46 52 49 53 64 54 84 55 47 56 48 57
REMARK SMILES IDX 63 59 85 60 50 61 33 62 34 63 43 64 35 65 36 66 42 67 44 68
REMARK SMILES IDX 37 69 38 70 39 71 40 72 41 73 67 74 68 75 77 76 69 77 70 78
REMARK SMILES IDX 76 79 78 80 71 81 72 82 73 83 74 84 75 85 51 86 52 87 61 88
REMARK SMILES IDX 53 89 54 90 60 91 62 92 55 93 56 94 57 95 58 96 59 97
REMARK H PARENT 17 5 8 14 2 21 21 28 83 47 49 58
REMARK Flexibility Score: inf
ROOT
ATOM      1  C   UNL A   1      39.311  22.852  26.853  1.00  0.00     0.117 C 
ENDROOT
BRANCH   1   2
ATOM      2  N   UNL A   1      38.817  22.041  25.757  1.00  0.00    -0.355 N 
ATOM      3  C   UNL A   1      37.554  21.913  25.263  1.00  0.00     0.230 C 
ATOM      4  O   UNL A   1      37.400  21.203  24.265  1.00  0.00    -0.274 OA
ATOM      5  H   UNL A   1      39.500  21.498  25.299  1.00  0.00     0.163 HD
BRANCH   3   6
ATOM      6  C   UNL A   1      36.391  22.687  25.852  1.00  0.00     0.177 C 
BRANCH   6   7
ATOM      7  S   UNL A   1      34.939  21.689  26.225  1.00  0.00    -0.084 SA
BRANCH   7   8
ATOM      8  C   UNL A   1      33.631  22.815  26.509  1.00  0.00     0.176 A 
ATOM      9  C   UNL A   1      31.948  24.502  26.697  1.00  0.00     0.206 A 
ATOM     10  N   UNL A   1      31.743  23.483  27.505  1.00  0.00    -0.119 NA
ATOM     11  S   UNL A   1      33.389  24.333  25.772  1.00  0.00    -0.069 S 
ATOM     12  N   UNL A   1      32.698  22.497  27.379  1.00  0.00    -0.130 NA
BRANCH   9  13
ATOM     13  N   UNL A   1      31.129  25.580  26.676  1.00  0.00    -0.357 N 
ATOM     14  H   UNL A   1      30.540  25.728  27.451  1.00  0.00     0.163 HD
BRANCH  13  15
ATOM     15  C   UNL A   1      31.064  26.536  25.579  1.00  0.00     0.153 C 
BRANCH  15  16
ATOM     16  C   UNL A   1      31.881  27.821  25.845  1.00  0.00     0.192 C 
ATOM     17  C   UNL A   1      34.260  29.174  27.384  1.00  0.00     0.332 C 
ATOM     18  N   UNL A   1      32.836  29.288  27.680  1.00  0.00    -0.333 N 
ATOM     19  C   UNL A   1      32.211  30.419  26.959  1.00  0.00     0.290 C 
ATOM     20  C   UNL A   1      32.088  28.059  27.358  1.00  0.00     0.296 C 
ATOM     21  H   UNL A   1      32.783  29.453  28.685  1.00  0.00     0.348 HD
ATOM     22  C   UNL A   1      31.978  30.157  25.458  1.00  0.00     0.222 C 
ATOM     23  O   UNL A   1      31.238  28.950  25.227  1.00  0.00    -0.365 OA
ENDBRANCH  15  16
ENDBRANCH  13  15
ENDBRANCH   9  13
ENDBRANCH   7   8
ENDBRANCH   6   7
ENDBRANCH   3   6
ENDBRANCH   1   2
BRANCH   1  24
ATOM     24  C   UNL A   1      40.579  22.280  27.482  1.00  0.00     0.042 C 
BRANCH  24  25
ATOM     25  C   UNL A   1      41.794  23.205  27.422  1.00  0.00     0.118 C 
BRANCH  25  26
ATOM     26  N   UNL A   1      41.804  24.046  26.235  1.00  0.00    -0.352 N 
ATOM     27  C   UNL A   1      41.538  25.384  26.087  1.00  0.00     0.251 C 
ATOM     28  H   UNL A   1      42.039  23.579  25.402  1.00  0.00     0.163 HD
ATOM     29  O   UNL A   1      41.440  25.840  24.948  1.00  0.00    -0.269 OA
BRANCH  27  30
ATOM     30  C   UNL A   1      41.361  26.278  27.255  1.00  0.00     0.039 A 
ATOM     31  C   UNL A   1      40.223  26.111  28.052  1.00  0.00     0.014 A 
ATOM     32  C   UNL A   1      42.253  27.316  27.536  1.00  0.00     0.014 A 
ATOM     33  C   UNL A   1      40.002  26.955  29.144  1.00  0.00     0.010 A 
ATOM     34  C   UNL A   1      42.069  28.112  28.669  1.00  0.00     0.010 A 
ATOM     35  C   UNL A   1      40.933  27.951  29.475  1.00  0.00    -0.014 A 
BRANCH  35  36
ATOM     36  C   UNL A   1      40.708  28.845  30.641  1.00  0.00     0.031 A 
ATOM     37  C   UNL A   1      41.572  28.728  31.870  1.00  0.00     0.074 A 
ATOM     38  C   UNL A   1      39.712  29.751  30.606  1.00  0.00     0.049 A 
ATOM     39  N   UNL A   1      41.529  29.419  32.982  1.00  0.00    -0.248 NA
ATOM     40  C   UNL A   1      42.605  27.681  31.857  1.00  0.00     0.031 C 
ATOM     41  C   UNL A   1      38.778  29.938  29.494  1.00  0.00     0.029 A 
ATOM     42  N   UNL A   1      39.320  30.690  31.529  1.00  0.00    -0.354 N 
ATOM     43  C   UNL A   1      42.519  28.887  33.800  1.00  0.00     0.074 A 
ATOM     44  C   UNL A   1      43.107  27.777  33.079  1.00  0.00     0.031 C 
ATOM     45  C   UNL A   1      37.949  30.954  29.782  1.00  0.00     0.029 A 
ATOM     46  C   UNL A   1      38.271  31.472  31.108  1.00  0.00     0.049 A 
ATOM     47  H   UNL A   1      39.750  30.792  32.408  1.00  0.00     0.167 HD
ATOM     48  C   UNL A   1      42.923  29.299  35.027  1.00  0.00     0.037 A 
ATOM     49  C   UNL A   1      37.648  32.500  31.716  1.00  0.00     0.037 A 
ATOM     50  C   UNL A   1      42.351  30.415  35.734  1.00  0.00     0.049 A 
ATOM     51  C   UNL A   1      38.118  32.945  33.074  1.00  0.00     0.074 A 
ATOM     52  C   UNL A   1      42.710  30.933  36.967  1.00  0.00     0.029 A 
ATOM     53  N   UNL A   1      41.298  31.190  35.269  1.00  0.00    -0.354 N 
ATOM     54  N   UNL A   1      39.087  32.459  33.814  1.00  0.00    -0.248 NA
ATOM     55  C   UNL A   1      37.416  34.087  33.675  1.00  0.00     0.031 C 
ATOM     56  C   UNL A   1      41.854  32.003  37.260  1.00  0.00     0.029 A 
ATOM     57  C   UNL A   1      40.989  32.176  36.191  1.00  0.00     0.049 A 
ATOM     58  H   UNL A   1      40.837  31.057  34.409  1.00  0.00     0.167 HD
ATOM     59  C   UNL A   1      39.135  33.259  34.951  1.00  0.00     0.074 A 
ATOM     60  C   UNL A   1      38.099  34.262  34.796  1.00  0.00     0.031 C 
ATOM     61  C   UNL A   1      39.962  33.174  36.021  1.00  0.00     0.037 A 
BRANCH  48  62
ATOM     62  C   UNL A   1      44.043  28.530  35.675  1.00  0.00     0.058 A 
ATOM     63  C   UNL A   1      43.792  27.456  36.545  1.00  0.00     0.135 A 
ATOM     64  C   UNL A   1      45.383  28.872  35.431  1.00  0.00     0.135 A 
ATOM     65  F   UNL A   1      42.529  27.095  36.825  1.00  0.00    -0.206 F 
ATOM     66  C   UNL A   1      44.825  26.780  37.186  1.00  0.00     0.059 A 
ATOM     67  C   UNL A   1      46.434  28.191  36.039  1.00  0.00     0.059 A 
ATOM     68  F   UNL A   1      45.683  29.888  34.606  1.00  0.00    -0.206 F 
ATOM     69  C   UNL A   1      46.143  27.160  36.934  1.00  0.00     0.060 A 
BRANCH  69  70
ATOM     70  S   UNL A   1      47.476  26.301  37.797  1.00  0.00     0.124 S 
ATOM     71  O   UNL A   1      47.098  26.513  39.193  1.00  0.00    -0.237 OA
ATOM     72  O   UNL A   1      47.334  24.931  37.308  1.00  0.00    -0.237 OA
ATOM     73  O   UNL A   1      48.674  27.000  37.358  1.00  0.00    -0.744 OA
ENDBRANCH  69  70
ENDBRANCH  48  62
BRANCH  49  74
ATOM     74  C   UNL A   1      36.550  33.218  31.019  1.00  0.00     0.058 A 
ATOM     75  C   UNL A   1      36.827  34.071  29.939  1.00  0.00     0.135 A 
ATOM     76  C   UNL A   1      35.210  33.057  31.399  1.00  0.00     0.135 A 
ATOM     77  F   UNL A   1      38.095  34.260  29.543  1.00  0.00    -0.206 F 
ATOM     78  C   UNL A   1      35.816  34.753  29.271  1.00  0.00     0.059 A 
ATOM     79  C   UNL A   1      34.178  33.711  30.731  1.00  0.00     0.059 A 
ATOM     80  F   UNL A   1      34.892  32.240  32.415  1.00  0.00    -0.206 F 
ATOM     81  C   UNL A   1      34.493  34.564  29.673  1.00  0.00     0.060 A 
BRANCH  81  82
ATOM     82  S   UNL A   1      33.183  35.412  28.764  1.00  0.00     0.124 S 
ATOM     83  O   UNL A   1      32.564  34.307  28.042  1.00  0.00    -0.237 OA
ATOM     84  O   UNL A   1      32.388  35.995  29.842  1.00  0.00    -0.237 OA
ATOM     85  O   UNL A   1      33.913  36.374  27.944  1.00  0.00    -0.744 OA
ENDBRANCH  81  82
ENDBRANCH  49  74
BRANCH  61  86
ATOM     86  C   UNL A   1      39.812  34.223  37.088  1.00  0.00     0.058 A 
ATOM     87  C   UNL A   1      40.386  35.498  36.959  1.00  0.00     0.135 A 
ATOM     88  C   UNL A   1      39.069  33.953  38.248  1.00  0.00     0.135 A 
ATOM     89  F   UNL A   1      41.110  35.806  35.871  1.00  0.00    -0.206 F 
ATOM     90  C   UNL A   1      40.261  36.456  37.961  1.00  0.00     0.059 A 
ATOM     91  C   UNL A   1      38.909  34.904  39.251  1.00  0.00     0.059 A 
ATOM     92  F   UNL A   1      38.489  32.754  38.416  1.00  0.00    -0.206 F 
ATOM     93  C   UNL A   1      39.526  36.146  39.106  1.00  0.00     0.060 A 
BRANCH  93  94
ATOM     94  S   UNL A   1      39.365  37.395  40.400  1.00  0.00     0.124 S 
ATOM     95  O   UNL A   1      38.608  38.435  39.712  1.00  0.00    -0.237 OA
ATOM     96  O   UNL A   1      38.647  36.675  41.447  1.00  0.00    -0.237 OA
ATOM     97  O   UNL A   1      40.750  37.731  40.719  1.00  0.00    -0.744 OA
ENDBRANCH  93  94
ENDBRANCH  61  86
ENDBRANCH  35  36
ENDBRANCH  27  30
ENDBRANCH  25  26
ENDBRANCH  24  25
ENDBRANCH   1  24
TORSDOF 18
ENDMDL
MODEL 3
REMARK VINA RESULT:     -10.6      4.489     12.370
REMARK SMILES C[N@H+]1CCO[C@H](CNc2nnc(SCC(=O)NCCCNC(=O)c3ccc(-c4c5nc(c(-c6c(F)cc(S(=O)(=O)[O-])cc6F)c6ccc([nH]6)c(-c6c(F)cc(S(=O)(=O)[O-])cc6F)c6nc(c(-c7c(F)cc(S(=O)(=O)[O-])cc7F)c7ccc4[nH]7)C=C6)C=C5)cc3)s2)C1
REMARK SMILES IDX 18 1 17 2 15 3 16 4 14 6 13 7 12 8 9 9 10 10 90 11 11 12
REMARK SMILES IDX 8 13 7 15 6 16 1 17 2 18 3 19 91 20 4 22 5 23 19 24 20 25
REMARK SMILES IDX 21 26 22 27 23 29 24 30 25 31 89 32 26 33 88 34 27 35 28 36
REMARK SMILES IDX 29 37 82 38 30 39 87 40 81 41 83 42 31 43 86 44 80 45 79 46
REMARK SMILES IDX 32 48 66 49 45 50 65 51 46 52 49 53 64 54 84 55 47 56 48 57
REMARK SMILES IDX 63 59 85 60 50 61 33 62 34 63 43 64 35 65 36 66 42 67 44 68
REMARK SMILES IDX 37 69 38 70 39 71 40 72 41 73 67 74 68 75 77 76 69 77 70 78
REMARK SMILES IDX 76 79 78 80 71 81 72 82 73 83 74 84 75 85 51 86 52 87 61 88
REMARK SMILES IDX 53 89 54 90 60 91 62 92 55 93 56 94 57 95 58 96 59 97
REMARK H PARENT 17 5 8 14 2 21 21 28 83 47 49 58
REMARK Flexibility Score: inf
ROOT
ATOM      1  C   UNL A   1      34.775  32.619  31.277  1.00  0.00     0.117 C 
ENDROOT
BRANCH   1   2
ATOM      2  N   UNL A   1      34.682  33.955  31.837  1.00  0.00    -0.355 N 
ATOM      3  C   UNL A   1      35.534  34.615  32.669  1.00  0.00     0.230 C 
ATOM      4  O   UNL A   1      35.264  35.786  32.951  1.00  0.00    -0.274 OA
ATOM      5  H   UNL A   1      33.879  34.462  31.575  1.00  0.00     0.163 HD
BRANCH   3   6
ATOM      6  C   UNL A   1      36.819  33.975  33.158  1.00  0.00     0.177 C 
BRANCH   6   7
ATOM      7  S   UNL A   1      36.868  33.653  34.930  1.00  0.00    -0.084 SA
BRANCH   7   8
ATOM      8  C   UNL A   1      37.858  32.226  35.140  1.00  0.00     0.176 A 
ATOM      9  C   UNL A   1      39.336  30.348  35.200  1.00  0.00     0.206 A 
ATOM     10  N   UNL A   1      38.552  30.416  36.255  1.00  0.00    -0.119 NA
ATOM     11  S   UNL A   1      39.036  31.613  34.072  1.00  0.00    -0.069 S 
ATOM     12  N   UNL A   1      37.717  31.513  36.235  1.00  0.00    -0.130 NA
BRANCH   9  13
ATOM     13  N   UNL A   1      40.221  29.339  35.023  1.00  0.00    -0.357 N 
ATOM     14  H   UNL A   1      39.987  28.625  34.386  1.00  0.00     0.163 HD
BRANCH  13  15
ATOM     15  C   UNL A   1      41.498  29.241  35.717  1.00  0.00     0.153 C 
BRANCH  15  16
ATOM     16  C   UNL A   1      41.875  27.790  36.091  1.00  0.00     0.192 C 
ATOM     17  C   UNL A   1      43.753  25.326  35.578  1.00  0.00     0.332 C 
ATOM     18  N   UNL A   1      42.375  25.498  35.128  1.00  0.00    -0.333 N 
ATOM     19  C   UNL A   1      41.403  24.983  36.118  1.00  0.00     0.290 C 
ATOM     20  C   UNL A   1      42.044  26.905  34.837  1.00  0.00     0.296 C 
ATOM     21  H   UNL A   1      42.305  24.957  34.266  1.00  0.00     0.348 HD
ATOM     22  C   UNL A   1      41.217  25.891  37.349  1.00  0.00     0.222 C 
ATOM     23  O   UNL A   1      40.889  27.240  36.984  1.00  0.00    -0.365 OA
ENDBRANCH  15  16
ENDBRANCH  13  15
ENDBRANCH   9  13
ENDBRANCH   7   8
ENDBRANCH   6   7
ENDBRANCH   3   6
ENDBRANCH   1   2
BRANCH   1  24
ATOM     24  C   UNL A   1      35.570  32.582  29.974  1.00  0.00     0.042 C 
BRANCH  24  25
ATOM     25  C   UNL A   1      34.726  32.713  28.708  1.00  0.00     0.118 C 
BRANCH  25  26
ATOM     26  N   UNL A   1      34.068  31.470  28.338  1.00  0.00    -0.352 N 
ATOM     27  C   UNL A   1      34.586  30.223  28.096  1.00  0.00     0.251 C 
ATOM     28  H   UNL A   1      33.090  31.533  28.247  1.00  0.00     0.163 HD
ATOM     29  O   UNL A   1      33.845  29.361  27.625  1.00  0.00    -0.269 OA
BRANCH  27  30
ATOM     30  C   UNL A   1      36.004  29.900  28.377  1.00  0.00     0.039 A 
ATOM     31  C   UNL A   1      36.942  30.087  27.356  1.00  0.00     0.014 A 
ATOM     32  C   UNL A   1      36.413  29.354  29.597  1.00  0.00     0.014 A 
ATOM     33  C   UNL A   1      38.286  29.764  27.571  1.00  0.00     0.010 A 
ATOM     34  C   UNL A   1      37.765  29.099  29.834  1.00  0.00     0.010 A 
ATOM     35  C   UNL A   1      38.713  29.285  28.819  1.00  0.00    -0.014 A 
BRANCH  35  36
ATOM     36  C   UNL A   1      40.142  28.949  29.055  1.00  0.00     0.031 A 
ATOM     37  C   UNL A   1      41.060  29.943  29.719  1.00  0.00     0.074 A 
ATOM     38  C   UNL A   1      40.623  27.757  28.654  1.00  0.00     0.049 A 
ATOM     39  N   UNL A   1      42.331  29.830  30.011  1.00  0.00    -0.248 NA
ATOM     40  C   UNL A   1      40.477  31.244  30.081  1.00  0.00     0.031 C 
ATOM     41  C   UNL A   1      39.851  26.723  27.963  1.00  0.00     0.029 A 
ATOM     42  N   UNL A   1      41.877  27.209  28.774  1.00  0.00    -0.354 N 
ATOM     43  C   UNL A   1      42.701  31.042  30.582  1.00  0.00     0.074 A 
ATOM     44  C   UNL A   1      41.534  31.898  30.540  1.00  0.00     0.031 C 
ATOM     45  C   UNL A   1      40.635  25.652  27.756  1.00  0.00     0.029 A 
ATOM     46  C   UNL A   1      41.971  25.932  28.272  1.00  0.00     0.049 A 
ATOM     47  H   UNL A   1      42.636  27.685  29.181  1.00  0.00     0.167 HD
ATOM     48  C   UNL A   1      43.893  31.404  31.116  1.00  0.00     0.037 A 
ATOM     49  C   UNL A   1      43.013  25.080  28.243  1.00  0.00     0.037 A 
ATOM     50  C   UNL A   1      45.047  30.546  31.174  1.00  0.00     0.049 A 
ATOM     51  C   UNL A   1      44.324  25.499  28.849  1.00  0.00     0.074 A 
ATOM     52  C   UNL A   1      46.291  30.805  31.723  1.00  0.00     0.029 A 
ATOM     53  N   UNL A   1      45.099  29.256  30.665  1.00  0.00    -0.354 N 
ATOM     54  N   UNL A   1      44.643  26.634  29.426  1.00  0.00    -0.248 NA
ATOM     55  C   UNL A   1      45.416  24.516  28.810  1.00  0.00     0.031 C 
ATOM     56  C   UNL A   1      47.105  29.683  31.521  1.00  0.00     0.029 A 
ATOM     57  C   UNL A   1      46.354  28.709  30.881  1.00  0.00     0.049 A 
ATOM     58  H   UNL A   1      44.353  28.796  30.216  1.00  0.00     0.167 HD
ATOM     59  C   UNL A   1      45.959  26.488  29.851  1.00  0.00     0.074 A 
ATOM     60  C   UNL A   1      46.374  25.152  29.468  1.00  0.00     0.031 C 
ATOM     61  C   UNL A   1      46.750  27.376  30.503  1.00  0.00     0.037 A 
BRANCH  48  62
ATOM     62  C   UNL A   1      43.998  32.795  31.683  1.00  0.00     0.058 A 
ATOM     63  C   UNL A   1      43.733  33.059  33.037  1.00  0.00     0.135 A 
ATOM     64  C   UNL A   1      44.362  33.878  30.866  1.00  0.00     0.135 A 
ATOM     65  F   UNL A   1      43.368  32.064  33.860  1.00  0.00    -0.206 F 
ATOM     66  C   UNL A   1      43.777  34.352  33.549  1.00  0.00     0.059 A 
ATOM     67  C   UNL A   1      44.440  35.176  31.364  1.00  0.00     0.059 A 
ATOM     68  F   UNL A   1      44.630  33.684  29.564  1.00  0.00    -0.206 F 
ATOM     69  C   UNL A   1      44.123  35.405  32.703  1.00  0.00     0.060 A 
BRANCH  69  70
ATOM     70  S   UNL A   1      44.143  37.083  33.368  1.00  0.00     0.124 S 
ATOM     71  O   UNL A   1      45.324  37.038  34.229  1.00  0.00    -0.237 OA
ATOM     72  O   UNL A   1      44.276  37.898  32.160  1.00  0.00    -0.237 OA
ATOM     73  O   UNL A   1      42.867  37.194  34.057  1.00  0.00    -0.744 OA
ENDBRANCH  69  70
ENDBRANCH  48  62
BRANCH  49  74
ATOM     74  C   UNL A   1      42.841  23.718  27.672  1.00  0.00     0.058 A 
ATOM     75  C   UNL A   1      42.938  23.508  26.287  1.00  0.00     0.135 A 
ATOM     76  C   UNL A   1      42.596  22.605  28.488  1.00  0.00     0.135 A 
ATOM     77  F   UNL A   1      43.166  24.544  25.467  1.00  0.00    -0.206 F 
ATOM     78  C   UNL A   1      42.782  22.243  25.730  1.00  0.00     0.059 A 
ATOM     79  C   UNL A   1      42.458  21.326  27.956  1.00  0.00     0.059 A 
ATOM     80  F   UNL A   1      42.511  22.753  29.819  1.00  0.00    -0.206 F 
ATOM     81  C   UNL A   1      42.544  21.157  26.574  1.00  0.00     0.060 A 
BRANCH  81  82
ATOM     82  S   UNL A   1      42.396  19.512  25.845  1.00  0.00     0.124 S 
ATOM     83  O   UNL A   1      41.001  19.504  25.419  1.00  0.00    -0.237 OA
ATOM     84  O   UNL A   1      43.389  19.558  24.776  1.00  0.00    -0.237 OA
ATOM     85  O   UNL A   1      42.723  18.623  26.955  1.00  0.00    -0.744 OA
ENDBRANCH  81  82
ENDBRANCH  49  74
BRANCH  61  86
ATOM     86  C   UNL A   1      48.129  26.912  30.885  1.00  0.00     0.058 A 
ATOM     87  C   UNL A   1      49.262  27.255  30.130  1.00  0.00     0.135 A 
ATOM     88  C   UNL A   1      48.319  26.126  32.033  1.00  0.00     0.135 A 
ATOM     89  F   UNL A   1      49.135  28.001  29.022  1.00  0.00    -0.206 F 
ATOM     90  C   UNL A   1      50.531  26.802  30.479  1.00  0.00     0.059 A 
ATOM     91  C   UNL A   1      49.581  25.684  32.415  1.00  0.00     0.059 A 
ATOM     92  F   UNL A   1      47.270  25.780  32.797  1.00  0.00    -0.206 F 
ATOM     93  C   UNL A   1      50.679  26.012  31.620  1.00  0.00     0.060 A 
BRANCH  93  94
ATOM     94  S   UNL A   1      52.329  25.431  32.067  1.00  0.00     0.124 S 
ATOM     95  O   UNL A   1      53.097  25.788  30.879  1.00  0.00    -0.237 OA
ATOM     96  O   UNL A   1      52.622  26.208  33.268  1.00  0.00    -0.237 OA
ATOM     97  O   UNL A   1      52.136  24.001  32.286  1.00  0.00    -0.744 OA
ENDBRANCH  93  94
ENDBRANCH  61  86
ENDBRANCH  35  36
ENDBRANCH  27  30
ENDBRANCH  25  26
ENDBRANCH  24  25
ENDBRANCH   1  24
TORSDOF 18
ENDMDL
