MODEL 1
REMARK VINA RESULT:     -12.5      0.000      0.000
REMARK SMILES O=C(NCCCNC(=O)[C@H]1CCCCN1C(=O)c1cn2ccccc2n1)c1ccc(-c2c3nc(c(-c4c(F)cc(S(=O)(=O)[O-])cc4F)c4ccc([nH]4)c(-c4c(F)cc(S(=O)(=O)[O-])cc4F)c4nc(c(-c5c(F)cc(S(=O)(=O)[O-])cc5F)c5ccc2[nH]5)C=C4)C=C3)cc1
REMARK SMILES IDX 4 1 3 2 1 3 2 4 27 6 28 7 92 8 29 9 91 10 30 11 31 12 32 13
REMARK SMILES IDX 85 14 33 15 90 16 84 17 86 18 34 19 89 20 83 21 82 22 35 24
REMARK SMILES IDX 69 25 48 26 68 27 49 28 52 29 67 30 87 31 50 32 51 33 66 35
REMARK SMILES IDX 88 36 53 37 36 38 37 39 46 40 38 41 39 42 45 43 47 44 40 45
REMARK SMILES IDX 41 46 42 47 43 48 44 49 70 50 71 51 80 52 72 53 73 54 79 55
REMARK SMILES IDX 81 56 74 57 75 58 76 59 77 60 78 61 54 62 55 63 64 64 56 65
REMARK SMILES IDX 57 66 63 67 65 68 58 69 59 70 60 71 61 72 62 73 5 74 6 75
REMARK SMILES IDX 7 76 8 77 9 79 10 80 11 81 15 82 12 83 14 84 13 85 16 86
REMARK SMILES IDX 17 87 18 88 19 89 26 90 20 91 25 92 21 93 24 94 22 95 23 96
REMARK H PARENT 3 5 86 23 52 34 7 78
REMARK Flexibility Score: inf
ROOT
ATOM      1  C   UNL A   1      33.672  28.634  27.307  1.00  0.00     0.118 C 
ENDROOT
BRANCH   1   2
ATOM      2  N   UNL A   1      33.608  30.057  27.631  1.00  0.00    -0.352 N 
ATOM      3  O   UNL A   1      34.159  31.950  28.721  1.00  0.00    -0.269 OA
ATOM      4  C   UNL A   1      34.507  30.852  28.305  1.00  0.00     0.251 C 
ATOM      5  H   UNL A   1      32.796  30.519  27.319  1.00  0.00     0.163 HD
BRANCH   4   6
ATOM      6  C   UNL A   1      35.884  30.361  28.527  1.00  0.00     0.039 A 
ATOM      7  C   UNL A   1      36.827  30.487  27.508  1.00  0.00     0.014 A 
ATOM      8  C   UNL A   1      36.248  29.800  29.754  1.00  0.00     0.014 A 
ATOM      9  C   UNL A   1      38.061  29.879  27.631  1.00  0.00     0.010 A 
ATOM     10  C   UNL A   1      37.553  29.328  29.935  1.00  0.00     0.010 A 
ATOM     11  C   UNL A   1      38.463  29.355  28.867  1.00  0.00    -0.014 A 
BRANCH  11  12
ATOM     12  C   UNL A   1      39.894  29.008  29.033  1.00  0.00     0.031 A 
ATOM     13  C   UNL A   1      40.438  27.683  28.597  1.00  0.00     0.074 A 
ATOM     14  C   UNL A   1      40.699  29.956  29.558  1.00  0.00     0.049 A 
ATOM     15  N   UNL A   1      41.667  27.245  28.675  1.00  0.00    -0.248 NA
ATOM     16  C   UNL A   1      39.495  26.720  28.006  1.00  0.00     0.031 C 
ATOM     17  C   UNL A   1      40.251  31.276  30.026  1.00  0.00     0.029 A 
ATOM     18  N   UNL A   1      42.052  29.983  29.764  1.00  0.00    -0.354 N 
ATOM     19  C   UNL A   1      41.645  25.948  28.177  1.00  0.00     0.074 A 
ATOM     20  C   UNL A   1      40.277  25.666  27.799  1.00  0.00     0.031 C 
ATOM     21  C   UNL A   1      41.312  31.997  30.408  1.00  0.00     0.029 A 
ATOM     22  C   UNL A   1      42.499  31.163  30.310  1.00  0.00     0.049 A 
ATOM     23  H   UNL A   1      42.647  29.230  29.543  1.00  0.00     0.167 HD
ATOM     24  C   UNL A   1      42.678  25.083  28.058  1.00  0.00     0.037 A 
ATOM     25  C   UNL A   1      43.722  31.524  30.734  1.00  0.00     0.037 A 
ATOM     26  C   UNL A   1      44.038  25.404  28.415  1.00  0.00     0.049 A 
ATOM     27  C   UNL A   1      44.837  30.531  30.604  1.00  0.00     0.074 A 
ATOM     28  C   UNL A   1      45.170  24.622  28.269  1.00  0.00     0.029 A 
ATOM     29  N   UNL A   1      44.447  26.594  28.999  1.00  0.00    -0.354 N 
ATOM     30  N   UNL A   1      44.805  29.327  30.082  1.00  0.00    -0.248 NA
ATOM     31  C   UNL A   1      46.146  30.930  31.132  1.00  0.00     0.031 C 
ATOM     32  C   UNL A   1      46.254  25.315  28.817  1.00  0.00     0.029 A 
ATOM     33  C   UNL A   1      45.808  26.551  29.258  1.00  0.00     0.049 A 
ATOM     34  H   UNL A   1      43.858  27.356  29.201  1.00  0.00     0.167 HD
ATOM     35  C   UNL A   1      46.090  28.824  30.222  1.00  0.00     0.074 A 
ATOM     36  C   UNL A   1      46.883  29.868  30.840  1.00  0.00     0.031 C 
ATOM     37  C   UNL A   1      46.570  27.603  29.881  1.00  0.00     0.037 A 
BRANCH  24  38
ATOM     38  C   UNL A   1      42.402  23.697  27.543  1.00  0.00     0.058 A 
ATOM     39  C   UNL A   1      42.362  23.407  26.171  1.00  0.00     0.135 A 
ATOM     40  C   UNL A   1      42.290  22.623  28.442  1.00  0.00     0.135 A 
ATOM     41  F   UNL A   1      42.447  24.397  25.268  1.00  0.00    -0.206 F 
ATOM     42  C   UNL A   1      42.229  22.100  25.709  1.00  0.00     0.059 A 
ATOM     43  C   UNL A   1      42.177  21.307  28.003  1.00  0.00     0.059 A 
ATOM     44  F   UNL A   1      42.316  22.846  29.766  1.00  0.00    -0.206 F 
ATOM     45  C   UNL A   1      42.147  21.056  26.632  1.00  0.00     0.060 A 
BRANCH  45  46
ATOM     46  S   UNL A   1      42.039  19.362  26.014  1.00  0.00     0.124 S 
ATOM     47  O   UNL A   1      42.508  18.601  27.167  1.00  0.00    -0.237 OA
ATOM     48  O   UNL A   1      40.618  19.235  25.707  1.00  0.00    -0.237 OA
ATOM     49  O   UNL A   1      42.930  19.363  24.858  1.00  0.00    -0.744 OA
ENDBRANCH  45  46
ENDBRANCH  24  38
BRANCH  25  50
ATOM     50  C   UNL A   1      43.929  32.846  31.383  1.00  0.00     0.058 A 
ATOM     51  C   UNL A   1      44.214  33.992  30.630  1.00  0.00     0.135 A 
ATOM     52  C   UNL A   1      43.843  32.984  32.779  1.00  0.00     0.135 A 
ATOM     53  F   UNL A   1      44.304  33.912  29.293  1.00  0.00    -0.206 F 
ATOM     54  C   UNL A   1      44.439  35.224  31.238  1.00  0.00     0.059 A 
ATOM     55  C   UNL A   1      44.028  34.209  33.406  1.00  0.00     0.059 A 
ATOM     56  F   UNL A   1      43.549  31.922  33.545  1.00  0.00    -0.206 F 
ATOM     57  C   UNL A   1      44.347  35.319  32.628  1.00  0.00     0.060 A 
BRANCH  57  58
ATOM     58  S   UNL A   1      44.636  36.920  33.412  1.00  0.00     0.124 S 
ATOM     59  O   UNL A   1      43.722  37.776  32.667  1.00  0.00    -0.237 OA
ATOM     60  O   UNL A   1      44.275  36.653  34.800  1.00  0.00    -0.237 OA
ATOM     61  O   UNL A   1      46.058  37.155  33.176  1.00  0.00    -0.744 OA
ENDBRANCH  57  58
ENDBRANCH  25  50
BRANCH  37  62
ATOM     62  C   UNL A   1      48.019  27.342  30.171  1.00  0.00     0.058 A 
ATOM     63  C   UNL A   1      48.425  26.732  31.369  1.00  0.00     0.135 A 
ATOM     64  C   UNL A   1      49.006  27.672  29.231  1.00  0.00     0.135 A 
ATOM     65  F   UNL A   1      47.518  26.411  32.305  1.00  0.00    -0.206 F 
ATOM     66  C   UNL A   1      49.764  26.477  31.632  1.00  0.00     0.059 A 
ATOM     67  C   UNL A   1      50.349  27.399  29.462  1.00  0.00     0.059 A 
ATOM     68  F   UNL A   1      48.667  28.253  28.069  1.00  0.00    -0.206 F 
ATOM     69  C   UNL A   1      50.719  26.811  30.670  1.00  0.00     0.060 A 
BRANCH  69  70
ATOM     70  S   UNL A   1      52.452  26.440  31.012  1.00  0.00     0.124 S 
ATOM     71  O   UNL A   1      52.340  25.218  31.801  1.00  0.00    -0.237 OA
ATOM     72  O   UNL A   1      53.007  26.282  29.671  1.00  0.00    -0.237 OA
ATOM     73  O   UNL A   1      52.913  27.618  31.741  1.00  0.00    -0.744 OA
ENDBRANCH  69  70
ENDBRANCH  37  62
ENDBRANCH  11  12
ENDBRANCH   4   6
ENDBRANCH   1   2
BRANCH   1  74
ATOM     74  C   UNL A   1      32.341  27.944  27.525  1.00  0.00     0.042 C 
BRANCH  74  75
ATOM     75  C   UNL A   1      32.012  26.981  26.406  1.00  0.00     0.117 C 
BRANCH  75  76
ATOM     76  N   UNL A   1      31.498  25.718  26.896  1.00  0.00    -0.354 N 
ATOM     77  C   UNL A   1      31.690  24.426  26.542  1.00  0.00     0.242 C 
ATOM     78  H   UNL A   1      30.873  25.822  27.651  1.00  0.00     0.163 HD
ATOM     79  O   UNL A   1      31.173  23.601  27.313  1.00  0.00    -0.273 OA
BRANCH  77  80
ATOM     80  C   UNL A   1      32.447  23.940  25.278  1.00  0.00     0.174 C 
ATOM     81  C   UNL A   1      33.699  24.636  24.741  1.00  0.00     0.035 C 
ATOM     82  N   UNL A   1      32.838  22.532  25.493  1.00  0.00    -0.325 N 
ATOM     83  C   UNL A   1      34.896  24.500  25.692  1.00  0.00     0.004 C 
ATOM     84  C   UNL A   1      33.883  22.342  26.502  1.00  0.00     0.121 C 
ATOM     85  C   UNL A   1      35.163  23.039  26.052  1.00  0.00     0.022 C 
BRANCH  82  86
ATOM     86  C   UNL A   1      32.454  21.598  24.526  1.00  0.00     0.274 C 
ATOM     87  O   UNL A   1      31.828  21.917  23.517  1.00  0.00    -0.267 OA
BRANCH  86  88
ATOM     88  C   UNL A   1      32.911  20.223  24.706  1.00  0.00     0.147 A 
ATOM     89  C   UNL A   1      34.167  19.709  24.439  1.00  0.00     0.127 A 
ATOM     90  N   UNL A   1      32.076  19.225  25.186  1.00  0.00    -0.223 NA
ATOM     91  N   UNL A   1      34.084  18.369  24.710  1.00  0.00    -0.306 N 
ATOM     92  C   UNL A   1      32.800  18.129  25.184  1.00  0.00     0.137 A 
ATOM     93  C   UNL A   1      35.042  17.372  24.549  1.00  0.00     0.093 A 
ATOM     94  C   UNL A   1      32.481  16.794  25.557  1.00  0.00     0.048 A 
ATOM     95  C   UNL A   1      34.732  16.107  24.882  1.00  0.00     0.018 A 
ATOM     96  C   UNL A   1      33.405  15.824  25.413  1.00  0.00     0.005 A 
ENDBRANCH  86  88
ENDBRANCH  82  86
ENDBRANCH  77  80
ENDBRANCH  75  76
ENDBRANCH  74  75
ENDBRANCH   1  74
TORSDOF 15
ENDMDL
MODEL 2
REMARK VINA RESULT:     -12.4      1.738      2.344
REMARK SMILES O=C(NCCCNC(=O)[C@H]1CCCCN1C(=O)c1cn2ccccc2n1)c1ccc(-c2c3nc(c(-c4c(F)cc(S(=O)(=O)[O-])cc4F)c4ccc([nH]4)c(-c4c(F)cc(S(=O)(=O)[O-])cc4F)c4nc(c(-c5c(F)cc(S(=O)(=O)[O-])cc5F)c5ccc2[nH]5)C=C4)C=C3)cc1
REMARK SMILES IDX 4 1 3 2 1 3 2 4 27 6 28 7 92 8 29 9 91 10 30 11 31 12 32 13
REMARK SMILES IDX 85 14 33 15 90 16 84 17 86 18 34 19 89 20 83 21 82 22 35 24
REMARK SMILES IDX 69 25 48 26 68 27 49 28 52 29 67 30 87 31 50 32 51 33 66 35
REMARK SMILES IDX 88 36 53 37 36 38 37 39 46 40 38 41 39 42 45 43 47 44 40 45
REMARK SMILES IDX 41 46 42 47 43 48 44 49 70 50 71 51 80 52 72 53 73 54 79 55
REMARK SMILES IDX 81 56 74 57 75 58 76 59 77 60 78 61 54 62 55 63 64 64 56 65
REMARK SMILES IDX 57 66 63 67 65 68 58 69 59 70 60 71 61 72 62 73 5 74 6 75
REMARK SMILES IDX 7 76 8 77 9 79 10 80 11 81 15 82 12 83 14 84 13 85 16 86
REMARK SMILES IDX 17 87 18 88 19 89 26 90 20 91 25 92 21 93 24 94 22 95 23 96
REMARK H PARENT 3 5 86 23 52 34 7 78
REMARK Flexibility Score: inf
ROOT
ATOM      1  C   UNL A   1      33.569  28.354  27.250  1.00  0.00     0.118 C 
ENDROOT
BRANCH   1   2
ATOM      2  N   UNL A   1      33.496  29.796  27.469  1.00  0.00    -0.352 N 
ATOM      3  O   UNL A   1      34.035  31.766  28.419  1.00  0.00    -0.269 OA
ATOM      4  C   UNL A   1      34.390  30.643  28.085  1.00  0.00     0.251 C 
ATOM      5  H   UNL A   1      32.682  30.229  27.124  1.00  0.00     0.163 HD
BRANCH   4   6
ATOM      6  C   UNL A   1      35.769  30.179  28.341  1.00  0.00     0.039 A 
ATOM      7  C   UNL A   1      36.723  30.275  27.330  1.00  0.00     0.014 A 
ATOM      8  C   UNL A   1      36.125  29.671  29.594  1.00  0.00     0.014 A 
ATOM      9  C   UNL A   1      37.963  29.688  27.491  1.00  0.00     0.010 A 
ATOM     10  C   UNL A   1      37.433  29.223  29.809  1.00  0.00     0.010 A 
ATOM     11  C   UNL A   1      38.355  29.218  28.752  1.00  0.00    -0.014 A 
BRANCH  11  12
ATOM     12  C   UNL A   1      39.788  28.895  28.948  1.00  0.00     0.031 A 
ATOM     13  C   UNL A   1      40.365  27.580  28.524  1.00  0.00     0.074 A 
ATOM     14  C   UNL A   1      40.566  29.857  29.490  1.00  0.00     0.049 A 
ATOM     15  N   UNL A   1      41.599  27.162  28.629  1.00  0.00    -0.248 NA
ATOM     16  C   UNL A   1      39.451  26.601  27.914  1.00  0.00     0.031 C 
ATOM     17  C   UNL A   1      40.086  31.168  29.949  1.00  0.00     0.029 A 
ATOM     18  N   UNL A   1      41.913  29.906  29.725  1.00  0.00    -0.354 N 
ATOM     19  C   UNL A   1      41.609  25.865  28.131  1.00  0.00     0.074 A 
ATOM     20  C   UNL A   1      40.254  25.560  27.723  1.00  0.00     0.031 C 
ATOM     21  C   UNL A   1      41.126  31.907  30.353  1.00  0.00     0.029 A 
ATOM     22  C   UNL A   1      42.329  31.094  30.280  1.00  0.00     0.049 A 
ATOM     23  H   UNL A   1      42.526  29.164  29.517  1.00  0.00     0.167 HD
ATOM     24  C   UNL A   1      42.659  25.018  28.033  1.00  0.00     0.037 A 
ATOM     25  C   UNL A   1      43.537  31.475  30.730  1.00  0.00     0.037 A 
ATOM     26  C   UNL A   1      44.005  25.362  28.420  1.00  0.00     0.049 A 
ATOM     27  C   UNL A   1      44.670  30.501  30.625  1.00  0.00     0.074 A 
ATOM     28  C   UNL A   1      45.153  24.599  28.298  1.00  0.00     0.029 A 
ATOM     29  N   UNL A   1      44.381  26.558  29.012  1.00  0.00    -0.354 N 
ATOM     30  N   UNL A   1      44.670  29.297  30.102  1.00  0.00    -0.248 NA
ATOM     31  C   UNL A   1      45.961  30.922  31.180  1.00  0.00     0.031 C 
ATOM     32  C   UNL A   1      46.213  25.311  28.869  1.00  0.00     0.029 A 
ATOM     33  C   UNL A   1      45.737  26.538  29.300  1.00  0.00     0.049 A 
ATOM     34  H   UNL A   1      43.775  27.311  29.201  1.00  0.00     0.167 HD
ATOM     35  C   UNL A   1      45.960  28.816  30.269  1.00  0.00     0.074 A 
ATOM     36  C   UNL A   1      46.722  29.873  30.904  1.00  0.00     0.031 C 
ATOM     37  C   UNL A   1      46.468  27.603  29.939  1.00  0.00     0.037 A 
BRANCH  24  38
ATOM     38  C   UNL A   1      42.417  23.628  27.513  1.00  0.00     0.058 A 
ATOM     39  C   UNL A   1      42.432  23.334  26.141  1.00  0.00     0.135 A 
ATOM     40  C   UNL A   1      42.284  22.555  28.411  1.00  0.00     0.135 A 
ATOM     41  F   UNL A   1      42.539  24.322  25.239  1.00  0.00    -0.206 F 
ATOM     42  C   UNL A   1      42.330  22.024  25.679  1.00  0.00     0.059 A 
ATOM     43  C   UNL A   1      42.201  21.237  27.972  1.00  0.00     0.059 A 
ATOM     44  F   UNL A   1      42.257  22.782  29.734  1.00  0.00    -0.206 F 
ATOM     45  C   UNL A   1      42.226  20.982  26.602  1.00  0.00     0.060 A 
BRANCH  45  46
ATOM     46  S   UNL A   1      42.158  19.285  25.986  1.00  0.00     0.124 S 
ATOM     47  O   UNL A   1      40.737  19.140  25.686  1.00  0.00    -0.237 OA
ATOM     48  O   UNL A   1      43.047  19.340  24.830  1.00  0.00    -0.237 OA
ATOM     49  O   UNL A   1      42.645  18.493  27.111  1.00  0.00    -0.744 OA
ENDBRANCH  45  46
ENDBRANCH  24  38
BRANCH  25  50
ATOM     50  C   UNL A   1      43.707  32.800  31.383  1.00  0.00     0.058 A 
ATOM     51  C   UNL A   1      44.037  33.942  30.642  1.00  0.00     0.135 A 
ATOM     52  C   UNL A   1      43.540  32.946  32.770  1.00  0.00     0.135 A 
ATOM     53  F   UNL A   1      44.206  33.855  29.313  1.00  0.00    -0.206 F 
ATOM     54  C   UNL A   1      44.229  35.177  31.255  1.00  0.00     0.059 A 
ATOM     55  C   UNL A   1      43.690  34.175  33.401  1.00  0.00     0.059 A 
ATOM     56  F   UNL A   1      43.199  31.888  33.524  1.00  0.00    -0.206 F 
ATOM     57  C   UNL A   1      44.056  35.280  32.638  1.00  0.00     0.060 A 
BRANCH  57  58
ATOM     58  S   UNL A   1      44.301  36.884  33.428  1.00  0.00     0.124 S 
ATOM     59  O   UNL A   1      43.174  36.927  34.352  1.00  0.00    -0.237 OA
ATOM     60  O   UNL A   1      45.619  36.731  34.034  1.00  0.00    -0.237 OA
ATOM     61  O   UNL A   1      44.238  37.821  32.310  1.00  0.00    -0.744 OA
ENDBRANCH  57  58
ENDBRANCH  25  50
BRANCH  37  62
ATOM     62  C   UNL A   1      47.915  27.367  30.260  1.00  0.00     0.058 A 
ATOM     63  C   UNL A   1      48.306  26.771  31.470  1.00  0.00     0.135 A 
ATOM     64  C   UNL A   1      48.915  27.706  29.337  1.00  0.00     0.135 A 
ATOM     65  F   UNL A   1      47.384  26.442  32.389  1.00  0.00    -0.206 F 
ATOM     66  C   UNL A   1      49.643  26.539  31.762  1.00  0.00     0.059 A 
ATOM     67  C   UNL A   1      50.258  27.455  29.597  1.00  0.00     0.059 A 
ATOM     68  F   UNL A   1      48.591  28.273  28.164  1.00  0.00    -0.206 F 
ATOM     69  C   UNL A   1      50.612  26.881  30.816  1.00  0.00     0.060 A 
BRANCH  69  70
ATOM     70  S   UNL A   1      52.343  26.539  31.195  1.00  0.00     0.124 S 
ATOM     71  O   UNL A   1      52.933  26.504  29.862  1.00  0.00    -0.237 OA
ATOM     72  O   UNL A   1      52.712  27.682  32.024  1.00  0.00    -0.237 OA
ATOM     73  O   UNL A   1      52.290  25.257  31.892  1.00  0.00    -0.744 OA
ENDBRANCH  69  70
ENDBRANCH  37  62
ENDBRANCH  11  12
ENDBRANCH   4   6
ENDBRANCH   1   2
BRANCH   1  74
ATOM     74  C   UNL A   1      33.721  28.012  25.782  1.00  0.00     0.042 C 
BRANCH  74  75
ATOM     75  C   UNL A   1      32.409  28.120  25.037  1.00  0.00     0.117 C 
BRANCH  75  76
ATOM     76  N   UNL A   1      31.394  27.236  25.573  1.00  0.00    -0.354 N 
ATOM     77  C   UNL A   1      31.384  25.935  25.946  1.00  0.00     0.242 C 
ATOM     78  H   UNL A   1      30.521  27.678  25.692  1.00  0.00     0.163 HD
ATOM     79  O   UNL A   1      30.338  25.570  26.506  1.00  0.00    -0.273 OA
BRANCH  77  80
ATOM     80  C   UNL A   1      32.529  24.917  25.699  1.00  0.00     0.174 C 
ATOM     81  C   UNL A   1      32.647  23.598  26.465  1.00  0.00     0.035 C 
ATOM     82  N   UNL A   1      32.509  24.544  24.270  1.00  0.00    -0.325 N 
ATOM     83  C   UNL A   1      31.507  22.625  26.130  1.00  0.00     0.004 C 
ATOM     84  C   UNL A   1      31.357  23.731  23.873  1.00  0.00     0.121 C 
ATOM     85  C   UNL A   1      31.385  22.403  24.623  1.00  0.00     0.022 C 
BRANCH  82  86
ATOM     86  C   UNL A   1      33.695  24.694  23.545  1.00  0.00     0.274 C 
ATOM     87  O   UNL A   1      33.785  25.450  22.581  1.00  0.00    -0.267 OA
BRANCH  86  88
ATOM     88  C   UNL A   1      34.873  23.984  24.038  1.00  0.00     0.147 A 
ATOM     89  C   UNL A   1      35.275  22.697  23.726  1.00  0.00     0.127 A 
ATOM     90  N   UNL A   1      35.762  24.561  24.932  1.00  0.00    -0.223 NA
ATOM     91  N   UNL A   1      36.394  22.467  24.480  1.00  0.00    -0.306 N 
ATOM     92  C   UNL A   1      36.664  23.638  25.177  1.00  0.00     0.137 A 
ATOM     93  C   UNL A   1      37.159  21.309  24.599  1.00  0.00     0.093 A 
ATOM     94  C   UNL A   1      37.810  23.647  26.020  1.00  0.00     0.048 A 
ATOM     95  C   UNL A   1      38.228  21.312  25.413  1.00  0.00     0.018 A 
ATOM     96  C   UNL A   1      38.560  22.534  26.135  1.00  0.00     0.005 A 
ENDBRANCH  86  88
ENDBRANCH  82  86
ENDBRANCH  77  80
ENDBRANCH  75  76
ENDBRANCH  74  75
ENDBRANCH   1  74
TORSDOF 15
ENDMDL
MODEL 3
REMARK VINA RESULT:     -12.3      4.969      9.643
REMARK SMILES O=C(NCCCNC(=O)[C@H]1CCCCN1C(=O)c1cn2ccccc2n1)c1ccc(-c2c3nc(c(-c4c(F)cc(S(=O)(=O)[O-])cc4F)c4ccc([nH]4)c(-c4c(F)cc(S(=O)(=O)[O-])cc4F)c4nc(c(-c5c(F)cc(S(=O)(=O)[O-])cc5F)c5ccc2[nH]5)C=C4)C=C3)cc1
REMARK SMILES IDX 4 1 3 2 1 3 2 4 27 6 28 7 92 8 29 9 91 10 30 11 31 12 32 13
REMARK SMILES IDX 85 14 33 15 90 16 84 17 86 18 34 19 89 20 83 21 82 22 35 24
REMARK SMILES IDX 69 25 48 26 68 27 49 28 52 29 67 30 87 31 50 32 51 33 66 35
REMARK SMILES IDX 88 36 53 37 36 38 37 39 46 40 38 41 39 42 45 43 47 44 40 45
REMARK SMILES IDX 41 46 42 47 43 48 44 49 70 50 71 51 80 52 72 53 73 54 79 55
REMARK SMILES IDX 81 56 74 57 75 58 76 59 77 60 78 61 54 62 55 63 64 64 56 65
REMARK SMILES IDX 57 66 63 67 65 68 58 69 59 70 60 71 61 72 62 73 5 74 6 75
REMARK SMILES IDX 7 76 8 77 9 79 10 80 11 81 15 82 12 83 14 84 13 85 16 86
REMARK SMILES IDX 17 87 18 88 19 89 26 90 20 91 25 92 21 93 24 94 22 95 23 96
REMARK H PARENT 3 5 86 23 52 34 7 78
REMARK Flexibility Score: inf
ROOT
ATOM      1  C   UNL A   1      40.112  23.298  27.072  1.00  0.00     0.118 C 
ENDROOT
BRANCH   1   2
ATOM      2  N   UNL A   1      40.859  24.068  26.080  1.00  0.00    -0.352 N 
ATOM      3  O   UNL A   1      41.571  25.924  25.020  1.00  0.00    -0.269 OA
ATOM      4  C   UNL A   1      41.184  25.405  26.060  1.00  0.00     0.251 C 
ATOM      5  H   UNL A   1      41.180  23.550  25.306  1.00  0.00     0.163 HD
BRANCH   4   6
ATOM      6  C   UNL A   1      41.052  26.202  27.298  1.00  0.00     0.039 A 
ATOM      7  C   UNL A   1      42.034  27.137  27.618  1.00  0.00     0.014 A 
ATOM      8  C   UNL A   1      39.940  26.041  28.129  1.00  0.00     0.014 A 
ATOM      9  C   UNL A   1      42.018  27.761  28.850  1.00  0.00     0.010 A 
ATOM     10  C   UNL A   1      39.843  26.795  29.303  1.00  0.00     0.010 A 
ATOM     11  C   UNL A   1      40.891  27.650  29.676  1.00  0.00    -0.014 A 
BRANCH  11  12
ATOM     12  C   UNL A   1      40.789  28.581  30.825  1.00  0.00     0.031 A 
ATOM     13  C   UNL A   1      41.693  28.467  32.013  1.00  0.00     0.074 A 
ATOM     14  C   UNL A   1      39.869  29.565  30.738  1.00  0.00     0.049 A 
ATOM     15  N   UNL A   1      41.720  29.212  33.087  1.00  0.00    -0.248 NA
ATOM     16  C   UNL A   1      42.687  27.382  32.011  1.00  0.00     0.031 C 
ATOM     17  C   UNL A   1      38.931  29.745  29.620  1.00  0.00     0.029 A 
ATOM     18  N   UNL A   1      39.581  30.612  31.572  1.00  0.00    -0.354 N 
ATOM     19  C   UNL A   1      42.707  28.672  33.903  1.00  0.00     0.074 A 
ATOM     20  C   UNL A   1      43.257  27.532  33.202  1.00  0.00     0.031 C 
ATOM     21  C   UNL A   1      38.218  30.861  29.811  1.00  0.00     0.029 A 
ATOM     22  C   UNL A   1      38.571  31.421  31.106  1.00  0.00     0.049 A 
ATOM     23  H   UNL A   1      40.052  30.771  32.422  1.00  0.00     0.167 HD
ATOM     24  C   UNL A   1      43.102  29.098  35.125  1.00  0.00     0.037 A 
ATOM     25  C   UNL A   1      37.958  32.472  31.677  1.00  0.00     0.037 A 
ATOM     26  C   UNL A   1      42.556  30.257  35.786  1.00  0.00     0.049 A 
ATOM     27  C   UNL A   1      38.409  32.900  33.040  1.00  0.00     0.074 A 
ATOM     28  C   UNL A   1      42.935  30.813  36.995  1.00  0.00     0.029 A 
ATOM     29  N   UNL A   1      41.510  31.029  35.302  1.00  0.00    -0.354 N 
ATOM     30  N   UNL A   1      39.380  32.408  33.773  1.00  0.00    -0.248 NA
ATOM     31  C   UNL A   1      37.680  34.009  33.663  1.00  0.00     0.031 C 
ATOM     32  C   UNL A   1      42.081  31.886  37.270  1.00  0.00     0.029 A 
ATOM     33  C   UNL A   1      41.203  32.032  36.208  1.00  0.00     0.049 A 
ATOM     34  H   UNL A   1      41.053  30.886  34.442  1.00  0.00     0.167 HD
ATOM     35  C   UNL A   1      39.375  33.147  34.947  1.00  0.00     0.074 A 
ATOM     36  C   UNL A   1      38.332  34.144  34.808  1.00  0.00     0.031 C 
ATOM     37  C   UNL A   1      40.155  33.007  36.047  1.00  0.00     0.037 A 
BRANCH  24  38
ATOM     38  C   UNL A   1      44.157  28.313  35.854  1.00  0.00     0.058 A 
ATOM     39  C   UNL A   1      45.524  28.605  35.727  1.00  0.00     0.135 A 
ATOM     40  C   UNL A   1      43.782  27.327  36.784  1.00  0.00     0.135 A 
ATOM     41  F   UNL A   1      45.939  29.524  34.842  1.00  0.00    -0.206 F 
ATOM     42  C   UNL A   1      46.480  27.953  36.501  1.00  0.00     0.059 A 
ATOM     43  C   UNL A   1      44.719  26.678  37.583  1.00  0.00     0.059 A 
ATOM     44  F   UNL A   1      42.488  27.005  36.940  1.00  0.00    -0.206 F 
ATOM     45  C   UNL A   1      46.067  26.999  37.434  1.00  0.00     0.060 A 
BRANCH  45  46
ATOM     46  S   UNL A   1      47.316  26.210  38.473  1.00  0.00     0.124 S 
ATOM     47  O   UNL A   1      48.024  25.382  37.501  1.00  0.00    -0.237 OA
ATOM     48  O   UNL A   1      48.058  27.355  38.990  1.00  0.00    -0.237 OA
ATOM     49  O   UNL A   1      46.527  25.480  39.460  1.00  0.00    -0.744 OA
ENDBRANCH  45  46
ENDBRANCH  24  38
BRANCH  25  50
ATOM     50  C   UNL A   1      36.812  33.129  30.994  1.00  0.00     0.058 A 
ATOM     51  C   UNL A   1      37.010  34.050  29.958  1.00  0.00     0.135 A 
ATOM     52  C   UNL A   1      35.489  32.843  31.371  1.00  0.00     0.135 A 
ATOM     53  F   UNL A   1      38.255  34.355  29.560  1.00  0.00    -0.206 F 
ATOM     54  C   UNL A   1      35.940  34.690  29.339  1.00  0.00     0.059 A 
ATOM     55  C   UNL A   1      34.403  33.441  30.746  1.00  0.00     0.059 A 
ATOM     56  F   UNL A   1      35.242  31.950  32.343  1.00  0.00    -0.206 F 
ATOM     57  C   UNL A   1      34.640  34.380  29.745  1.00  0.00     0.060 A 
BRANCH  57  58
ATOM     58  S   UNL A   1      33.255  35.210  28.937  1.00  0.00     0.124 S 
ATOM     59  O   UNL A   1      32.480  35.665  30.085  1.00  0.00    -0.237 OA
ATOM     60  O   UNL A   1      33.927  36.251  28.166  1.00  0.00    -0.237 OA
ATOM     61  O   UNL A   1      32.646  34.147  28.144  1.00  0.00    -0.744 OA
ENDBRANCH  57  58
ENDBRANCH  25  50
BRANCH  37  62
ATOM     62  C   UNL A   1      39.902  33.959  37.179  1.00  0.00     0.058 A 
ATOM     63  C   UNL A   1      40.468  35.244  37.192  1.00  0.00     0.135 A 
ATOM     64  C   UNL A   1      39.060  33.598  38.241  1.00  0.00     0.135 A 
ATOM     65  F   UNL A   1      41.291  35.630  36.204  1.00  0.00    -0.206 F 
ATOM     66  C   UNL A   1      40.224  36.131  38.232  1.00  0.00     0.059 A 
ATOM     67  C   UNL A   1      38.779  34.480  39.277  1.00  0.00     0.059 A 
ATOM     68  F   UNL A   1      38.492  32.381  38.271  1.00  0.00    -0.206 F 
ATOM     69  C   UNL A   1      39.374  35.740  39.269  1.00  0.00     0.060 A 
BRANCH  69  70
ATOM     70  S   UNL A   1      39.037  36.918  40.595  1.00  0.00     0.124 S 
ATOM     71  O   UNL A   1      40.385  37.316  40.983  1.00  0.00    -0.237 OA
ATOM     72  O   UNL A   1      38.245  37.936  39.913  1.00  0.00    -0.237 OA
ATOM     73  O   UNL A   1      38.310  36.120  41.579  1.00  0.00    -0.744 OA
ENDBRANCH  69  70
ENDBRANCH  37  62
ENDBRANCH  11  12
ENDBRANCH   4   6
ENDBRANCH   1   2
BRANCH   1  74
ATOM     74  C   UNL A   1      38.927  22.583  26.456  1.00  0.00     0.042 C 
BRANCH  74  75
ATOM     75  C   UNL A   1      37.869  23.552  25.975  1.00  0.00     0.117 C 
BRANCH  75  76
ATOM     76  N   UNL A   1      37.391  23.233  24.645  1.00  0.00    -0.354 N 
ATOM     77  C   UNL A   1      36.189  23.333  24.031  1.00  0.00     0.242 C 
ATOM     78  H   UNL A   1      38.093  22.863  24.060  1.00  0.00     0.163 HD
ATOM     79  O   UNL A   1      36.213  23.088  22.814  1.00  0.00    -0.273 OA
BRANCH  77  80
ATOM     80  C   UNL A   1      34.847  23.683  24.726  1.00  0.00     0.174 C 
ATOM     81  C   UNL A   1      34.315  25.114  24.832  1.00  0.00     0.035 C 
ATOM     82  N   UNL A   1      33.775  22.910  24.067  1.00  0.00    -0.325 N 
ATOM     83  C   UNL A   1      33.929  25.696  23.465  1.00  0.00     0.004 C 
ATOM     84  C   UNL A   1      33.471  23.340  22.700  1.00  0.00     0.121 C 
ATOM     85  C   UNL A   1      32.962  24.778  22.718  1.00  0.00     0.022 C 
BRANCH  82  86
ATOM     86  C   UNL A   1      32.957  22.117  24.878  1.00  0.00     0.274 C 
ATOM     87  O   UNL A   1      32.000  22.579  25.497  1.00  0.00    -0.267 OA
BRANCH  86  88
ATOM     88  C   UNL A   1      33.218  20.680  24.889  1.00  0.00     0.147 A 
ATOM     89  C   UNL A   1      34.403  20.035  24.586  1.00  0.00     0.127 A 
ATOM     90  N   UNL A   1      32.239  19.755  25.219  1.00  0.00    -0.223 NA
ATOM     91  N   UNL A   1      34.130  18.696  24.680  1.00  0.00    -0.306 N 
ATOM     92  C   UNL A   1      32.809  18.578  25.092  1.00  0.00     0.137 A 
ATOM     93  C   UNL A   1      34.952  17.604  24.413  1.00  0.00     0.093 A 
ATOM     94  C   UNL A   1      32.299  17.264  25.284  1.00  0.00     0.048 A 
ATOM     95  C   UNL A   1      34.462  16.363  24.574  1.00  0.00     0.018 A 
ATOM     96  C   UNL A   1      33.089  16.202  25.036  1.00  0.00     0.005 A 
ENDBRANCH  86  88
ENDBRANCH  82  86
ENDBRANCH  77  80
ENDBRANCH  75  76
ENDBRANCH  74  75
ENDBRANCH   1  74
TORSDOF 15
ENDMDL
