MODEL 1
REMARK VINA RESULT:     -11.7      0.000      0.000
REMARK SMILES C[C@]1(CNC(=O)N2CCOC[C@H]2C(=O)NCCCNC(=O)c2ccc(-c3c4nc(c(-c5c(F)cc(S(=O)(=O)[O-])cc5F)c5ccc([nH]5)c(-c5c(F)cc(S(=O)(=O)[O-])cc5F)c5nc(c(-c6c(F)cc(S(=O)(=O)[O-])cc6F)c6ccc3[nH]6)C=C5)C=C4)cc2)CCCO1
REMARK SMILES IDX 17 1 16 2 15 3 13 4 14 5 12 7 7 8 8 9 9 10 11 11 10 12 5 13
REMARK SMILES IDX 4 14 6 16 3 17 2 18 1 19 88 20 91 21 89 22 90 23 18 24 19 25
REMARK SMILES IDX 20 26 21 28 22 29 23 30 87 31 24 32 86 33 25 34 26 35 27 36
REMARK SMILES IDX 80 37 28 38 85 39 79 40 81 41 29 42 84 43 78 44 77 45 30 47
REMARK SMILES IDX 64 48 43 49 63 50 44 51 47 52 62 53 82 54 45 55 46 56 61 58
REMARK SMILES IDX 83 59 48 60 31 61 32 62 41 63 33 64 34 65 40 66 42 67 35 68
REMARK SMILES IDX 36 69 37 70 38 71 39 72 65 73 66 74 75 75 67 76 68 77 74 78
REMARK SMILES IDX 76 79 69 80 70 81 71 82 72 83 73 84 49 85 50 86 59 87 51 88
REMARK SMILES IDX 52 89 58 90 60 91 53 92 54 93 55 94 56 95 57 96
REMARK H PARENT 15 6 4 15 19 27 81 46 47 57
REMARK Flexibility Score: inf
ROOT
ATOM      1  C   UNL A   1      32.722  28.507  26.228  1.00  0.00     0.042 C 
ENDROOT
BRANCH   1   2
ATOM      2  C   UNL A   1      32.601  29.594  25.161  1.00  0.00     0.117 C 
BRANCH   2   3
ATOM      3  N   UNL A   1      33.358  29.278  23.963  1.00  0.00    -0.354 N 
ATOM      4  C   UNL A   1      33.502  28.165  23.193  1.00  0.00     0.245 C 
ATOM      5  O   UNL A   1      34.141  28.352  22.147  1.00  0.00    -0.273 OA
ATOM      6  H   UNL A   1      33.888  30.040  23.634  1.00  0.00     0.163 HD
BRANCH   4   7
ATOM      7  C   UNL A   1      32.910  26.752  23.484  1.00  0.00     0.202 C 
ATOM      8  N   UNL A   1      31.699  26.324  22.757  1.00  0.00    -0.308 N 
ATOM      9  C   UNL A   1      31.973  25.775  21.449  1.00  0.00     0.151 C 
ATOM     10  C   UNL A   1      32.928  24.592  21.571  1.00  0.00     0.182 C 
ATOM     11  C   UNL A   1      33.949  25.614  23.485  1.00  0.00     0.195 C 
ATOM     12  O   UNL A   1      34.159  24.993  22.204  1.00  0.00    -0.377 OA
BRANCH   8  13
ATOM     13  C   UNL A   1      30.483  26.429  23.356  1.00  0.00     0.318 C 
ATOM     14  N   UNL A   1      29.791  27.590  23.350  1.00  0.00    -0.335 N 
ATOM     15  H   UNL A   1      29.109  27.632  24.058  1.00  0.00     0.165 HD
ATOM     16  O   UNL A   1      29.928  25.466  23.888  1.00  0.00    -0.249 OA
BRANCH  14  17
ATOM     17  C   UNL A   1      29.832  28.798  22.528  1.00  0.00     0.152 C 
BRANCH  17  18
ATOM     18  C   UNL A   1      28.572  29.701  22.566  1.00  0.00     0.083 C 
ATOM     19  C   UNL A   1      27.297  28.977  23.008  1.00  0.00     0.044 C 
ATOM     20  C   UNL A   1      28.847  30.967  23.379  1.00  0.00     0.039 C 
ATOM     21  O   UNL A   1      28.304  30.181  21.218  1.00  0.00    -0.373 OA
ATOM     22  C   UNL A   1      27.979  32.002  22.714  1.00  0.00     0.031 C 
ATOM     23  C   UNL A   1      28.038  31.591  21.259  1.00  0.00     0.161 C 
ENDBRANCH  17  18
ENDBRANCH  14  17
ENDBRANCH   8  13
ENDBRANCH   4   7
ENDBRANCH   2   3
ENDBRANCH   1   2
BRANCH   1  24
ATOM     24  C   UNL A   1      33.807  28.770  27.249  1.00  0.00     0.118 C 
BRANCH  24  25
ATOM     25  N   UNL A   1      33.732  30.122  27.789  1.00  0.00    -0.352 N 
ATOM     26  C   UNL A   1      34.655  30.830  28.526  1.00  0.00     0.251 C 
ATOM     27  H   UNL A   1      32.894  30.602  27.597  1.00  0.00     0.163 HD
ATOM     28  O   UNL A   1      34.320  31.877  29.067  1.00  0.00    -0.269 OA
BRANCH  26  29
ATOM     29  C   UNL A   1      36.034  30.315  28.685  1.00  0.00     0.039 A 
ATOM     30  C   UNL A   1      36.908  30.349  27.593  1.00  0.00     0.014 A 
ATOM     31  C   UNL A   1      36.470  29.802  29.906  1.00  0.00     0.014 A 
ATOM     32  C   UNL A   1      38.233  29.934  27.752  1.00  0.00     0.010 A 
ATOM     33  C   UNL A   1      37.813  29.503  30.093  1.00  0.00     0.010 A 
ATOM     34  C   UNL A   1      38.708  29.545  29.014  1.00  0.00    -0.014 A 
BRANCH  34  35
ATOM     35  C   UNL A   1      40.118  29.135  29.239  1.00  0.00     0.031 A 
ATOM     36  C   UNL A   1      41.114  30.158  29.725  1.00  0.00     0.074 A 
ATOM     37  C   UNL A   1      40.521  27.888  28.920  1.00  0.00     0.049 A 
ATOM     38  N   UNL A   1      42.412  30.058  29.838  1.00  0.00    -0.248 NA
ATOM     39  C   UNL A   1      40.584  31.483  30.094  1.00  0.00     0.031 C 
ATOM     40  C   UNL A   1      39.659  26.827  28.393  1.00  0.00     0.029 A 
ATOM     41  N   UNL A   1      41.764  27.308  28.968  1.00  0.00    -0.354 N 
ATOM     42  C   UNL A   1      42.853  31.309  30.253  1.00  0.00     0.074 A 
ATOM     43  C   UNL A   1      41.694  32.168  30.327  1.00  0.00     0.031 C 
ATOM     44  C   UNL A   1      40.397  25.726  28.175  1.00  0.00     0.029 A 
ATOM     45  C   UNL A   1      41.790  26.014  28.499  1.00  0.00     0.049 A 
ATOM     46  H   UNL A   1      42.562  27.774  29.306  1.00  0.00     0.167 HD
ATOM     47  C   UNL A   1      44.110  31.700  30.565  1.00  0.00     0.037 A 
ATOM     48  C   UNL A   1      42.824  25.166  28.325  1.00  0.00     0.037 A 
ATOM     49  C   UNL A   1      45.249  30.821  30.543  1.00  0.00     0.049 A 
ATOM     50  C   UNL A   1      44.210  25.622  28.701  1.00  0.00     0.074 A 
ATOM     51  C   UNL A   1      46.548  31.093  30.930  1.00  0.00     0.029 A 
ATOM     52  N   UNL A   1      45.222  29.503  30.117  1.00  0.00    -0.354 N 
ATOM     53  N   UNL A   1      44.596  26.786  29.167  1.00  0.00    -0.248 NA
ATOM     54  C   UNL A   1      45.301  24.651  28.535  1.00  0.00     0.031 C 
ATOM     55  C   UNL A   1      47.322  29.957  30.682  1.00  0.00     0.029 A 
ATOM     56  C   UNL A   1      46.491  28.956  30.204  1.00  0.00     0.049 A 
ATOM     57  H   UNL A   1      44.422  29.026  29.797  1.00  0.00     0.167 HD
ATOM     58  C   UNL A   1      45.966  26.675  29.382  1.00  0.00     0.074 A 
ATOM     59  C   UNL A   1      46.340  25.328  29.005  1.00  0.00     0.031 C 
ATOM     60  C   UNL A   1      46.837  27.602  29.849  1.00  0.00     0.037 A 
BRANCH  47  61
ATOM     61  C   UNL A   1      44.333  33.132  30.968  1.00  0.00     0.058 A 
ATOM     62  C   UNL A   1      44.280  33.540  32.311  1.00  0.00     0.135 A 
ATOM     63  C   UNL A   1      44.685  34.092  30.006  1.00  0.00     0.135 A 
ATOM     64  F   UNL A   1      43.930  32.670  33.270  1.00  0.00    -0.206 F 
ATOM     65  C   UNL A   1      44.562  34.851  32.683  1.00  0.00     0.059 A 
ATOM     66  C   UNL A   1      45.000  35.401  30.358  1.00  0.00     0.059 A 
ATOM     67  F   UNL A   1      44.744  33.756  28.707  1.00  0.00    -0.206 F 
ATOM     68  C   UNL A   1      44.932  35.771  31.700  1.00  0.00     0.060 A 
BRANCH  68  69
ATOM     69  S   UNL A   1      45.347  37.452  32.210  1.00  0.00     0.124 S 
ATOM     70  O   UNL A   1      46.149  37.206  33.404  1.00  0.00    -0.237 OA
ATOM     71  O   UNL A   1      46.077  37.955  31.050  1.00  0.00    -0.237 OA
ATOM     72  O   UNL A   1      44.046  38.069  32.444  1.00  0.00    -0.744 OA
ENDBRANCH  68  69
ENDBRANCH  47  61
BRANCH  48  73
ATOM     73  C   UNL A   1      42.597  23.806  27.762  1.00  0.00     0.058 A 
ATOM     74  C   UNL A   1      42.488  22.682  28.594  1.00  0.00     0.135 A 
ATOM     75  C   UNL A   1      42.504  23.600  26.376  1.00  0.00     0.135 A 
ATOM     76  F   UNL A   1      42.572  22.823  29.926  1.00  0.00    -0.206 F 
ATOM     77  C   UNL A   1      42.334  21.400  28.074  1.00  0.00     0.059 A 
ATOM     78  C   UNL A   1      42.318  22.332  25.833  1.00  0.00     0.059 A 
ATOM     79  F   UNL A   1      42.580  24.642  25.533  1.00  0.00    -0.206 F 
ATOM     80  C   UNL A   1      42.253  21.235  26.691  1.00  0.00     0.060 A 
BRANCH  80  81
ATOM     81  S   UNL A   1      42.037  19.570  26.026  1.00  0.00     0.124 S 
ATOM     82  O   UNL A   1      40.601  19.538  25.776  1.00  0.00    -0.237 OA
ATOM     83  O   UNL A   1      42.892  19.598  24.844  1.00  0.00    -0.237 OA
ATOM     84  O   UNL A   1      42.509  18.713  27.110  1.00  0.00    -0.744 OA
ENDBRANCH  80  81
ENDBRANCH  48  73
BRANCH  60  85
ATOM     85  C   UNL A   1      48.269  27.188  30.038  1.00  0.00     0.058 A 
ATOM     86  C   UNL A   1      49.254  27.465  29.079  1.00  0.00     0.135 A 
ATOM     87  C   UNL A   1      48.673  26.585  31.241  1.00  0.00     0.135 A 
ATOM     88  F   UNL A   1      48.918  28.035  27.910  1.00  0.00    -0.206 F 
ATOM     89  C   UNL A   1      50.589  27.147  29.298  1.00  0.00     0.059 A 
ATOM     90  C   UNL A   1      50.007  26.287  31.495  1.00  0.00     0.059 A 
ATOM     91  F   UNL A   1      47.771  26.309  32.196  1.00  0.00    -0.206 F 
ATOM     92  C   UNL A   1      50.958  26.566  30.515  1.00  0.00     0.060 A 
BRANCH  92  93
ATOM     93  S   UNL A   1      52.703  26.214  30.809  1.00  0.00     0.124 S 
ATOM     94  O   UNL A   1      52.626  25.024  31.650  1.00  0.00    -0.237 OA
ATOM     95  O   UNL A   1      53.211  26.005  29.457  1.00  0.00    -0.237 OA
ATOM     96  O   UNL A   1      53.186  27.422  31.474  1.00  0.00    -0.744 OA
ENDBRANCH  92  93
ENDBRANCH  60  85
ENDBRANCH  34  35
ENDBRANCH  26  29
ENDBRANCH  24  25
ENDBRANCH   1  24
TORSDOF 16
ENDMDL
MODEL 2
REMARK VINA RESULT:     -11.7      2.202      2.970
REMARK SMILES C[C@]1(CNC(=O)N2CCOC[C@H]2C(=O)NCCCNC(=O)c2ccc(-c3c4nc(c(-c5c(F)cc(S(=O)(=O)[O-])cc5F)c5ccc([nH]5)c(-c5c(F)cc(S(=O)(=O)[O-])cc5F)c5nc(c(-c6c(F)cc(S(=O)(=O)[O-])cc6F)c6ccc3[nH]6)C=C5)C=C4)cc2)CCCO1
REMARK SMILES IDX 17 1 16 2 15 3 13 4 14 5 12 7 7 8 8 9 9 10 11 11 10 12 5 13
REMARK SMILES IDX 4 14 6 16 3 17 2 18 1 19 88 20 91 21 89 22 90 23 18 24 19 25
REMARK SMILES IDX 20 26 21 28 22 29 23 30 87 31 24 32 86 33 25 34 26 35 27 36
REMARK SMILES IDX 80 37 28 38 85 39 79 40 81 41 29 42 84 43 78 44 77 45 30 47
REMARK SMILES IDX 64 48 43 49 63 50 44 51 47 52 62 53 82 54 45 55 46 56 61 58
REMARK SMILES IDX 83 59 48 60 31 61 32 62 41 63 33 64 34 65 40 66 42 67 35 68
REMARK SMILES IDX 36 69 37 70 38 71 39 72 65 73 66 74 75 75 67 76 68 77 74 78
REMARK SMILES IDX 76 79 69 80 70 81 71 82 72 83 73 84 49 85 50 86 59 87 51 88
REMARK SMILES IDX 52 89 58 90 60 91 53 92 54 93 55 94 56 95 57 96
REMARK H PARENT 15 6 4 15 19 27 81 46 47 57
REMARK Flexibility Score: inf
ROOT
ATOM      1  C   UNL A   1      33.879  30.347  27.107  1.00  0.00     0.042 C 
ENDROOT
BRANCH   1   2
ATOM      2  C   UNL A   1      33.323  29.149  26.339  1.00  0.00     0.117 C 
BRANCH   2   3
ATOM      3  N   UNL A   1      33.663  29.192  24.928  1.00  0.00    -0.354 N 
ATOM      4  C   UNL A   1      33.416  28.379  23.864  1.00  0.00     0.245 C 
ATOM      5  O   UNL A   1      33.764  28.855  22.773  1.00  0.00    -0.273 OA
ATOM      6  H   UNL A   1      34.192  29.986  24.686  1.00  0.00     0.163 HD
BRANCH   4   7
ATOM      7  C   UNL A   1      32.718  26.986  23.902  1.00  0.00     0.202 C 
ATOM      8  N   UNL A   1      31.614  26.717  22.960  1.00  0.00    -0.308 N 
ATOM      9  C   UNL A   1      32.060  26.291  21.653  1.00  0.00     0.151 C 
ATOM     10  C   UNL A   1      32.925  25.041  21.781  1.00  0.00     0.182 C 
ATOM     11  C   UNL A   1      33.686  25.788  23.928  1.00  0.00     0.195 C 
ATOM     12  O   UNL A   1      34.061  25.292  22.631  1.00  0.00    -0.377 OA
BRANCH   8  13
ATOM     13  C   UNL A   1      30.326  26.839  23.379  1.00  0.00     0.318 C 
ATOM     14  N   UNL A   1      29.685  28.029  23.353  1.00  0.00    -0.335 N 
ATOM     15  H   UNL A   1      28.906  28.056  23.955  1.00  0.00     0.165 HD
ATOM     16  O   UNL A   1      29.665  25.871  23.756  1.00  0.00    -0.249 OA
BRANCH  14  17
ATOM     17  C   UNL A   1      29.892  29.283  22.632  1.00  0.00     0.152 C 
BRANCH  17  18
ATOM     18  C   UNL A   1      28.635  30.162  22.404  1.00  0.00     0.083 C 
ATOM     19  C   UNL A   1      27.366  29.625  23.072  1.00  0.00     0.044 C 
ATOM     20  C   UNL A   1      28.927  31.617  22.772  1.00  0.00     0.039 C 
ATOM     21  O   UNL A   1      28.345  30.196  20.978  1.00  0.00    -0.373 OA
ATOM     22  C   UNL A   1      28.051  32.398  21.829  1.00  0.00     0.031 C 
ATOM     23  C   UNL A   1      28.083  31.549  20.577  1.00  0.00     0.161 C 
ENDBRANCH  17  18
ENDBRANCH  14  17
ENDBRANCH   8  13
ENDBRANCH   4   7
ENDBRANCH   2   3
ENDBRANCH   1   2
BRANCH   1  24
ATOM     24  C   UNL A   1      35.189  30.069  27.811  1.00  0.00     0.118 C 
BRANCH  24  25
ATOM     25  N   UNL A   1      35.255  30.717  29.115  1.00  0.00    -0.352 N 
ATOM     26  C   UNL A   1      36.267  30.718  30.049  1.00  0.00     0.251 C 
ATOM     27  H   UNL A   1      34.455  31.232  29.366  1.00  0.00     0.163 HD
ATOM     28  O   UNL A   1      36.048  31.147  31.175  1.00  0.00    -0.269 OA
BRANCH  26  29
ATOM     29  C   UNL A   1      37.602  30.179  29.701  1.00  0.00     0.039 A 
ATOM     30  C   UNL A   1      37.999  30.148  28.361  1.00  0.00     0.014 A 
ATOM     31  C   UNL A   1      38.464  29.708  30.692  1.00  0.00     0.014 A 
ATOM     32  C   UNL A   1      39.285  29.710  28.029  1.00  0.00     0.010 A 
ATOM     33  C   UNL A   1      39.777  29.388  30.374  1.00  0.00     0.010 A 
ATOM     34  C   UNL A   1      40.199  29.364  29.037  1.00  0.00    -0.014 A 
BRANCH  34  35
ATOM     35  C   UNL A   1      41.588  28.933  28.734  1.00  0.00     0.031 A 
ATOM     36  C   UNL A   1      42.687  29.964  28.694  1.00  0.00     0.074 A 
ATOM     37  C   UNL A   1      41.843  27.650  28.404  1.00  0.00     0.049 A 
ATOM     38  N   UNL A   1      43.928  29.834  28.302  1.00  0.00    -0.248 NA
ATOM     39  C   UNL A   1      42.335  31.333  29.112  1.00  0.00     0.031 C 
ATOM     40  C   UNL A   1      40.851  26.573  28.357  1.00  0.00     0.029 A 
ATOM     41  N   UNL A   1      43.010  27.038  28.020  1.00  0.00    -0.354 N 
ATOM     42  C   UNL A   1      44.487  31.104  28.391  1.00  0.00     0.074 A 
ATOM     43  C   UNL A   1      43.443  32.001  28.827  1.00  0.00     0.031 C 
ATOM     44  C   UNL A   1      41.453  25.434  27.976  1.00  0.00     0.029 A 
ATOM     45  C   UNL A   1      42.860  25.707  27.704  1.00  0.00     0.049 A 
ATOM     46  H   UNL A   1      43.874  27.508  27.974  1.00  0.00     0.167 HD
ATOM     47  C   UNL A   1      45.764  31.482  28.151  1.00  0.00     0.037 A 
ATOM     48  C   UNL A   1      43.750  24.816  27.224  1.00  0.00     0.037 A 
ATOM     49  C   UNL A   1      46.809  30.570  27.773  1.00  0.00     0.049 A 
ATOM     50  C   UNL A   1      45.170  25.260  26.985  1.00  0.00     0.074 A 
ATOM     51  C   UNL A   1      48.155  30.835  27.595  1.00  0.00     0.029 A 
ATOM     52  N   UNL A   1      46.628  29.220  27.518  1.00  0.00    -0.354 N 
ATOM     53  N   UNL A   1      45.699  26.449  27.151  1.00  0.00    -0.248 NA
ATOM     54  C   UNL A   1      46.117  24.244  26.502  1.00  0.00     0.031 C 
ATOM     55  C   UNL A   1      48.778  29.658  27.176  1.00  0.00     0.029 A 
ATOM     56  C   UNL A   1      47.833  28.644  27.157  1.00  0.00     0.049 A 
ATOM     57  H   UNL A   1      45.769  28.741  27.582  1.00  0.00     0.167 HD
ATOM     58  C   UNL A   1      47.045  26.315  26.826  1.00  0.00     0.074 A 
ATOM     59  C   UNL A   1      47.251  24.928  26.464  1.00  0.00     0.031 C 
ATOM     60  C   UNL A   1      48.023  27.254  26.827  1.00  0.00     0.037 A 
BRANCH  47  61
ATOM     61  C   UNL A   1      46.116  32.937  28.297  1.00  0.00     0.058 A 
ATOM     62  C   UNL A   1      46.008  33.837  27.225  1.00  0.00     0.135 A 
ATOM     63  C   UNL A   1      46.490  33.453  29.549  1.00  0.00     0.135 A 
ATOM     64  F   UNL A   1      45.675  33.396  26.002  1.00  0.00    -0.206 F 
ATOM     65  C   UNL A   1      46.263  35.195  27.388  1.00  0.00     0.059 A 
ATOM     66  C   UNL A   1      46.721  34.811  29.742  1.00  0.00     0.059 A 
ATOM     67  F   UNL A   1      46.615  32.635  30.606  1.00  0.00    -0.206 F 
ATOM     68  C   UNL A   1      46.609  35.674  28.652  1.00  0.00     0.060 A 
BRANCH  68  69
ATOM     69  S   UNL A   1      46.882  37.447  28.855  1.00  0.00     0.124 S 
ATOM     70  O   UNL A   1      48.129  37.465  29.615  1.00  0.00    -0.237 OA
ATOM     71  O   UNL A   1      46.977  37.904  27.472  1.00  0.00    -0.237 OA
ATOM     72  O   UNL A   1      45.698  37.894  29.581  1.00  0.00    -0.744 OA
ENDBRANCH  68  69
ENDBRANCH  47  61
BRANCH  48  73
ATOM     73  C   UNL A   1      43.330  23.417  26.925  1.00  0.00     0.058 A 
ATOM     74  C   UNL A   1      43.063  22.502  27.954  1.00  0.00     0.135 A 
ATOM     75  C   UNL A   1      43.207  22.962  25.603  1.00  0.00     0.135 A 
ATOM     76  F   UNL A   1      43.168  22.885  29.237  1.00  0.00    -0.206 F 
ATOM     77  C   UNL A   1      42.727  21.178  27.686  1.00  0.00     0.059 A 
ATOM     78  C   UNL A   1      42.842  21.652  25.309  1.00  0.00     0.059 A 
ATOM     79  F   UNL A   1      43.430  23.800  24.578  1.00  0.00    -0.206 F 
ATOM     80  C   UNL A   1      42.622  20.762  26.358  1.00  0.00     0.060 A 
BRANCH  80  81
ATOM     81  S   UNL A   1      42.170  19.047  26.020  1.00  0.00     0.124 S 
ATOM     82  O   UNL A   1      43.029  18.735  24.884  1.00  0.00    -0.237 OA
ATOM     83  O   UNL A   1      42.505  18.386  27.276  1.00  0.00    -0.237 OA
ATOM     84  O   UNL A   1      40.741  19.129  25.726  1.00  0.00    -0.744 OA
ENDBRANCH  80  81
ENDBRANCH  48  73
BRANCH  60  85
ATOM     85  C   UNL A   1      49.418  26.814  26.482  1.00  0.00     0.058 A 
ATOM     86  C   UNL A   1      50.270  26.236  27.434  1.00  0.00     0.135 A 
ATOM     87  C   UNL A   1      49.872  26.894  25.154  1.00  0.00     0.135 A 
ATOM     88  F   UNL A   1      49.886  26.143  28.717  1.00  0.00    -0.206 F 
ATOM     89  C   UNL A   1      51.530  25.762  27.086  1.00  0.00     0.059 A 
ATOM     90  C   UNL A   1      51.114  26.397  24.778  1.00  0.00     0.059 A 
ATOM     91  F   UNL A   1      49.090  27.429  24.203  1.00  0.00    -0.206 F 
ATOM     92  C   UNL A   1      51.940  25.839  25.752  1.00  0.00     0.060 A 
BRANCH  92  93
ATOM     93  S   UNL A   1      53.553  25.165  25.304  1.00  0.00     0.124 S 
ATOM     94  O   UNL A   1      53.734  25.703  23.960  1.00  0.00    -0.237 OA
ATOM     95  O   UNL A   1      54.421  25.726  26.335  1.00  0.00    -0.237 OA
ATOM     96  O   UNL A   1      53.351  23.720  25.381  1.00  0.00    -0.744 OA
ENDBRANCH  92  93
ENDBRANCH  60  85
ENDBRANCH  34  35
ENDBRANCH  26  29
ENDBRANCH  24  25
ENDBRANCH   1  24
TORSDOF 16
ENDMDL
MODEL 3
REMARK VINA RESULT:     -11.7      2.695      4.508
REMARK SMILES C[C@]1(CNC(=O)N2CCOC[C@H]2C(=O)NCCCNC(=O)c2ccc(-c3c4nc(c(-c5c(F)cc(S(=O)(=O)[O-])cc5F)c5ccc([nH]5)c(-c5c(F)cc(S(=O)(=O)[O-])cc5F)c5nc(c(-c6c(F)cc(S(=O)(=O)[O-])cc6F)c6ccc3[nH]6)C=C5)C=C4)cc2)CCCO1
REMARK SMILES IDX 17 1 16 2 15 3 13 4 14 5 12 7 7 8 8 9 9 10 11 11 10 12 5 13
REMARK SMILES IDX 4 14 6 16 3 17 2 18 1 19 88 20 91 21 89 22 90 23 18 24 19 25
REMARK SMILES IDX 20 26 21 28 22 29 23 30 87 31 24 32 86 33 25 34 26 35 27 36
REMARK SMILES IDX 80 37 28 38 85 39 79 40 81 41 29 42 84 43 78 44 77 45 30 47
REMARK SMILES IDX 64 48 43 49 63 50 44 51 47 52 62 53 82 54 45 55 46 56 61 58
REMARK SMILES IDX 83 59 48 60 31 61 32 62 41 63 33 64 34 65 40 66 42 67 35 68
REMARK SMILES IDX 36 69 37 70 38 71 39 72 65 73 66 74 75 75 67 76 68 77 74 78
REMARK SMILES IDX 76 79 69 80 70 81 71 82 72 83 73 84 49 85 50 86 59 87 51 88
REMARK SMILES IDX 52 89 58 90 60 91 53 92 54 93 55 94 56 95 57 96
REMARK H PARENT 15 6 4 15 19 27 81 46 47 57
REMARK Flexibility Score: inf
ROOT
ATOM      1  C   UNL A   1      33.627  27.443  25.120  1.00  0.00     0.042 C 
ENDROOT
BRANCH   1   2
ATOM      2  C   UNL A   1      32.961  26.075  24.982  1.00  0.00     0.117 C 
BRANCH   2   3
ATOM      3  N   UNL A   1      33.604  25.247  23.977  1.00  0.00    -0.354 N 
ATOM      4  C   UNL A   1      34.414  24.153  24.020  1.00  0.00     0.245 C 
ATOM      5  O   UNL A   1      34.635  23.644  22.911  1.00  0.00    -0.273 OA
ATOM      6  H   UNL A   1      33.413  25.543  23.058  1.00  0.00     0.163 HD
BRANCH   4   7
ATOM      7  C   UNL A   1      35.014  23.491  25.297  1.00  0.00     0.202 C 
ATOM      8  N   UNL A   1      35.033  22.019  25.395  1.00  0.00    -0.308 N 
ATOM      9  C   UNL A   1      36.163  21.410  24.731  1.00  0.00     0.151 C 
ATOM     10  C   UNL A   1      37.463  21.966  25.302  1.00  0.00     0.182 C 
ATOM     11  C   UNL A   1      36.378  24.061  25.729  1.00  0.00     0.195 C 
ATOM     12  O   UNL A   1      37.516  23.398  25.149  1.00  0.00    -0.377 OA
BRANCH   8  13
ATOM     13  C   UNL A   1      34.064  21.378  26.102  1.00  0.00     0.318 C 
ATOM     14  N   UNL A   1      33.046  20.739  25.484  1.00  0.00    -0.335 N 
ATOM     15  H   UNL A   1      32.270  20.599  26.074  1.00  0.00     0.165 HD
ATOM     16  O   UNL A   1      34.089  21.305  27.331  1.00  0.00    -0.249 OA
BRANCH  14  17
ATOM     17  C   UNL A   1      32.840  20.212  24.137  1.00  0.00     0.152 C 
BRANCH  17  18
ATOM     18  C   UNL A   1      32.875  18.669  23.987  1.00  0.00     0.083 C 
ATOM     19  C   UNL A   1      32.340  18.158  22.646  1.00  0.00     0.044 C 
ATOM     20  C   UNL A   1      34.271  18.134  24.310  1.00  0.00     0.039 C 
ATOM     21  O   UNL A   1      32.013  18.084  25.003  1.00  0.00    -0.373 OA
ATOM     22  C   UNL A   1      33.995  16.773  24.892  1.00  0.00     0.031 C 
ATOM     23  C   UNL A   1      32.698  16.995  25.639  1.00  0.00     0.161 C 
ENDBRANCH  17  18
ENDBRANCH  14  17
ENDBRANCH   8  13
ENDBRANCH   4   7
ENDBRANCH   2   3
ENDBRANCH   1   2
BRANCH   1  24
ATOM     24  C   UNL A   1      33.967  27.818  26.545  1.00  0.00     0.118 C 
BRANCH  24  25
ATOM     25  N   UNL A   1      33.583  29.189  26.855  1.00  0.00    -0.352 N 
ATOM     26  C   UNL A   1      34.248  30.148  27.587  1.00  0.00     0.251 C 
ATOM     27  H   UNL A   1      32.716  29.473  26.486  1.00  0.00     0.163 HD
ATOM     28  O   UNL A   1      33.662  31.173  27.912  1.00  0.00    -0.269 OA
BRANCH  26  29
ATOM     29  C   UNL A   1      35.653  29.929  27.998  1.00  0.00     0.039 A 
ATOM     30  C   UNL A   1      35.928  29.520  29.307  1.00  0.00     0.014 A 
ATOM     31  C   UNL A   1      36.701  30.124  27.098  1.00  0.00     0.014 A 
ATOM     32  C   UNL A   1      37.245  29.239  29.684  1.00  0.00     0.010 A 
ATOM     33  C   UNL A   1      37.989  29.732  27.438  1.00  0.00     0.010 A 
ATOM     34  C   UNL A   1      38.282  29.304  28.740  1.00  0.00    -0.014 A 
BRANCH  34  35
ATOM     35  C   UNL A   1      39.689  28.976  29.085  1.00  0.00     0.031 A 
ATOM     36  C   UNL A   1      40.569  30.043  29.684  1.00  0.00     0.074 A 
ATOM     37  C   UNL A   1      40.198  27.766  28.775  1.00  0.00     0.049 A 
ATOM     38  N   UNL A   1      41.856  30.020  29.914  1.00  0.00    -0.248 NA
ATOM     39  C   UNL A   1      39.924  31.322  30.034  1.00  0.00     0.031 C 
ATOM     40  C   UNL A   1      39.457  26.669  28.146  1.00  0.00     0.029 A 
ATOM     41  N   UNL A   1      41.467  27.262  28.924  1.00  0.00    -0.354 N 
ATOM     42  C   UNL A   1      42.176  31.284  30.397  1.00  0.00     0.074 A 
ATOM     43  C   UNL A   1      40.963  32.067  30.384  1.00  0.00     0.031 C 
ATOM     44  C   UNL A   1      40.281  25.623  27.971  1.00  0.00     0.029 A 
ATOM     45  C   UNL A   1      41.617  25.987  28.429  1.00  0.00     0.049 A 
ATOM     46  H   UNL A   1      42.200  27.767  29.344  1.00  0.00     0.167 HD
ATOM     47  C   UNL A   1      43.372  31.742  30.833  1.00  0.00     0.037 A 
ATOM     48  C   UNL A   1      42.715  25.210  28.331  1.00  0.00     0.037 A 
ATOM     49  C   UNL A   1      44.562  30.935  30.896  1.00  0.00     0.049 A 
ATOM     50  C   UNL A   1      44.030  25.738  28.844  1.00  0.00     0.074 A 
ATOM     51  C   UNL A   1      45.801  31.276  31.407  1.00  0.00     0.029 A 
ATOM     52  N   UNL A   1      44.659  29.632  30.438  1.00  0.00    -0.354 N 
ATOM     53  N   UNL A   1      44.297  26.910  29.371  1.00  0.00    -0.248 NA
ATOM     54  C   UNL A   1      45.192  24.842  28.757  1.00  0.00     0.031 C 
ATOM     55  C   UNL A   1      46.665  30.197  31.205  1.00  0.00     0.029 A 
ATOM     56  C   UNL A   1      45.946  29.161  30.628  1.00  0.00     0.049 A 
ATOM     57  H   UNL A   1      43.923  29.116  30.035  1.00  0.00     0.167 HD
ATOM     58  C   UNL A   1      45.646  26.878  29.709  1.00  0.00     0.074 A 
ATOM     59  C   UNL A   1      46.138  25.568  29.336  1.00  0.00     0.031 C 
ATOM     60  C   UNL A   1      46.409  27.843  30.276  1.00  0.00     0.037 A 
BRANCH  47  61
ATOM     61  C   UNL A   1      43.466  33.172  31.289  1.00  0.00     0.058 A 
ATOM     62  C   UNL A   1      43.333  33.530  32.640  1.00  0.00     0.135 A 
ATOM     63  C   UNL A   1      43.774  34.189  30.370  1.00  0.00     0.135 A 
ATOM     64  F   UNL A   1      43.019  32.602  33.558  1.00  0.00    -0.206 F 
ATOM     65  C   UNL A   1      43.496  34.845  33.063  1.00  0.00     0.059 A 
ATOM     66  C   UNL A   1      43.970  35.506  30.775  1.00  0.00     0.059 A 
ATOM     67  F   UNL A   1      43.905  33.904  29.065  1.00  0.00    -0.206 F 
ATOM     68  C   UNL A   1      43.825  35.824  32.124  1.00  0.00     0.060 A 
BRANCH  68  69
ATOM     69  S   UNL A   1      44.086  37.515  32.701  1.00  0.00     0.124 S 
ATOM     70  O   UNL A   1      43.934  38.272  31.463  1.00  0.00    -0.237 OA
ATOM     71  O   UNL A   1      43.014  37.676  33.679  1.00  0.00    -0.237 OA
ATOM     72  O   UNL A   1      45.436  37.481  33.254  1.00  0.00    -0.744 OA
ENDBRANCH  68  69
ENDBRANCH  47  61
BRANCH  48  73
ATOM     73  C   UNL A   1      42.628  23.855  27.717  1.00  0.00     0.058 A 
ATOM     74  C   UNL A   1      42.454  22.708  28.506  1.00  0.00     0.135 A 
ATOM     75  C   UNL A   1      42.737  23.678  26.328  1.00  0.00     0.135 A 
ATOM     76  F   UNL A   1      42.346  22.821  29.839  1.00  0.00    -0.206 F 
ATOM     77  C   UNL A   1      42.429  21.434  27.947  1.00  0.00     0.059 A 
ATOM     78  C   UNL A   1      42.684  22.417  25.743  1.00  0.00     0.059 A 
ATOM     79  F   UNL A   1      42.884  24.742  25.523  1.00  0.00    -0.206 F 
ATOM     80  C   UNL A   1      42.548  21.299  26.563  1.00  0.00     0.060 A 
BRANCH  80  81
ATOM     81  S   UNL A   1      42.499  19.643  25.845  1.00  0.00     0.124 S 
ATOM     82  O   UNL A   1      43.490  19.754  24.782  1.00  0.00    -0.237 OA
ATOM     83  O   UNL A   1      42.870  18.804  26.980  1.00  0.00    -0.237 OA
ATOM     84  O   UNL A   1      41.113  19.509  25.404  1.00  0.00    -0.744 OA
ENDBRANCH  80  81
ENDBRANCH  48  73
BRANCH  60  85
ATOM     85  C   UNL A   1      47.842  27.513  30.586  1.00  0.00     0.058 A 
ATOM     86  C   UNL A   1      48.204  26.762  31.714  1.00  0.00     0.135 A 
ATOM     87  C   UNL A   1      48.858  27.880  29.687  1.00  0.00     0.135 A 
ATOM     88  F   UNL A   1      47.271  26.392  32.607  1.00  0.00    -0.206 F 
ATOM     89  C   UNL A   1      49.524  26.397  31.949  1.00  0.00     0.059 A 
ATOM     90  C   UNL A   1      50.180  27.498  29.885  1.00  0.00     0.059 A 
ATOM     91  F   UNL A   1      48.563  28.590  28.586  1.00  0.00    -0.206 F 
ATOM     92  C   UNL A   1      50.505  26.762  31.023  1.00  0.00     0.060 A 
BRANCH  92  93
ATOM     93  S   UNL A   1      52.205  26.228  31.310  1.00  0.00     0.124 S 
ATOM     94  O   UNL A   1      52.005  25.019  32.102  1.00  0.00    -0.237 OA
ATOM     95  O   UNL A   1      52.700  26.023  29.952  1.00  0.00    -0.237 OA
ATOM     96  O   UNL A   1      52.799  27.355  32.024  1.00  0.00    -0.744 OA
ENDBRANCH  92  93
ENDBRANCH  60  85
ENDBRANCH  34  35
ENDBRANCH  26  29
ENDBRANCH  24  25
ENDBRANCH   1  24
TORSDOF 16
ENDMDL
