MODEL 1
REMARK VINA RESULT:     -11.7      0.000      0.000
REMARK SMILES COCc1cc(OCC(=O)NCCCNC(=O)c2ccc(-c3c4nc(c(-c5c(F)cc(S(=O)(=O)[O-])cc5F)c5ccc([nH]5)c(-c5c(F)cc(S(=O)(=O)[O-])cc5F)c5nc(c(-c6c(F)cc(S(=O)(=O)[O-])cc6F)c6ccc3[nH]6)C=C5)C=C4)cc2)nc(Nc2cccc(C)c2C)n1
REMARK SMILES IDX 12 1 11 2 9 3 10 4 8 6 7 7 6 8 4 9 5 10 95 11 85 12 84 13
REMARK SMILES IDX 3 14 2 15 1 16 86 17 87 19 88 20 93 21 89 22 91 23 94 24
REMARK SMILES IDX 90 25 92 26 13 27 14 28 15 29 16 30 17 32 18 33 19 34 83 35
REMARK SMILES IDX 20 36 82 37 21 38 22 39 23 40 76 41 24 42 81 43 75 44 77 45
REMARK SMILES IDX 25 46 80 47 74 48 73 49 26 51 60 52 39 53 59 54 40 55 43 56
REMARK SMILES IDX 58 57 78 58 41 59 42 60 57 62 79 63 44 64 27 65 28 66 37 67
REMARK SMILES IDX 29 68 30 69 36 70 38 71 31 72 32 73 33 74 34 75 35 76 61 77
REMARK SMILES IDX 62 78 71 79 63 80 64 81 70 82 72 83 65 84 66 85 67 86 68 87
REMARK SMILES IDX 69 88 45 89 46 90 55 91 47 92 48 93 54 94 56 95 49 96 50 97
REMARK SMILES IDX 51 98 52 99 53 100
REMARK H PARENT 11 5 86 18 15 31 77 50 43 61
REMARK Flexibility Score: inf
ROOT
ATOM      1  C   UNL A   1      39.799  21.392  26.412  1.00  0.00     0.117 C 
ENDROOT
BRANCH   1   2
ATOM      2  N   UNL A   1      38.983  22.592  26.484  1.00  0.00    -0.353 N 
ATOM      3  C   UNL A   1      37.808  22.856  25.846  1.00  0.00     0.258 C 
ATOM      4  O   UNL A   1      37.205  23.899  26.108  1.00  0.00    -0.271 OA
ATOM      5  H   UNL A   1      39.323  23.307  27.068  1.00  0.00     0.163 HD
BRANCH   3   6
ATOM      6  C   UNL A   1      37.239  21.851  24.835  1.00  0.00     0.331 C 
BRANCH   6   7
ATOM      7  O   UNL A   1      36.491  20.767  25.353  1.00  0.00    -0.467 OA
BRANCH   7   8
ATOM      8  C   UNL A   1      35.219  20.576  24.892  1.00  0.00     0.218 A 
ATOM      9  C   UNL A   1      33.245  19.395  24.449  1.00  0.00     0.076 A 
ATOM     10  C   UNL A   1      34.564  19.368  24.846  1.00  0.00     0.095 A 
ATOM     11  N   UNL A   1      32.655  20.538  24.057  1.00  0.00    -0.215 NA
ATOM     12  C   UNL A   1      33.378  21.668  24.067  1.00  0.00     0.230 A 
ATOM     13  N   UNL A   1      34.651  21.720  24.477  1.00  0.00    -0.177 NA
BRANCH   9  14
ATOM     14  C   UNL A   1      32.413  18.132  24.395  1.00  0.00     0.216 C 
BRANCH  14  15
ATOM     15  O   UNL A   1      33.158  16.915  24.501  1.00  0.00    -0.378 OA
ATOM     16  C   UNL A   1      32.725  16.048  25.540  1.00  0.00     0.195 C 
ENDBRANCH  14  15
ENDBRANCH   9  14
BRANCH  12  17
ATOM     17  N   UNL A   1      32.827  22.852  23.588  1.00  0.00    -0.324 N 
ATOM     18  H   UNL A   1      32.179  22.751  22.854  1.00  0.00     0.170 HD
BRANCH  17  19
ATOM     19  C   UNL A   1      33.066  24.170  24.006  1.00  0.00     0.044 A 
ATOM     20  C   UNL A   1      33.268  24.392  25.378  1.00  0.00     0.026 A 
ATOM     21  C   UNL A   1      33.160  25.260  23.107  1.00  0.00    -0.025 A 
ATOM     22  C   UNL A   1      33.601  25.654  25.861  1.00  0.00     0.002 A 
ATOM     23  C   UNL A   1      33.525  26.537  23.597  1.00  0.00    -0.046 A 
ATOM     24  C   UNL A   1      32.845  25.081  21.641  1.00  0.00     0.047 C 
ATOM     25  C   UNL A   1      33.738  26.716  24.975  1.00  0.00     0.004 A 
ATOM     26  C   UNL A   1      33.678  27.749  22.715  1.00  0.00     0.044 C 
ENDBRANCH  17  19
ENDBRANCH  12  17
ENDBRANCH   7   8
ENDBRANCH   6   7
ENDBRANCH   3   6
ENDBRANCH   1   2
BRANCH   1  27
ATOM     27  C   UNL A   1      41.239  21.616  26.860  1.00  0.00     0.042 C 
BRANCH  27  28
ATOM     28  C   UNL A   1      41.567  23.042  27.304  1.00  0.00     0.118 C 
BRANCH  28  29
ATOM     29  N   UNL A   1      41.696  23.977  26.193  1.00  0.00    -0.352 N 
ATOM     30  C   UNL A   1      41.584  25.345  26.141  1.00  0.00     0.251 C 
ATOM     31  H   UNL A   1      41.901  23.553  25.329  1.00  0.00     0.163 HD
ATOM     32  O   UNL A   1      41.586  25.894  25.042  1.00  0.00    -0.269 OA
BRANCH  30  33
ATOM     33  C   UNL A   1      41.437  26.161  27.370  1.00  0.00     0.039 A 
ATOM     34  C   UNL A   1      42.477  27.030  27.719  1.00  0.00     0.014 A 
ATOM     35  C   UNL A   1      40.322  26.052  28.204  1.00  0.00     0.014 A 
ATOM     36  C   UNL A   1      42.362  27.839  28.854  1.00  0.00     0.010 A 
ATOM     37  C   UNL A   1      40.176  26.911  29.294  1.00  0.00     0.010 A 
ATOM     38  C   UNL A   1      41.191  27.819  29.629  1.00  0.00    -0.014 A 
BRANCH  38  39
ATOM     39  C   UNL A   1      41.004  28.768  30.760  1.00  0.00     0.031 A 
ATOM     40  C   UNL A   1      41.857  28.674  31.997  1.00  0.00     0.074 A 
ATOM     41  C   UNL A   1      40.020  29.688  30.692  1.00  0.00     0.049 A 
ATOM     42  N   UNL A   1      41.805  29.390  33.092  1.00  0.00    -0.248 NA
ATOM     43  C   UNL A   1      42.889  27.625  32.017  1.00  0.00     0.031 C 
ATOM     44  C   UNL A   1      39.088  29.847  29.573  1.00  0.00     0.029 A 
ATOM     45  N   UNL A   1      39.631  30.656  31.585  1.00  0.00    -0.354 N 
ATOM     46  C   UNL A   1      42.785  28.875  33.933  1.00  0.00     0.074 A 
ATOM     47  C   UNL A   1      43.385  27.755  33.240  1.00  0.00     0.031 C 
ATOM     48  C   UNL A   1      38.254  30.865  29.836  1.00  0.00     0.029 A 
ATOM     49  C   UNL A   1      38.562  31.407  31.154  1.00  0.00     0.049 A 
ATOM     50  H   UNL A   1      40.074  30.799  32.452  1.00  0.00     0.167 HD
ATOM     51  C   UNL A   1      43.165  29.308  35.160  1.00  0.00     0.037 A 
ATOM     52  C   UNL A   1      37.898  32.414  31.755  1.00  0.00     0.037 A 
ATOM     53  C   UNL A   1      42.577  30.436  35.839  1.00  0.00     0.049 A 
ATOM     54  C   UNL A   1      38.339  32.877  33.116  1.00  0.00     0.074 A 
ATOM     55  C   UNL A   1      42.935  30.989  37.057  1.00  0.00     0.029 A 
ATOM     56  N   UNL A   1      41.507  31.180  35.364  1.00  0.00    -0.354 N 
ATOM     57  N   UNL A   1      39.315  32.422  33.866  1.00  0.00    -0.248 NA
ATOM     58  C   UNL A   1      37.594  33.995  33.711  1.00  0.00     0.031 C 
ATOM     59  C   UNL A   1      42.054  32.039  37.339  1.00  0.00     0.029 A 
ATOM     60  C   UNL A   1      41.177  32.172  36.275  1.00  0.00     0.049 A 
ATOM     61  H   UNL A   1      41.049  31.026  34.506  1.00  0.00     0.167 HD
ATOM     62  C   UNL A   1      39.314  33.210  35.011  1.00  0.00     0.074 A 
ATOM     63  C   UNL A   1      38.253  34.183  34.846  1.00  0.00     0.031 C 
ATOM     64  C   UNL A   1      40.116  33.133  36.101  1.00  0.00     0.037 A 
BRANCH  51  65
ATOM     65  C   UNL A   1      44.276  28.564  35.851  1.00  0.00     0.058 A 
ATOM     66  C   UNL A   1      45.624  28.905  35.655  1.00  0.00     0.135 A 
ATOM     67  C   UNL A   1      43.990  27.528  36.755  1.00  0.00     0.135 A 
ATOM     68  F   UNL A   1      45.955  29.880  34.794  1.00  0.00    -0.206 F 
ATOM     69  C   UNL A   1      46.650  28.230  36.309  1.00  0.00     0.059 A 
ATOM     70  C   UNL A   1      44.999  26.855  37.441  1.00  0.00     0.059 A 
ATOM     71  F   UNL A   1      42.720  27.160  36.982  1.00  0.00    -0.206 F 
ATOM     72  C   UNL A   1      46.326  27.205  37.200  1.00  0.00     0.060 A 
BRANCH  72  73
ATOM     73  S   UNL A   1      47.670  26.344  38.046  1.00  0.00     0.124 S 
ATOM     74  O   UNL A   1      47.246  24.953  37.925  1.00  0.00    -0.237 OA
ATOM     75  O   UNL A   1      48.834  26.723  37.250  1.00  0.00    -0.237 OA
ATOM     76  O   UNL A   1      47.632  26.897  39.396  1.00  0.00    -0.744 OA
ENDBRANCH  72  73
ENDBRANCH  51  65
BRANCH  52  77
ATOM     77  C   UNL A   1      36.755  33.068  31.062  1.00  0.00     0.058 A 
ATOM     78  C   UNL A   1      35.433  32.818  31.460  1.00  0.00     0.135 A 
ATOM     79  C   UNL A   1      36.960  33.961  29.999  1.00  0.00     0.135 A 
ATOM     80  F   UNL A   1      35.186  31.967  32.468  1.00  0.00    -0.206 F 
ATOM     81  C   UNL A   1      34.353  33.415  30.818  1.00  0.00     0.059 A 
ATOM     82  C   UNL A   1      35.898  34.591  29.358  1.00  0.00     0.059 A 
ATOM     83  F   UNL A   1      38.206  34.246  29.590  1.00  0.00    -0.206 F 
ATOM     84  C   UNL A   1      34.596  34.303  29.768  1.00  0.00     0.060 A 
BRANCH  84  85
ATOM     85  S   UNL A   1      33.191  35.110  28.973  1.00  0.00     0.124 S 
ATOM     86  O   UNL A   1      32.308  35.348  30.110  1.00  0.00    -0.237 OA
ATOM     87  O   UNL A   1      33.808  36.294  28.385  1.00  0.00    -0.237 OA
ATOM     88  O   UNL A   1      32.730  34.112  28.013  1.00  0.00    -0.744 OA
ENDBRANCH  84  85
ENDBRANCH  52  77
BRANCH  64  89
ATOM     89  C   UNL A   1      39.893  34.144  37.193  1.00  0.00     0.058 A 
ATOM     90  C   UNL A   1      38.958  33.928  38.218  1.00  0.00     0.135 A 
ATOM     91  C   UNL A   1      40.641  35.332  37.229  1.00  0.00     0.135 A 
ATOM     92  F   UNL A   1      38.212  32.812  38.227  1.00  0.00    -0.206 F 
ATOM     93  C   UNL A   1      38.749  34.869  39.222  1.00  0.00     0.059 A 
ATOM     94  C   UNL A   1      40.469  36.274  38.239  1.00  0.00     0.059 A 
ATOM     95  F   UNL A   1      41.557  35.585  36.279  1.00  0.00    -0.206 F 
ATOM     96  C   UNL A   1      39.508  36.041  39.222  1.00  0.00     0.060 A 
BRANCH  96  97
ATOM     97  S   UNL A   1      39.240  37.247  40.537  1.00  0.00     0.124 S 
ATOM     98  O   UNL A   1      40.555  37.869  40.639  1.00  0.00    -0.237 OA
ATOM     99  O   UNL A   1      38.183  38.087  39.981  1.00  0.00    -0.237 OA
ATOM    100  O   UNL A   1      38.842  36.426  41.677  1.00  0.00    -0.744 OA
ENDBRANCH  96  97
ENDBRANCH  64  89
ENDBRANCH  38  39
ENDBRANCH  30  33
ENDBRANCH  28  29
ENDBRANCH  27  28
ENDBRANCH   1  27
TORSDOF 19
ENDMDL
MODEL 2
REMARK VINA RESULT:     -11.7      3.317      9.363
REMARK SMILES COCc1cc(OCC(=O)NCCCNC(=O)c2ccc(-c3c4nc(c(-c5c(F)cc(S(=O)(=O)[O-])cc5F)c5ccc([nH]5)c(-c5c(F)cc(S(=O)(=O)[O-])cc5F)c5nc(c(-c6c(F)cc(S(=O)(=O)[O-])cc6F)c6ccc3[nH]6)C=C5)C=C4)cc2)nc(Nc2cccc(C)c2C)n1
REMARK SMILES IDX 12 1 11 2 9 3 10 4 8 6 7 7 6 8 4 9 5 10 95 11 85 12 84 13
REMARK SMILES IDX 3 14 2 15 1 16 86 17 87 19 88 20 93 21 89 22 91 23 94 24
REMARK SMILES IDX 90 25 92 26 13 27 14 28 15 29 16 30 17 32 18 33 19 34 83 35
REMARK SMILES IDX 20 36 82 37 21 38 22 39 23 40 76 41 24 42 81 43 75 44 77 45
REMARK SMILES IDX 25 46 80 47 74 48 73 49 26 51 60 52 39 53 59 54 40 55 43 56
REMARK SMILES IDX 58 57 78 58 41 59 42 60 57 62 79 63 44 64 27 65 28 66 37 67
REMARK SMILES IDX 29 68 30 69 36 70 38 71 31 72 32 73 33 74 34 75 35 76 61 77
REMARK SMILES IDX 62 78 71 79 63 80 64 81 70 82 72 83 65 84 66 85 67 86 68 87
REMARK SMILES IDX 69 88 45 89 46 90 55 91 47 92 48 93 54 94 56 95 49 96 50 97
REMARK SMILES IDX 51 98 52 99 53 100
REMARK H PARENT 11 5 86 18 15 31 77 50 43 61
REMARK Flexibility Score: inf
ROOT
ATOM      1  C   UNL A   1      31.997  27.885  24.429  1.00  0.00     0.117 C 
ENDROOT
BRANCH   1   2
ATOM      2  N   UNL A   1      31.747  26.891  23.400  1.00  0.00    -0.353 N 
ATOM      3  C   UNL A   1      31.874  25.536  23.483  1.00  0.00     0.258 C 
ATOM      4  O   UNL A   1      31.519  24.841  22.528  1.00  0.00    -0.271 OA
ATOM      5  H   UNL A   1      31.447  27.240  22.530  1.00  0.00     0.163 HD
BRANCH   3   6
ATOM      6  C   UNL A   1      32.429  24.892  24.761  1.00  0.00     0.331 C 
BRANCH   6   7
ATOM      7  O   UNL A   1      31.882  23.645  25.146  1.00  0.00    -0.467 OA
BRANCH   7   8
ATOM      8  C   UNL A   1      32.676  22.535  25.065  1.00  0.00     0.218 A 
ATOM      9  C   UNL A   1      33.193  20.252  25.121  1.00  0.00     0.076 A 
ATOM     10  C   UNL A   1      32.282  21.254  25.370  1.00  0.00     0.095 A 
ATOM     11  N   UNL A   1      34.431  20.526  24.671  1.00  0.00    -0.215 NA
ATOM     12  C   UNL A   1      34.765  21.808  24.458  1.00  0.00     0.230 A 
ATOM     13  N   UNL A   1      33.916  22.826  24.641  1.00  0.00    -0.177 NA
BRANCH   9  14
ATOM     14  C   UNL A   1      32.859  18.800  25.385  1.00  0.00     0.216 C 
BRANCH  14  15
ATOM     15  O   UNL A   1      32.569  18.026  24.216  1.00  0.00    -0.378 OA
ATOM     16  C   UNL A   1      33.627  17.178  23.794  1.00  0.00     0.195 C 
ENDBRANCH  14  15
ENDBRANCH   9  14
BRANCH  12  17
ATOM     17  N   UNL A   1      36.061  22.136  24.074  1.00  0.00    -0.324 N 
ATOM     18  H   UNL A   1      36.214  22.188  23.103  1.00  0.00     0.170 HD
BRANCH  17  19
ATOM     19  C   UNL A   1      37.178  22.404  24.877  1.00  0.00     0.044 A 
ATOM     20  C   UNL A   1      37.319  23.706  25.385  1.00  0.00     0.026 A 
ATOM     21  C   UNL A   1      38.128  21.416  25.234  1.00  0.00    -0.025 A 
ATOM     22  C   UNL A   1      38.349  24.028  26.263  1.00  0.00     0.002 A 
ATOM     23  C   UNL A   1      39.159  21.739  26.149  1.00  0.00    -0.046 A 
ATOM     24  C   UNL A   1      38.071  20.035  24.626  1.00  0.00     0.047 C 
ATOM     25  C   UNL A   1      39.257  23.048  26.649  1.00  0.00     0.004 A 
ATOM     26  C   UNL A   1      40.197  20.748  26.609  1.00  0.00     0.044 C 
ENDBRANCH  17  19
ENDBRANCH  12  17
ENDBRANCH   7   8
ENDBRANCH   6   7
ENDBRANCH   3   6
ENDBRANCH   1   2
BRANCH   1  27
ATOM     27  C   UNL A   1      33.428  28.413  24.420  1.00  0.00     0.042 C 
BRANCH  27  28
ATOM     28  C   UNL A   1      34.037  28.662  25.799  1.00  0.00     0.118 C 
BRANCH  28  29
ATOM     29  N   UNL A   1      33.832  30.021  26.284  1.00  0.00    -0.352 N 
ATOM     30  C   UNL A   1      34.484  30.747  27.250  1.00  0.00     0.251 C 
ATOM     31  H   UNL A   1      33.098  30.503  25.839  1.00  0.00     0.163 HD
ATOM     32  O   UNL A   1      34.018  31.835  27.584  1.00  0.00    -0.269 OA
BRANCH  30  33
ATOM     33  C   UNL A   1      35.711  30.241  27.910  1.00  0.00     0.039 A 
ATOM     34  C   UNL A   1      36.945  30.484  27.296  1.00  0.00     0.014 A 
ATOM     35  C   UNL A   1      35.665  29.495  29.090  1.00  0.00     0.014 A 
ATOM     36  C   UNL A   1      38.128  30.048  27.903  1.00  0.00     0.010 A 
ATOM     37  C   UNL A   1      36.848  29.125  29.732  1.00  0.00     0.010 A 
ATOM     38  C   UNL A   1      38.093  29.403  29.149  1.00  0.00    -0.014 A 
BRANCH  38  39
ATOM     39  C   UNL A   1      39.350  29.053  29.865  1.00  0.00     0.031 A 
ATOM     40  C   UNL A   1      39.771  29.804  31.101  1.00  0.00     0.074 A 
ATOM     41  C   UNL A   1      40.146  28.087  29.365  1.00  0.00     0.049 A 
ATOM     42  N   UNL A   1      40.852  29.661  31.826  1.00  0.00    -0.248 NA
ATOM     43  C   UNL A   1      38.872  30.869  31.572  1.00  0.00     0.031 C 
ATOM     44  C   UNL A   1      39.880  27.321  28.143  1.00  0.00     0.029 A 
ATOM     45  N   UNL A   1      41.345  27.587  29.812  1.00  0.00    -0.354 N 
ATOM     46  C   UNL A   1      40.770  30.619  32.828  1.00  0.00     0.074 A 
ATOM     47  C   UNL A   1      39.555  31.371  32.592  1.00  0.00     0.031 C 
ATOM     48  C   UNL A   1      40.871  26.437  27.953  1.00  0.00     0.029 A 
ATOM     49  C   UNL A   1      41.862  26.593  29.012  1.00  0.00     0.049 A 
ATOM     50  H   UNL A   1      41.792  27.909  30.626  1.00  0.00     0.167 HD
ATOM     51  C   UNL A   1      41.616  30.841  33.864  1.00  0.00     0.037 A 
ATOM     52  C   UNL A   1      43.008  25.892  29.114  1.00  0.00     0.037 A 
ATOM     53  C   UNL A   1      42.815  30.078  34.108  1.00  0.00     0.049 A 
ATOM     54  C   UNL A   1      43.931  26.156  30.273  1.00  0.00     0.074 A 
ATOM     55  C   UNL A   1      43.704  30.186  35.163  1.00  0.00     0.029 A 
ATOM     56  N   UNL A   1      43.297  29.071  33.284  1.00  0.00    -0.354 N 
ATOM     57  N   UNL A   1      43.799  27.020  31.251  1.00  0.00    -0.248 NA
ATOM     58  C   UNL A   1      45.153  25.344  30.345  1.00  0.00     0.031 C 
ATOM     59  C   UNL A   1      44.746  29.276  34.956  1.00  0.00     0.029 A 
ATOM     60  C   UNL A   1      44.483  28.566  33.796  1.00  0.00     0.049 A 
ATOM     61  H   UNL A   1      42.862  28.760  32.457  1.00  0.00     0.167 HD
ATOM     62  C   UNL A   1      44.912  26.842  32.066  1.00  0.00     0.074 A 
ATOM     63  C   UNL A   1      45.694  25.775  31.477  1.00  0.00     0.031 C 
ATOM     64  C   UNL A   1      45.255  27.505  33.198  1.00  0.00     0.037 A 
BRANCH  51  65
ATOM     65  C   UNL A   1      41.274  31.951  34.822  1.00  0.00     0.058 A 
ATOM     66  C   UNL A   1      41.762  33.254  34.643  1.00  0.00     0.135 A 
ATOM     67  C   UNL A   1      40.411  31.719  35.906  1.00  0.00     0.135 A 
ATOM     68  F   UNL A   1      42.600  33.529  33.631  1.00  0.00    -0.206 F 
ATOM     69  C   UNL A   1      41.431  34.284  35.518  1.00  0.00     0.059 A 
ATOM     70  C   UNL A   1      40.044  32.740  36.780  1.00  0.00     0.059 A 
ATOM     71  F   UNL A   1      39.914  30.492  36.125  1.00  0.00    -0.206 F 
ATOM     72  C   UNL A   1      40.570  34.016  36.585  1.00  0.00     0.060 A 
BRANCH  72  73
ATOM     73  S   UNL A   1      40.144  35.365  37.707  1.00  0.00     0.124 S 
ATOM     74  O   UNL A   1      39.999  36.481  36.779  1.00  0.00    -0.237 OA
ATOM     75  O   UNL A   1      38.909  34.885  38.319  1.00  0.00    -0.237 OA
ATOM     76  O   UNL A   1      41.295  35.439  38.603  1.00  0.00    -0.744 OA
ENDBRANCH  72  73
ENDBRANCH  51  65
BRANCH  52  77
ATOM     77  C   UNL A   1      43.339  24.858  28.098  1.00  0.00     0.058 A 
ATOM     78  C   UNL A   1      44.245  25.130  27.062  1.00  0.00     0.135 A 
ATOM     79  C   UNL A   1      42.767  23.577  28.146  1.00  0.00     0.135 A 
ATOM     80  F   UNL A   1      44.814  26.341  26.968  1.00  0.00    -0.206 F 
ATOM     81  C   UNL A   1      44.559  24.175  26.099  1.00  0.00     0.059 A 
ATOM     82  C   UNL A   1      43.085  22.598  27.212  1.00  0.00     0.059 A 
ATOM     83  F   UNL A   1      41.906  23.262  29.127  1.00  0.00    -0.206 F 
ATOM     84  C   UNL A   1      43.975  22.910  26.184  1.00  0.00     0.060 A 
BRANCH  84  85
ATOM     85  S   UNL A   1      44.426  21.663  24.958  1.00  0.00     0.124 S 
ATOM     86  O   UNL A   1      43.575  20.545  25.350  1.00  0.00    -0.237 OA
ATOM     87  O   UNL A   1      44.077  22.324  23.705  1.00  0.00    -0.237 OA
ATOM     88  O   UNL A   1      45.857  21.477  25.182  1.00  0.00    -0.744 OA
ENDBRANCH  84  85
ENDBRANCH  52  77
BRANCH  64  89
ATOM     89  C   UNL A   1      46.522  27.078  33.888  1.00  0.00     0.058 A 
ATOM     90  C   UNL A   1      47.758  27.677  33.596  1.00  0.00     0.135 A 
ATOM     91  C   UNL A   1      46.496  26.076  34.871  1.00  0.00     0.135 A 
ATOM     92  F   UNL A   1      47.840  28.635  32.659  1.00  0.00    -0.206 F 
ATOM     93  C   UNL A   1      48.929  27.274  34.231  1.00  0.00     0.059 A 
ATOM     94  C   UNL A   1      47.650  25.678  35.539  1.00  0.00     0.059 A 
ATOM     95  F   UNL A   1      45.339  25.477  35.198  1.00  0.00    -0.206 F 
ATOM     96  C   UNL A   1      48.865  26.271  35.200  1.00  0.00     0.060 A 
BRANCH  96  97
ATOM     97  S   UNL A   1      50.388  25.767  36.028  1.00  0.00     0.124 S 
ATOM     98  O   UNL A   1      50.381  26.628  37.206  1.00  0.00    -0.237 OA
ATOM     99  O   UNL A   1      50.154  24.348  36.278  1.00  0.00    -0.237 OA
ATOM    100  O   UNL A   1      51.424  26.059  35.041  1.00  0.00    -0.744 OA
ENDBRANCH  96  97
ENDBRANCH  64  89
ENDBRANCH  38  39
ENDBRANCH  30  33
ENDBRANCH  28  29
ENDBRANCH  27  28
ENDBRANCH   1  27
TORSDOF 19
ENDMDL
MODEL 3
REMARK VINA RESULT:     -11.6      6.551     11.994
REMARK SMILES COCc1cc(OCC(=O)NCCCNC(=O)c2ccc(-c3c4nc(c(-c5c(F)cc(S(=O)(=O)[O-])cc5F)c5ccc([nH]5)c(-c5c(F)cc(S(=O)(=O)[O-])cc5F)c5nc(c(-c6c(F)cc(S(=O)(=O)[O-])cc6F)c6ccc3[nH]6)C=C5)C=C4)cc2)nc(Nc2cccc(C)c2C)n1
REMARK SMILES IDX 12 1 11 2 9 3 10 4 8 6 7 7 6 8 4 9 5 10 95 11 85 12 84 13
REMARK SMILES IDX 3 14 2 15 1 16 86 17 87 19 88 20 93 21 89 22 91 23 94 24
REMARK SMILES IDX 90 25 92 26 13 27 14 28 15 29 16 30 17 32 18 33 19 34 83 35
REMARK SMILES IDX 20 36 82 37 21 38 22 39 23 40 76 41 24 42 81 43 75 44 77 45
REMARK SMILES IDX 25 46 80 47 74 48 73 49 26 51 60 52 39 53 59 54 40 55 43 56
REMARK SMILES IDX 58 57 78 58 41 59 42 60 57 62 79 63 44 64 27 65 28 66 37 67
REMARK SMILES IDX 29 68 30 69 36 70 38 71 31 72 32 73 33 74 34 75 35 76 61 77
REMARK SMILES IDX 62 78 71 79 63 80 64 81 70 82 72 83 65 84 66 85 67 86 68 87
REMARK SMILES IDX 69 88 45 89 46 90 55 91 47 92 48 93 54 94 56 95 49 96 50 97
REMARK SMILES IDX 51 98 52 99 53 100
REMARK H PARENT 11 5 86 18 15 31 77 50 43 61
REMARK Flexibility Score: inf
ROOT
ATOM      1  C   UNL A   1      33.324  29.586  26.241  1.00  0.00     0.117 C 
ENDROOT
BRANCH   1   2
ATOM      2  N   UNL A   1      33.697  29.326  24.861  1.00  0.00    -0.353 N 
ATOM      3  C   UNL A   1      33.356  28.263  24.078  1.00  0.00     0.258 C 
ATOM      4  O   UNL A   1      33.689  28.264  22.890  1.00  0.00    -0.271 OA
ATOM      5  H   UNL A   1      34.271  30.004  24.436  1.00  0.00     0.163 HD
BRANCH   3   6
ATOM      6  C   UNL A   1      32.549  27.100  24.669  1.00  0.00     0.331 C 
BRANCH   6   7
ATOM      7  O   UNL A   1      33.132  26.391  25.746  1.00  0.00    -0.467 OA
BRANCH   7   8
ATOM      8  C   UNL A   1      33.712  25.180  25.489  1.00  0.00     0.218 A 
ATOM      9  C   UNL A   1      35.462  23.662  25.146  1.00  0.00     0.076 A 
ATOM     10  C   UNL A   1      35.055  24.971  25.283  1.00  0.00     0.095 A 
ATOM     11  N   UNL A   1      34.576  22.650  25.142  1.00  0.00    -0.215 NA
ATOM     12  C   UNL A   1      33.274  22.938  25.284  1.00  0.00     0.230 A 
ATOM     13  N   UNL A   1      32.814  24.182  25.461  1.00  0.00    -0.177 NA
BRANCH   9  14
ATOM     14  C   UNL A   1      36.920  23.308  24.950  1.00  0.00     0.216 C 
BRANCH  14  15
ATOM     15  O   UNL A   1      37.576  22.791  26.111  1.00  0.00    -0.378 OA
ATOM     16  C   UNL A   1      38.679  21.940  25.836  1.00  0.00     0.195 C 
ENDBRANCH  14  15
ENDBRANCH   9  14
BRANCH  12  17
ATOM     17  N   UNL A   1      32.323  21.926  25.201  1.00  0.00    -0.324 N 
ATOM     18  H   UNL A   1      31.408  22.183  25.458  1.00  0.00     0.170 HD
BRANCH  17  19
ATOM     19  C   UNL A   1      32.485  20.592  24.800  1.00  0.00     0.044 A 
ATOM     20  C   UNL A   1      32.777  19.644  25.794  1.00  0.00     0.026 A 
ATOM     21  C   UNL A   1      32.317  20.163  23.461  1.00  0.00    -0.025 A 
ATOM     22  C   UNL A   1      32.862  18.288  25.491  1.00  0.00     0.002 A 
ATOM     23  C   UNL A   1      32.377  18.780  23.161  1.00  0.00    -0.046 A 
ATOM     24  C   UNL A   1      32.107  21.163  22.349  1.00  0.00     0.047 C 
ATOM     25  C   UNL A   1      32.654  17.859  24.185  1.00  0.00     0.004 A 
ATOM     26  C   UNL A   1      32.183  18.226  21.772  1.00  0.00     0.044 C 
ENDBRANCH  17  19
ENDBRANCH  12  17
ENDBRANCH   7   8
ENDBRANCH   6   7
ENDBRANCH   3   6
ENDBRANCH   1   2
BRANCH   1  27
ATOM     27  C   UNL A   1      34.373  29.120  27.245  1.00  0.00     0.042 C 
BRANCH  27  28
ATOM     28  C   UNL A   1      35.304  30.214  27.767  1.00  0.00     0.118 C 
BRANCH  28  29
ATOM     29  N   UNL A   1      35.318  30.315  29.220  1.00  0.00    -0.352 N 
ATOM     30  C   UNL A   1      36.323  30.113  30.134  1.00  0.00     0.251 C 
ATOM     31  H   UNL A   1      34.455  30.575  29.617  1.00  0.00     0.163 HD
ATOM     32  O   UNL A   1      36.040  30.113  31.330  1.00  0.00    -0.269 OA
BRANCH  30  33
ATOM     33  C   UNL A   1      37.723  29.873  29.711  1.00  0.00     0.039 A 
ATOM     34  C   UNL A   1      38.723  29.873  30.690  1.00  0.00     0.014 A 
ATOM     35  C   UNL A   1      38.073  29.697  28.370  1.00  0.00     0.014 A 
ATOM     36  C   UNL A   1      40.052  29.621  30.335  1.00  0.00     0.010 A 
ATOM     37  C   UNL A   1      39.386  29.373  28.026  1.00  0.00     0.010 A 
ATOM     38  C   UNL A   1      40.390  29.324  29.004  1.00  0.00    -0.014 A 
BRANCH  38  39
ATOM     39  C   UNL A   1      41.776  28.925  28.637  1.00  0.00     0.031 A 
ATOM     40  C   UNL A   1      42.886  29.941  28.587  1.00  0.00     0.074 A 
ATOM     41  C   UNL A   1      42.023  27.646  28.292  1.00  0.00     0.049 A 
ATOM     42  N   UNL A   1      44.140  29.779  28.248  1.00  0.00    -0.248 NA
ATOM     43  C   UNL A   1      42.538  31.327  28.942  1.00  0.00     0.031 C 
ATOM     44  C   UNL A   1      41.023  26.575  28.246  1.00  0.00     0.029 A 
ATOM     45  N   UNL A   1      43.186  27.027  27.905  1.00  0.00    -0.354 N 
ATOM     46  C   UNL A   1      44.727  31.035  28.339  1.00  0.00     0.074 A 
ATOM     47  C   UNL A   1      43.681  31.960  28.719  1.00  0.00     0.031 C 
ATOM     48  C   UNL A   1      41.620  25.430  27.877  1.00  0.00     0.029 A 
ATOM     49  C   UNL A   1      43.033  25.688  27.623  1.00  0.00     0.049 A 
ATOM     50  H   UNL A   1      44.048  27.495  27.836  1.00  0.00     0.167 HD
ATOM     51  C   UNL A   1      46.023  31.383  28.144  1.00  0.00     0.037 A 
ATOM     52  C   UNL A   1      43.926  24.773  27.200  1.00  0.00     0.037 A 
ATOM     53  C   UNL A   1      47.066  30.456  27.785  1.00  0.00     0.049 A 
ATOM     54  C   UNL A   1      45.359  25.184  26.992  1.00  0.00     0.074 A 
ATOM     55  C   UNL A   1      48.419  30.701  27.626  1.00  0.00     0.029 A 
ATOM     56  N   UNL A   1      46.874  29.106  27.523  1.00  0.00    -0.354 N 
ATOM     57  N   UNL A   1      45.909  26.364  27.152  1.00  0.00    -0.248 NA
ATOM     58  C   UNL A   1      46.292  24.137  26.554  1.00  0.00     0.031 C 
ATOM     59  C   UNL A   1      49.038  29.512  27.224  1.00  0.00     0.029 A 
ATOM     60  C   UNL A   1      48.080  28.513  27.180  1.00  0.00     0.049 A 
ATOM     61  H   UNL A   1      46.009  28.639  27.572  1.00  0.00     0.167 HD
ATOM     62  C   UNL A   1      47.257  26.198  26.853  1.00  0.00     0.074 A 
ATOM     63  C   UNL A   1      47.441  24.799  26.523  1.00  0.00     0.031 C 
ATOM     64  C   UNL A   1      48.251  27.120  26.850  1.00  0.00     0.037 A 
BRANCH  51  65
ATOM     65  C   UNL A   1      46.392  32.832  28.324  1.00  0.00     0.058 A 
ATOM     66  C   UNL A   1      46.304  33.751  27.267  1.00  0.00     0.135 A 
ATOM     67  C   UNL A   1      46.796  33.317  29.579  1.00  0.00     0.135 A 
ATOM     68  F   UNL A   1      45.935  33.339  26.043  1.00  0.00    -0.206 F 
ATOM     69  C   UNL A   1      46.627  35.093  27.438  1.00  0.00     0.059 A 
ATOM     70  C   UNL A   1      47.099  34.661  29.781  1.00  0.00     0.059 A 
ATOM     71  F   UNL A   1      46.897  32.483  30.626  1.00  0.00    -0.206 F 
ATOM     72  C   UNL A   1      47.025  35.539  28.700  1.00  0.00     0.060 A 
BRANCH  72  73
ATOM     73  S   UNL A   1      47.434  37.285  28.907  1.00  0.00     0.124 S 
ATOM     74  O   UNL A   1      47.089  37.501  30.309  1.00  0.00    -0.237 OA
ATOM     75  O   UNL A   1      48.859  37.312  28.594  1.00  0.00    -0.237 OA
ATOM     76  O   UNL A   1      46.571  37.954  27.938  1.00  0.00    -0.744 OA
ENDBRANCH  72  73
ENDBRANCH  51  65
BRANCH  52  77
ATOM     77  C   UNL A   1      43.495  23.369  26.962  1.00  0.00     0.058 A 
ATOM     78  C   UNL A   1      43.274  22.894  25.661  1.00  0.00     0.135 A 
ATOM     79  C   UNL A   1      43.307  22.473  28.026  1.00  0.00     0.135 A 
ATOM     80  F   UNL A   1      43.434  23.714  24.611  1.00  0.00    -0.206 F 
ATOM     81  C   UNL A   1      42.863  21.586  25.423  1.00  0.00     0.059 A 
ATOM     82  C   UNL A   1      42.923  21.153  27.812  1.00  0.00     0.059 A 
ATOM     83  F   UNL A   1      43.521  22.874  29.289  1.00  0.00    -0.206 F 
ATOM     84  C   UNL A   1      42.692  20.722  26.506  1.00  0.00     0.060 A 
BRANCH  84  85
ATOM     85  S   UNL A   1      42.206  19.013  26.183  1.00  0.00     0.124 S 
ATOM     86  O   UNL A   1      42.406  18.399  27.491  1.00  0.00    -0.237 OA
ATOM     87  O   UNL A   1      40.820  19.164  25.752  1.00  0.00    -0.237 OA
ATOM     88  O   UNL A   1      43.136  18.592  25.139  1.00  0.00    -0.744 OA
ENDBRANCH  84  85
ENDBRANCH  52  77
BRANCH  64  89
ATOM     89  C   UNL A   1      49.633  26.640  26.500  1.00  0.00     0.058 A 
ATOM     90  C   UNL A   1      50.484  26.079  27.465  1.00  0.00     0.135 A 
ATOM     91  C   UNL A   1      50.103  26.719  25.179  1.00  0.00     0.135 A 
ATOM     92  F   UNL A   1      50.087  25.986  28.744  1.00  0.00    -0.206 F 
ATOM     93  C   UNL A   1      51.765  25.643  27.140  1.00  0.00     0.059 A 
ATOM     94  C   UNL A   1      51.369  26.263  24.826  1.00  0.00     0.059 A 
ATOM     95  F   UNL A   1      49.326  27.237  24.214  1.00  0.00    -0.206 F 
ATOM     96  C   UNL A   1      52.200  25.742  25.817  1.00  0.00     0.060 A 
BRANCH  96  97
ATOM     97  S   UNL A   1      53.857  25.160  25.403  1.00  0.00     0.124 S 
ATOM     98  O   UNL A   1      53.567  23.895  24.736  1.00  0.00    -0.237 OA
ATOM     99  O   UNL A   1      54.359  26.228  24.543  1.00  0.00    -0.237 OA
ATOM    100  O   UNL A   1      54.514  25.050  26.702  1.00  0.00    -0.744 OA
ENDBRANCH  96  97
ENDBRANCH  64  89
ENDBRANCH  38  39
ENDBRANCH  30  33
ENDBRANCH  28  29
ENDBRANCH  27  28
ENDBRANCH   1  27
TORSDOF 19
ENDMDL
