MODEL 1
REMARK VINA RESULT:     -12.7      0.000      0.000
REMARK SMILES CC(C)(C)OC(=O)N1CCN(C(=O)c2ccc3c(c2)OCO3)[C@H](C(=O)NCCCNC(=O)c2ccc(-c3c4nc(c(-c5c(F)cc(S(=O)(=O)[O-])cc5F)c5ccc([nH]5)c(-c5c(F)cc(S(=O)(=O)[O-])cc5F)c5nc(c(-c6c(F)cc(S(=O)(=O)[O-])cc6F)c6ccc3[nH]6)C=C5)C=C4)cc2)C1
REMARK SMILES IDX 28 1 27 2 26 3 24 4 25 5 23 7 8 8 9 9 99 10 10 11 11 12 6 13
REMARK SMILES IDX 7 14 5 15 2 16 1 17 3 18 4 19 12 20 13 21 14 22 15 23 19 24
REMARK SMILES IDX 16 25 18 26 17 27 20 28 22 29 21 30 29 31 30 32 31 33 32 35
REMARK SMILES IDX 33 36 34 37 98 38 35 39 97 40 36 41 37 42 38 43 91 44 39 45
REMARK SMILES IDX 96 46 90 47 92 48 40 49 95 50 89 51 88 52 41 54 75 55 54 56
REMARK SMILES IDX 74 57 55 58 58 59 73 60 93 61 56 62 57 63 72 65 94 66 59 67
REMARK SMILES IDX 42 68 43 69 52 70 44 71 45 72 51 73 53 74 46 75 47 76 48 77
REMARK SMILES IDX 49 78 50 79 76 80 77 81 86 82 78 83 79 84 85 85 87 86 80 87
REMARK SMILES IDX 81 88 82 89 83 90 84 91 60 92 61 93 70 94 62 95 63 96 69 97
REMARK SMILES IDX 71 98 64 99 65 100 66 101 67 102 68 103
REMARK H PARENT 26 6 30 34 92 53 58 64
REMARK Flexibility Score: inf
ROOT
ATOM      1  C   UNL A   1      37.290  22.995  26.165  1.00  0.00     0.042 C 
ENDROOT
BRANCH   1   2
ATOM      2  C   UNL A   1      37.220  22.517  24.714  1.00  0.00     0.117 C 
BRANCH   2   3
ATOM      3  N   UNL A   1      36.430  23.439  23.913  1.00  0.00    -0.354 N 
ATOM      4  C   UNL A   1      35.136  23.214  23.525  1.00  0.00     0.244 C 
ATOM      5  O   UNL A   1      34.835  23.401  22.349  1.00  0.00    -0.273 OA
ATOM      6  H   UNL A   1      36.854  24.282  23.630  1.00  0.00     0.163 HD
BRANCH   4   7
ATOM      7  C   UNL A   1      34.143  22.728  24.591  1.00  0.00     0.194 C 
ATOM      8  N   UNL A   1      32.723  20.693  24.892  1.00  0.00    -0.304 N 
ATOM      9  C   UNL A   1      31.564  21.488  25.267  1.00  0.00     0.144 C 
ATOM     10  C   UNL A   1      33.682  21.367  24.025  1.00  0.00     0.158 C 
ATOM     11  C   UNL A   1      31.999  22.841  25.836  1.00  0.00     0.142 C 
ATOM     12  N   UNL A   1      32.955  23.560  24.974  1.00  0.00    -0.323 N 
BRANCH   8  13
ATOM     13  C   UNL A   1      32.790  19.354  25.199  1.00  0.00     0.410 C 
ATOM     14  O   UNL A   1      32.570  18.912  26.321  1.00  0.00    -0.224 OA
BRANCH  13  15
ATOM     15  O   UNL A   1      33.182  18.616  24.132  1.00  0.00    -0.444 OA
BRANCH  15  16
ATOM     16  C   UNL A   1      34.012  17.431  24.271  1.00  0.00     0.106 C 
ATOM     17  C   UNL A   1      34.099  16.847  22.852  1.00  0.00     0.056 C 
ATOM     18  C   UNL A   1      33.301  16.435  25.188  1.00  0.00     0.056 C 
ATOM     19  C   UNL A   1      35.438  17.730  24.749  1.00  0.00     0.056 C 
ENDBRANCH  15  16
ENDBRANCH  13  15
ENDBRANCH   8  13
BRANCH  12  20
ATOM     20  C   UNL A   1      32.988  24.946  25.183  1.00  0.00     0.254 C 
ATOM     21  O   UNL A   1      33.566  25.472  26.133  1.00  0.00    -0.269 OA
BRANCH  20  22
ATOM     22  C   UNL A   1      32.242  25.850  24.288  1.00  0.00     0.044 A 
ATOM     23  C   UNL A   1      31.999  25.478  22.950  1.00  0.00     0.018 A 
ATOM     24  C   UNL A   1      31.719  27.039  24.808  1.00  0.00     0.064 A 
ATOM     25  C   UNL A   1      31.336  26.352  22.083  1.00  0.00     0.051 A 
ATOM     26  C   UNL A   1      31.053  27.869  23.932  1.00  0.00     0.166 A 
ATOM     27  C   UNL A   1      30.884  27.545  22.604  1.00  0.00     0.165 A 
ATOM     28  O   UNL A   1      30.512  29.078  24.240  1.00  0.00    -0.454 OA
ATOM     29  O   UNL A   1      30.239  28.520  21.910  1.00  0.00    -0.454 OA
ATOM     30  C   UNL A   1      30.015  29.492  22.949  1.00  0.00     0.468 C 
ENDBRANCH  20  22
ENDBRANCH  12  20
ENDBRANCH   4   7
ENDBRANCH   2   3
ENDBRANCH   1   2
BRANCH   1  31
ATOM     31  C   UNL A   1      38.179  24.219  26.368  1.00  0.00     0.118 C 
BRANCH  31  32
ATOM     32  N   UNL A   1      39.591  23.915  26.190  1.00  0.00    -0.352 N 
ATOM     33  C   UNL A   1      40.695  24.598  26.636  1.00  0.00     0.251 C 
ATOM     34  H   UNL A   1      39.783  23.098  25.673  1.00  0.00     0.163 HD
ATOM     35  O   UNL A   1      41.806  24.303  26.205  1.00  0.00    -0.269 OA
BRANCH  33  36
ATOM     36  C   UNL A   1      40.538  25.695  27.615  1.00  0.00     0.039 A 
ATOM     37  C   UNL A   1      39.539  25.596  28.586  1.00  0.00     0.014 A 
ATOM     38  C   UNL A   1      41.371  26.816  27.572  1.00  0.00     0.014 A 
ATOM     39  C   UNL A   1      39.421  26.592  29.557  1.00  0.00     0.010 A 
ATOM     40  C   UNL A   1      41.304  27.766  28.586  1.00  0.00     0.010 A 
ATOM     41  C   UNL A   1      40.329  27.666  29.589  1.00  0.00    -0.014 A 
BRANCH  41  42
ATOM     42  C   UNL A   1      40.281  28.686  30.668  1.00  0.00     0.031 A 
ATOM     43  C   UNL A   1      41.172  28.555  31.874  1.00  0.00     0.074 A 
ATOM     44  C   UNL A   1      39.385  29.691  30.595  1.00  0.00     0.049 A 
ATOM     45  N   UNL A   1      41.215  29.294  32.952  1.00  0.00    -0.248 NA
ATOM     46  C   UNL A   1      42.122  27.430  31.878  1.00  0.00     0.031 C 
ATOM     47  C   UNL A   1      38.438  29.900  29.497  1.00  0.00     0.029 A 
ATOM     48  N   UNL A   1      39.113  30.717  31.465  1.00  0.00    -0.354 N 
ATOM     49  C   UNL A   1      42.185  28.720  33.766  1.00  0.00     0.074 A 
ATOM     50  C   UNL A   1      42.666  27.540  33.082  1.00  0.00     0.031 C 
ATOM     51  C   UNL A   1      37.707  31.000  29.748  1.00  0.00     0.029 A 
ATOM     52  C   UNL A   1      38.098  31.545  31.044  1.00  0.00     0.049 A 
ATOM     53  H   UNL A   1      39.600  30.849  32.310  1.00  0.00     0.167 HD
ATOM     54  C   UNL A   1      42.649  29.151  34.964  1.00  0.00     0.037 A 
ATOM     55  C   UNL A   1      37.534  32.614  31.641  1.00  0.00     0.037 A 
ATOM     56  C   UNL A   1      42.175  30.338  35.630  1.00  0.00     0.049 A 
ATOM     57  C   UNL A   1      38.049  33.058  32.983  1.00  0.00     0.074 A 
ATOM     58  C   UNL A   1      42.616  30.887  36.821  1.00  0.00     0.029 A 
ATOM     59  N   UNL A   1      41.153  31.154  35.168  1.00  0.00    -0.354 N 
ATOM     60  N   UNL A   1      39.009  32.539  33.711  1.00  0.00    -0.248 NA
ATOM     61  C   UNL A   1      37.409  34.236  33.585  1.00  0.00     0.031 C 
ATOM     62  C   UNL A   1      41.824  32.003  37.106  1.00  0.00     0.029 A 
ATOM     63  C   UNL A   1      40.931  32.188  36.064  1.00  0.00     0.049 A 
ATOM     64  H   UNL A   1      40.657  31.018  34.327  1.00  0.00     0.167 HD
ATOM     65  C   UNL A   1      39.110  33.346  34.840  1.00  0.00     0.074 A 
ATOM     66  C   UNL A   1      38.119  34.392  34.693  1.00  0.00     0.031 C 
ATOM     67  C   UNL A   1      39.948  33.231  35.900  1.00  0.00     0.037 A 
BRANCH  54  68
ATOM     68  C   UNL A   1      43.723  28.337  35.634  1.00  0.00     0.058 A 
ATOM     69  C   UNL A   1      43.413  27.321  36.554  1.00  0.00     0.135 A 
ATOM     70  C   UNL A   1      45.077  28.544  35.321  1.00  0.00     0.135 A 
ATOM     71  F   UNL A   1      42.137  27.090  36.902  1.00  0.00    -0.206 F 
ATOM     72  C   UNL A   1      44.408  26.562  37.162  1.00  0.00     0.059 A 
ATOM     73  C   UNL A   1      46.086  27.773  35.893  1.00  0.00     0.059 A 
ATOM     74  F   UNL A   1      45.430  29.500  34.448  1.00  0.00    -0.206 F 
ATOM     75  C   UNL A   1      45.742  26.794  36.823  1.00  0.00     0.060 A 
BRANCH  75  76
ATOM     76  S   UNL A   1      47.017  25.792  37.615  1.00  0.00     0.124 S 
ATOM     77  O   UNL A   1      46.209  24.837  38.370  1.00  0.00    -0.237 OA
ATOM     78  O   UNL A   1      47.739  25.246  36.471  1.00  0.00    -0.237 OA
ATOM     79  O   UNL A   1      47.759  26.758  38.420  1.00  0.00    -0.744 OA
ENDBRANCH  75  76
ENDBRANCH  54  68
BRANCH  55  80
ATOM     80  C   UNL A   1      36.428  33.345  30.967  1.00  0.00     0.058 A 
ATOM     81  C   UNL A   1      36.664  34.105  29.811  1.00  0.00     0.135 A 
ATOM     82  C   UNL A   1      35.113  33.291  31.454  1.00  0.00     0.135 A 
ATOM     83  F   UNL A   1      37.906  34.194  29.309  1.00  0.00    -0.206 F 
ATOM     84  C   UNL A   1      35.642  34.801  29.174  1.00  0.00     0.059 A 
ATOM     85  C   UNL A   1      34.068  33.954  30.817  1.00  0.00     0.059 A 
ATOM     86  F   UNL A   1      34.828  32.563  32.545  1.00  0.00    -0.206 F 
ATOM     87  C   UNL A   1      34.345  34.715  29.683  1.00  0.00     0.060 A 
BRANCH  87  88
ATOM     88  S   UNL A   1      33.017  35.583  28.819  1.00  0.00     0.124 S 
ATOM     89  O   UNL A   1      33.759  36.609  28.096  1.00  0.00    -0.237 OA
ATOM     90  O   UNL A   1      32.438  34.519  28.004  1.00  0.00    -0.237 OA
ATOM     91  O   UNL A   1      32.168  36.063  29.905  1.00  0.00    -0.744 OA
ENDBRANCH  87  88
ENDBRANCH  55  80
BRANCH  67  92
ATOM     92  C   UNL A   1      39.867  34.284  36.971  1.00  0.00     0.058 A 
ATOM     93  C   UNL A   1      40.548  35.507  36.861  1.00  0.00     0.135 A 
ATOM     94  C   UNL A   1      39.042  34.092  38.092  1.00  0.00     0.135 A 
ATOM     95  F   UNL A   1      41.356  35.740  35.814  1.00  0.00    -0.206 F 
ATOM     96  C   UNL A   1      40.429  36.495  37.834  1.00  0.00     0.059 A 
ATOM     97  C   UNL A   1      38.884  35.077  39.061  1.00  0.00     0.059 A 
ATOM     98  F   UNL A   1      38.362  32.945  38.242  1.00  0.00    -0.206 F 
ATOM     99  C   UNL A   1      39.589  36.272  38.928  1.00  0.00     0.060 A 
BRANCH  99 100
ATOM    100  S   UNL A   1      39.407  37.581  40.157  1.00  0.00     0.124 S 
ATOM    101  O   UNL A   1      39.090  36.816  41.358  1.00  0.00    -0.237 OA
ATOM    102  O   UNL A   1      40.723  38.212  40.137  1.00  0.00    -0.237 OA
ATOM    103  O   UNL A   1      38.319  38.398  39.628  1.00  0.00    -0.744 OA
ENDBRANCH  99 100
ENDBRANCH  67  92
ENDBRANCH  41  42
ENDBRANCH  33  36
ENDBRANCH  31  32
ENDBRANCH   1  31
TORSDOF 18
ENDMDL
MODEL 2
REMARK VINA RESULT:     -12.6      2.839      5.614
REMARK SMILES CC(C)(C)OC(=O)N1CCN(C(=O)c2ccc3c(c2)OCO3)[C@H](C(=O)NCCCNC(=O)c2ccc(-c3c4nc(c(-c5c(F)cc(S(=O)(=O)[O-])cc5F)c5ccc([nH]5)c(-c5c(F)cc(S(=O)(=O)[O-])cc5F)c5nc(c(-c6c(F)cc(S(=O)(=O)[O-])cc6F)c6ccc3[nH]6)C=C5)C=C4)cc2)C1
REMARK SMILES IDX 28 1 27 2 26 3 24 4 25 5 23 7 8 8 9 9 99 10 10 11 11 12 6 13
REMARK SMILES IDX 7 14 5 15 2 16 1 17 3 18 4 19 12 20 13 21 14 22 15 23 19 24
REMARK SMILES IDX 16 25 18 26 17 27 20 28 22 29 21 30 29 31 30 32 31 33 32 35
REMARK SMILES IDX 33 36 34 37 98 38 35 39 97 40 36 41 37 42 38 43 91 44 39 45
REMARK SMILES IDX 96 46 90 47 92 48 40 49 95 50 89 51 88 52 41 54 75 55 54 56
REMARK SMILES IDX 74 57 55 58 58 59 73 60 93 61 56 62 57 63 72 65 94 66 59 67
REMARK SMILES IDX 42 68 43 69 52 70 44 71 45 72 51 73 53 74 46 75 47 76 48 77
REMARK SMILES IDX 49 78 50 79 76 80 77 81 86 82 78 83 79 84 85 85 87 86 80 87
REMARK SMILES IDX 81 88 82 89 83 90 84 91 60 92 61 93 70 94 62 95 63 96 69 97
REMARK SMILES IDX 71 98 64 99 65 100 66 101 67 102 68 103
REMARK H PARENT 26 6 30 34 92 53 58 64
REMARK Flexibility Score: inf
ROOT
ATOM      1  C   UNL A   1      35.783  23.393  24.672  1.00  0.00     0.042 C 
ENDROOT
BRANCH   1   2
ATOM      2  C   UNL A   1      34.842  24.541  24.306  1.00  0.00     0.117 C 
BRANCH   2   3
ATOM      3  N   UNL A   1      34.426  25.259  25.500  1.00  0.00    -0.354 N 
ATOM      4  C   UNL A   1      33.493  26.262  25.515  1.00  0.00     0.244 C 
ATOM      5  O   UNL A   1      33.759  27.301  26.115  1.00  0.00    -0.273 OA
ATOM      6  H   UNL A   1      34.842  25.006  26.356  1.00  0.00     0.163 HD
BRANCH   4   7
ATOM      7  C   UNL A   1      32.175  26.025  24.765  1.00  0.00     0.194 C 
ATOM      8  N   UNL A   1      30.360  27.492  23.867  1.00  0.00    -0.304 N 
ATOM      9  C   UNL A   1      29.319  26.633  24.414  1.00  0.00     0.144 C 
ATOM     10  C   UNL A   1      31.629  27.459  24.584  1.00  0.00     0.158 C 
ATOM     11  C   UNL A   1      29.839  25.205  24.596  1.00  0.00     0.142 C 
ATOM     12  N   UNL A   1      31.113  25.133  25.335  1.00  0.00    -0.323 N 
BRANCH   8  13
ATOM     13  C   UNL A   1      30.080  28.387  22.862  1.00  0.00     0.410 C 
ATOM     14  O   UNL A   1      30.379  28.192  21.689  1.00  0.00    -0.224 OA
BRANCH  13  15
ATOM     15  O   UNL A   1      29.498  29.512  23.343  1.00  0.00    -0.444 OA
BRANCH  15  16
ATOM     16  C   UNL A   1      28.236  30.014  22.826  1.00  0.00     0.106 C 
ATOM     17  C   UNL A   1      27.918  31.240  23.697  1.00  0.00     0.056 C 
ATOM     18  C   UNL A   1      27.158  28.949  23.035  1.00  0.00     0.056 C 
ATOM     19  C   UNL A   1      28.306  30.476  21.366  1.00  0.00     0.056 C 
ENDBRANCH  15  16
ENDBRANCH  13  15
ENDBRANCH   8  13
BRANCH  12  20
ATOM     20  C   UNL A   1      31.357  23.894  25.942  1.00  0.00     0.254 C 
ATOM     21  O   UNL A   1      31.379  23.733  27.162  1.00  0.00    -0.269 OA
BRANCH  20  22
ATOM     22  C   UNL A   1      31.683  22.715  25.119  1.00  0.00     0.044 A 
ATOM     23  C   UNL A   1      31.855  22.851  23.727  1.00  0.00     0.018 A 
ATOM     24  C   UNL A   1      31.892  21.484  25.750  1.00  0.00     0.064 A 
ATOM     25  C   UNL A   1      32.116  21.728  22.935  1.00  0.00     0.051 A 
ATOM     26  C   UNL A   1      32.166  20.401  24.943  1.00  0.00     0.166 A 
ATOM     27  C   UNL A   1      32.256  20.516  23.573  1.00  0.00     0.165 A 
ATOM     28  O   UNL A   1      32.359  19.123  25.367  1.00  0.00    -0.454 OA
ATOM     29  O   UNL A   1      32.491  19.322  22.967  1.00  0.00    -0.454 OA
ATOM     30  C   UNL A   1      32.545  18.443  24.107  1.00  0.00     0.468 C 
ENDBRANCH  20  22
ENDBRANCH  12  20
ENDBRANCH   4   7
ENDBRANCH   2   3
ENDBRANCH   1   2
BRANCH   1  31
ATOM     31  C   UNL A   1      36.682  23.692  25.869  1.00  0.00     0.118 C 
BRANCH  31  32
ATOM     32  N   UNL A   1      37.847  22.820  25.918  1.00  0.00    -0.352 N 
ATOM     33  C   UNL A   1      39.130  23.097  26.321  1.00  0.00     0.251 C 
ATOM     34  H   UNL A   1      37.692  21.894  25.618  1.00  0.00     0.163 HD
ATOM     35  O   UNL A   1      40.026  22.290  26.089  1.00  0.00    -0.269 OA
BRANCH  33  36
ATOM     36  C   UNL A   1      39.427  24.370  27.011  1.00  0.00     0.039 A 
ATOM     37  C   UNL A   1      38.989  24.545  28.326  1.00  0.00     0.014 A 
ATOM     38  C   UNL A   1      40.133  25.387  26.363  1.00  0.00     0.014 A 
ATOM     39  C   UNL A   1      39.319  25.714  29.012  1.00  0.00     0.010 A 
ATOM     40  C   UNL A   1      40.528  26.515  27.073  1.00  0.00     0.010 A 
ATOM     41  C   UNL A   1      40.126  26.692  28.406  1.00  0.00    -0.014 A 
BRANCH  41  42
ATOM     42  C   UNL A   1      40.568  27.900  29.149  1.00  0.00     0.031 A 
ATOM     43  C   UNL A   1      41.909  27.920  29.832  1.00  0.00     0.074 A 
ATOM     44  C   UNL A   1      39.732  28.951  29.269  1.00  0.00     0.049 A 
ATOM     45  N   UNL A   1      42.432  28.844  30.595  1.00  0.00    -0.248 NA
ATOM     46  C   UNL A   1      42.762  26.734  29.655  1.00  0.00     0.031 C 
ATOM     47  C   UNL A   1      38.390  29.033  28.687  1.00  0.00     0.029 A 
ATOM     48  N   UNL A   1      39.879  30.145  29.928  1.00  0.00    -0.354 N 
ATOM     49  C   UNL A   1      43.668  28.349  30.996  1.00  0.00     0.074 A 
ATOM     50  C   UNL A   1      43.792  27.021  30.439  1.00  0.00     0.031 C 
ATOM     51  C   UNL A   1      37.847  30.223  28.996  1.00  0.00     0.029 A 
ATOM     52  C   UNL A   1      38.780  30.968  29.836  1.00  0.00     0.049 A 
ATOM     53  H   UNL A   1      40.695  30.391  30.421  1.00  0.00     0.167 HD
ATOM     54  C   UNL A   1      44.622  28.957  31.742  1.00  0.00     0.037 A 
ATOM     55  C   UNL A   1      38.543  32.179  30.378  1.00  0.00     0.037 A 
ATOM     56  C   UNL A   1      44.497  30.288  32.279  1.00  0.00     0.049 A 
ATOM     57  C   UNL A   1      39.608  32.822  31.224  1.00  0.00     0.074 A 
ATOM     58  C   UNL A   1      45.427  31.012  33.005  1.00  0.00     0.029 A 
ATOM     59  N   UNL A   1      43.373  31.092  32.157  1.00  0.00    -0.354 N 
ATOM     60  N   UNL A   1      40.796  32.365  31.543  1.00  0.00    -0.248 NA
ATOM     61  C   UNL A   1      39.305  34.147  31.782  1.00  0.00     0.031 C 
ATOM     62  C   UNL A   1      44.845  32.231  33.367  1.00  0.00     0.029 A 
ATOM     63  C   UNL A   1      43.576  32.294  32.815  1.00  0.00     0.049 A 
ATOM     64  H   UNL A   1      42.551  30.844  31.673  1.00  0.00     0.167 HD
ATOM     65  C   UNL A   1      41.394  33.360  32.310  1.00  0.00     0.074 A 
ATOM     66  C   UNL A   1      40.439  34.446  32.399  1.00  0.00     0.031 C 
ATOM     67  C   UNL A   1      42.621  33.373  32.886  1.00  0.00     0.037 A 
BRANCH  54  68
ATOM     68  C   UNL A   1      45.887  28.190  32.023  1.00  0.00     0.058 A 
ATOM     69  C   UNL A   1      47.010  28.287  31.184  1.00  0.00     0.135 A 
ATOM     70  C   UNL A   1      45.994  27.383  33.167  1.00  0.00     0.135 A 
ATOM     71  F   UNL A   1      46.958  29.032  30.068  1.00  0.00    -0.206 F 
ATOM     72  C   UNL A   1      48.182  27.587  31.453  1.00  0.00     0.059 A 
ATOM     73  C   UNL A   1      47.169  26.701  33.474  1.00  0.00     0.059 A 
ATOM     74  F   UNL A   1      44.953  27.255  34.004  1.00  0.00    -0.206 F 
ATOM     75  C   UNL A   1      48.252  26.798  32.602  1.00  0.00     0.060 A 
BRANCH  75  76
ATOM     76  S   UNL A   1      49.784  25.906  32.939  1.00  0.00     0.124 S 
ATOM     77  O   UNL A   1      49.480  25.280  34.223  1.00  0.00    -0.237 OA
ATOM     78  O   UNL A   1      49.873  24.999  31.798  1.00  0.00    -0.237 OA
ATOM     79  O   UNL A   1      50.792  26.960  32.979  1.00  0.00    -0.744 OA
ENDBRANCH  75  76
ENDBRANCH  54  68
BRANCH  55  80
ATOM     80  C   UNL A   1      37.249  32.867  30.126  1.00  0.00     0.058 A 
ATOM     81  C   UNL A   1      36.135  32.634  30.948  1.00  0.00     0.135 A 
ATOM     82  C   UNL A   1      37.099  33.777  29.068  1.00  0.00     0.135 A 
ATOM     83  F   UNL A   1      36.225  31.767  31.969  1.00  0.00    -0.206 F 
ATOM     84  C   UNL A   1      34.916  33.264  30.721  1.00  0.00     0.059 A 
ATOM     85  C   UNL A   1      35.899  34.442  28.839  1.00  0.00     0.059 A 
ATOM     86  F   UNL A   1      38.138  34.051  28.263  1.00  0.00    -0.206 F 
ATOM     87  C   UNL A   1      34.809  34.170  29.664  1.00  0.00     0.060 A 
BRANCH  87  88
ATOM     88  S   UNL A   1      33.236  35.019  29.410  1.00  0.00     0.124 S 
ATOM     89  O   UNL A   1      32.668  34.995  30.753  1.00  0.00    -0.237 OA
ATOM     90  O   UNL A   1      33.669  36.325  28.922  1.00  0.00    -0.237 OA
ATOM     91  O   UNL A   1      32.560  34.183  28.423  1.00  0.00    -0.744 OA
ENDBRANCH  87  88
ENDBRANCH  55  80
BRANCH  67  92
ATOM     92  C   UNL A   1      43.029  34.615  33.630  1.00  0.00     0.058 A 
ATOM     93  C   UNL A   1      42.856  34.739  35.018  1.00  0.00     0.135 A 
ATOM     94  C   UNL A   1      43.664  35.670  32.953  1.00  0.00     0.135 A 
ATOM     95  F   UNL A   1      42.248  33.764  35.713  1.00  0.00    -0.206 F 
ATOM     96  C   UNL A   1      43.280  35.872  35.705  1.00  0.00     0.059 A 
ATOM     97  C   UNL A   1      44.124  36.798  33.624  1.00  0.00     0.059 A 
ATOM     98  F   UNL A   1      43.863  35.599  31.627  1.00  0.00    -0.206 F 
ATOM     99  C   UNL A   1      43.919  36.894  34.999  1.00  0.00     0.060 A 
BRANCH  99 100
ATOM    100  S   UNL A   1      44.506  38.337  35.911  1.00  0.00     0.124 S 
ATOM    101  O   UNL A   1      43.768  38.215  37.164  1.00  0.00    -0.237 OA
ATOM    102  O   UNL A   1      45.942  38.090  35.994  1.00  0.00    -0.237 OA
ATOM    103  O   UNL A   1      44.118  39.459  35.061  1.00  0.00    -0.744 OA
ENDBRANCH  99 100
ENDBRANCH  67  92
ENDBRANCH  41  42
ENDBRANCH  33  36
ENDBRANCH  31  32
ENDBRANCH   1  31
TORSDOF 18
ENDMDL
MODEL 3
REMARK VINA RESULT:     -12.5      4.797      7.324
REMARK SMILES CC(C)(C)OC(=O)N1CCN(C(=O)c2ccc3c(c2)OCO3)[C@H](C(=O)NCCCNC(=O)c2ccc(-c3c4nc(c(-c5c(F)cc(S(=O)(=O)[O-])cc5F)c5ccc([nH]5)c(-c5c(F)cc(S(=O)(=O)[O-])cc5F)c5nc(c(-c6c(F)cc(S(=O)(=O)[O-])cc6F)c6ccc3[nH]6)C=C5)C=C4)cc2)C1
REMARK SMILES IDX 28 1 27 2 26 3 24 4 25 5 23 7 8 8 9 9 99 10 10 11 11 12 6 13
REMARK SMILES IDX 7 14 5 15 2 16 1 17 3 18 4 19 12 20 13 21 14 22 15 23 19 24
REMARK SMILES IDX 16 25 18 26 17 27 20 28 22 29 21 30 29 31 30 32 31 33 32 35
REMARK SMILES IDX 33 36 34 37 98 38 35 39 97 40 36 41 37 42 38 43 91 44 39 45
REMARK SMILES IDX 96 46 90 47 92 48 40 49 95 50 89 51 88 52 41 54 75 55 54 56
REMARK SMILES IDX 74 57 55 58 58 59 73 60 93 61 56 62 57 63 72 65 94 66 59 67
REMARK SMILES IDX 42 68 43 69 52 70 44 71 45 72 51 73 53 74 46 75 47 76 48 77
REMARK SMILES IDX 49 78 50 79 76 80 77 81 86 82 78 83 79 84 85 85 87 86 80 87
REMARK SMILES IDX 81 88 82 89 83 90 84 91 60 92 61 93 70 94 62 95 63 96 69 97
REMARK SMILES IDX 71 98 64 99 65 100 66 101 67 102 68 103
REMARK H PARENT 26 6 30 34 92 53 58 64
REMARK Flexibility Score: inf
ROOT
ATOM      1  C   UNL A   1      35.915  23.466  24.489  1.00  0.00     0.042 C 
ENDROOT
BRANCH   1   2
ATOM      2  C   UNL A   1      34.882  24.552  24.189  1.00  0.00     0.117 C 
BRANCH   2   3
ATOM      3  N   UNL A   1      34.487  25.231  25.414  1.00  0.00    -0.354 N 
ATOM      4  C   UNL A   1      33.548  26.225  25.480  1.00  0.00     0.244 C 
ATOM      5  O   UNL A   1      33.819  27.248  26.104  1.00  0.00    -0.273 OA
ATOM      6  H   UNL A   1      34.925  24.956  26.252  1.00  0.00     0.163 HD
BRANCH   4   7
ATOM      7  C   UNL A   1      32.214  26.001  24.752  1.00  0.00     0.194 C 
ATOM      8  N   UNL A   1      30.407  27.484  23.868  1.00  0.00    -0.304 N 
ATOM      9  C   UNL A   1      29.363  26.647  24.440  1.00  0.00     0.144 C 
ATOM     10  C   UNL A   1      31.687  27.441  24.565  1.00  0.00     0.158 C 
ATOM     11  C   UNL A   1      29.864  25.213  24.629  1.00  0.00     0.142 C 
ATOM     12  N   UNL A   1      31.149  25.130  25.349  1.00  0.00    -0.323 N 
BRANCH   8  13
ATOM     13  C   UNL A   1      30.125  28.373  22.857  1.00  0.00     0.410 C 
ATOM     14  O   UNL A   1      30.415  28.168  21.684  1.00  0.00    -0.224 OA
BRANCH  13  15
ATOM     15  O   UNL A   1      29.550  29.505  23.334  1.00  0.00    -0.444 OA
BRANCH  15  16
ATOM     16  C   UNL A   1      28.301  30.023  22.802  1.00  0.00     0.106 C 
ATOM     17  C   UNL A   1      27.960  31.220  23.705  1.00  0.00     0.056 C 
ATOM     18  C   UNL A   1      27.219  28.952  22.948  1.00  0.00     0.056 C 
ATOM     19  C   UNL A   1      28.408  30.533  21.360  1.00  0.00     0.056 C 
ENDBRANCH  15  16
ENDBRANCH  13  15
ENDBRANCH   8  13
BRANCH  12  20
ATOM     20  C   UNL A   1      31.383  23.894  25.965  1.00  0.00     0.254 C 
ATOM     21  O   UNL A   1      31.403  23.741  27.186  1.00  0.00    -0.269 OA
BRANCH  20  22
ATOM     22  C   UNL A   1      31.705  22.707  25.151  1.00  0.00     0.044 A 
ATOM     23  C   UNL A   1      31.821  22.821  23.751  1.00  0.00     0.018 A 
ATOM     24  C   UNL A   1      31.964  21.493  25.796  1.00  0.00     0.064 A 
ATOM     25  C   UNL A   1      32.076  21.690  22.969  1.00  0.00     0.051 A 
ATOM     26  C   UNL A   1      32.231  20.401  24.997  1.00  0.00     0.166 A 
ATOM     27  C   UNL A   1      32.267  20.492  23.623  1.00  0.00     0.165 A 
ATOM     28  O   UNL A   1      32.468  19.136  25.436  1.00  0.00    -0.454 OA
ATOM     29  O   UNL A   1      32.504  19.293  23.030  1.00  0.00    -0.454 OA
ATOM     30  C   UNL A   1      32.622  18.436  24.182  1.00  0.00     0.468 C 
ENDBRANCH  20  22
ENDBRANCH  12  20
ENDBRANCH   4   7
ENDBRANCH   2   3
ENDBRANCH   1   2
BRANCH   1  31
ATOM     31  C   UNL A   1      36.516  23.557  25.889  1.00  0.00     0.118 C 
BRANCH  31  32
ATOM     32  N   UNL A   1      37.535  22.544  26.121  1.00  0.00    -0.352 N 
ATOM     33  C   UNL A   1      38.857  22.698  26.461  1.00  0.00     0.251 C 
ATOM     34  H   UNL A   1      37.233  21.613  26.019  1.00  0.00     0.163 HD
ATOM     35  O   UNL A   1      39.613  21.732  26.404  1.00  0.00    -0.269 OA
BRANCH  33  36
ATOM     36  C   UNL A   1      39.364  24.023  26.874  1.00  0.00     0.039 A 
ATOM     37  C   UNL A   1      39.276  24.392  28.218  1.00  0.00     0.014 A 
ATOM     38  C   UNL A   1      39.920  24.899  25.938  1.00  0.00     0.014 A 
ATOM     39  C   UNL A   1      39.811  25.613  28.634  1.00  0.00     0.010 A 
ATOM     40  C   UNL A   1      40.522  26.077  26.366  1.00  0.00     0.010 A 
ATOM     41  C   UNL A   1      40.474  26.448  27.718  1.00  0.00    -0.014 A 
BRANCH  41  42
ATOM     42  C   UNL A   1      41.131  27.706  28.156  1.00  0.00     0.031 A 
ATOM     43  C   UNL A   1      42.629  27.839  28.094  1.00  0.00     0.074 A 
ATOM     44  C   UNL A   1      40.384  28.702  28.675  1.00  0.00     0.049 A 
ATOM     45  N   UNL A   1      43.388  28.821  28.507  1.00  0.00    -0.248 NA
ATOM     46  C   UNL A   1      43.372  26.708  27.515  1.00  0.00     0.031 C 
ATOM     47  C   UNL A   1      38.928  28.675  28.826  1.00  0.00     0.029 A 
ATOM     48  N   UNL A   1      40.746  29.925  29.183  1.00  0.00    -0.354 N 
ATOM     49  C   UNL A   1      44.695  28.423  28.249  1.00  0.00     0.074 A 
ATOM     50  C   UNL A   1      44.629  27.089  27.695  1.00  0.00     0.031 C 
ATOM     51  C   UNL A   1      38.519  29.835  29.367  1.00  0.00     0.029 A 
ATOM     52  C   UNL A   1      39.684  30.668  29.645  1.00  0.00     0.049 A 
ATOM     53  H   UNL A   1      41.677  30.241  29.214  1.00  0.00     0.167 HD
ATOM     54  C   UNL A   1      45.843  29.118  28.434  1.00  0.00     0.037 A 
ATOM     55  C   UNL A   1      39.653  31.877  30.240  1.00  0.00     0.037 A 
ATOM     56  C   UNL A   1      45.898  30.454  28.970  1.00  0.00     0.049 A 
ATOM     57  C   UNL A   1      40.945  32.618  30.458  1.00  0.00     0.074 A 
ATOM     58  C   UNL A   1      47.007  31.263  29.151  1.00  0.00     0.029 A 
ATOM     59  N   UNL A   1      44.801  31.176  29.418  1.00  0.00    -0.354 N 
ATOM     60  N   UNL A   1      42.167  32.252  30.152  1.00  0.00    -0.248 NA
ATOM     61  C   UNL A   1      40.855  33.937  31.099  1.00  0.00     0.031 C 
ATOM     62  C   UNL A   1      46.588  32.450  29.757  1.00  0.00     0.029 A 
ATOM     63  C   UNL A   1      45.210  32.410  29.898  1.00  0.00     0.049 A 
ATOM     64  H   UNL A   1      43.869  30.858  29.398  1.00  0.00     0.167 HD
ATOM     65  C   UNL A   1      42.987  33.310  30.533  1.00  0.00     0.074 A 
ATOM     66  C   UNL A   1      42.120  34.331  31.083  1.00  0.00     0.031 C 
ATOM     67  C   UNL A   1      44.335  33.424  30.433  1.00  0.00     0.037 A 
BRANCH  54  68
ATOM     68  C   UNL A   1      47.137  28.448  28.055  1.00  0.00     0.058 A 
ATOM     69  C   UNL A   1      47.866  27.677  28.976  1.00  0.00     0.135 A 
ATOM     70  C   UNL A   1      47.633  28.539  26.744  1.00  0.00     0.135 A 
ATOM     71  F   UNL A   1      47.447  27.567  30.248  1.00  0.00    -0.206 F 
ATOM     72  C   UNL A   1      49.055  27.048  28.620  1.00  0.00     0.059 A 
ATOM     73  C   UNL A   1      48.802  27.891  26.357  1.00  0.00     0.059 A 
ATOM     74  F   UNL A   1      46.977  29.261  25.822  1.00  0.00    -0.206 F 
ATOM     75  C   UNL A   1      49.514  27.159  27.306  1.00  0.00     0.060 A 
BRANCH  75  76
ATOM     76  S   UNL A   1      51.052  26.328  26.861  1.00  0.00     0.124 S 
ATOM     77  O   UNL A   1      50.744  24.942  27.201  1.00  0.00    -0.237 OA
ATOM     78  O   UNL A   1      51.163  26.621  25.435  1.00  0.00    -0.237 OA
ATOM     79  O   UNL A   1      52.048  26.974  27.710  1.00  0.00    -0.744 OA
ENDBRANCH  75  76
ENDBRANCH  54  68
BRANCH  55  80
ATOM     80  C   UNL A   1      38.353  32.467  30.658  1.00  0.00     0.058 A 
ATOM     81  C   UNL A   1      37.867  32.292  31.962  1.00  0.00     0.135 A 
ATOM     82  C   UNL A   1      37.577  33.227  29.769  1.00  0.00     0.135 A 
ATOM     83  F   UNL A   1      38.569  31.567  32.848  1.00  0.00    -0.206 F 
ATOM     84  C   UNL A   1      36.651  32.831  32.366  1.00  0.00     0.059 A 
ATOM     85  C   UNL A   1      36.371  33.803  30.158  1.00  0.00     0.059 A 
ATOM     86  F   UNL A   1      38.005  33.442  28.515  1.00  0.00    -0.206 F 
ATOM     87  C   UNL A   1      35.911  33.589  31.456  1.00  0.00     0.060 A 
BRANCH  87  88
ATOM     88  S   UNL A   1      34.357  34.327  32.007  1.00  0.00     0.124 S 
ATOM     89  O   UNL A   1      33.808  33.265  32.843  1.00  0.00    -0.237 OA
ATOM     90  O   UNL A   1      34.818  35.520  32.709  1.00  0.00    -0.237 OA
ATOM     91  O   UNL A   1      33.645  34.579  30.758  1.00  0.00    -0.744 OA
ENDBRANCH  87  88
ENDBRANCH  55  80
BRANCH  67  92
ATOM     92  C   UNL A   1      44.961  34.714  30.888  1.00  0.00     0.058 A 
ATOM     93  C   UNL A   1      45.446  34.883  32.194  1.00  0.00     0.135 A 
ATOM     94  C   UNL A   1      45.137  35.774  29.982  1.00  0.00     0.135 A 
ATOM     95  F   UNL A   1      45.296  33.905  33.103  1.00  0.00    -0.206 F 
ATOM     96  C   UNL A   1      46.067  36.063  32.592  1.00  0.00     0.059 A 
ATOM     97  C   UNL A   1      45.782  36.950  30.348  1.00  0.00     0.059 A 
ATOM     98  F   UNL A   1      44.700  35.661  28.717  1.00  0.00    -0.206 F 
ATOM     99  C   UNL A   1      46.235  37.089  31.659  1.00  0.00     0.060 A 
BRANCH  99 100
ATOM    100  S   UNL A   1      47.084  38.595  32.176  1.00  0.00     0.124 S 
ATOM    101  O   UNL A   1      47.987  38.826  31.054  1.00  0.00    -0.237 OA
ATOM    102  O   UNL A   1      45.983  39.543  32.310  1.00  0.00    -0.237 OA
ATOM    103  O   UNL A   1      47.728  38.211  33.430  1.00  0.00    -0.744 OA
ENDBRANCH  99 100
ENDBRANCH  67  92
ENDBRANCH  41  42
ENDBRANCH  33  36
ENDBRANCH  31  32
ENDBRANCH   1  31
TORSDOF 18
ENDMDL
