MODEL 1
REMARK VINA RESULT:     -10.4      0.000      0.000
REMARK SMILES O=C(Cc1ccc(-c2cccc(F)c2F)cc1)NCCCNC(=O)c1ccc(-c2c3nc(c(-c4c(F)cc(S(=O)(=O)[O-])cc4F)c4ccc([nH]4)c(-c4c(F)cc(S(=O)(=O)[O-])cc4F)c4nc(c(-c5c(F)cc(S(=O)(=O)[O-])cc5F)c5ccc2[nH]5)C=C4)C=C3)cc1
REMARK SMILES IDX 20 1 19 2 18 3 1 4 2 5 3 7 4 8 5 9 17 10 6 11 16 12 7 13
REMARK SMILES IDX 8 14 9 15 14 16 10 17 12 18 15 19 11 20 13 21 21 22 22 23
REMARK SMILES IDX 23 24 24 26 25 27 26 28 90 29 27 30 89 31 28 32 29 33 30 34
REMARK SMILES IDX 83 35 31 36 88 37 82 38 84 39 32 40 87 41 81 42 80 43 33 45
REMARK SMILES IDX 67 46 46 47 66 48 47 49 50 50 65 51 85 52 48 53 49 54 64 56
REMARK SMILES IDX 86 57 51 58 34 59 35 60 44 61 36 62 37 63 43 64 45 65 38 66
REMARK SMILES IDX 39 67 40 68 41 69 42 70 68 71 69 72 78 73 70 74 71 75 77 76
REMARK SMILES IDX 79 77 72 78 73 79 74 80 75 81 76 82 52 83 53 84 62 85 54 86
REMARK SMILES IDX 55 87 61 88 63 89 56 90 57 91 58 92 59 93 60 94
REMARK H PARENT 18 6 22 25 84 44 50 55
REMARK Flexibility Score: inf
ROOT
ATOM      1  C   UNL A   1      34.301  32.832  29.422  1.00  0.00     0.042 C 
ENDROOT
BRANCH   1   2
ATOM      2  C   UNL A   1      33.918  34.286  29.659  1.00  0.00     0.117 C 
BRANCH   2   3
ATOM      3  N   UNL A   1      34.692  34.912  30.712  1.00  0.00    -0.356 N 
ATOM      4  O   UNL A   1      33.093  34.693  32.354  1.00  0.00    -0.275 OA
ATOM      5  C   UNL A   1      34.236  34.980  32.016  1.00  0.00     0.224 C 
ATOM      6  H   UNL A   1      35.570  35.300  30.494  1.00  0.00     0.163 HD
BRANCH   5   7
ATOM      7  C   UNL A   1      35.314  35.377  33.016  1.00  0.00     0.135 C 
BRANCH   7   8
ATOM      8  C   UNL A   1      36.338  34.278  33.197  1.00  0.00    -0.039 A 
ATOM      9  C   UNL A   1      37.660  34.456  32.770  1.00  0.00     0.005 A 
ATOM     10  C   UNL A   1      35.979  33.050  33.762  1.00  0.00     0.005 A 
ATOM     11  C   UNL A   1      38.582  33.412  32.854  1.00  0.00     0.009 A 
ATOM     12  C   UNL A   1      36.913  32.010  33.859  1.00  0.00     0.009 A 
ATOM     13  C   UNL A   1      38.227  32.165  33.389  1.00  0.00    -0.015 A 
BRANCH  13  14
ATOM     14  C   UNL A   1      39.205  31.062  33.414  1.00  0.00     0.020 A 
ATOM     15  C   UNL A   1      40.559  31.309  33.721  1.00  0.00     0.012 A 
ATOM     16  C   UNL A   1      38.848  29.745  33.084  1.00  0.00     0.166 A 
ATOM     17  C   UNL A   1      41.516  30.290  33.676  1.00  0.00     0.004 A 
ATOM     18  C   UNL A   1      39.803  28.731  33.042  1.00  0.00     0.159 A 
ATOM     19  F   UNL A   1      37.577  29.441  32.775  1.00  0.00    -0.203 F 
ATOM     20  C   UNL A   1      41.136  28.995  33.330  1.00  0.00     0.042 A 
ATOM     21  F   UNL A   1      39.443  27.483  32.710  1.00  0.00    -0.204 F 
ENDBRANCH  13  14
ENDBRANCH   7   8
ENDBRANCH   5   7
ENDBRANCH   2   3
ENDBRANCH   1   2
BRANCH   1  22
ATOM     22  C   UNL A   1      34.256  32.372  27.968  1.00  0.00     0.118 C 
BRANCH  22  23
ATOM     23  N   UNL A   1      33.732  31.026  27.789  1.00  0.00    -0.352 N 
ATOM     24  C   UNL A   1      34.395  29.820  27.848  1.00  0.00     0.251 C 
ATOM     25  H   UNL A   1      32.768  30.969  27.597  1.00  0.00     0.163 HD
ATOM     26  O   UNL A   1      33.799  28.781  27.578  1.00  0.00    -0.269 OA
BRANCH  24  27
ATOM     27  C   UNL A   1      35.834  29.781  28.195  1.00  0.00     0.039 A 
ATOM     28  C   UNL A   1      36.201  29.481  29.510  1.00  0.00     0.014 A 
ATOM     29  C   UNL A   1      36.818  30.004  27.228  1.00  0.00     0.014 A 
ATOM     30  C   UNL A   1      37.551  29.310  29.832  1.00  0.00     0.010 A 
ATOM     31  C   UNL A   1      38.158  29.772  27.535  1.00  0.00     0.010 A 
ATOM     32  C   UNL A   1      38.537  29.402  28.836  1.00  0.00    -0.014 A 
BRANCH  32  33
ATOM     33  C   UNL A   1      39.957  29.066  29.120  1.00  0.00     0.031 A 
ATOM     34  C   UNL A   1      40.895  30.107  29.666  1.00  0.00     0.074 A 
ATOM     35  C   UNL A   1      40.424  27.841  28.804  1.00  0.00     0.049 A 
ATOM     36  N   UNL A   1      42.184  30.025  29.878  1.00  0.00    -0.248 NA
ATOM     37  C   UNL A   1      40.313  31.416  29.994  1.00  0.00     0.031 C 
ATOM     38  C   UNL A   1      39.627  26.754  28.227  1.00  0.00     0.029 A 
ATOM     39  N   UNL A   1      41.684  27.306  28.906  1.00  0.00    -0.354 N 
ATOM     40  C   UNL A   1      42.570  31.273  30.352  1.00  0.00     0.074 A 
ATOM     41  C   UNL A   1      41.387  32.106  30.356  1.00  0.00     0.031 C 
ATOM     42  C   UNL A   1      40.414  25.684  28.038  1.00  0.00     0.029 A 
ATOM     43  C   UNL A   1      41.777  26.015  28.442  1.00  0.00     0.049 A 
ATOM     44  H   UNL A   1      42.450  27.800  29.278  1.00  0.00     0.167 HD
ATOM     45  C   UNL A   1      43.796  31.682  30.762  1.00  0.00     0.037 A 
ATOM     46  C   UNL A   1      42.840  25.193  28.338  1.00  0.00     0.037 A 
ATOM     47  C   UNL A   1      44.968  30.845  30.778  1.00  0.00     0.049 A 
ATOM     48  C   UNL A   1      44.192  25.673  28.788  1.00  0.00     0.074 A 
ATOM     49  C   UNL A   1      46.238  31.152  31.237  1.00  0.00     0.029 A 
ATOM     50  N   UNL A   1      45.017  29.539  30.313  1.00  0.00    -0.354 N 
ATOM     51  N   UNL A   1      44.525  26.839  29.289  1.00  0.00    -0.248 NA
ATOM     52  C   UNL A   1      45.310  24.729  28.661  1.00  0.00     0.031 C 
ATOM     53  C   UNL A   1      47.064  30.046  31.011  1.00  0.00     0.029 A 
ATOM     54  C   UNL A   1      46.301  29.035  30.451  1.00  0.00     0.049 A 
ATOM     55  H   UNL A   1      44.253  29.043  29.939  1.00  0.00     0.167 HD
ATOM     56  C   UNL A   1      45.888  26.761  29.552  1.00  0.00     0.074 A 
ATOM     57  C   UNL A   1      46.314  25.431  29.169  1.00  0.00     0.031 C 
ATOM     58  C   UNL A   1      46.713  27.709  30.064  1.00  0.00     0.037 A 
BRANCH  45  59
ATOM     59  C   UNL A   1      43.933  33.104  31.232  1.00  0.00     0.058 A 
ATOM     60  C   UNL A   1      43.909  33.432  32.598  1.00  0.00     0.135 A 
ATOM     61  C   UNL A   1      44.123  34.146  30.310  1.00  0.00     0.135 A 
ATOM     62  F   UNL A   1      43.715  32.475  33.519  1.00  0.00    -0.206 F 
ATOM     63  C   UNL A   1      44.041  34.746  33.031  1.00  0.00     0.059 A 
ATOM     64  C   UNL A   1      44.282  35.466  30.724  1.00  0.00     0.059 A 
ATOM     65  F   UNL A   1      44.153  33.888  28.994  1.00  0.00    -0.206 F 
ATOM     66  C   UNL A   1      44.223  35.758  32.087  1.00  0.00     0.060 A 
BRANCH  66  67
ATOM     67  S   UNL A   1      44.388  37.460  32.666  1.00  0.00     0.124 S 
ATOM     68  O   UNL A   1      45.652  37.396  33.395  1.00  0.00    -0.237 OA
ATOM     69  O   UNL A   1      44.415  38.215  31.418  1.00  0.00    -0.237 OA
ATOM     70  O   UNL A   1      43.199  37.655  33.488  1.00  0.00    -0.744 OA
ENDBRANCH  66  67
ENDBRANCH  45  59
BRANCH  46  71
ATOM     71  C   UNL A   1      42.666  23.824  27.786  1.00  0.00     0.058 A 
ATOM     72  C   UNL A   1      42.674  23.599  26.402  1.00  0.00     0.135 A 
ATOM     73  C   UNL A   1      42.502  22.713  28.629  1.00  0.00     0.135 A 
ATOM     74  F   UNL A   1      42.819  24.631  25.557  1.00  0.00    -0.206 F 
ATOM     75  C   UNL A   1      42.514  22.325  25.870  1.00  0.00     0.059 A 
ATOM     76  C   UNL A   1      42.363  21.425  28.121  1.00  0.00     0.059 A 
ATOM     77  F   UNL A   1      42.502  22.873  29.961  1.00  0.00    -0.206 F 
ATOM     78  C   UNL A   1      42.361  21.242  26.738  1.00  0.00     0.060 A 
BRANCH  78  79
ATOM     79  S   UNL A   1      42.208  19.584  26.040  1.00  0.00     0.124 S 
ATOM     80  O   UNL A   1      40.786  19.533  25.716  1.00  0.00    -0.237 OA
ATOM     81  O   UNL A   1      43.120  19.644  24.902  1.00  0.00    -0.237 OA
ATOM     82  O   UNL A   1      42.640  18.719  27.133  1.00  0.00    -0.744 OA
ENDBRANCH  78  79
ENDBRANCH  46  71
BRANCH  58  83
ATOM     83  C   UNL A   1      48.156  27.337  30.258  1.00  0.00     0.058 A 
ATOM     84  C   UNL A   1      49.106  27.527  29.241  1.00  0.00     0.135 A 
ATOM     85  C   UNL A   1      48.604  26.830  31.488  1.00  0.00     0.135 A 
ATOM     86  F   UNL A   1      48.727  28.000  28.043  1.00  0.00    -0.206 F 
ATOM     87  C   UNL A   1      50.446  27.210  29.432  1.00  0.00     0.059 A 
ATOM     88  C   UNL A   1      49.944  26.530  31.709  1.00  0.00     0.059 A 
ATOM     89  F   UNL A   1      47.737  26.638  32.495  1.00  0.00    -0.206 F 
ATOM     90  C   UNL A   1      50.857  26.714  30.671  1.00  0.00     0.060 A 
BRANCH  90  91
ATOM     91  S   UNL A   1      52.606  26.342  30.919  1.00  0.00     0.124 S 
ATOM     92  O   UNL A   1      53.082  26.234  29.545  1.00  0.00    -0.237 OA
ATOM     93  O   UNL A   1      53.073  27.509  31.663  1.00  0.00    -0.237 OA
ATOM     94  O   UNL A   1      52.583  25.094  31.677  1.00  0.00    -0.744 OA
ENDBRANCH  90  91
ENDBRANCH  58  83
ENDBRANCH  32  33
ENDBRANCH  24  27
ENDBRANCH  22  23
ENDBRANCH   1  22
TORSDOF 15
ENDMDL
MODEL 2
REMARK VINA RESULT:     -10.2      4.051      6.664
REMARK SMILES O=C(Cc1ccc(-c2cccc(F)c2F)cc1)NCCCNC(=O)c1ccc(-c2c3nc(c(-c4c(F)cc(S(=O)(=O)[O-])cc4F)c4ccc([nH]4)c(-c4c(F)cc(S(=O)(=O)[O-])cc4F)c4nc(c(-c5c(F)cc(S(=O)(=O)[O-])cc5F)c5ccc2[nH]5)C=C4)C=C3)cc1
REMARK SMILES IDX 20 1 19 2 18 3 1 4 2 5 3 7 4 8 5 9 17 10 6 11 16 12 7 13
REMARK SMILES IDX 8 14 9 15 14 16 10 17 12 18 15 19 11 20 13 21 21 22 22 23
REMARK SMILES IDX 23 24 24 26 25 27 26 28 90 29 27 30 89 31 28 32 29 33 30 34
REMARK SMILES IDX 83 35 31 36 88 37 82 38 84 39 32 40 87 41 81 42 80 43 33 45
REMARK SMILES IDX 67 46 46 47 66 48 47 49 50 50 65 51 85 52 48 53 49 54 64 56
REMARK SMILES IDX 86 57 51 58 34 59 35 60 44 61 36 62 37 63 43 64 45 65 38 66
REMARK SMILES IDX 39 67 40 68 41 69 42 70 68 71 69 72 78 73 70 74 71 75 77 76
REMARK SMILES IDX 79 77 72 78 73 79 74 80 75 81 76 82 52 83 53 84 62 85 54 86
REMARK SMILES IDX 55 87 61 88 63 89 56 90 57 91 58 92 59 93 60 94
REMARK H PARENT 18 6 22 25 84 44 50 55
REMARK Flexibility Score: inf
ROOT
ATOM      1  C   UNL A   1      33.407  28.122  25.952  1.00  0.00     0.042 C 
ENDROOT
BRANCH   1   2
ATOM      2  C   UNL A   1      32.772  29.137  25.011  1.00  0.00     0.117 C 
BRANCH   2   3
ATOM      3  N   UNL A   1      31.949  28.524  23.988  1.00  0.00    -0.356 N 
ATOM      4  O   UNL A   1      33.659  28.140  22.495  1.00  0.00    -0.275 OA
ATOM      5  C   UNL A   1      32.491  27.988  22.834  1.00  0.00     0.224 C 
ATOM      6  H   UNL A   1      30.974  28.488  24.118  1.00  0.00     0.163 HD
BRANCH   5   7
ATOM      7  C   UNL A   1      31.514  27.118  22.053  1.00  0.00     0.135 C 
BRANCH   7   8
ATOM      8  C   UNL A   1      31.690  25.651  22.379  1.00  0.00    -0.039 A 
ATOM      9  C   UNL A   1      30.733  24.968  23.139  1.00  0.00     0.005 A 
ATOM     10  C   UNL A   1      32.829  24.955  21.959  1.00  0.00     0.005 A 
ATOM     11  C   UNL A   1      30.937  23.641  23.517  1.00  0.00     0.009 A 
ATOM     12  C   UNL A   1      33.022  23.617  22.328  1.00  0.00     0.009 A 
ATOM     13  C   UNL A   1      32.089  22.940  23.129  1.00  0.00    -0.015 A 
BRANCH  13  14
ATOM     14  C   UNL A   1      32.306  21.557  23.589  1.00  0.00     0.020 A 
ATOM     15  C   UNL A   1      32.715  21.294  24.913  1.00  0.00     0.012 A 
ATOM     16  C   UNL A   1      32.171  20.458  22.726  1.00  0.00     0.166 A 
ATOM     17  C   UNL A   1      32.999  19.995  25.347  1.00  0.00     0.004 A 
ATOM     18  C   UNL A   1      32.453  19.164  23.161  1.00  0.00     0.159 A 
ATOM     19  F   UNL A   1      31.791  20.636  21.451  1.00  0.00    -0.203 F 
ATOM     20  C   UNL A   1      32.872  18.925  24.465  1.00  0.00     0.042 A 
ATOM     21  F   UNL A   1      32.331  18.131  22.316  1.00  0.00    -0.204 F 
ENDBRANCH  13  14
ENDBRANCH   7   8
ENDBRANCH   5   7
ENDBRANCH   2   3
ENDBRANCH   1   2
BRANCH   1  22
ATOM     22  C   UNL A   1      33.335  28.471  27.435  1.00  0.00     0.118 C 
BRANCH  22  23
ATOM     23  N   UNL A   1      33.363  29.901  27.709  1.00  0.00    -0.352 N 
ATOM     24  C   UNL A   1      34.407  30.679  28.158  1.00  0.00     0.251 C 
ATOM     25  H   UNL A   1      32.517  30.378  27.553  1.00  0.00     0.163 HD
ATOM     26  O   UNL A   1      34.218  31.863  28.420  1.00  0.00    -0.269 OA
BRANCH  24  27
ATOM     27  C   UNL A   1      35.745  30.079  28.362  1.00  0.00     0.039 A 
ATOM     28  C   UNL A   1      36.639  30.044  27.288  1.00  0.00     0.014 A 
ATOM     29  C   UNL A   1      36.133  29.584  29.611  1.00  0.00     0.014 A 
ATOM     30  C   UNL A   1      37.950  29.603  27.490  1.00  0.00     0.010 A 
ATOM     31  C   UNL A   1      37.457  29.204  29.825  1.00  0.00     0.010 A 
ATOM     32  C   UNL A   1      38.385  29.229  28.772  1.00  0.00    -0.014 A 
BRANCH  32  33
ATOM     33  C   UNL A   1      39.812  28.912  29.043  1.00  0.00     0.031 A 
ATOM     34  C   UNL A   1      40.743  29.968  29.572  1.00  0.00     0.074 A 
ATOM     35  C   UNL A   1      40.292  27.691  28.730  1.00  0.00     0.049 A 
ATOM     36  N   UNL A   1      42.035  29.905  29.772  1.00  0.00    -0.248 NA
ATOM     37  C   UNL A   1      40.148  31.272  29.898  1.00  0.00     0.031 C 
ATOM     38  C   UNL A   1      39.504  26.591  28.167  1.00  0.00     0.029 A 
ATOM     39  N   UNL A   1      41.560  27.174  28.822  1.00  0.00    -0.354 N 
ATOM     40  C   UNL A   1      42.410  31.160  30.235  1.00  0.00     0.074 A 
ATOM     41  C   UNL A   1      41.216  31.978  30.246  1.00  0.00     0.031 C 
ATOM     42  C   UNL A   1      40.302  25.530  27.976  1.00  0.00     0.029 A 
ATOM     43  C   UNL A   1      41.665  25.880  28.365  1.00  0.00     0.049 A 
ATOM     44  H   UNL A   1      42.324  27.680  29.182  1.00  0.00     0.167 HD
ATOM     45  C   UNL A   1      43.634  31.587  30.629  1.00  0.00     0.037 A 
ATOM     46  C   UNL A   1      42.737  25.072  28.254  1.00  0.00     0.037 A 
ATOM     47  C   UNL A   1      44.817  30.766  30.638  1.00  0.00     0.049 A 
ATOM     48  C   UNL A   1      44.087  25.572  28.688  1.00  0.00     0.074 A 
ATOM     49  C   UNL A   1      46.087  31.091  31.082  1.00  0.00     0.029 A 
ATOM     50  N   UNL A   1      44.878  29.458  30.181  1.00  0.00    -0.354 N 
ATOM     51  N   UNL A   1      44.411  26.745  29.178  1.00  0.00    -0.248 NA
ATOM     52  C   UNL A   1      45.216  24.641  28.554  1.00  0.00     0.031 C 
ATOM     53  C   UNL A   1      46.926  29.994  30.855  1.00  0.00     0.029 A 
ATOM     54  C   UNL A   1      46.170  28.971  30.308  1.00  0.00     0.049 A 
ATOM     55  H   UNL A   1      44.117  28.950  29.817  1.00  0.00     0.167 HD
ATOM     56  C   UNL A   1      45.777  26.686  29.427  1.00  0.00     0.074 A 
ATOM     57  C   UNL A   1      46.216  25.359  29.047  1.00  0.00     0.031 C 
ATOM     58  C   UNL A   1      46.595  27.648  29.925  1.00  0.00     0.037 A 
BRANCH  45  59
ATOM     59  C   UNL A   1      43.758  33.014  31.089  1.00  0.00     0.058 A 
ATOM     60  C   UNL A   1      43.563  33.372  32.433  1.00  0.00     0.135 A 
ATOM     61  C   UNL A   1      44.106  34.029  30.184  1.00  0.00     0.135 A 
ATOM     62  F   UNL A   1      43.214  32.442  33.336  1.00  0.00    -0.206 F 
ATOM     63  C   UNL A   1      43.683  34.690  32.859  1.00  0.00     0.059 A 
ATOM     64  C   UNL A   1      44.256  35.351  30.593  1.00  0.00     0.059 A 
ATOM     65  F   UNL A   1      44.304  33.741  28.888  1.00  0.00    -0.206 F 
ATOM     66  C   UNL A   1      44.026  35.674  31.930  1.00  0.00     0.060 A 
BRANCH  66  67
ATOM     67  S   UNL A   1      44.173  37.382  32.497  1.00  0.00     0.124 S 
ATOM     68  O   UNL A   1      45.553  37.412  32.971  1.00  0.00    -0.237 OA
ATOM     69  O   UNL A   1      43.904  38.141  31.281  1.00  0.00    -0.237 OA
ATOM     70  O   UNL A   1      43.151  37.484  33.535  1.00  0.00    -0.744 OA
ENDBRANCH  66  67
ENDBRANCH  45  59
BRANCH  46  71
ATOM     71  C   UNL A   1      42.575  23.697  27.713  1.00  0.00     0.058 A 
ATOM     72  C   UNL A   1      42.598  23.461  26.330  1.00  0.00     0.135 A 
ATOM     73  C   UNL A   1      42.408  22.593  28.563  1.00  0.00     0.135 A 
ATOM     74  F   UNL A   1      42.747  24.487  25.478  1.00  0.00    -0.206 F 
ATOM     75  C   UNL A   1      42.450  22.181  25.807  1.00  0.00     0.059 A 
ATOM     76  C   UNL A   1      42.280  21.300  28.065  1.00  0.00     0.059 A 
ATOM     77  F   UNL A   1      42.394  22.764  29.893  1.00  0.00    -0.206 F 
ATOM     78  C   UNL A   1      42.293  21.105  26.683  1.00  0.00     0.060 A 
BRANCH  78  79
ATOM     79  S   UNL A   1      42.154  19.441  25.998  1.00  0.00     0.124 S 
ATOM     80  O   UNL A   1      40.715  19.330  25.786  1.00  0.00    -0.237 OA
ATOM     81  O   UNL A   1      42.971  19.535  24.792  1.00  0.00    -0.237 OA
ATOM     82  O   UNL A   1      42.706  18.597  27.053  1.00  0.00    -0.744 OA
ENDBRANCH  78  79
ENDBRANCH  46  71
BRANCH  58  83
ATOM     83  C   UNL A   1      48.045  27.295  30.106  1.00  0.00     0.058 A 
ATOM     84  C   UNL A   1      49.003  27.606  29.128  1.00  0.00     0.135 A 
ATOM     85  C   UNL A   1      48.489  26.684  31.289  1.00  0.00     0.135 A 
ATOM     86  F   UNL A   1      48.629  28.182  27.975  1.00  0.00    -0.206 F 
ATOM     87  C   UNL A   1      50.349  27.306  29.310  1.00  0.00     0.059 A 
ATOM     88  C   UNL A   1      49.833  26.398  31.503  1.00  0.00     0.059 A 
ATOM     89  F   UNL A   1      47.613  26.374  32.259  1.00  0.00    -0.206 F 
ATOM     90  C   UNL A   1      50.755  26.704  30.502  1.00  0.00     0.060 A 
BRANCH  90  91
ATOM     91  S   UNL A   1      52.510  26.354  30.743  1.00  0.00     0.124 S 
ATOM     92  O   UNL A   1      52.956  26.128  29.373  1.00  0.00    -0.237 OA
ATOM     93  O   UNL A   1      52.992  27.581  31.372  1.00  0.00    -0.237 OA
ATOM     94  O   UNL A   1      52.506  25.176  31.605  1.00  0.00    -0.744 OA
ENDBRANCH  90  91
ENDBRANCH  58  83
ENDBRANCH  32  33
ENDBRANCH  24  27
ENDBRANCH  22  23
ENDBRANCH   1  22
TORSDOF 15
ENDMDL
MODEL 3
REMARK VINA RESULT:     -10.2      1.378      2.519
REMARK SMILES O=C(Cc1ccc(-c2cccc(F)c2F)cc1)NCCCNC(=O)c1ccc(-c2c3nc(c(-c4c(F)cc(S(=O)(=O)[O-])cc4F)c4ccc([nH]4)c(-c4c(F)cc(S(=O)(=O)[O-])cc4F)c4nc(c(-c5c(F)cc(S(=O)(=O)[O-])cc5F)c5ccc2[nH]5)C=C4)C=C3)cc1
REMARK SMILES IDX 20 1 19 2 18 3 1 4 2 5 3 7 4 8 5 9 17 10 6 11 16 12 7 13
REMARK SMILES IDX 8 14 9 15 14 16 10 17 12 18 15 19 11 20 13 21 21 22 22 23
REMARK SMILES IDX 23 24 24 26 25 27 26 28 90 29 27 30 89 31 28 32 29 33 30 34
REMARK SMILES IDX 83 35 31 36 88 37 82 38 84 39 32 40 87 41 81 42 80 43 33 45
REMARK SMILES IDX 67 46 46 47 66 48 47 49 50 50 65 51 85 52 48 53 49 54 64 56
REMARK SMILES IDX 86 57 51 58 34 59 35 60 44 61 36 62 37 63 43 64 45 65 38 66
REMARK SMILES IDX 39 67 40 68 41 69 42 70 68 71 69 72 78 73 70 74 71 75 77 76
REMARK SMILES IDX 79 77 72 78 73 79 74 80 75 81 76 82 52 83 53 84 62 85 54 86
REMARK SMILES IDX 55 87 61 88 63 89 56 90 57 91 58 92 59 93 60 94
REMARK H PARENT 18 6 22 25 84 44 50 55
REMARK Flexibility Score: inf
ROOT
ATOM      1  C   UNL A   1      35.862  33.495  29.370  1.00  0.00     0.042 C 
ENDROOT
BRANCH   1   2
ATOM      2  C   UNL A   1      37.162  33.670  30.143  1.00  0.00     0.117 C 
BRANCH   2   3
ATOM      3  N   UNL A   1      37.357  32.656  31.160  1.00  0.00    -0.356 N 
ATOM      4  O   UNL A   1      38.725  33.924  32.511  1.00  0.00    -0.275 OA
ATOM      5  C   UNL A   1      38.063  32.909  32.322  1.00  0.00     0.224 C 
ATOM      6  H   UNL A   1      36.976  31.760  31.020  1.00  0.00     0.163 HD
BRANCH   5   7
ATOM      7  C   UNL A   1      37.881  31.836  33.388  1.00  0.00     0.135 C 
BRANCH   7   8
ATOM      8  C   UNL A   1      39.016  30.836  33.371  1.00  0.00    -0.039 A 
ATOM      9  C   UNL A   1      38.825  29.547  32.857  1.00  0.00     0.005 A 
ATOM     10  C   UNL A   1      40.269  31.164  33.899  1.00  0.00     0.005 A 
ATOM     11  C   UNL A   1      39.843  28.595  32.923  1.00  0.00     0.009 A 
ATOM     12  C   UNL A   1      41.294  30.209  33.948  1.00  0.00     0.009 A 
ATOM     13  C   UNL A   1      41.094  28.901  33.479  1.00  0.00    -0.015 A 
BRANCH  13  14
ATOM     14  C   UNL A   1      42.133  27.860  33.587  1.00  0.00     0.020 A 
ATOM     15  C   UNL A   1      43.008  27.604  32.511  1.00  0.00     0.012 A 
ATOM     16  C   UNL A   1      42.259  27.053  34.729  1.00  0.00     0.166 A 
ATOM     17  C   UNL A   1      43.950  26.571  32.566  1.00  0.00     0.004 A 
ATOM     18  C   UNL A   1      43.200  26.026  34.781  1.00  0.00     0.159 A 
ATOM     19  F   UNL A   1      41.454  27.239  35.787  1.00  0.00    -0.203 F 
ATOM     20  C   UNL A   1      44.043  25.776  33.705  1.00  0.00     0.042 A 
ATOM     21  F   UNL A   1      43.294  25.258  35.875  1.00  0.00    -0.204 F 
ENDBRANCH  13  14
ENDBRANCH   7   8
ENDBRANCH   5   7
ENDBRANCH   2   3
ENDBRANCH   1   2
BRANCH   1  22
ATOM     22  C   UNL A   1      34.898  32.457  29.938  1.00  0.00     0.118 C 
BRANCH  22  23
ATOM     23  N   UNL A   1      34.152  31.725  28.924  1.00  0.00    -0.352 N 
ATOM     24  C   UNL A   1      34.551  30.656  28.153  1.00  0.00     0.251 C 
ATOM     25  H   UNL A   1      33.232  32.039  28.767  1.00  0.00     0.163 HD
ATOM     26  O   UNL A   1      33.808  30.222  27.278  1.00  0.00    -0.269 OA
BRANCH  24  27
ATOM     27  C   UNL A   1      35.891  30.058  28.353  1.00  0.00     0.039 A 
ATOM     28  C   UNL A   1      36.820  30.126  27.311  1.00  0.00     0.014 A 
ATOM     29  C   UNL A   1      36.244  29.462  29.567  1.00  0.00     0.014 A 
ATOM     30  C   UNL A   1      38.131  29.686  27.520  1.00  0.00     0.010 A 
ATOM     31  C   UNL A   1      37.566  29.082  29.794  1.00  0.00     0.010 A 
ATOM     32  C   UNL A   1      38.529  29.209  28.780  1.00  0.00    -0.014 A 
BRANCH  32  33
ATOM     33  C   UNL A   1      39.950  28.888  29.072  1.00  0.00     0.031 A 
ATOM     34  C   UNL A   1      40.870  29.936  29.637  1.00  0.00     0.074 A 
ATOM     35  C   UNL A   1      40.436  27.673  28.748  1.00  0.00     0.049 A 
ATOM     36  N   UNL A   1      42.158  29.869  29.859  1.00  0.00    -0.248 NA
ATOM     37  C   UNL A   1      40.268  31.234  29.973  1.00  0.00     0.031 C 
ATOM     38  C   UNL A   1      39.659  26.582  28.152  1.00  0.00     0.029 A 
ATOM     39  N   UNL A   1      41.703  27.154  28.856  1.00  0.00    -0.354 N 
ATOM     40  C   UNL A   1      42.524  31.117  30.350  1.00  0.00     0.074 A 
ATOM     41  C   UNL A   1      41.329  31.934  30.352  1.00  0.00     0.031 C 
ATOM     42  C   UNL A   1      40.462  25.524  27.960  1.00  0.00     0.029 A 
ATOM     43  C   UNL A   1      41.817  25.869  28.379  1.00  0.00     0.049 A 
ATOM     44  H   UNL A   1      42.459  27.654  29.239  1.00  0.00     0.167 HD
ATOM     45  C   UNL A   1      43.740  31.537  30.774  1.00  0.00     0.037 A 
ATOM     46  C   UNL A   1      42.891  25.062  28.275  1.00  0.00     0.037 A 
ATOM     47  C   UNL A   1      44.923  30.717  30.792  1.00  0.00     0.049 A 
ATOM     48  C   UNL A   1      44.233  25.556  28.743  1.00  0.00     0.074 A 
ATOM     49  C   UNL A   1      46.185  31.035  31.265  1.00  0.00     0.029 A 
ATOM     50  N   UNL A   1      44.993  29.416  30.314  1.00  0.00    -0.354 N 
ATOM     51  N   UNL A   1      44.546  26.720  29.258  1.00  0.00    -0.248 NA
ATOM     52  C   UNL A   1      45.365  24.627  28.615  1.00  0.00     0.031 C 
ATOM     53  C   UNL A   1      47.028  29.942  31.036  1.00  0.00     0.029 A 
ATOM     54  C   UNL A   1      46.283  28.927  30.458  1.00  0.00     0.049 A 
ATOM     55  H   UNL A   1      44.239  28.914  29.928  1.00  0.00     0.167 HD
ATOM     56  C   UNL A   1      45.908  26.658  29.532  1.00  0.00     0.074 A 
ATOM     57  C   UNL A   1      46.355  25.338  29.139  1.00  0.00     0.031 C 
ATOM     58  C   UNL A   1      46.716  27.611  30.061  1.00  0.00     0.037 A 
BRANCH  45  59
ATOM     59  C   UNL A   1      43.854  32.956  31.260  1.00  0.00     0.058 A 
ATOM     60  C   UNL A   1      44.051  34.025  30.370  1.00  0.00     0.135 A 
ATOM     61  C   UNL A   1      43.732  33.255  32.627  1.00  0.00     0.135 A 
ATOM     62  F   UNL A   1      44.188  33.791  29.055  1.00  0.00    -0.206 F 
ATOM     63  C   UNL A   1      44.151  35.336  30.820  1.00  0.00     0.059 A 
ATOM     64  C   UNL A   1      43.804  34.564  33.097  1.00  0.00     0.059 A 
ATOM     65  F   UNL A   1      43.543  32.272  33.520  1.00  0.00    -0.206 F 
ATOM     66  C   UNL A   1      44.030  35.596  32.186  1.00  0.00     0.060 A 
BRANCH  66  67
ATOM     67  S   UNL A   1      44.167  37.304  32.755  1.00  0.00     0.124 S 
ATOM     68  O   UNL A   1      43.956  38.041  31.512  1.00  0.00    -0.237 OA
ATOM     69  O   UNL A   1      43.091  37.396  33.736  1.00  0.00    -0.237 OA
ATOM     70  O   UNL A   1      45.518  37.372  33.303  1.00  0.00    -0.744 OA
ENDBRANCH  66  67
ENDBRANCH  45  59
BRANCH  46  71
ATOM     71  C   UNL A   1      42.740  23.696  27.708  1.00  0.00     0.058 A 
ATOM     72  C   UNL A   1      42.847  23.475  26.327  1.00  0.00     0.135 A 
ATOM     73  C   UNL A   1      42.500  22.586  28.533  1.00  0.00     0.135 A 
ATOM     74  F   UNL A   1      43.068  24.507  25.499  1.00  0.00    -0.206 F 
ATOM     75  C   UNL A   1      42.711  22.204  25.781  1.00  0.00     0.059 A 
ATOM     76  C   UNL A   1      42.382  21.301  28.012  1.00  0.00     0.059 A 
ATOM     77  F   UNL A   1      42.405  22.743  29.862  1.00  0.00    -0.206 F 
ATOM     78  C   UNL A   1      42.480  21.121  26.632  1.00  0.00     0.060 A 
BRANCH  78  79
ATOM     79  S   UNL A   1      42.356  19.467  25.919  1.00  0.00     0.124 S 
ATOM     80  O   UNL A   1      43.187  19.599  24.727  1.00  0.00    -0.237 OA
ATOM     81  O   UNL A   1      42.898  18.631  26.986  1.00  0.00    -0.237 OA
ATOM     82  O   UNL A   1      40.925  19.313  25.679  1.00  0.00    -0.744 OA
ENDBRANCH  78  79
ENDBRANCH  46  71
BRANCH  58  83
ATOM     83  C   UNL A   1      48.162  27.256  30.264  1.00  0.00     0.058 A 
ATOM     84  C   UNL A   1      49.137  27.575  29.305  1.00  0.00     0.135 A 
ATOM     85  C   UNL A   1      48.586  26.634  31.448  1.00  0.00     0.135 A 
ATOM     86  F   UNL A   1      48.783  28.163  28.151  1.00  0.00    -0.206 F 
ATOM     87  C   UNL A   1      50.479  27.273  29.507  1.00  0.00     0.059 A 
ATOM     88  C   UNL A   1      49.926  26.345  31.682  1.00  0.00     0.059 A 
ATOM     89  F   UNL A   1      47.694  26.315  32.400  1.00  0.00    -0.206 F 
ATOM     90  C   UNL A   1      50.865  26.659  30.700  1.00  0.00     0.060 A 
BRANCH  90  91
ATOM     91  S   UNL A   1      52.616  26.306  30.968  1.00  0.00     0.124 S 
ATOM     92  O   UNL A   1      52.553  25.051  31.707  1.00  0.00    -0.237 OA
ATOM     93  O   UNL A   1      53.129  26.213  29.603  1.00  0.00    -0.237 OA
ATOM     94  O   UNL A   1      53.082  27.462  31.728  1.00  0.00    -0.744 OA
ENDBRANCH  90  91
ENDBRANCH  58  83
ENDBRANCH  32  33
ENDBRANCH  24  27
ENDBRANCH  22  23
ENDBRANCH   1  22
TORSDOF 15
ENDMDL
