MODEL 1
REMARK VINA RESULT:     -11.6      0.000      0.000
REMARK SMILES Cc1ccc2c(c1)C=C(C(=O)NCCCNC(=O)c1ccc(-c3c4nc(c(-c5c(F)cc(S(=O)(=O)[O-])cc5F)c5ccc([nH]5)c(-c5c(F)cc(S(=O)(=O)[O-])cc5F)c5nc(c(-c6c(F)cc(S(=O)(=O)[O-])cc6F)c6ccc3[nH]6)C=C5)C=C4)cc1)[C@@H](C(F)(F)F)O2
REMARK SMILES IDX 15 1 14 2 13 3 12 4 10 5 11 6 9 8 1 9 2 10 3 11 7 12 4 13
REMARK SMILES IDX 6 14 5 15 8 16 90 17 85 18 86 19 87 20 88 21 89 22 16 23
REMARK SMILES IDX 17 24 18 26 19 27 20 28 84 29 21 30 83 31 22 32 23 33 24 34
REMARK SMILES IDX 77 35 25 36 82 37 76 38 78 39 26 40 81 41 75 42 74 43 27 45
REMARK SMILES IDX 61 46 40 47 60 48 41 49 44 50 59 51 79 52 42 53 43 54 58 56
REMARK SMILES IDX 80 57 45 58 28 59 29 60 38 61 30 62 31 63 37 64 39 65 32 66
REMARK SMILES IDX 33 67 34 68 35 69 36 70 62 71 63 72 72 73 64 74 65 75 71 76
REMARK SMILES IDX 73 77 66 78 67 79 68 80 69 81 70 82 46 83 47 84 56 85 48 86
REMARK SMILES IDX 49 87 55 88 57 89 50 90 51 91 52 92 53 93 54 94
REMARK H PARENT 12 7 16 25 78 44 44 55
REMARK Flexibility Score: inf
ROOT
ATOM      1  C   UNL A   1      33.626  28.370  26.976  1.00  0.00     0.118 C 
ENDROOT
BRANCH   1   2
ATOM      2  C   UNL A   1      33.919  28.290  25.482  1.00  0.00     0.042 C 
BRANCH   2   3
ATOM      3  C   UNL A   1      32.876  27.484  24.720  1.00  0.00     0.118 C 
BRANCH   3   4
ATOM      4  N   UNL A   1      32.066  26.658  25.602  1.00  0.00    -0.352 N 
ATOM      5  C   UNL A   1      32.045  25.369  26.012  1.00  0.00     0.251 C 
ATOM      6  O   UNL A   1      31.155  25.094  26.823  1.00  0.00    -0.270 OA
ATOM      7  H   UNL A   1      31.337  27.177  26.011  1.00  0.00     0.163 HD
BRANCH   5   8
ATOM      8  C   UNL A   1      32.994  24.304  25.570  1.00  0.00     0.067 C 
ATOM      9  C   UNL A   1      38.912  22.606  26.154  1.00  0.00     0.044 C 
ATOM     10  C   UNL A   1      37.469  22.466  25.771  1.00  0.00    -0.050 A 
ATOM     11  C   UNL A   1      37.042  21.372  25.009  1.00  0.00     0.007 A 
ATOM     12  C   UNL A   1      36.541  23.455  26.130  1.00  0.00     0.015 A 
ATOM     13  C   UNL A   1      35.705  21.254  24.630  1.00  0.00     0.047 A 
ATOM     14  C   UNL A   1      35.201  23.344  25.744  1.00  0.00     0.017 A 
ATOM     15  C   UNL A   1      34.795  22.243  24.990  1.00  0.00     0.128 A 
ATOM     16  C   UNL A   1      34.212  24.338  26.141  1.00  0.00     0.025 C 
ATOM     17  O   UNL A   1      33.498  22.058  24.602  1.00  0.00    -0.475 OA
ATOM     18  C   UNL A   1      32.679  23.260  24.535  1.00  0.00     0.314 C 
BRANCH  18  19
ATOM     19  C   UNL A   1      32.723  23.820  23.099  1.00  0.00     0.429 C 
ATOM     20  F   UNL A   1      33.707  24.747  22.980  1.00  0.00    -0.167 F 
ATOM     21  F   UNL A   1      32.985  22.865  22.174  1.00  0.00    -0.167 F 
ATOM     22  F   UNL A   1      31.564  24.409  22.728  1.00  0.00    -0.167 F 
ENDBRANCH  18  19
ENDBRANCH   5   8
ENDBRANCH   3   4
ENDBRANCH   2   3
ENDBRANCH   1   2
BRANCH   1  23
ATOM     23  N   UNL A   1      33.553  29.749  27.456  1.00  0.00    -0.352 N 
ATOM     24  C   UNL A   1      34.467  30.502  28.155  1.00  0.00     0.251 C 
ATOM     25  H   UNL A   1      32.711  30.213  27.247  1.00  0.00     0.163 HD
ATOM     26  O   UNL A   1      34.121  31.578  28.636  1.00  0.00    -0.269 OA
BRANCH  24  27
ATOM     27  C   UNL A   1      35.849  30.013  28.340  1.00  0.00     0.039 A 
ATOM     28  C   UNL A   1      36.254  29.491  29.567  1.00  0.00     0.014 A 
ATOM     29  C   UNL A   1      36.753  30.074  27.274  1.00  0.00     0.014 A 
ATOM     30  C   UNL A   1      37.597  29.222  29.789  1.00  0.00     0.010 A 
ATOM     31  C   UNL A   1      38.085  29.695  27.470  1.00  0.00     0.010 A 
ATOM     32  C   UNL A   1      38.531  29.315  28.745  1.00  0.00    -0.014 A 
BRANCH  32  33
ATOM     33  C   UNL A   1      39.959  29.013  29.032  1.00  0.00     0.031 A 
ATOM     34  C   UNL A   1      40.557  27.683  28.657  1.00  0.00     0.074 A 
ATOM     35  C   UNL A   1      40.739  29.989  29.541  1.00  0.00     0.049 A 
ATOM     36  N   UNL A   1      41.795  27.277  28.776  1.00  0.00    -0.248 NA
ATOM     37  C   UNL A   1      39.655  26.676  28.075  1.00  0.00     0.031 C 
ATOM     38  C   UNL A   1      40.270  31.323  29.929  1.00  0.00     0.029 A 
ATOM     39  N   UNL A   1      42.089  30.036  29.769  1.00  0.00    -0.354 N 
ATOM     40  C   UNL A   1      41.818  25.970  28.303  1.00  0.00     0.074 A 
ATOM     41  C   UNL A   1      40.464  25.637  27.921  1.00  0.00     0.031 C 
ATOM     42  C   UNL A   1      41.325  32.082  30.259  1.00  0.00     0.029 A 
ATOM     43  C   UNL A   1      42.534  31.271  30.181  1.00  0.00     0.049 A 
ATOM     44  H   UNL A   1      42.684  29.260  29.651  1.00  0.00     0.167 HD
ATOM     45  C   UNL A   1      42.875  25.131  28.182  1.00  0.00     0.037 A 
ATOM     46  C   UNL A   1      43.776  31.704  30.468  1.00  0.00     0.037 A 
ATOM     47  C   UNL A   1      44.227  25.481  28.536  1.00  0.00     0.049 A 
ATOM     48  C   UNL A   1      44.923  30.742  30.362  1.00  0.00     0.074 A 
ATOM     49  C   UNL A   1      45.366  24.700  28.456  1.00  0.00     0.029 A 
ATOM     50  N   UNL A   1      44.623  26.717  29.026  1.00  0.00    -0.354 N 
ATOM     51  N   UNL A   1      44.917  29.501  29.940  1.00  0.00    -0.248 NA
ATOM     52  C   UNL A   1      46.240  31.229  30.793  1.00  0.00     0.031 C 
ATOM     53  C   UNL A   1      46.447  25.453  28.926  1.00  0.00     0.029 A 
ATOM     54  C   UNL A   1      45.988  26.715  29.264  1.00  0.00     0.049 A 
ATOM     55  H   UNL A   1      44.023  27.481  29.182  1.00  0.00     0.167 HD
ATOM     56  C   UNL A   1      46.229  29.057  30.053  1.00  0.00     0.074 A 
ATOM     57  C   UNL A   1      47.005  30.171  30.560  1.00  0.00     0.031 C 
ATOM     58  C   UNL A   1      46.740  27.834  29.772  1.00  0.00     0.037 A 
BRANCH  45  59
ATOM     59  C   UNL A   1      42.619  23.751  27.645  1.00  0.00     0.058 A 
ATOM     60  C   UNL A   1      42.619  23.488  26.266  1.00  0.00     0.135 A 
ATOM     61  C   UNL A   1      42.431  22.667  28.517  1.00  0.00     0.135 A 
ATOM     62  F   UNL A   1      42.776  24.491  25.387  1.00  0.00    -0.206 F 
ATOM     63  C   UNL A   1      42.426  22.203  25.770  1.00  0.00     0.059 A 
ATOM     64  C   UNL A   1      42.257  21.369  28.045  1.00  0.00     0.059 A 
ATOM     65  F   UNL A   1      42.420  22.862  29.846  1.00  0.00    -0.206 F 
ATOM     66  C   UNL A   1      42.248  21.148  26.668  1.00  0.00     0.060 A 
BRANCH  66  67
ATOM     67  S   UNL A   1      42.014  19.484  26.007  1.00  0.00     0.124 S 
ATOM     68  O   UNL A   1      42.372  18.661  27.159  1.00  0.00    -0.237 OA
ATOM     69  O   UNL A   1      40.600  19.488  25.647  1.00  0.00    -0.237 OA
ATOM     70  O   UNL A   1      42.945  19.429  24.884  1.00  0.00    -0.744 OA
ENDBRANCH  66  67
ENDBRANCH  45  59
BRANCH  46  71
ATOM     71  C   UNL A   1      43.991  33.115  30.885  1.00  0.00     0.058 A 
ATOM     72  C   UNL A   1      44.183  34.126  29.933  1.00  0.00     0.135 A 
ATOM     73  C   UNL A   1      43.976  33.484  32.239  1.00  0.00     0.135 A 
ATOM     74  F   UNL A   1      44.212  33.821  28.626  1.00  0.00    -0.206 F 
ATOM     75  C   UNL A   1      44.357  35.455  30.307  1.00  0.00     0.059 A 
ATOM     76  C   UNL A   1      44.121  34.809  32.637  1.00  0.00     0.059 A 
ATOM     77  F   UNL A   1      43.780  32.556  33.187  1.00  0.00    -0.206 F 
ATOM     78  C   UNL A   1      44.319  35.786  31.663  1.00  0.00     0.060 A 
BRANCH  78  79
ATOM     79  S   UNL A   1      44.485  37.521  32.136  1.00  0.00     0.124 S 
ATOM     80  O   UNL A   1      44.155  38.198  30.887  1.00  0.00    -0.237 OA
ATOM     81  O   UNL A   1      43.503  37.643  33.209  1.00  0.00    -0.237 OA
ATOM     82  O   UNL A   1      45.879  37.621  32.559  1.00  0.00    -0.744 OA
ENDBRANCH  78  79
ENDBRANCH  46  71
BRANCH  58  83
ATOM     83  C   UNL A   1      48.209  27.634  30.006  1.00  0.00     0.058 A 
ATOM     84  C   UNL A   1      48.691  27.172  31.240  1.00  0.00     0.135 A 
ATOM     85  C   UNL A   1      49.132  27.835  28.969  1.00  0.00     0.135 A 
ATOM     86  F   UNL A   1      47.848  26.973  32.264  1.00  0.00    -0.206 F 
ATOM     87  C   UNL A   1      50.045  26.925  31.440  1.00  0.00     0.059 A 
ATOM     88  C   UNL A   1      50.487  27.575  29.141  1.00  0.00     0.059 A 
ATOM     89  F   UNL A   1      48.716  28.271  27.769  1.00  0.00    -0.206 F 
ATOM     90  C   UNL A   1      50.935  27.124  30.382  1.00  0.00     0.060 A 
BRANCH  90  91
ATOM     91  S   UNL A   1      52.680  26.747  30.642  1.00  0.00     0.124 S 
ATOM     92  O   UNL A   1      53.136  27.936  31.354  1.00  0.00    -0.237 OA
ATOM     93  O   UNL A   1      52.620  25.520  31.430  1.00  0.00    -0.237 OA
ATOM     94  O   UNL A   1      53.200  26.590  29.287  1.00  0.00    -0.744 OA
ENDBRANCH  90  91
ENDBRANCH  58  83
ENDBRANCH  32  33
ENDBRANCH  24  27
ENDBRANCH   1  23
TORSDOF 14
ENDMDL
MODEL 2
REMARK VINA RESULT:     -11.6      5.193      9.891
REMARK SMILES Cc1ccc2c(c1)C=C(C(=O)NCCCNC(=O)c1ccc(-c3c4nc(c(-c5c(F)cc(S(=O)(=O)[O-])cc5F)c5ccc([nH]5)c(-c5c(F)cc(S(=O)(=O)[O-])cc5F)c5nc(c(-c6c(F)cc(S(=O)(=O)[O-])cc6F)c6ccc3[nH]6)C=C5)C=C4)cc1)[C@@H](C(F)(F)F)O2
REMARK SMILES IDX 15 1 14 2 13 3 12 4 10 5 11 6 9 8 1 9 2 10 3 11 7 12 4 13
REMARK SMILES IDX 6 14 5 15 8 16 90 17 85 18 86 19 87 20 88 21 89 22 16 23
REMARK SMILES IDX 17 24 18 26 19 27 20 28 84 29 21 30 83 31 22 32 23 33 24 34
REMARK SMILES IDX 77 35 25 36 82 37 76 38 78 39 26 40 81 41 75 42 74 43 27 45
REMARK SMILES IDX 61 46 40 47 60 48 41 49 44 50 59 51 79 52 42 53 43 54 58 56
REMARK SMILES IDX 80 57 45 58 28 59 29 60 38 61 30 62 31 63 37 64 39 65 32 66
REMARK SMILES IDX 33 67 34 68 35 69 36 70 62 71 63 72 72 73 64 74 65 75 71 76
REMARK SMILES IDX 73 77 66 78 67 79 68 80 69 81 70 82 46 83 47 84 56 85 48 86
REMARK SMILES IDX 49 87 55 88 57 89 50 90 51 91 52 92 53 93 54 94
REMARK H PARENT 12 7 16 25 78 44 44 55
REMARK Flexibility Score: inf
ROOT
ATOM      1  C   UNL A   1      40.054  23.203  27.106  1.00  0.00     0.118 C 
ENDROOT
BRANCH   1   2
ATOM      2  C   UNL A   1      39.270  22.051  26.489  1.00  0.00     0.042 C 
BRANCH   2   3
ATOM      3  C   UNL A   1      38.069  22.521  25.681  1.00  0.00     0.118 C 
BRANCH   3   4
ATOM      4  N   UNL A   1      36.813  22.021  26.218  1.00  0.00    -0.352 N 
ATOM      5  C   UNL A   1      35.493  22.221  26.002  1.00  0.00     0.251 C 
ATOM      6  O   UNL A   1      34.741  21.533  26.701  1.00  0.00    -0.270 OA
ATOM      7  H   UNL A   1      36.965  21.358  26.930  1.00  0.00     0.163 HD
BRANCH   5   8
ATOM      8  C   UNL A   1      34.911  23.174  25.011  1.00  0.00     0.067 C 
ATOM      9  C   UNL A   1      32.843  28.987  24.586  1.00  0.00     0.044 C 
ATOM     10  C   UNL A   1      33.283  27.641  24.094  1.00  0.00    -0.050 A 
ATOM     11  C   UNL A   1      33.133  27.298  22.744  1.00  0.00     0.007 A 
ATOM     12  C   UNL A   1      33.805  26.694  24.988  1.00  0.00     0.015 A 
ATOM     13  C   UNL A   1      33.519  26.037  22.290  1.00  0.00     0.047 A 
ATOM     14  C   UNL A   1      34.184  25.426  24.536  1.00  0.00     0.017 A 
ATOM     15  C   UNL A   1      34.032  25.105  23.187  1.00  0.00     0.128 A 
ATOM     16  C   UNL A   1      34.766  24.441  25.440  1.00  0.00     0.025 C 
ATOM     17  O   UNL A   1      34.406  23.895  22.675  1.00  0.00    -0.475 OA
ATOM     18  C   UNL A   1      34.467  22.795  23.625  1.00  0.00     0.314 C 
BRANCH  18  19
ATOM     19  C   UNL A   1      33.116  22.051  23.622  1.00  0.00     0.429 C 
ATOM     20  F   UNL A   1      32.569  22.063  22.380  1.00  0.00    -0.167 F 
ATOM     21  F   UNL A   1      33.237  20.748  23.973  1.00  0.00    -0.167 F 
ATOM     22  F   UNL A   1      32.213  22.597  24.467  1.00  0.00    -0.167 F 
ENDBRANCH  18  19
ENDBRANCH   5   8
ENDBRANCH   3   4
ENDBRANCH   2   3
ENDBRANCH   1   2
BRANCH   1  23
ATOM     23  N   UNL A   1      40.660  24.069  26.097  1.00  0.00    -0.352 N 
ATOM     24  C   UNL A   1      40.968  25.409  26.137  1.00  0.00     0.251 C 
ATOM     25  H   UNL A   1      40.883  23.621  25.250  1.00  0.00     0.163 HD
ATOM     26  O   UNL A   1      41.289  25.985  25.101  1.00  0.00    -0.269 OA
BRANCH  24  27
ATOM     27  C   UNL A   1      40.896  26.152  27.412  1.00  0.00     0.039 A 
ATOM     28  C   UNL A   1      39.810  25.982  28.268  1.00  0.00     0.014 A 
ATOM     29  C   UNL A   1      41.929  27.030  27.760  1.00  0.00     0.014 A 
ATOM     30  C   UNL A   1      39.656  26.827  29.358  1.00  0.00     0.010 A 
ATOM     31  C   UNL A   1      41.824  27.801  28.922  1.00  0.00     0.010 A 
ATOM     32  C   UNL A   1      40.661  27.744  29.704  1.00  0.00    -0.014 A 
BRANCH  32  33
ATOM     33  C   UNL A   1      40.451  28.626  30.883  1.00  0.00     0.031 A 
ATOM     34  C   UNL A   1      41.390  28.579  32.060  1.00  0.00     0.074 A 
ATOM     35  C   UNL A   1      39.464  29.545  30.839  1.00  0.00     0.049 A 
ATOM     36  N   UNL A   1      41.391  29.318  33.139  1.00  0.00    -0.248 NA
ATOM     37  C   UNL A   1      42.465  27.574  32.026  1.00  0.00     0.031 C 
ATOM     38  C   UNL A   1      38.501  29.692  29.743  1.00  0.00     0.029 A 
ATOM     39  N   UNL A   1      39.136  30.557  31.702  1.00  0.00    -0.354 N 
ATOM     40  C   UNL A   1      42.449  28.860  33.916  1.00  0.00     0.074 A 
ATOM     41  C   UNL A   1      43.052  27.758  33.201  1.00  0.00     0.031 C 
ATOM     42  C   UNL A   1      37.755  30.785  29.956  1.00  0.00     0.029 A 
ATOM     43  C   UNL A   1      38.131  31.372  31.237  1.00  0.00     0.049 A 
ATOM     44  H   UNL A   1      39.578  30.689  32.573  1.00  0.00     0.167 HD
ATOM     45  C   UNL A   1      42.888  29.328  35.110  1.00  0.00     0.037 A 
ATOM     46  C   UNL A   1      37.569  32.469  31.780  1.00  0.00     0.037 A 
ATOM     47  C   UNL A   1      42.301  30.447  35.802  1.00  0.00     0.049 A 
ATOM     48  C   UNL A   1      38.050  32.942  33.120  1.00  0.00     0.074 A 
ATOM     49  C   UNL A   1      42.669  30.994  37.019  1.00  0.00     0.029 A 
ATOM     50  N   UNL A   1      41.231  31.195  35.334  1.00  0.00    -0.354 N 
ATOM     51  N   UNL A   1      39.033  32.476  33.852  1.00  0.00    -0.248 NA
ATOM     52  C   UNL A   1      37.331  34.073  33.722  1.00  0.00     0.031 C 
ATOM     53  C   UNL A   1      41.804  32.055  37.302  1.00  0.00     0.029 A 
ATOM     54  C   UNL A   1      40.919  32.193  36.244  1.00  0.00     0.049 A 
ATOM     55  H   UNL A   1      40.763  31.041  34.483  1.00  0.00     0.167 HD
ATOM     56  C   UNL A   1      39.052  33.257  35.000  1.00  0.00     0.074 A 
ATOM     57  C   UNL A   1      37.998  34.241  34.855  1.00  0.00     0.031 C 
ATOM     58  C   UNL A   1      39.864  33.160  36.082  1.00  0.00     0.037 A 
BRANCH  45  59
ATOM     59  C   UNL A   1      44.060  28.636  35.749  1.00  0.00     0.058 A 
ATOM     60  C   UNL A   1      45.379  29.041  35.493  1.00  0.00     0.135 A 
ATOM     61  C   UNL A   1      43.861  27.597  36.671  1.00  0.00     0.135 A 
ATOM     62  F   UNL A   1      45.627  30.017  34.606  1.00  0.00    -0.206 F 
ATOM     63  C   UNL A   1      46.462  28.429  36.118  1.00  0.00     0.059 A 
ATOM     64  C   UNL A   1      44.927  26.984  37.324  1.00  0.00     0.059 A 
ATOM     65  F   UNL A   1      42.619  27.169  36.950  1.00  0.00    -0.206 F 
ATOM     66  C   UNL A   1      46.225  27.403  37.034  1.00  0.00     0.060 A 
BRANCH  66  67
ATOM     67  S   UNL A   1      47.641  26.631  37.848  1.00  0.00     0.124 S 
ATOM     68  O   UNL A   1      47.062  25.369  38.302  1.00  0.00    -0.237 OA
ATOM     69  O   UNL A   1      48.607  26.528  36.759  1.00  0.00    -0.237 OA
ATOM     70  O   UNL A   1      47.986  27.578  38.903  1.00  0.00    -0.744 OA
ENDBRANCH  66  67
ENDBRANCH  45  59
BRANCH  46  71
ATOM     71  C   UNL A   1      36.490  33.186  31.052  1.00  0.00     0.058 A 
ATOM     72  C   UNL A   1      35.153  33.082  31.462  1.00  0.00     0.135 A 
ATOM     73  C   UNL A   1      36.775  34.013  29.955  1.00  0.00     0.135 A 
ATOM     74  F   UNL A   1      34.829  32.298  32.502  1.00  0.00    -0.206 F 
ATOM     75  C   UNL A   1      34.135  33.770  30.809  1.00  0.00     0.059 A 
ATOM     76  C   UNL A   1      35.779  34.731  29.301  1.00  0.00     0.059 A 
ATOM     77  F   UNL A   1      38.040  34.158  29.533  1.00  0.00    -0.206 F 
ATOM     78  C   UNL A   1      34.460  34.596  29.731  1.00  0.00     0.060 A 
BRANCH  78  79
ATOM     79  S   UNL A   1      33.141  35.531  28.926  1.00  0.00     0.124 S 
ATOM     80  O   UNL A   1      32.490  34.495  28.134  1.00  0.00    -0.237 OA
ATOM     81  O   UNL A   1      32.382  36.035  30.066  1.00  0.00    -0.237 OA
ATOM     82  O   UNL A   1      33.866  36.546  28.167  1.00  0.00    -0.744 OA
ENDBRANCH  78  79
ENDBRANCH  46  71
BRANCH  58  83
ATOM     83  C   UNL A   1      39.645  34.143  37.194  1.00  0.00     0.058 A 
ATOM     84  C   UNL A   1      38.894  33.801  38.329  1.00  0.00     0.135 A 
ATOM     85  C   UNL A   1      40.250  35.409  37.159  1.00  0.00     0.135 A 
ATOM     86  F   UNL A   1      38.290  32.605  38.404  1.00  0.00    -0.206 F 
ATOM     87  C   UNL A   1      38.743  34.686  39.390  1.00  0.00     0.059 A 
ATOM     88  C   UNL A   1      40.129  36.302  38.218  1.00  0.00     0.059 A 
ATOM     89  F   UNL A   1      40.983  35.778  36.096  1.00  0.00    -0.206 F 
ATOM     90  C   UNL A   1      39.369  35.934  39.327  1.00  0.00     0.060 A 
BRANCH  90  91
ATOM     91  S   UNL A   1      39.208  37.050  40.736  1.00  0.00     0.124 S 
ATOM     92  O   UNL A   1      38.350  38.094  40.188  1.00  0.00    -0.237 OA
ATOM     93  O   UNL A   1      38.596  36.192  41.746  1.00  0.00    -0.237 OA
ATOM     94  O   UNL A   1      40.585  37.449  41.013  1.00  0.00    -0.744 OA
ENDBRANCH  90  91
ENDBRANCH  58  83
ENDBRANCH  32  33
ENDBRANCH  24  27
ENDBRANCH   1  23
TORSDOF 14
ENDMDL
MODEL 3
REMARK VINA RESULT:     -11.4      2.602      8.839
REMARK SMILES Cc1ccc2c(c1)C=C(C(=O)NCCCNC(=O)c1ccc(-c3c4nc(c(-c5c(F)cc(S(=O)(=O)[O-])cc5F)c5ccc([nH]5)c(-c5c(F)cc(S(=O)(=O)[O-])cc5F)c5nc(c(-c6c(F)cc(S(=O)(=O)[O-])cc6F)c6ccc3[nH]6)C=C5)C=C4)cc1)[C@@H](C(F)(F)F)O2
REMARK SMILES IDX 15 1 14 2 13 3 12 4 10 5 11 6 9 8 1 9 2 10 3 11 7 12 4 13
REMARK SMILES IDX 6 14 5 15 8 16 90 17 85 18 86 19 87 20 88 21 89 22 16 23
REMARK SMILES IDX 17 24 18 26 19 27 20 28 84 29 21 30 83 31 22 32 23 33 24 34
REMARK SMILES IDX 77 35 25 36 82 37 76 38 78 39 26 40 81 41 75 42 74 43 27 45
REMARK SMILES IDX 61 46 40 47 60 48 41 49 44 50 59 51 79 52 42 53 43 54 58 56
REMARK SMILES IDX 80 57 45 58 28 59 29 60 38 61 30 62 31 63 37 64 39 65 32 66
REMARK SMILES IDX 33 67 34 68 35 69 36 70 62 71 63 72 72 73 64 74 65 75 71 76
REMARK SMILES IDX 73 77 66 78 67 79 68 80 69 81 70 82 46 83 47 84 56 85 48 86
REMARK SMILES IDX 49 87 55 88 57 89 50 90 51 91 52 92 53 93 54 94
REMARK H PARENT 12 7 16 25 78 44 44 55
REMARK Flexibility Score: inf
ROOT
ATOM      1  C   UNL A   1      35.538  31.393  28.313  1.00  0.00     0.118 C 
ENDROOT
BRANCH   1   2
ATOM      2  C   UNL A   1      34.175  31.228  27.652  1.00  0.00     0.042 C 
BRANCH   2   3
ATOM      3  C   UNL A   1      33.986  29.856  27.022  1.00  0.00     0.118 C 
BRANCH   3   4
ATOM      4  N   UNL A   1      32.824  29.161  27.553  1.00  0.00    -0.352 N 
ATOM      5  C   UNL A   1      32.072  28.088  27.219  1.00  0.00     0.251 C 
ATOM      6  O   UNL A   1      31.153  27.829  28.004  1.00  0.00    -0.270 OA
ATOM      7  H   UNL A   1      32.497  29.587  28.378  1.00  0.00     0.163 HD
BRANCH   5   8
ATOM      8  C   UNL A   1      32.276  27.227  26.016  1.00  0.00     0.067 C 
ATOM      9  C   UNL A   1      36.189  23.012  23.740  1.00  0.00     0.044 C 
ATOM     10  C   UNL A   1      34.934  23.830  23.816  1.00  0.00    -0.050 A 
ATOM     11  C   UNL A   1      33.999  23.788  22.774  1.00  0.00     0.007 A 
ATOM     12  C   UNL A   1      34.707  24.682  24.907  1.00  0.00     0.015 A 
ATOM     13  C   UNL A   1      32.844  24.568  22.831  1.00  0.00     0.047 A 
ATOM     14  C   UNL A   1      33.554  25.472  24.962  1.00  0.00     0.017 A 
ATOM     15  C   UNL A   1      32.631  25.411  23.918  1.00  0.00     0.128 A 
ATOM     16  C   UNL A   1      33.278  26.332  26.105  1.00  0.00     0.025 C 
ATOM     17  O   UNL A   1      31.472  26.134  23.920  1.00  0.00    -0.475 OA
ATOM     18  C   UNL A   1      31.473  27.330  24.749  1.00  0.00     0.314 C 
BRANCH  18  19
ATOM     19  C   UNL A   1      31.885  28.541  23.887  1.00  0.00     0.429 C 
ATOM     20  F   UNL A   1      31.321  29.679  24.365  1.00  0.00    -0.167 F 
ATOM     21  F   UNL A   1      33.224  28.750  23.885  1.00  0.00    -0.167 F 
ATOM     22  F   UNL A   1      31.511  28.417  22.593  1.00  0.00    -0.167 F 
ENDBRANCH  18  19
ENDBRANCH   5   8
ENDBRANCH   3   4
ENDBRANCH   2   3
ENDBRANCH   1   2
BRANCH   1  23
ATOM     23  N   UNL A   1      35.506  31.088  29.742  1.00  0.00    -0.352 N 
ATOM     24  C   UNL A   1      36.344  30.315  30.510  1.00  0.00     0.251 C 
ATOM     25  H   UNL A   1      34.762  31.504  30.235  1.00  0.00     0.163 HD
ATOM     26  O   UNL A   1      36.017  30.029  31.659  1.00  0.00    -0.269 OA
BRANCH  24  27
ATOM     27  C   UNL A   1      37.619  29.818  29.953  1.00  0.00     0.039 A 
ATOM     28  C   UNL A   1      38.569  29.227  30.783  1.00  0.00     0.014 A 
ATOM     29  C   UNL A   1      37.869  29.940  28.581  1.00  0.00     0.014 A 
ATOM     30  C   UNL A   1      39.835  28.946  30.288  1.00  0.00     0.010 A 
ATOM     31  C   UNL A   1      39.109  29.551  28.063  1.00  0.00     0.010 A 
ATOM     32  C   UNL A   1      40.122  29.099  28.922  1.00  0.00    -0.014 A 
BRANCH  32  33
ATOM     33  C   UNL A   1      41.492  28.782  28.438  1.00  0.00     0.031 A 
ATOM     34  C   UNL A   1      42.599  29.799  28.533  1.00  0.00     0.074 A 
ATOM     35  C   UNL A   1      41.756  27.531  28.008  1.00  0.00     0.049 A 
ATOM     36  N   UNL A   1      43.862  29.670  28.218  1.00  0.00    -0.248 NA
ATOM     37  C   UNL A   1      42.247  31.134  29.044  1.00  0.00     0.031 C 
ATOM     38  C   UNL A   1      40.764  26.458  27.887  1.00  0.00     0.029 A 
ATOM     39  N   UNL A   1      42.934  26.933  27.645  1.00  0.00    -0.354 N 
ATOM     40  C   UNL A   1      44.450  30.903  28.476  1.00  0.00     0.074 A 
ATOM     41  C   UNL A   1      43.401  31.781  28.944  1.00  0.00     0.031 C 
ATOM     42  C   UNL A   1      41.389  25.315  27.568  1.00  0.00     0.029 A 
ATOM     43  C   UNL A   1      42.810  25.587  27.387  1.00  0.00     0.049 A 
ATOM     44  H   UNL A   1      43.788  27.419  27.575  1.00  0.00     0.167 HD
ATOM     45  C   UNL A   1      45.749  31.265  28.349  1.00  0.00     0.037 A 
ATOM     46  C   UNL A   1      43.735  24.672  27.039  1.00  0.00     0.037 A 
ATOM     47  C   UNL A   1      46.795  30.377  27.910  1.00  0.00     0.049 A 
ATOM     48  C   UNL A   1      45.159  25.110  26.868  1.00  0.00     0.074 A 
ATOM     49  C   UNL A   1      48.141  30.649  27.743  1.00  0.00     0.029 A 
ATOM     50  N   UNL A   1      46.613  29.041  27.580  1.00  0.00    -0.354 N 
ATOM     51  N   UNL A   1      45.689  26.289  27.089  1.00  0.00    -0.248 NA
ATOM     52  C   UNL A   1      46.109  24.102  26.379  1.00  0.00     0.031 C 
ATOM     53  C   UNL A   1      48.770  29.487  27.283  1.00  0.00     0.029 A 
ATOM     54  C   UNL A   1      47.821  28.480  27.199  1.00  0.00     0.049 A 
ATOM     55  H   UNL A   1      45.754  28.563  27.612  1.00  0.00     0.167 HD
ATOM     56  C   UNL A   1      47.034  26.166  26.766  1.00  0.00     0.074 A 
ATOM     57  C   UNL A   1      47.243  24.790  26.359  1.00  0.00     0.031 C 
ATOM     58  C   UNL A   1      48.006  27.110  26.795  1.00  0.00     0.037 A 
BRANCH  45  59
ATOM     59  C   UNL A   1      46.121  32.682  28.687  1.00  0.00     0.058 A 
ATOM     60  C   UNL A   1      46.142  33.688  27.709  1.00  0.00     0.135 A 
ATOM     61  C   UNL A   1      46.403  33.050  30.012  1.00  0.00     0.135 A 
ATOM     62  F   UNL A   1      45.899  33.387  26.424  1.00  0.00    -0.206 F 
ATOM     63  C   UNL A   1      46.444  35.008  28.030  1.00  0.00     0.059 A 
ATOM     64  C   UNL A   1      46.687  34.369  30.361  1.00  0.00     0.059 A 
ATOM     65  F   UNL A   1      46.399  32.127  30.986  1.00  0.00    -0.206 F 
ATOM     66  C   UNL A   1      46.713  35.339  29.360  1.00  0.00     0.060 A 
BRANCH  66  67
ATOM     67  S   UNL A   1      47.087  37.060  29.760  1.00  0.00     0.124 S 
ATOM     68  O   UNL A   1      46.699  37.736  28.525  1.00  0.00    -0.237 OA
ATOM     69  O   UNL A   1      46.226  37.305  30.913  1.00  0.00    -0.237 OA
ATOM     70  O   UNL A   1      48.519  37.041  30.042  1.00  0.00    -0.744 OA
ENDBRANCH  66  67
ENDBRANCH  45  59
BRANCH  46  71
ATOM     71  C   UNL A   1      43.333  23.257  26.828  1.00  0.00     0.058 A 
ATOM     72  C   UNL A   1      43.237  22.721  25.536  1.00  0.00     0.135 A 
ATOM     73  C   UNL A   1      43.070  22.404  27.912  1.00  0.00     0.135 A 
ATOM     74  F   UNL A   1      43.473  23.498  24.467  1.00  0.00    -0.206 F 
ATOM     75  C   UNL A   1      42.891  21.390  25.324  1.00  0.00     0.059 A 
ATOM     76  C   UNL A   1      42.748  21.064  27.726  1.00  0.00     0.059 A 
ATOM     77  F   UNL A   1      43.163  22.865  29.168  1.00  0.00    -0.206 F 
ATOM     78  C   UNL A   1      42.652  20.568  26.427  1.00  0.00     0.060 A 
BRANCH  78  79
ATOM     79  S   UNL A   1      42.262  18.828  26.144  1.00  0.00     0.124 S 
ATOM     80  O   UNL A   1      40.859  18.903  25.752  1.00  0.00    -0.237 OA
ATOM     81  O   UNL A   1      43.202  18.469  25.087  1.00  0.00    -0.237 OA
ATOM     82  O   UNL A   1      42.523  18.211  27.441  1.00  0.00    -0.744 OA
ENDBRANCH  78  79
ENDBRANCH  46  71
BRANCH  58  83
ATOM     83  C   UNL A   1      49.384  26.690  26.375  1.00  0.00     0.058 A 
ATOM     84  C   UNL A   1      50.250  26.040  27.268  1.00  0.00     0.135 A 
ATOM     85  C   UNL A   1      49.814  26.871  25.051  1.00  0.00     0.135 A 
ATOM     86  F   UNL A   1      49.885  25.852  28.545  1.00  0.00    -0.206 F 
ATOM     87  C   UNL A   1      51.503  25.593  26.864  1.00  0.00     0.059 A 
ATOM     88  C   UNL A   1      51.054  26.413  24.620  1.00  0.00     0.059 A 
ATOM     89  F   UNL A   1      49.017  27.482  24.159  1.00  0.00    -0.206 F 
ATOM     90  C   UNL A   1      51.894  25.779  25.536  1.00  0.00     0.060 A 
BRANCH  90  91
ATOM     91  S   UNL A   1      53.501  25.144  25.015  1.00  0.00     0.124 S 
ATOM     92  O   UNL A   1      53.367  23.723  25.313  1.00  0.00    -0.237 OA
ATOM     93  O   UNL A   1      53.531  25.494  23.598  1.00  0.00    -0.237 OA
ATOM     94  O   UNL A   1      54.444  25.876  25.856  1.00  0.00    -0.744 OA
ENDBRANCH  90  91
ENDBRANCH  58  83
ENDBRANCH  32  33
ENDBRANCH  24  27
ENDBRANCH   1  23
TORSDOF 14
ENDMDL
