MODEL 1
REMARK VINA RESULT:     -12.0      0.000      0.000
REMARK SMILES C[C@@H]1C[N@H+]2CCCC[C@@H]2CN1C(=O)NC(=O)CCC(=O)NCCCNC(=O)c1ccc(-c2c3nc(c(-c4c(F)cc(S(=O)(=O)[O-])cc4F)c4ccc([nH]4)c(-c4c(F)cc(S(=O)(=O)[O-])cc4F)c4nc(c(-c5c(F)cc(S(=O)(=O)[O-])cc5F)c5ccc2[nH]5)C=C4)C=C3)cc1
REMARK SMILES IDX 23 1 22 2 21 3 19 4 20 5 18 7 17 8 15 9 12 10 13 11 14 12
REMARK SMILES IDX 16 14 11 15 1 16 2 17 3 18 4 19 10 20 5 21 9 22 6 24 8 25
REMARK SMILES IDX 7 26 24 27 25 28 26 29 27 31 28 32 29 33 93 34 30 35 92 36
REMARK SMILES IDX 31 37 32 38 33 39 86 40 34 41 91 42 85 43 87 44 35 45 90 46
REMARK SMILES IDX 84 47 83 48 36 50 70 51 49 52 69 53 50 54 53 55 68 56 88 57
REMARK SMILES IDX 51 58 52 59 67 61 89 62 54 63 37 64 38 65 47 66 39 67 40 68
REMARK SMILES IDX 46 69 48 70 41 71 42 72 43 73 44 74 45 75 71 76 72 77 81 78
REMARK SMILES IDX 73 79 74 80 80 81 82 82 75 83 76 84 77 85 78 86 79 87 55 88
REMARK SMILES IDX 56 89 65 90 57 91 58 92 64 93 66 94 59 95 60 96 61 97 62 98
REMARK SMILES IDX 63 99
REMARK H PARENT 21 6 14 13 4 23 25 30 87 49 53 60
REMARK Flexibility Score: inf
ROOT
ATOM      1  C   UNL A   1      38.982  22.620  26.510  1.00  0.00     0.042 C 
ENDROOT
BRANCH   1   2
ATOM      2  C   UNL A   1      37.981  23.627  25.950  1.00  0.00     0.117 C 
BRANCH   2   3
ATOM      3  N   UNL A   1      37.633  23.386  24.558  1.00  0.00    -0.356 N 
ATOM      4  C   UNL A   1      36.416  23.250  23.973  1.00  0.00     0.220 C 
ATOM      5  O   UNL A   1      36.336  23.265  22.745  1.00  0.00    -0.275 OA
ATOM      6  H   UNL A   1      38.400  23.308  23.944  1.00  0.00     0.163 HD
BRANCH   4   7
ATOM      7  C   UNL A   1      35.176  23.126  24.813  1.00  0.00     0.110 C 
BRANCH   7   8
ATOM      8  C   UNL A   1      34.359  24.373  25.101  1.00  0.00     0.110 C 
BRANCH   8   9
ATOM      9  C   UNL A   1      33.120  24.331  25.970  1.00  0.00     0.228 C 
ATOM     10  C   UNL A   1      31.713  26.372  25.656  1.00  0.00     0.324 C 
ATOM     11  O   UNL A   1      30.493  26.224  25.590  1.00  0.00    -0.248 OA
ATOM     12  N   UNL A   1      32.459  25.466  26.385  1.00  0.00    -0.278 N 
ATOM     13  H   UNL A   1      32.526  25.660  27.347  1.00  0.00     0.174 HD
ATOM     14  O   UNL A   1      32.759  23.245  26.435  1.00  0.00    -0.275 OA
BRANCH  10  15
ATOM     15  N   UNL A   1      32.344  27.519  25.237  1.00  0.00    -0.310 N 
ATOM     16  C   UNL A   1      31.768  28.844  23.217  1.00  0.00     0.037 C 
ATOM     17  C   UNL A   1      31.568  28.667  24.722  1.00  0.00     0.139 C 
ATOM     18  C   UNL A   1      31.874  29.984  25.539  1.00  0.00     0.287 C 
ATOM     19  N   UNL A   1      33.254  30.154  26.088  1.00  0.00    -0.329 N 
ATOM     20  C   UNL A   1      33.721  27.844  25.539  1.00  0.00     0.186 C 
ATOM     21  C   UNL A   1      33.291  31.214  27.107  1.00  0.00     0.262 C 
ATOM     22  C   UNL A   1      33.728  28.876  26.658  1.00  0.00     0.203 C 
ATOM     23  H   UNL A   1      33.874  30.432  25.327  1.00  0.00     0.348 HD
ATOM     24  C   UNL A   1      34.686  31.359  27.730  1.00  0.00     0.062 C 
ATOM     25  C   UNL A   1      35.131  28.958  27.264  1.00  0.00     0.067 C 
ATOM     26  C   UNL A   1      35.183  30.044  28.321  1.00  0.00     0.012 C 
ENDBRANCH  10  15
ENDBRANCH   8   9
ENDBRANCH   7   8
ENDBRANCH   4   7
ENDBRANCH   2   3
ENDBRANCH   1   2
BRANCH   1  27
ATOM     27  C   UNL A   1      40.231  23.235  27.124  1.00  0.00     0.118 C 
BRANCH  27  28
ATOM     28  N   UNL A   1      41.030  23.932  26.134  1.00  0.00    -0.352 N 
ATOM     29  C   UNL A   1      41.415  25.248  26.082  1.00  0.00     0.251 C 
ATOM     30  H   UNL A   1      41.343  23.375  25.384  1.00  0.00     0.163 HD
ATOM     31  O   UNL A   1      41.853  25.692  25.022  1.00  0.00    -0.269 OA
BRANCH  29  32
ATOM     32  C   UNL A   1      41.300  26.142  27.262  1.00  0.00     0.039 A 
ATOM     33  C   UNL A   1      40.184  26.002  28.095  1.00  0.00     0.014 A 
ATOM     34  C   UNL A   1      42.209  27.175  27.507  1.00  0.00     0.014 A 
ATOM     35  C   UNL A   1      39.997  26.872  29.176  1.00  0.00     0.010 A 
ATOM     36  C   UNL A   1      42.063  27.994  28.630  1.00  0.00     0.010 A 
ATOM     37  C   UNL A   1      40.942  27.869  29.464  1.00  0.00    -0.014 A 
BRANCH  37  38
ATOM     38  C   UNL A   1      40.745  28.809  30.602  1.00  0.00     0.031 A 
ATOM     39  C   UNL A   1      41.590  28.685  31.847  1.00  0.00     0.074 A 
ATOM     40  C   UNL A   1      39.789  29.757  30.536  1.00  0.00     0.049 A 
ATOM     41  N   UNL A   1      41.538  29.383  32.954  1.00  0.00    -0.248 NA
ATOM     42  C   UNL A   1      42.611  27.627  31.856  1.00  0.00     0.031 C 
ATOM     43  C   UNL A   1      38.877  29.961  29.409  1.00  0.00     0.029 A 
ATOM     44  N   UNL A   1      39.421  30.724  31.439  1.00  0.00    -0.354 N 
ATOM     45  C   UNL A   1      42.503  28.838  33.794  1.00  0.00     0.074 A 
ATOM     46  C   UNL A   1      43.095  27.724  33.086  1.00  0.00     0.031 C 
ATOM     47  C   UNL A   1      38.070  31.000  29.679  1.00  0.00     0.029 A 
ATOM     48  C   UNL A   1      38.382  31.516  31.010  1.00  0.00     0.049 A 
ATOM     49  H   UNL A   1      39.860  30.839  32.313  1.00  0.00     0.167 HD
ATOM     50  C   UNL A   1      42.880  29.240  35.031  1.00  0.00     0.037 A 
ATOM     51  C   UNL A   1      37.746  32.537  31.617  1.00  0.00     0.037 A 
ATOM     52  C   UNL A   1      42.317  30.371  35.723  1.00  0.00     0.049 A 
ATOM     53  C   UNL A   1      38.188  32.973  32.988  1.00  0.00     0.074 A 
ATOM     54  C   UNL A   1      42.674  30.891  36.955  1.00  0.00     0.029 A 
ATOM     55  N   UNL A   1      41.280  31.158  35.244  1.00  0.00    -0.354 N 
ATOM     56  N   UNL A   1      39.141  32.478  33.743  1.00  0.00    -0.248 NA
ATOM     57  C   UNL A   1      37.473  34.108  33.589  1.00  0.00     0.031 C 
ATOM     58  C   UNL A   1      41.829  31.971  37.237  1.00  0.00     0.029 A 
ATOM     59  C   UNL A   1      40.974  32.150  36.162  1.00  0.00     0.049 A 
ATOM     60  H   UNL A   1      40.828  31.032  34.378  1.00  0.00     0.167 HD
ATOM     61  C   UNL A   1      39.156  33.258  34.895  1.00  0.00     0.074 A 
ATOM     62  C   UNL A   1      38.125  34.263  34.734  1.00  0.00     0.031 C 
ATOM     63  C   UNL A   1      39.951  33.150  35.987  1.00  0.00     0.037 A 
BRANCH  50  64
ATOM     64  C   UNL A   1      43.961  28.455  35.723  1.00  0.00     0.058 A 
ATOM     65  C   UNL A   1      45.314  28.821  35.627  1.00  0.00     0.135 A 
ATOM     66  C   UNL A   1      43.640  27.348  36.525  1.00  0.00     0.135 A 
ATOM     67  F   UNL A   1      45.679  29.863  34.863  1.00  0.00    -0.206 F 
ATOM     68  C   UNL A   1      46.312  28.101  36.276  1.00  0.00     0.059 A 
ATOM     69  C   UNL A   1      44.619  26.628  37.206  1.00  0.00     0.059 A 
ATOM     70  F   UNL A   1      42.363  26.955  36.656  1.00  0.00    -0.206 F 
ATOM     71  C   UNL A   1      45.954  27.004  37.062  1.00  0.00     0.060 A 
BRANCH  71  72
ATOM     72  S   UNL A   1      47.259  26.081  37.902  1.00  0.00     0.124 S 
ATOM     73  O   UNL A   1      46.954  26.356  39.302  1.00  0.00    -0.237 OA
ATOM     74  O   UNL A   1      47.014  24.714  37.457  1.00  0.00    -0.237 OA
ATOM     75  O   UNL A   1      48.485  26.691  37.396  1.00  0.00    -0.744 OA
ENDBRANCH  71  72
ENDBRANCH  50  64
BRANCH  51  76
ATOM     76  C   UNL A   1      36.632  33.235  30.923  1.00  0.00     0.058 A 
ATOM     77  C   UNL A   1      35.300  33.040  31.317  1.00  0.00     0.135 A 
ATOM     78  C   UNL A   1      36.876  34.117  29.859  1.00  0.00     0.135 A 
ATOM     79  F   UNL A   1      35.016  32.199  32.324  1.00  0.00    -0.206 F 
ATOM     80  C   UNL A   1      34.247  33.679  30.672  1.00  0.00     0.059 A 
ATOM     81  C   UNL A   1      35.842  34.788  29.213  1.00  0.00     0.059 A 
ATOM     82  F   UNL A   1      38.133  34.349  29.452  1.00  0.00    -0.206 F 
ATOM     83  C   UNL A   1      34.529  34.553  29.621  1.00  0.00     0.060 A 
BRANCH  83  84
ATOM     84  S   UNL A   1      33.159  35.417  28.819  1.00  0.00     0.124 S 
ATOM     85  O   UNL A   1      33.868  36.399  28.008  1.00  0.00    -0.237 OA
ATOM     86  O   UNL A   1      32.501  34.339  28.088  1.00  0.00    -0.237 OA
ATOM     87  O   UNL A   1      32.399  35.955  29.944  1.00  0.00    -0.744 OA
ENDBRANCH  83  84
ENDBRANCH  51  76
BRANCH  63  88
ATOM     88  C   UNL A   1      39.765  34.160  37.084  1.00  0.00     0.058 A 
ATOM     89  C   UNL A   1      39.017  33.869  38.235  1.00  0.00     0.135 A 
ATOM     90  C   UNL A   1      40.386  35.418  37.006  1.00  0.00     0.135 A 
ATOM     91  F   UNL A   1      38.398  32.684  38.357  1.00  0.00    -0.206 F 
ATOM     92  C   UNL A   1      38.874  34.797  39.263  1.00  0.00     0.059 A 
ATOM     93  C   UNL A   1      40.276  36.351  38.032  1.00  0.00     0.059 A 
ATOM     94  F   UNL A   1      41.120  35.744  35.930  1.00  0.00    -0.206 F 
ATOM     95  C   UNL A   1      39.508  36.036  39.152  1.00  0.00     0.060 A 
BRANCH  95  96
ATOM     96  S   UNL A   1      39.344  37.218  40.508  1.00  0.00     0.124 S 
ATOM     97  O   UNL A   1      38.677  38.334  39.845  1.00  0.00    -0.237 OA
ATOM     98  O   UNL A   1      38.537  36.479  41.473  1.00  0.00    -0.237 OA
ATOM     99  O   UNL A   1      40.726  37.462  40.913  1.00  0.00    -0.744 OA
ENDBRANCH  95  96
ENDBRANCH  63  88
ENDBRANCH  37  38
ENDBRANCH  29  32
ENDBRANCH  27  28
ENDBRANCH   1  27
TORSDOF 16
ENDMDL
MODEL 2
REMARK VINA RESULT:     -11.8      3.091      9.596
REMARK SMILES C[C@@H]1C[N@H+]2CCCC[C@@H]2CN1C(=O)NC(=O)CCC(=O)NCCCNC(=O)c1ccc(-c2c3nc(c(-c4c(F)cc(S(=O)(=O)[O-])cc4F)c4ccc([nH]4)c(-c4c(F)cc(S(=O)(=O)[O-])cc4F)c4nc(c(-c5c(F)cc(S(=O)(=O)[O-])cc5F)c5ccc2[nH]5)C=C4)C=C3)cc1
REMARK SMILES IDX 23 1 22 2 21 3 19 4 20 5 18 7 17 8 15 9 12 10 13 11 14 12
REMARK SMILES IDX 16 14 11 15 1 16 2 17 3 18 4 19 10 20 5 21 9 22 6 24 8 25
REMARK SMILES IDX 7 26 24 27 25 28 26 29 27 31 28 32 29 33 93 34 30 35 92 36
REMARK SMILES IDX 31 37 32 38 33 39 86 40 34 41 91 42 85 43 87 44 35 45 90 46
REMARK SMILES IDX 84 47 83 48 36 50 70 51 49 52 69 53 50 54 53 55 68 56 88 57
REMARK SMILES IDX 51 58 52 59 67 61 89 62 54 63 37 64 38 65 47 66 39 67 40 68
REMARK SMILES IDX 46 69 48 70 41 71 42 72 43 73 44 74 45 75 71 76 72 77 81 78
REMARK SMILES IDX 73 79 74 80 80 81 82 82 75 83 76 84 77 85 78 86 79 87 55 88
REMARK SMILES IDX 56 89 65 90 57 91 58 92 64 93 66 94 59 95 60 96 61 97 62 98
REMARK SMILES IDX 63 99
REMARK H PARENT 21 6 14 13 4 23 25 30 87 49 53 60
REMARK Flexibility Score: inf
ROOT
ATOM      1  C   UNL A   1      32.839  27.561  26.455  1.00  0.00     0.042 C 
ENDROOT
BRANCH   1   2
ATOM      2  C   UNL A   1      31.862  27.130  25.365  1.00  0.00     0.117 C 
BRANCH   2   3
ATOM      3  N   UNL A   1      30.679  26.457  25.879  1.00  0.00    -0.356 N 
ATOM      4  C   UNL A   1      30.476  25.147  26.167  1.00  0.00     0.220 C 
ATOM      5  O   UNL A   1      29.469  24.820  26.795  1.00  0.00    -0.275 OA
ATOM      6  H   UNL A   1      29.904  27.043  26.042  1.00  0.00     0.163 HD
BRANCH   4   7
ATOM      7  C   UNL A   1      31.488  24.111  25.762  1.00  0.00     0.110 C 
BRANCH   7   8
ATOM      8  C   UNL A   1      31.546  23.674  24.309  1.00  0.00     0.110 C 
BRANCH   8   9
ATOM      9  C   UNL A   1      32.457  24.353  23.309  1.00  0.00     0.228 C 
ATOM     10  C   UNL A   1      34.772  23.417  23.398  1.00  0.00     0.324 C 
ATOM     11  O   UNL A   1      35.353  23.218  22.331  1.00  0.00    -0.248 OA
ATOM     12  N   UNL A   1      33.824  24.419  23.467  1.00  0.00    -0.278 N 
ATOM     13  H   UNL A   1      34.179  25.317  23.656  1.00  0.00     0.174 HD
ATOM     14  O   UNL A   1      31.949  24.987  22.379  1.00  0.00    -0.275 OA
BRANCH  10  15
ATOM     15  N   UNL A   1      35.183  22.852  24.581  1.00  0.00    -0.310 N 
ATOM     16  C   UNL A   1      34.153  20.883  25.691  1.00  0.00     0.037 C 
ATOM     17  C   UNL A   1      35.241  21.383  24.742  1.00  0.00     0.139 C 
ATOM     18  C   UNL A   1      36.687  20.905  25.161  1.00  0.00     0.287 C 
ATOM     19  N   UNL A   1      37.497  21.820  26.023  1.00  0.00    -0.329 N 
ATOM     20  C   UNL A   1      35.877  23.573  25.628  1.00  0.00     0.186 C 
ATOM     21  C   UNL A   1      38.914  21.425  26.029  1.00  0.00     0.262 C 
ATOM     22  C   UNL A   1      37.353  23.212  25.551  1.00  0.00     0.203 C 
ATOM     23  H   UNL A   1      37.151  21.754  26.981  1.00  0.00     0.348 HD
ATOM     24  C   UNL A   1      39.772  22.391  26.856  1.00  0.00     0.062 C 
ATOM     25  C   UNL A   1      38.165  24.223  26.363  1.00  0.00     0.067 C 
ATOM     26  C   UNL A   1      39.630  23.831  26.374  1.00  0.00     0.012 C 
ENDBRANCH  10  15
ENDBRANCH   8   9
ENDBRANCH   7   8
ENDBRANCH   4   7
ENDBRANCH   2   3
ENDBRANCH   1   2
BRANCH   1  27
ATOM     27  C   UNL A   1      33.961  28.475  25.983  1.00  0.00     0.118 C 
BRANCH  27  28
ATOM     28  N   UNL A   1      33.731  29.853  26.373  1.00  0.00    -0.352 N 
ATOM     29  C   UNL A   1      34.359  30.614  27.326  1.00  0.00     0.251 C 
ATOM     30  H   UNL A   1      33.015  30.312  25.877  1.00  0.00     0.163 HD
ATOM     31  O   UNL A   1      33.828  31.664  27.685  1.00  0.00    -0.269 OA
BRANCH  29  32
ATOM     32  C   UNL A   1      35.643  30.193  27.941  1.00  0.00     0.039 A 
ATOM     33  C   UNL A   1      35.619  29.682  29.243  1.00  0.00     0.014 A 
ATOM     34  C   UNL A   1      36.873  30.383  27.305  1.00  0.00     0.014 A 
ATOM     35  C   UNL A   1      36.813  29.341  29.890  1.00  0.00     0.010 A 
ATOM     36  C   UNL A   1      38.058  29.971  27.920  1.00  0.00     0.010 A 
ATOM     37  C   UNL A   1      38.046  29.469  29.230  1.00  0.00    -0.014 A 
BRANCH  37  38
ATOM     38  C   UNL A   1      39.323  29.123  29.913  1.00  0.00     0.031 A 
ATOM     39  C   UNL A   1      39.757  29.878  31.145  1.00  0.00     0.074 A 
ATOM     40  C   UNL A   1      40.111  28.149  29.414  1.00  0.00     0.049 A 
ATOM     41  N   UNL A   1      40.852  29.748  31.852  1.00  0.00    -0.248 NA
ATOM     42  C   UNL A   1      38.853  30.931  31.633  1.00  0.00     0.031 C 
ATOM     43  C   UNL A   1      39.830  27.367  28.209  1.00  0.00     0.029 A 
ATOM     44  N   UNL A   1      41.314  27.655  29.856  1.00  0.00    -0.354 N 
ATOM     45  C   UNL A   1      40.776  30.710  32.853  1.00  0.00     0.074 A 
ATOM     46  C   UNL A   1      39.550  31.446  32.637  1.00  0.00     0.031 C 
ATOM     47  C   UNL A   1      40.820  26.480  28.020  1.00  0.00     0.029 A 
ATOM     48  C   UNL A   1      41.823  26.649  29.068  1.00  0.00     0.049 A 
ATOM     49  H   UNL A   1      41.770  27.990  30.662  1.00  0.00     0.167 HD
ATOM     50  C   UNL A   1      41.636  30.946  33.874  1.00  0.00     0.037 A 
ATOM     51  C   UNL A   1      42.968  25.946  29.171  1.00  0.00     0.037 A 
ATOM     52  C   UNL A   1      42.839  30.190  34.111  1.00  0.00     0.049 A 
ATOM     53  C   UNL A   1      43.903  26.219  30.318  1.00  0.00     0.074 A 
ATOM     54  C   UNL A   1      43.743  30.317  35.152  1.00  0.00     0.029 A 
ATOM     55  N   UNL A   1      43.307  29.167  33.300  1.00  0.00    -0.354 N 
ATOM     56  N   UNL A   1      43.785  27.097  31.286  1.00  0.00    -0.248 NA
ATOM     57  C   UNL A   1      45.124  25.404  30.391  1.00  0.00     0.031 C 
ATOM     58  C   UNL A   1      44.776  29.395  34.952  1.00  0.00     0.029 A 
ATOM     59  C   UNL A   1      44.494  28.665  33.808  1.00  0.00     0.049 A 
ATOM     60  H   UNL A   1      42.861  28.845  32.484  1.00  0.00     0.167 HD
ATOM     61  C   UNL A   1      44.903  26.921  32.096  1.00  0.00     0.074 A 
ATOM     62  C   UNL A   1      45.678  25.847  31.511  1.00  0.00     0.031 C 
ATOM     63  C   UNL A   1      45.253  27.590  33.222  1.00  0.00     0.037 A 
BRANCH  50  64
ATOM     64  C   UNL A   1      41.305  32.067  34.821  1.00  0.00     0.058 A 
ATOM     65  C   UNL A   1      41.807  33.365  34.629  1.00  0.00     0.135 A 
ATOM     66  C   UNL A   1      40.443  31.855  35.909  1.00  0.00     0.135 A 
ATOM     67  F   UNL A   1      42.646  33.622  33.612  1.00  0.00    -0.206 F 
ATOM     68  C   UNL A   1      41.492  34.404  35.498  1.00  0.00     0.059 A 
ATOM     69  C   UNL A   1      40.091  32.886  36.776  1.00  0.00     0.059 A 
ATOM     70  F   UNL A   1      39.931  30.636  36.138  1.00  0.00    -0.206 F 
ATOM     71  C   UNL A   1      40.634  34.154  36.571  1.00  0.00     0.060 A 
BRANCH  71  72
ATOM     72  S   UNL A   1      40.229  35.514  37.688  1.00  0.00     0.124 S 
ATOM     73  O   UNL A   1      41.467  35.642  38.450  1.00  0.00    -0.237 OA
ATOM     74  O   UNL A   1      39.939  36.604  36.763  1.00  0.00    -0.237 OA
ATOM     75  O   UNL A   1      39.082  35.009  38.436  1.00  0.00    -0.744 OA
ENDBRANCH  71  72
ENDBRANCH  50  64
BRANCH  51  76
ATOM     76  C   UNL A   1      43.287  24.898  28.166  1.00  0.00     0.058 A 
ATOM     77  C   UNL A   1      43.927  25.224  26.961  1.00  0.00     0.135 A 
ATOM     78  C   UNL A   1      42.968  23.550  28.393  1.00  0.00     0.135 A 
ATOM     79  F   UNL A   1      44.244  26.500  26.694  1.00  0.00    -0.206 F 
ATOM     80  C   UNL A   1      44.225  24.255  26.009  1.00  0.00     0.059 A 
ATOM     81  C   UNL A   1      43.278  22.559  27.467  1.00  0.00     0.059 A 
ATOM     82  F   UNL A   1      42.369  23.185  29.537  1.00  0.00    -0.206 F 
ATOM     83  C   UNL A   1      43.897  22.924  26.272  1.00  0.00     0.060 A 
BRANCH  83  84
ATOM     84  S   UNL A   1      44.330  21.665  25.050  1.00  0.00     0.124 S 
ATOM     85  O   UNL A   1      43.335  20.636  25.326  1.00  0.00    -0.237 OA
ATOM     86  O   UNL A   1      44.169  22.388  23.793  1.00  0.00    -0.237 OA
ATOM     87  O   UNL A   1      45.706  21.324  25.395  1.00  0.00    -0.744 OA
ENDBRANCH  83  84
ENDBRANCH  51  76
BRANCH  63  88
ATOM     88  C   UNL A   1      46.515  27.163  33.918  1.00  0.00     0.058 A 
ATOM     89  C   UNL A   1      47.754  27.753  33.625  1.00  0.00     0.135 A 
ATOM     90  C   UNL A   1      46.475  26.187  34.928  1.00  0.00     0.135 A 
ATOM     91  F   UNL A   1      47.848  28.685  32.664  1.00  0.00    -0.206 F 
ATOM     92  C   UNL A   1      48.915  27.376  34.294  1.00  0.00     0.059 A 
ATOM     93  C   UNL A   1      47.619  25.813  35.627  1.00  0.00     0.059 A 
ATOM     94  F   UNL A   1      45.314  25.598  35.253  1.00  0.00    -0.206 F 
ATOM     95  C   UNL A   1      48.837  26.405  35.295  1.00  0.00     0.060 A 
BRANCH  95  96
ATOM     96  S   UNL A   1      50.343  25.951  36.181  1.00  0.00     0.124 S 
ATOM     97  O   UNL A   1      51.329  26.825  35.553  1.00  0.00    -0.237 OA
ATOM     98  O   UNL A   1      50.002  26.270  37.564  1.00  0.00    -0.237 OA
ATOM     99  O   UNL A   1      50.490  24.527  35.892  1.00  0.00    -0.744 OA
ENDBRANCH  95  96
ENDBRANCH  63  88
ENDBRANCH  37  38
ENDBRANCH  29  32
ENDBRANCH  27  28
ENDBRANCH   1  27
TORSDOF 16
ENDMDL
MODEL 3
REMARK VINA RESULT:     -11.8      6.436     12.219
REMARK SMILES C[C@@H]1C[N@H+]2CCCC[C@@H]2CN1C(=O)NC(=O)CCC(=O)NCCCNC(=O)c1ccc(-c2c3nc(c(-c4c(F)cc(S(=O)(=O)[O-])cc4F)c4ccc([nH]4)c(-c4c(F)cc(S(=O)(=O)[O-])cc4F)c4nc(c(-c5c(F)cc(S(=O)(=O)[O-])cc5F)c5ccc2[nH]5)C=C4)C=C3)cc1
REMARK SMILES IDX 23 1 22 2 21 3 19 4 20 5 18 7 17 8 15 9 12 10 13 11 14 12
REMARK SMILES IDX 16 14 11 15 1 16 2 17 3 18 4 19 10 20 5 21 9 22 6 24 8 25
REMARK SMILES IDX 7 26 24 27 25 28 26 29 27 31 28 32 29 33 93 34 30 35 92 36
REMARK SMILES IDX 31 37 32 38 33 39 86 40 34 41 91 42 85 43 87 44 35 45 90 46
REMARK SMILES IDX 84 47 83 48 36 50 70 51 49 52 69 53 50 54 53 55 68 56 88 57
REMARK SMILES IDX 51 58 52 59 67 61 89 62 54 63 37 64 38 65 47 66 39 67 40 68
REMARK SMILES IDX 46 69 48 70 41 71 42 72 43 73 44 74 45 75 71 76 72 77 81 78
REMARK SMILES IDX 73 79 74 80 80 81 82 82 75 83 76 84 77 85 78 86 79 87 55 88
REMARK SMILES IDX 56 89 65 90 57 91 58 92 64 93 66 94 59 95 60 96 61 97 62 98
REMARK SMILES IDX 63 99
REMARK H PARENT 21 6 14 13 4 23 25 30 87 49 53 60
REMARK Flexibility Score: inf
ROOT
ATOM      1  C   UNL A   1      35.436  32.529  27.994  1.00  0.00     0.042 C 
ENDROOT
BRANCH   1   2
ATOM      2  C   UNL A   1      34.453  31.381  28.197  1.00  0.00     0.117 C 
BRANCH   2   3
ATOM      3  N   UNL A   1      33.528  31.206  27.086  1.00  0.00    -0.356 N 
ATOM      4  C   UNL A   1      33.032  30.071  26.534  1.00  0.00     0.220 C 
ATOM      5  O   UNL A   1      32.095  30.151  25.739  1.00  0.00    -0.275 OA
ATOM      6  H   UNL A   1      33.215  32.042  26.670  1.00  0.00     0.163 HD
BRANCH   4   7
ATOM      7  C   UNL A   1      33.588  28.728  26.918  1.00  0.00     0.110 C 
BRANCH   7   8
ATOM      8  C   UNL A   1      32.986  27.482  26.294  1.00  0.00     0.110 C 
BRANCH   8   9
ATOM      9  C   UNL A   1      31.738  26.834  26.854  1.00  0.00     0.228 C 
ATOM     10  C   UNL A   1      31.817  24.347  26.626  1.00  0.00     0.324 C 
ATOM     11  O   UNL A   1      31.424  23.670  27.576  1.00  0.00    -0.248 OA
ATOM     12  N   UNL A   1      31.280  25.605  26.434  1.00  0.00    -0.278 N 
ATOM     13  H   UNL A   1      30.441  25.626  25.919  1.00  0.00     0.174 HD
ATOM     14  O   UNL A   1      31.027  27.486  27.626  1.00  0.00    -0.275 OA
BRANCH  10  15
ATOM     15  N   UNL A   1      32.589  23.827  25.616  1.00  0.00    -0.310 N 
ATOM     16  C   UNL A   1      34.364  25.034  24.367  1.00  0.00     0.037 C 
ATOM     17  C   UNL A   1      34.037  24.113  25.542  1.00  0.00     0.139 C 
ATOM     18  C   UNL A   1      34.889  22.782  25.532  1.00  0.00     0.287 C 
ATOM     19  N   UNL A   1      34.293  21.582  24.868  1.00  0.00    -0.329 N 
ATOM     20  C   UNL A   1      32.172  22.742  24.752  1.00  0.00     0.186 C 
ATOM     21  C   UNL A   1      35.012  20.356  25.245  1.00  0.00     0.262 C 
ATOM     22  C   UNL A   1      32.863  21.471  25.223  1.00  0.00     0.203 C 
ATOM     23  H   UNL A   1      34.378  21.695  23.857  1.00  0.00     0.348 HD
ATOM     24  C   UNL A   1      34.373  19.106  24.625  1.00  0.00     0.062 C 
ATOM     25  C   UNL A   1      32.169  20.257  24.603  1.00  0.00     0.067 C 
ATOM     26  C   UNL A   1      32.898  18.983  24.988  1.00  0.00     0.012 C 
ENDBRANCH  10  15
ENDBRANCH   8   9
ENDBRANCH   7   8
ENDBRANCH   4   7
ENDBRANCH   2   3
ENDBRANCH   1   2
BRANCH   1  27
ATOM     27  C   UNL A   1      36.343  32.811  29.183  1.00  0.00     0.118 C 
BRANCH  27  28
ATOM     28  N   UNL A   1      35.991  31.998  30.332  1.00  0.00    -0.352 N 
ATOM     29  C   UNL A   1      36.534  30.819  30.775  1.00  0.00     0.251 C 
ATOM     30  H   UNL A   1      35.249  32.347  30.877  1.00  0.00     0.163 HD
ATOM     31  O   UNL A   1      35.911  30.158  31.604  1.00  0.00    -0.269 OA
BRANCH  29  32
ATOM     32  C   UNL A   1      37.837  30.319  30.266  1.00  0.00     0.039 A 
ATOM     33  C   UNL A   1      38.859  30.073  31.189  1.00  0.00     0.014 A 
ATOM     34  C   UNL A   1      38.103  30.183  28.901  1.00  0.00     0.014 A 
ATOM     35  C   UNL A   1      40.126  29.672  30.749  1.00  0.00     0.010 A 
ATOM     36  C   UNL A   1      39.343  29.708  28.466  1.00  0.00     0.010 A 
ATOM     37  C   UNL A   1      40.378  29.471  29.382  1.00  0.00    -0.014 A 
BRANCH  37  38
ATOM     38  C   UNL A   1      41.726  29.057  28.902  1.00  0.00     0.031 A 
ATOM     39  C   UNL A   1      42.849  30.062  28.827  1.00  0.00     0.074 A 
ATOM     40  C   UNL A   1      41.939  27.787  28.504  1.00  0.00     0.049 A 
ATOM     41  N   UNL A   1      44.076  29.900  28.399  1.00  0.00    -0.248 NA
ATOM     42  C   UNL A   1      42.548  31.432  29.272  1.00  0.00     0.031 C 
ATOM     43  C   UNL A   1      40.930  26.725  28.488  1.00  0.00     0.029 A 
ATOM     44  N   UNL A   1      43.073  27.174  28.030  1.00  0.00    -0.354 N 
ATOM     45  C   UNL A   1      44.685  31.146  28.506  1.00  0.00     0.074 A 
ATOM     46  C   UNL A   1      43.681  32.064  28.997  1.00  0.00     0.031 C 
ATOM     47  C   UNL A   1      41.496  25.589  28.048  1.00  0.00     0.029 A 
ATOM     48  C   UNL A   1      42.895  25.846  27.719  1.00  0.00     0.049 A 
ATOM     49  H   UNL A   1      43.933  27.641  27.923  1.00  0.00     0.167 HD
ATOM     50  C   UNL A   1      45.968  31.491  28.242  1.00  0.00     0.037 A 
ATOM     51  C   UNL A   1      43.757  24.938  27.220  1.00  0.00     0.037 A 
ATOM     52  C   UNL A   1      46.979  30.571  27.786  1.00  0.00     0.049 A 
ATOM     53  C   UNL A   1      45.179  25.342  26.943  1.00  0.00     0.074 A 
ATOM     54  C   UNL A   1      48.320  30.816  27.548  1.00  0.00     0.029 A 
ATOM     55  N   UNL A   1      46.761  29.231  27.503  1.00  0.00    -0.354 N 
ATOM     56  N   UNL A   1      45.750  26.513  27.103  1.00  0.00    -0.248 NA
ATOM     57  C   UNL A   1      46.078  24.302  26.422  1.00  0.00     0.031 C 
ATOM     58  C   UNL A   1      48.907  29.632  27.086  1.00  0.00     0.029 A 
ATOM     59  C   UNL A   1      47.940  28.640  27.076  1.00  0.00     0.049 A 
ATOM     60  H   UNL A   1      45.898  28.768  27.592  1.00  0.00     0.167 HD
ATOM     61  C   UNL A   1      47.078  26.343  26.728  1.00  0.00     0.074 A 
ATOM     62  C   UNL A   1      47.230  24.955  26.343  1.00  0.00     0.031 C 
ATOM     63  C   UNL A   1      48.081  27.255  26.704  1.00  0.00     0.037 A 
BRANCH  50  64
ATOM     64  C   UNL A   1      46.360  32.930  28.443  1.00  0.00     0.058 A 
ATOM     65  C   UNL A   1      46.251  33.875  27.409  1.00  0.00     0.135 A 
ATOM     66  C   UNL A   1      46.809  33.382  29.695  1.00  0.00     0.135 A 
ATOM     67  F   UNL A   1      45.838  33.496  26.188  1.00  0.00    -0.206 F 
ATOM     68  C   UNL A   1      46.602  35.208  27.599  1.00  0.00     0.059 A 
ATOM     69  C   UNL A   1      47.141  34.716  29.916  1.00  0.00     0.059 A 
ATOM     70  F   UNL A   1      46.930  32.523  30.720  1.00  0.00    -0.206 F 
ATOM     71  C   UNL A   1      47.048  35.619  28.857  1.00  0.00     0.060 A 
BRANCH  71  72
ATOM     72  S   UNL A   1      47.496  37.352  29.090  1.00  0.00     0.124 S 
ATOM     73  O   UNL A   1      47.132  37.560  30.487  1.00  0.00    -0.237 OA
ATOM     74  O   UNL A   1      48.927  37.347  28.802  1.00  0.00    -0.237 OA
ATOM     75  O   UNL A   1      46.666  38.051  28.114  1.00  0.00    -0.744 OA
ENDBRANCH  71  72
ENDBRANCH  50  64
BRANCH  51  76
ATOM     76  C   UNL A   1      43.301  23.546  26.966  1.00  0.00     0.058 A 
ATOM     77  C   UNL A   1      43.081  23.084  25.661  1.00  0.00     0.135 A 
ATOM     78  C   UNL A   1      43.086  22.646  28.022  1.00  0.00     0.135 A 
ATOM     79  F   UNL A   1      43.265  23.909  24.618  1.00  0.00    -0.206 F 
ATOM     80  C   UNL A   1      42.648  21.787  25.409  1.00  0.00     0.059 A 
ATOM     81  C   UNL A   1      42.677  21.336  27.795  1.00  0.00     0.059 A 
ATOM     82  F   UNL A   1      43.296  23.034  29.290  1.00  0.00    -0.206 F 
ATOM     83  C   UNL A   1      42.450  20.919  26.484  1.00  0.00     0.060 A 
BRANCH  83  84
ATOM     84  S   UNL A   1      41.933  19.221  26.146  1.00  0.00     0.124 S 
ATOM     85  O   UNL A   1      42.254  18.561  27.406  1.00  0.00    -0.237 OA
ATOM     86  O   UNL A   1      40.513  19.384  25.854  1.00  0.00    -0.237 OA
ATOM     87  O   UNL A   1      42.759  18.841  25.004  1.00  0.00    -0.744 OA
ENDBRANCH  83  84
ENDBRANCH  51  76
BRANCH  63  88
ATOM     88  C   UNL A   1      49.442  26.780  26.277  1.00  0.00     0.058 A 
ATOM     89  C   UNL A   1      50.294  26.099  27.160  1.00  0.00     0.135 A 
ATOM     90  C   UNL A   1      49.877  26.964  24.955  1.00  0.00     0.135 A 
ATOM     91  F   UNL A   1      49.929  25.904  28.437  1.00  0.00    -0.206 F 
ATOM     92  C   UNL A   1      51.541  25.634  26.752  1.00  0.00     0.059 A 
ATOM     93  C   UNL A   1      51.109  26.485  24.519  1.00  0.00     0.059 A 
ATOM     94  F   UNL A   1      49.096  27.600  24.068  1.00  0.00    -0.206 F 
ATOM     95  C   UNL A   1      51.940  25.831  25.429  1.00  0.00     0.060 A 
BRANCH  95  96
ATOM     96  S   UNL A   1      53.544  25.191  24.901  1.00  0.00     0.124 S 
ATOM     97  O   UNL A   1      53.564  25.575  23.493  1.00  0.00    -0.237 OA
ATOM     98  O   UNL A   1      54.470  25.912  25.769  1.00  0.00    -0.237 OA
ATOM     99  O   UNL A   1      53.439  23.758  25.161  1.00  0.00    -0.744 OA
ENDBRANCH  95  96
ENDBRANCH  63  88
ENDBRANCH  37  38
ENDBRANCH  29  32
ENDBRANCH  27  28
ENDBRANCH   1  27
TORSDOF 16
ENDMDL
