MODEL 1
REMARK VINA RESULT:     -11.9      0.000      0.000
REMARK SMILES C[C@@H](C(=O)NCCCNC(=O)c1ccc(-c2c3nc(c(-c4c(F)cc(S(=O)(=O)[O-])cc4F)c4ccc([nH]4)c(-c4c(F)cc(S(=O)(=O)[O-])cc4F)c4nc(c(-c5c(F)cc(S(=O)(=O)[O-])cc5F)c5ccc2[nH]5)C=C4)C=C3)cc1)c1ccc(-c2ccc3[nH]ccc3c2)cc1
REMARK SMILES IDX 7 1 6 2 5 3 3 4 4 5 2 7 1 8 78 9 79 10 92 11 80 12 91 13
REMARK SMILES IDX 81 14 82 15 83 16 90 17 84 18 89 19 85 20 88 21 86 22 87 23
REMARK SMILES IDX 8 25 9 26 10 27 11 29 12 30 13 31 77 32 14 33 76 34 15 35
REMARK SMILES IDX 16 36 17 37 70 38 18 39 75 40 69 41 71 42 19 43 74 44 68 45
REMARK SMILES IDX 67 46 20 48 54 49 33 50 53 51 34 52 37 53 52 54 72 55 35 56
REMARK SMILES IDX 36 57 51 59 73 60 38 61 21 62 22 63 31 64 23 65 24 66 30 67
REMARK SMILES IDX 32 68 25 69 26 70 27 71 28 72 29 73 55 74 56 75 65 76 57 77
REMARK SMILES IDX 58 78 64 79 66 80 59 81 60 82 61 83 62 84 63 85 39 86 40 87
REMARK SMILES IDX 49 88 41 89 42 90 48 91 50 92 43 93 44 94 45 95 46 96 47 97
REMARK H PARENT 5 6 86 24 9 28 71 47 37 58
REMARK Flexibility Score: inf
ROOT
ATOM      1  C   UNL A   1      32.934  27.844  26.772  1.00  0.00     0.042 C 
ENDROOT
BRANCH   1   2
ATOM      2  C   UNL A   1      31.468  27.822  26.336  1.00  0.00     0.117 C 
BRANCH   2   3
ATOM      3  N   UNL A   1      30.813  26.591  26.742  1.00  0.00    -0.356 N 
ATOM      4  C   UNL A   1      30.683  25.398  26.089  1.00  0.00     0.227 C 
ATOM      5  O   UNL A   1      29.925  24.575  26.605  1.00  0.00    -0.274 OA
ATOM      6  H   UNL A   1      30.394  26.622  27.632  1.00  0.00     0.163 HD
BRANCH   4   7
ATOM      7  C   UNL A   1      31.493  25.127  24.802  1.00  0.00     0.105 C 
ATOM      8  C   UNL A   1      30.708  24.155  23.911  1.00  0.00     0.023 C 
BRANCH   7   9
ATOM      9  C   UNL A   1      32.927  24.654  25.083  1.00  0.00    -0.036 A 
ATOM     10  C   UNL A   1      33.223  23.964  26.272  1.00  0.00     0.005 A 
ATOM     11  C   UNL A   1      33.985  24.896  24.193  1.00  0.00     0.005 A 
ATOM     12  C   UNL A   1      34.502  23.449  26.508  1.00  0.00     0.009 A 
ATOM     13  C   UNL A   1      35.266  24.396  24.436  1.00  0.00     0.009 A 
ATOM     14  C   UNL A   1      35.531  23.639  25.581  1.00  0.00    -0.018 A 
BRANCH  14  15
ATOM     15  C   UNL A   1      36.838  23.006  25.757  1.00  0.00    -0.018 A 
ATOM     16  C   UNL A   1      37.913  23.761  26.247  1.00  0.00     0.011 A 
ATOM     17  C   UNL A   1      37.024  21.644  25.466  1.00  0.00     0.019 A 
ATOM     18  C   UNL A   1      39.166  23.190  26.487  1.00  0.00     0.027 A 
ATOM     19  C   UNL A   1      38.290  21.056  25.658  1.00  0.00    -0.000 A 
ATOM     20  C   UNL A   1      39.320  21.835  26.183  1.00  0.00     0.045 A 
ATOM     21  C   UNL A   1      38.827  19.762  25.415  1.00  0.00     0.028 A 
ATOM     22  N   UNL A   1      40.418  21.016  26.319  1.00  0.00    -0.361 N 
ATOM     23  C   UNL A   1      40.146  19.775  25.808  1.00  0.00     0.083 A 
ATOM     24  H   UNL A   1      41.275  21.284  26.723  1.00  0.00     0.166 HD
ENDBRANCH  14  15
ENDBRANCH   7   9
ENDBRANCH   4   7
ENDBRANCH   2   3
ENDBRANCH   1   2
BRANCH   1  25
ATOM     25  C   UNL A   1      33.811  28.808  25.978  1.00  0.00     0.118 C 
BRANCH  25  26
ATOM     26  N   UNL A   1      33.689  30.181  26.438  1.00  0.00    -0.352 N 
ATOM     27  C   UNL A   1      34.395  30.854  27.408  1.00  0.00     0.251 C 
ATOM     28  H   UNL A   1      32.994  30.713  25.987  1.00  0.00     0.163 HD
ATOM     29  O   UNL A   1      34.000  31.950  27.791  1.00  0.00    -0.269 OA
BRANCH  27  30
ATOM     30  C   UNL A   1      35.605  30.248  28.011  1.00  0.00     0.039 A 
ATOM     31  C   UNL A   1      36.789  30.233  27.269  1.00  0.00     0.014 A 
ATOM     32  C   UNL A   1      35.577  29.694  29.294  1.00  0.00     0.014 A 
ATOM     33  C   UNL A   1      37.965  29.748  27.849  1.00  0.00     0.010 A 
ATOM     34  C   UNL A   1      36.763  29.274  29.894  1.00  0.00     0.010 A 
ATOM     35  C   UNL A   1      37.973  29.317  29.186  1.00  0.00    -0.014 A 
BRANCH  35  36
ATOM     36  C   UNL A   1      39.246  28.984  29.879  1.00  0.00     0.031 A 
ATOM     37  C   UNL A   1      39.737  29.821  31.029  1.00  0.00     0.074 A 
ATOM     38  C   UNL A   1      40.005  27.976  29.401  1.00  0.00     0.049 A 
ATOM     39  N   UNL A   1      40.868  29.739  31.680  1.00  0.00    -0.248 NA
ATOM     40  C   UNL A   1      38.852  30.900  31.499  1.00  0.00     0.031 C 
ATOM     41  C   UNL A   1      39.658  27.122  28.261  1.00  0.00     0.029 A 
ATOM     42  N   UNL A   1      41.236  27.508  29.796  1.00  0.00    -0.354 N 
ATOM     43  C   UNL A   1      40.843  30.762  32.621  1.00  0.00     0.074 A 
ATOM     44  C   UNL A   1      39.594  31.469  32.441  1.00  0.00     0.031 C 
ATOM     45  C   UNL A   1      40.646  26.239  28.051  1.00  0.00     0.029 A 
ATOM     46  C   UNL A   1      41.721  26.491  29.005  1.00  0.00     0.049 A 
ATOM     47  H   UNL A   1      41.725  27.867  30.570  1.00  0.00     0.167 HD
ATOM     48  C   UNL A   1      41.774  31.071  33.554  1.00  0.00     0.037 A 
ATOM     49  C   UNL A   1      42.908  25.852  29.022  1.00  0.00     0.037 A 
ATOM     50  C   UNL A   1      43.001  30.340  33.746  1.00  0.00     0.049 A 
ATOM     51  C   UNL A   1      43.931  26.239  30.056  1.00  0.00     0.074 A 
ATOM     52  C   UNL A   1      43.959  30.519  34.730  1.00  0.00     0.029 A 
ATOM     53  N   UNL A   1      43.450  29.309  32.934  1.00  0.00    -0.354 N 
ATOM     54  N   UNL A   1      43.841  27.138  31.006  1.00  0.00    -0.248 NA
ATOM     55  C   UNL A   1      45.219  25.530  30.019  1.00  0.00     0.031 C 
ATOM     56  C   UNL A   1      45.017  29.643  34.473  1.00  0.00     0.029 A 
ATOM     57  C   UNL A   1      44.694  28.877  33.366  1.00  0.00     0.049 A 
ATOM     58  H   UNL A   1      42.958  28.940  32.167  1.00  0.00     0.167 HD
ATOM     59  C   UNL A   1      45.052  27.090  31.689  1.00  0.00     0.074 A 
ATOM     60  C   UNL A   1      45.847  26.056  31.061  1.00  0.00     0.031 C 
ATOM     61  C   UNL A   1      45.472  27.841  32.736  1.00  0.00     0.037 A 
BRANCH  48  62
ATOM     62  C   UNL A   1      41.528  32.251  34.453  1.00  0.00     0.058 A 
ATOM     63  C   UNL A   1      41.830  33.562  34.051  1.00  0.00     0.135 A 
ATOM     64  C   UNL A   1      40.864  32.078  35.680  1.00  0.00     0.135 A 
ATOM     65  F   UNL A   1      42.475  33.783  32.896  1.00  0.00    -0.206 F 
ATOM     66  C   UNL A   1      41.479  34.658  34.832  1.00  0.00     0.059 A 
ATOM     67  C   UNL A   1      40.483  33.161  36.465  1.00  0.00     0.059 A 
ATOM     68  F   UNL A   1      40.556  30.845  36.110  1.00  0.00    -0.206 F 
ATOM     69  C   UNL A   1      40.794  34.449  36.031  1.00  0.00     0.060 A 
BRANCH  69  70
ATOM     70  S   UNL A   1      40.288  35.889  36.995  1.00  0.00     0.124 S 
ATOM     71  O   UNL A   1      41.546  36.278  37.624  1.00  0.00    -0.237 OA
ATOM     72  O   UNL A   1      39.788  36.792  35.964  1.00  0.00    -0.237 OA
ATOM     73  O   UNL A   1      39.275  35.355  37.901  1.00  0.00    -0.744 OA
ENDBRANCH  69  70
ENDBRANCH  48  62
BRANCH  49  74
ATOM     74  C   UNL A   1      43.219  24.808  28.006  1.00  0.00     0.058 A 
ATOM     75  C   UNL A   1      43.013  23.447  28.277  1.00  0.00     0.135 A 
ATOM     76  C   UNL A   1      43.769  25.147  26.759  1.00  0.00     0.135 A 
ATOM     77  F   UNL A   1      42.496  23.069  29.456  1.00  0.00    -0.206 F 
ATOM     78  C   UNL A   1      43.378  22.458  27.368  1.00  0.00     0.059 A 
ATOM     79  C   UNL A   1      44.109  24.180  25.820  1.00  0.00     0.059 A 
ATOM     80  F   UNL A   1      43.970  26.435  26.439  1.00  0.00    -0.206 F 
ATOM     81  C   UNL A   1      43.931  22.836  26.143  1.00  0.00     0.060 A 
BRANCH  81  82
ATOM     82  S   UNL A   1      44.403  21.547  24.970  1.00  0.00     0.124 S 
ATOM     83  O   UNL A   1      44.252  22.240  23.697  1.00  0.00    -0.237 OA
ATOM     84  O   UNL A   1      45.772  21.248  25.378  1.00  0.00    -0.237 OA
ATOM     85  O   UNL A   1      43.433  20.487  25.231  1.00  0.00    -0.744 OA
ENDBRANCH  81  82
ENDBRANCH  49  74
BRANCH  61  86
ATOM     86  C   UNL A   1      46.847  27.572  33.282  1.00  0.00     0.058 A 
ATOM     87  C   UNL A   1      47.967  28.286  32.829  1.00  0.00     0.135 A 
ATOM     88  C   UNL A   1      47.037  26.641  34.317  1.00  0.00     0.135 A 
ATOM     89  F   UNL A   1      47.843  29.178  31.834  1.00  0.00    -0.206 F 
ATOM     90  C   UNL A   1      49.230  28.080  33.376  1.00  0.00     0.059 A 
ATOM     91  C   UNL A   1      48.284  26.441  34.899  1.00  0.00     0.059 A 
ATOM     92  F   UNL A   1      45.997  25.936  34.790  1.00  0.00    -0.206 F 
ATOM     93  C   UNL A   1      49.376  27.161  34.417  1.00  0.00     0.060 A 
BRANCH  93  94
ATOM     94  S   UNL A   1      51.009  26.950  35.156  1.00  0.00     0.124 S 
ATOM     95  O   UNL A   1      51.867  27.585  34.162  1.00  0.00    -0.237 OA
ATOM     96  O   UNL A   1      50.872  27.662  36.423  1.00  0.00    -0.237 OA
ATOM     97  O   UNL A   1      51.148  25.501  35.270  1.00  0.00    -0.744 OA
ENDBRANCH  93  94
ENDBRANCH  61  86
ENDBRANCH  35  36
ENDBRANCH  27  30
ENDBRANCH  25  26
ENDBRANCH   1  25
TORSDOF 15
ENDMDL
MODEL 2
REMARK VINA RESULT:     -11.7      4.744      5.983
REMARK SMILES C[C@@H](C(=O)NCCCNC(=O)c1ccc(-c2c3nc(c(-c4c(F)cc(S(=O)(=O)[O-])cc4F)c4ccc([nH]4)c(-c4c(F)cc(S(=O)(=O)[O-])cc4F)c4nc(c(-c5c(F)cc(S(=O)(=O)[O-])cc5F)c5ccc2[nH]5)C=C4)C=C3)cc1)c1ccc(-c2ccc3[nH]ccc3c2)cc1
REMARK SMILES IDX 7 1 6 2 5 3 3 4 4 5 2 7 1 8 78 9 79 10 92 11 80 12 91 13
REMARK SMILES IDX 81 14 82 15 83 16 90 17 84 18 89 19 85 20 88 21 86 22 87 23
REMARK SMILES IDX 8 25 9 26 10 27 11 29 12 30 13 31 77 32 14 33 76 34 15 35
REMARK SMILES IDX 16 36 17 37 70 38 18 39 75 40 69 41 71 42 19 43 74 44 68 45
REMARK SMILES IDX 67 46 20 48 54 49 33 50 53 51 34 52 37 53 52 54 72 55 35 56
REMARK SMILES IDX 36 57 51 59 73 60 38 61 21 62 22 63 31 64 23 65 24 66 30 67
REMARK SMILES IDX 32 68 25 69 26 70 27 71 28 72 29 73 55 74 56 75 65 76 57 77
REMARK SMILES IDX 58 78 64 79 66 80 59 81 60 82 61 83 62 84 63 85 39 86 40 87
REMARK SMILES IDX 49 88 41 89 42 90 48 91 50 92 43 93 44 94 45 95 46 96 47 97
REMARK H PARENT 5 6 86 24 9 28 71 47 37 58
REMARK Flexibility Score: inf
ROOT
ATOM      1  C   UNL A   1      33.752  29.987  27.087  1.00  0.00     0.042 C 
ENDROOT
BRANCH   1   2
ATOM      2  C   UNL A   1      32.725  28.858  27.182  1.00  0.00     0.117 C 
BRANCH   2   3
ATOM      3  N   UNL A   1      31.861  28.827  26.015  1.00  0.00    -0.356 N 
ATOM      4  C   UNL A   1      32.147  28.560  24.706  1.00  0.00     0.227 C 
ATOM      5  O   UNL A   1      31.243  28.772  23.897  1.00  0.00    -0.274 OA
ATOM      6  H   UNL A   1      30.915  29.031  26.197  1.00  0.00     0.163 HD
BRANCH   4   7
ATOM      7  C   UNL A   1      33.528  27.988  24.315  1.00  0.00     0.105 C 
ATOM      8  C   UNL A   1      33.940  28.557  22.952  1.00  0.00     0.023 C 
BRANCH   7   9
ATOM      9  C   UNL A   1      33.577  26.454  24.362  1.00  0.00    -0.036 A 
ATOM     10  C   UNL A   1      33.851  25.720  23.195  1.00  0.00     0.005 A 
ATOM     11  C   UNL A   1      33.341  25.730  25.542  1.00  0.00     0.005 A 
ATOM     12  C   UNL A   1      33.987  24.328  23.231  1.00  0.00     0.009 A 
ATOM     13  C   UNL A   1      33.460  24.339  25.576  1.00  0.00     0.009 A 
ATOM     14  C   UNL A   1      33.816  23.625  24.429  1.00  0.00    -0.018 A 
BRANCH  14  15
ATOM     15  C   UNL A   1      34.071  22.188  24.508  1.00  0.00    -0.018 A 
ATOM     16  C   UNL A   1      35.367  21.727  24.780  1.00  0.00     0.011 A 
ATOM     17  C   UNL A   1      33.028  21.260  24.341  1.00  0.00     0.019 A 
ATOM     18  C   UNL A   1      35.651  20.365  24.922  1.00  0.00     0.027 A 
ATOM     19  C   UNL A   1      33.298  19.881  24.436  1.00  0.00    -0.000 A 
ATOM     20  C   UNL A   1      34.594  19.470  24.746  1.00  0.00     0.045 A 
ATOM     21  C   UNL A   1      32.516  18.706  24.266  1.00  0.00     0.028 A 
ATOM     22  N   UNL A   1      34.573  18.096  24.830  1.00  0.00    -0.361 N 
ATOM     23  C   UNL A   1      33.334  17.622  24.490  1.00  0.00     0.083 A 
ATOM     24  H   UNL A   1      35.338  17.536  25.096  1.00  0.00     0.166 HD
ENDBRANCH  14  15
ENDBRANCH   7   9
ENDBRANCH   4   7
ENDBRANCH   2   3
ENDBRANCH   1   2
BRANCH   1  25
ATOM     25  C   UNL A   1      35.044  29.727  27.854  1.00  0.00     0.118 C 
BRANCH  25  26
ATOM     26  N   UNL A   1      35.190  30.596  29.011  1.00  0.00    -0.352 N 
ATOM     27  C   UNL A   1      36.239  30.730  29.889  1.00  0.00     0.251 C 
ATOM     28  H   UNL A   1      34.418  31.179  29.195  1.00  0.00     0.163 HD
ATOM     29  O   UNL A   1      36.084  31.371  30.922  1.00  0.00    -0.269 OA
BRANCH  27  30
ATOM     30  C   UNL A   1      37.540  30.078  29.608  1.00  0.00     0.039 A 
ATOM     31  C   UNL A   1      38.015  30.068  28.294  1.00  0.00     0.014 A 
ATOM     32  C   UNL A   1      38.286  29.478  30.626  1.00  0.00     0.014 A 
ATOM     33  C   UNL A   1      39.279  29.539  28.018  1.00  0.00     0.010 A 
ATOM     34  C   UNL A   1      39.574  29.013  30.360  1.00  0.00     0.010 A 
ATOM     35  C   UNL A   1      40.092  29.058  29.058  1.00  0.00    -0.014 A 
BRANCH  35  36
ATOM     36  C   UNL A   1      41.508  28.676  28.814  1.00  0.00     0.031 A 
ATOM     37  C   UNL A   1      42.596  29.715  28.808  1.00  0.00     0.074 A 
ATOM     38  C   UNL A   1      41.793  27.393  28.503  1.00  0.00     0.049 A 
ATOM     39  N   UNL A   1      43.862  29.577  28.514  1.00  0.00    -0.248 NA
ATOM     40  C   UNL A   1      42.210  31.091  29.162  1.00  0.00     0.031 C 
ATOM     41  C   UNL A   1      40.816  26.303  28.431  1.00  0.00     0.029 A 
ATOM     42  N   UNL A   1      42.981  26.790  28.167  1.00  0.00    -0.354 N 
ATOM     43  C   UNL A   1      44.422  30.844  28.626  1.00  0.00     0.074 A 
ATOM     44  C   UNL A   1      43.352  31.746  28.993  1.00  0.00     0.031 C 
ATOM     45  C   UNL A   1      41.442  25.170  28.077  1.00  0.00     0.029 A 
ATOM     46  C   UNL A   1      42.853  25.457  27.847  1.00  0.00     0.049 A 
ATOM     47  H   UNL A   1      43.842  27.265  28.156  1.00  0.00     0.167 HD
ATOM     48  C   UNL A   1      45.712  31.213  28.449  1.00  0.00     0.037 A 
ATOM     49  C   UNL A   1      43.760  24.570  27.390  1.00  0.00     0.037 A 
ATOM     50  C   UNL A   1      46.777  30.301  28.115  1.00  0.00     0.049 A 
ATOM     51  C   UNL A   1      45.181  25.021  27.179  1.00  0.00     0.074 A 
ATOM     52  C   UNL A   1      48.132  30.568  28.014  1.00  0.00     0.029 A 
ATOM     53  N   UNL A   1      46.610  28.958  27.812  1.00  0.00    -0.354 N 
ATOM     54  N   UNL A   1      45.711  26.201  27.397  1.00  0.00    -0.248 NA
ATOM     55  C   UNL A   1      46.128  24.025  26.656  1.00  0.00     0.031 C 
ATOM     56  C   UNL A   1      48.774  29.403  27.584  1.00  0.00     0.029 A 
ATOM     57  C   UNL A   1      47.831  28.396  27.475  1.00  0.00     0.049 A 
ATOM     58  H   UNL A   1      45.752  28.477  27.834  1.00  0.00     0.167 HD
ATOM     59  C   UNL A   1      47.054  26.082  27.054  1.00  0.00     0.074 A 
ATOM     60  C   UNL A   1      47.262  24.711  26.641  1.00  0.00     0.031 C 
ATOM     61  C   UNL A   1      48.026  27.027  27.071  1.00  0.00     0.037 A 
BRANCH  48  62
ATOM     62  C   UNL A   1      46.073  32.665  28.607  1.00  0.00     0.058 A 
ATOM     63  C   UNL A   1      46.506  33.189  29.835  1.00  0.00     0.135 A 
ATOM     64  C   UNL A   1      46.108  33.510  27.484  1.00  0.00     0.135 A 
ATOM     65  F   UNL A   1      46.480  32.430  30.941  1.00  0.00    -0.206 F 
ATOM     66  C   UNL A   1      46.963  34.498  29.943  1.00  0.00     0.059 A 
ATOM     67  C   UNL A   1      46.585  34.814  27.565  1.00  0.00     0.059 A 
ATOM     68  F   UNL A   1      45.703  33.057  26.287  1.00  0.00    -0.206 F 
ATOM     69  C   UNL A   1      47.011  35.300  28.800  1.00  0.00     0.060 A 
BRANCH  69  70
ATOM     70  S   UNL A   1      47.673  36.973  28.949  1.00  0.00     0.124 S 
ATOM     71  O   UNL A   1      47.718  37.141  30.398  1.00  0.00    -0.237 OA
ATOM     72  O   UNL A   1      48.966  36.856  28.284  1.00  0.00    -0.237 OA
ATOM     73  O   UNL A   1      46.686  37.794  28.255  1.00  0.00    -0.744 OA
ENDBRANCH  69  70
ENDBRANCH  48  62
BRANCH  49  74
ATOM     74  C   UNL A   1      43.354  23.176  27.057  1.00  0.00     0.058 A 
ATOM     75  C   UNL A   1      43.064  22.244  28.065  1.00  0.00     0.135 A 
ATOM     76  C   UNL A   1      43.289  22.736  25.725  1.00  0.00     0.135 A 
ATOM     77  F   UNL A   1      43.117  22.612  29.353  1.00  0.00    -0.206 F 
ATOM     78  C   UNL A   1      42.765  20.918  27.768  1.00  0.00     0.059 A 
ATOM     79  C   UNL A   1      42.959  21.425  25.401  1.00  0.00     0.059 A 
ATOM     80  F   UNL A   1      43.538  23.590  24.720  1.00  0.00    -0.206 F 
ATOM     81  C   UNL A   1      42.720  20.517  26.431  1.00  0.00     0.060 A 
BRANCH  81  82
ATOM     82  S   UNL A   1      42.334  18.794  26.055  1.00  0.00     0.124 S 
ATOM     83  O   UNL A   1      42.562  18.155  27.345  1.00  0.00    -0.237 OA
ATOM     84  O   UNL A   1      40.943  18.879  25.620  1.00  0.00    -0.237 OA
ATOM     85  O   UNL A   1      43.292  18.458  25.006  1.00  0.00    -0.744 OA
ENDBRANCH  81  82
ENDBRANCH  49  74
BRANCH  61  86
ATOM     86  C   UNL A   1      49.407  26.615  26.643  1.00  0.00     0.058 A 
ATOM     87  C   UNL A   1      50.292  25.986  27.532  1.00  0.00     0.135 A 
ATOM     88  C   UNL A   1      49.825  26.787  25.313  1.00  0.00     0.135 A 
ATOM     89  F   UNL A   1      49.947  25.809  28.817  1.00  0.00    -0.206 F 
ATOM     90  C   UNL A   1      51.548  25.551  27.120  1.00  0.00     0.059 A 
ATOM     91  C   UNL A   1      51.063  26.333  24.872  1.00  0.00     0.059 A 
ATOM     92  F   UNL A   1      49.013  27.378  24.420  1.00  0.00    -0.206 F 
ATOM     93  C   UNL A   1      51.921  25.721  25.785  1.00  0.00     0.060 A 
BRANCH  93  94
ATOM     94  S   UNL A   1      53.528  25.096  25.254  1.00  0.00     0.124 S 
ATOM     95  O   UNL A   1      54.409  25.634  26.284  1.00  0.00    -0.237 OA
ATOM     96  O   UNL A   1      53.326  23.651  25.284  1.00  0.00    -0.237 OA
ATOM     97  O   UNL A   1      53.696  25.672  23.922  1.00  0.00    -0.744 OA
ENDBRANCH  93  94
ENDBRANCH  61  86
ENDBRANCH  35  36
ENDBRANCH  27  30
ENDBRANCH  25  26
ENDBRANCH   1  25
TORSDOF 15
ENDMDL
MODEL 3
REMARK VINA RESULT:     -11.7      3.433     10.048
REMARK SMILES C[C@@H](C(=O)NCCCNC(=O)c1ccc(-c2c3nc(c(-c4c(F)cc(S(=O)(=O)[O-])cc4F)c4ccc([nH]4)c(-c4c(F)cc(S(=O)(=O)[O-])cc4F)c4nc(c(-c5c(F)cc(S(=O)(=O)[O-])cc5F)c5ccc2[nH]5)C=C4)C=C3)cc1)c1ccc(-c2ccc3[nH]ccc3c2)cc1
REMARK SMILES IDX 7 1 6 2 5 3 3 4 4 5 2 7 1 8 78 9 79 10 92 11 80 12 91 13
REMARK SMILES IDX 81 14 82 15 83 16 90 17 84 18 89 19 85 20 88 21 86 22 87 23
REMARK SMILES IDX 8 25 9 26 10 27 11 29 12 30 13 31 77 32 14 33 76 34 15 35
REMARK SMILES IDX 16 36 17 37 70 38 18 39 75 40 69 41 71 42 19 43 74 44 68 45
REMARK SMILES IDX 67 46 20 48 54 49 33 50 53 51 34 52 37 53 52 54 72 55 35 56
REMARK SMILES IDX 36 57 51 59 73 60 38 61 21 62 22 63 31 64 23 65 24 66 30 67
REMARK SMILES IDX 32 68 25 69 26 70 27 71 28 72 29 73 55 74 56 75 65 76 57 77
REMARK SMILES IDX 58 78 64 79 66 80 59 81 60 82 61 83 62 84 63 85 39 86 40 87
REMARK SMILES IDX 49 88 41 89 42 90 48 91 50 92 43 93 44 94 45 95 46 96 47 97
REMARK H PARENT 5 6 86 24 9 28 71 47 37 58
REMARK Flexibility Score: inf
ROOT
ATOM      1  C   UNL A   1      37.408  22.949  25.762  1.00  0.00     0.042 C 
ENDROOT
BRANCH   1   2
ATOM      2  C   UNL A   1      36.440  23.303  24.632  1.00  0.00     0.117 C 
BRANCH   2   3
ATOM      3  N   UNL A   1      35.377  22.321  24.517  1.00  0.00    -0.356 N 
ATOM      4  C   UNL A   1      34.223  22.175  25.235  1.00  0.00     0.227 C 
ATOM      5  O   UNL A   1      33.582  21.143  25.030  1.00  0.00    -0.274 OA
ATOM      6  H   UNL A   1      35.509  21.651  23.808  1.00  0.00     0.163 HD
BRANCH   4   7
ATOM      7  C   UNL A   1      33.769  23.286  26.206  1.00  0.00     0.105 C 
ATOM      8  C   UNL A   1      33.124  22.641  27.440  1.00  0.00     0.023 C 
BRANCH   7   9
ATOM      9  C   UNL A   1      32.866  24.334  25.540  1.00  0.00    -0.036 A 
ATOM     10  C   UNL A   1      32.379  24.122  24.238  1.00  0.00     0.005 A 
ATOM     11  C   UNL A   1      32.505  25.530  26.180  1.00  0.00     0.005 A 
ATOM     12  C   UNL A   1      31.486  25.021  23.645  1.00  0.00     0.009 A 
ATOM     13  C   UNL A   1      31.627  26.437  25.581  1.00  0.00     0.009 A 
ATOM     14  C   UNL A   1      31.082  26.176  24.321  1.00  0.00    -0.018 A 
BRANCH  14  15
ATOM     15  C   UNL A   1      30.060  27.063  23.766  1.00  0.00    -0.018 A 
ATOM     16  C   UNL A   1      28.704  26.768  23.966  1.00  0.00     0.011 A 
ATOM     17  C   UNL A   1      30.419  28.221  23.056  1.00  0.00     0.019 A 
ATOM     18  C   UNL A   1      27.690  27.614  23.505  1.00  0.00     0.027 A 
ATOM     19  C   UNL A   1      29.415  29.065  22.543  1.00  0.00    -0.000 A 
ATOM     20  C   UNL A   1      28.080  28.754  22.799  1.00  0.00     0.045 A 
ATOM     21  C   UNL A   1      29.425  30.246  21.750  1.00  0.00     0.028 A 
ATOM     22  N   UNL A   1      27.318  29.754  22.241  1.00  0.00    -0.361 N 
ATOM     23  C   UNL A   1      28.118  30.633  21.560  1.00  0.00     0.083 A 
ATOM     24  H   UNL A   1      26.339  29.828  22.318  1.00  0.00     0.166 HD
ENDBRANCH  14  15
ENDBRANCH   7   9
ENDBRANCH   4   7
ENDBRANCH   2   3
ENDBRANCH   1   2
BRANCH   1  25
ATOM     25  C   UNL A   1      38.325  24.092  26.184  1.00  0.00     0.118 C 
BRANCH  25  26
ATOM     26  N   UNL A   1      39.730  23.718  26.161  1.00  0.00    -0.352 N 
ATOM     27  C   UNL A   1      40.828  24.375  26.664  1.00  0.00     0.251 C 
ATOM     28  H   UNL A   1      39.926  22.862  25.715  1.00  0.00     0.163 HD
ATOM     29  O   UNL A   1      41.952  23.992  26.360  1.00  0.00    -0.269 OA
BRANCH  27  30
ATOM     30  C   UNL A   1      40.658  25.556  27.542  1.00  0.00     0.039 A 
ATOM     31  C   UNL A   1      39.666  25.524  28.525  1.00  0.00     0.014 A 
ATOM     32  C   UNL A   1      41.464  26.689  27.398  1.00  0.00     0.014 A 
ATOM     33  C   UNL A   1      39.545  26.588  29.424  1.00  0.00     0.010 A 
ATOM     34  C   UNL A   1      41.387  27.718  28.336  1.00  0.00     0.010 A 
ATOM     35  C   UNL A   1      40.441  27.669  29.371  1.00  0.00    -0.014 A 
BRANCH  35  36
ATOM     36  C   UNL A   1      40.455  28.710  30.432  1.00  0.00     0.031 A 
ATOM     37  C   UNL A   1      41.359  28.578  31.628  1.00  0.00     0.074 A 
ATOM     38  C   UNL A   1      39.575  29.731  30.356  1.00  0.00     0.049 A 
ATOM     39  N   UNL A   1      41.427  29.334  32.693  1.00  0.00    -0.248 NA
ATOM     40  C   UNL A   1      42.295  27.442  31.638  1.00  0.00     0.031 C 
ATOM     41  C   UNL A   1      38.615  29.941  29.269  1.00  0.00     0.029 A 
ATOM     42  N   UNL A   1      39.325  30.773  31.218  1.00  0.00    -0.354 N 
ATOM     43  C   UNL A   1      42.395  28.759  33.509  1.00  0.00     0.074 A 
ATOM     44  C   UNL A   1      42.872  27.576  32.826  1.00  0.00     0.031 C 
ATOM     45  C   UNL A   1      37.886  31.038  29.526  1.00  0.00     0.029 A 
ATOM     46  C   UNL A   1      38.287  31.584  30.818  1.00  0.00     0.049 A 
ATOM     47  H   UNL A   1      39.840  30.923  32.043  1.00  0.00     0.167 HD
ATOM     48  C   UNL A   1      42.848  29.189  34.709  1.00  0.00     0.037 A 
ATOM     49  C   UNL A   1      37.702  32.631  31.433  1.00  0.00     0.037 A 
ATOM     50  C   UNL A   1      42.389  30.387  35.365  1.00  0.00     0.049 A 
ATOM     51  C   UNL A   1      38.213  33.067  32.780  1.00  0.00     0.074 A 
ATOM     52  C   UNL A   1      42.861  30.956  36.536  1.00  0.00     0.029 A 
ATOM     53  N   UNL A   1      41.347  31.189  34.924  1.00  0.00    -0.354 N 
ATOM     54  N   UNL A   1      39.204  32.574  33.483  1.00  0.00    -0.248 NA
ATOM     55  C   UNL A   1      37.526  34.198  33.422  1.00  0.00     0.031 C 
ATOM     56  C   UNL A   1      42.061  32.062  36.838  1.00  0.00     0.029 A 
ATOM     57  C   UNL A   1      41.130  32.218  35.825  1.00  0.00     0.049 A 
ATOM     58  H   UNL A   1      40.839  31.048  34.093  1.00  0.00     0.167 HD
ATOM     59  C   UNL A   1      39.269  33.344  34.639  1.00  0.00     0.074 A 
ATOM     60  C   UNL A   1      38.237  34.352  34.530  1.00  0.00     0.031 C 
ATOM     61  C   UNL A   1      40.102  33.221  35.701  1.00  0.00     0.037 A 
BRANCH  48  62
ATOM     62  C   UNL A   1      43.896  28.375  35.417  1.00  0.00     0.058 A 
ATOM     63  C   UNL A   1      45.266  28.596  35.211  1.00  0.00     0.135 A 
ATOM     64  C   UNL A   1      43.522  27.450  36.407  1.00  0.00     0.135 A 
ATOM     65  F   UNL A   1      45.678  29.458  34.269  1.00  0.00    -0.206 F 
ATOM     66  C   UNL A   1      46.229  27.932  35.964  1.00  0.00     0.059 A 
ATOM     67  C   UNL A   1      44.468  26.793  37.189  1.00  0.00     0.059 A 
ATOM     68  F   UNL A   1      42.225  27.201  36.641  1.00  0.00    -0.206 F 
ATOM     69  C   UNL A   1      45.820  27.042  36.960  1.00  0.00     0.060 A 
BRANCH  69  70
ATOM     70  S   UNL A   1      47.084  26.243  37.972  1.00  0.00     0.124 S 
ATOM     71  O   UNL A   1      48.115  25.957  36.980  1.00  0.00    -0.237 OA
ATOM     72  O   UNL A   1      47.408  27.284  38.941  1.00  0.00    -0.237 OA
ATOM     73  O   UNL A   1      46.398  25.075  38.516  1.00  0.00    -0.744 OA
ENDBRANCH  69  70
ENDBRANCH  48  62
BRANCH  49  74
ATOM     74  C   UNL A   1      36.538  33.320  30.809  1.00  0.00     0.058 A 
ATOM     75  C   UNL A   1      36.702  34.163  29.699  1.00  0.00     0.135 A 
ATOM     76  C   UNL A   1      35.243  33.183  31.337  1.00  0.00     0.135 A 
ATOM     77  F   UNL A   1      37.919  34.332  29.161  1.00  0.00    -0.206 F 
ATOM     78  C   UNL A   1      35.635  34.876  29.160  1.00  0.00     0.059 A 
ATOM     79  C   UNL A   1      34.155  33.858  30.795  1.00  0.00     0.059 A 
ATOM     80  F   UNL A   1      35.025  32.375  32.386  1.00  0.00    -0.206 F 
ATOM     81  C   UNL A   1      34.366  34.720  29.720  1.00  0.00     0.060 A 
BRANCH  81  82
ATOM     82  S   UNL A   1      32.988  35.652  29.016  1.00  0.00     0.124 S 
ATOM     83  O   UNL A   1      33.685  36.740  28.342  1.00  0.00    -0.237 OA
ATOM     84  O   UNL A   1      32.358  34.660  28.150  1.00  0.00    -0.237 OA
ATOM     85  O   UNL A   1      32.208  36.032  30.190  1.00  0.00    -0.744 OA
ENDBRANCH  81  82
ENDBRANCH  49  74
BRANCH  61  86
ATOM     86  C   UNL A   1      39.947  34.204  36.828  1.00  0.00     0.058 A 
ATOM     87  C   UNL A   1      40.501  35.492  36.758  1.00  0.00     0.135 A 
ATOM     88  C   UNL A   1      39.178  33.882  37.959  1.00  0.00     0.135 A 
ATOM     89  F   UNL A   1      41.255  35.846  35.706  1.00  0.00    -0.206 F 
ATOM     90  C   UNL A   1      40.307  36.422  37.774  1.00  0.00     0.059 A 
ATOM     91  C   UNL A   1      38.945  34.806  38.972  1.00  0.00     0.059 A 
ATOM     92  F   UNL A   1      38.620  32.665  38.072  1.00  0.00    -0.206 F 
ATOM     93  C   UNL A   1      39.520  36.073  38.873  1.00  0.00     0.060 A 
BRANCH  93  94
ATOM     94  S   UNL A   1      39.228  37.312  40.152  1.00  0.00     0.124 S 
ATOM     95  O   UNL A   1      38.540  36.528  41.172  1.00  0.00    -0.237 OA
ATOM     96  O   UNL A   1      40.583  37.739  40.487  1.00  0.00    -0.237 OA
ATOM     97  O   UNL A   1      38.410  38.315  39.475  1.00  0.00    -0.744 OA
ENDBRANCH  93  94
ENDBRANCH  61  86
ENDBRANCH  35  36
ENDBRANCH  27  30
ENDBRANCH  25  26
ENDBRANCH   1  25
TORSDOF 15
ENDMDL
