MODEL 1
REMARK VINA RESULT:     -13.4      0.000      0.000
REMARK SMILES Cc1ccc(-c2cc3cccnc3n2CCC(=O)NCCCNC(=O)c2ccc(-c3c4nc(c(-c5c(F)cc(S(=O)(=O)[O-])cc5F)c5ccc([nH]5)c(-c5c(F)cc(S(=O)(=O)[O-])cc5F)c5nc(c(-c6c(F)cc(S(=O)(=O)[O-])cc6F)c6ccc3[nH]6)C=C5)C=C4)cc2)cn1
REMARK SMILES IDX 21 1 20 2 19 3 17 4 18 5 16 7 15 8 14 9 6 10 7 11 8 12 13 13
REMARK SMILES IDX 9 14 12 15 10 16 11 17 5 18 1 19 2 20 3 21 93 22 4 23 92 24
REMARK SMILES IDX 22 25 23 26 24 27 25 29 26 30 27 31 91 32 28 33 90 34 29 35
REMARK SMILES IDX 30 36 31 37 84 38 32 39 89 40 83 41 85 42 33 43 88 44 82 45
REMARK SMILES IDX 81 46 34 48 68 49 47 50 67 51 48 52 51 53 66 54 86 55 49 56
REMARK SMILES IDX 50 57 65 59 87 60 52 61 35 62 36 63 45 64 37 65 38 66 44 67
REMARK SMILES IDX 46 68 39 69 40 70 41 71 42 72 43 73 69 74 70 75 79 76 71 77
REMARK SMILES IDX 72 78 78 79 80 80 73 81 74 82 75 83 76 84 77 85 53 86 54 87
REMARK SMILES IDX 63 88 55 89 56 90 62 91 64 92 57 93 58 94 59 95 60 96 61 97
REMARK H PARENT 19 6 23 28 85 47 51 58
REMARK Flexibility Score: inf
ROOT
ATOM      1  C   UNL A   1      34.021  29.127  26.587  1.00  0.00     0.042 C 
ENDROOT
BRANCH   1   2
ATOM      2  C   UNL A   1      33.041  27.974  26.532  1.00  0.00     0.117 C 
BRANCH   2   3
ATOM      3  N   UNL A   1      33.436  26.913  25.615  1.00  0.00    -0.356 N 
ATOM      4  C   UNL A   1      33.447  26.867  24.254  1.00  0.00     0.221 C 
ATOM      5  O   UNL A   1      34.021  25.917  23.713  1.00  0.00    -0.275 OA
ATOM      6  H   UNL A   1      33.749  26.090  26.053  1.00  0.00     0.163 HD
BRANCH   4   7
ATOM      7  C   UNL A   1      32.764  27.916  23.406  1.00  0.00     0.122 C 
BRANCH   7   8
ATOM      8  C   UNL A   1      31.746  27.358  22.395  1.00  0.00     0.134 C 
BRANCH   8   9
ATOM      9  N   UNL A   1      30.359  27.397  22.840  1.00  0.00    -0.325 N 
ATOM     10  C   UNL A   1      29.666  26.551  23.713  1.00  0.00     0.052 A 
ATOM     11  C   UNL A   1      28.368  27.079  23.776  1.00  0.00     0.039 A 
ATOM     12  C   UNL A   1      28.330  28.323  23.098  1.00  0.00     0.020 A 
ATOM     13  C   UNL A   1      29.549  28.455  22.455  1.00  0.00     0.140 A 
ATOM     14  C   UNL A   1      27.436  29.405  23.033  1.00  0.00     0.013 A 
ATOM     15  N   UNL A   1      29.947  29.498  21.691  1.00  0.00    -0.238 NA
ATOM     16  C   UNL A   1      27.828  30.528  22.304  1.00  0.00     0.021 A 
ATOM     17  C   UNL A   1      29.050  30.508  21.650  1.00  0.00     0.113 A 
BRANCH  10  18
ATOM     18  C   UNL A   1      30.198  25.479  24.602  1.00  0.00     0.017 A 
ATOM     19  C   UNL A   1      32.333  22.864  27.272  1.00  0.00     0.066 C 
ATOM     20  C   UNL A   1      31.570  23.753  26.337  1.00  0.00     0.037 A 
ATOM     21  C   UNL A   1      31.478  23.438  24.996  1.00  0.00     0.024 A 
ATOM     22  N   UNL A   1      30.968  24.850  26.846  1.00  0.00    -0.261 NA
ATOM     23  C   UNL A   1      30.785  24.302  24.147  1.00  0.00     0.014 A 
ATOM     24  C   UNL A   1      30.303  25.668  25.982  1.00  0.00     0.121 A 
ENDBRANCH  10  18
ENDBRANCH   8   9
ENDBRANCH   7   8
ENDBRANCH   4   7
ENDBRANCH   2   3
ENDBRANCH   1   2
BRANCH   1  25
ATOM     25  C   UNL A   1      33.828  30.126  27.704  1.00  0.00     0.118 C 
BRANCH  25  26
ATOM     26  N   UNL A   1      34.326  31.446  27.370  1.00  0.00    -0.352 N 
ATOM     27  C   UNL A   1      35.506  32.065  27.731  1.00  0.00     0.251 C 
ATOM     28  H   UNL A   1      33.731  31.983  26.797  1.00  0.00     0.163 HD
ATOM     29  O   UNL A   1      35.593  33.274  27.580  1.00  0.00    -0.269 OA
BRANCH  27  30
ATOM     30  C   UNL A   1      36.666  31.290  28.257  1.00  0.00     0.039 A 
ATOM     31  C   UNL A   1      37.539  31.910  29.166  1.00  0.00     0.014 A 
ATOM     32  C   UNL A   1      36.975  30.014  27.786  1.00  0.00     0.014 A 
ATOM     33  C   UNL A   1      38.736  31.282  29.503  1.00  0.00     0.010 A 
ATOM     34  C   UNL A   1      38.058  29.323  28.253  1.00  0.00     0.010 A 
ATOM     35  C   UNL A   1      39.000  30.009  28.991  1.00  0.00    -0.014 A 
BRANCH  35  36
ATOM     36  C   UNL A   1      40.275  29.347  29.169  1.00  0.00     0.031 A 
ATOM     37  C   UNL A   1      40.624  29.093  30.576  1.00  0.00     0.074 A 
ATOM     38  C   UNL A   1      40.957  28.808  28.134  1.00  0.00     0.049 A 
ATOM     39  N   UNL A   1      41.455  29.762  31.302  1.00  0.00    -0.248 NA
ATOM     40  C   UNL A   1      39.841  28.095  31.322  1.00  0.00     0.031 C 
ATOM     41  C   UNL A   1      40.521  28.669  26.736  1.00  0.00     0.029 A 
ATOM     42  N   UNL A   1      42.160  28.174  28.136  1.00  0.00    -0.354 N 
ATOM     43  C   UNL A   1      41.495  29.092  32.517  1.00  0.00     0.074 A 
ATOM     44  C   UNL A   1      40.330  28.247  32.556  1.00  0.00     0.031 C 
ATOM     45  C   UNL A   1      41.342  27.812  26.088  1.00  0.00     0.029 A 
ATOM     46  C   UNL A   1      42.453  27.488  26.964  1.00  0.00     0.049 A 
ATOM     47  H   UNL A   1      42.775  28.200  28.906  1.00  0.00     0.167 HD
ATOM     48  C   UNL A   1      42.641  29.055  33.251  1.00  0.00     0.037 A 
ATOM     49  C   UNL A   1      43.536  26.706  26.741  1.00  0.00     0.037 A 
ATOM     50  C   UNL A   1      43.650  29.907  32.676  1.00  0.00     0.049 A 
ATOM     51  C   UNL A   1      44.590  27.156  27.685  1.00  0.00     0.074 A 
ATOM     52  C   UNL A   1      43.920  31.256  32.645  1.00  0.00     0.029 A 
ATOM     53  N   UNL A   1      44.339  29.327  31.641  1.00  0.00    -0.354 N 
ATOM     54  N   UNL A   1      45.124  28.347  27.653  1.00  0.00    -0.248 NA
ATOM     55  C   UNL A   1      44.811  26.409  28.919  1.00  0.00     0.031 C 
ATOM     56  C   UNL A   1      44.661  31.488  31.446  1.00  0.00     0.029 A 
ATOM     57  C   UNL A   1      44.858  30.272  30.794  1.00  0.00     0.049 A 
ATOM     58  H   UNL A   1      44.447  28.355  31.520  1.00  0.00     0.167 HD
ATOM     59  C   UNL A   1      45.362  28.655  28.979  1.00  0.00     0.074 A 
ATOM     60  C   UNL A   1      45.319  27.380  29.683  1.00  0.00     0.031 C 
ATOM     61  C   UNL A   1      45.249  29.934  29.438  1.00  0.00     0.037 A 
BRANCH  48  62
ATOM     62  C   UNL A   1      43.015  27.946  34.195  1.00  0.00     0.058 A 
ATOM     63  C   UNL A   1      43.149  28.218  35.570  1.00  0.00     0.135 A 
ATOM     64  C   UNL A   1      43.494  26.690  33.766  1.00  0.00     0.135 A 
ATOM     65  F   UNL A   1      42.761  29.402  36.071  1.00  0.00    -0.206 F 
ATOM     66  C   UNL A   1      43.730  27.307  36.454  1.00  0.00     0.059 A 
ATOM     67  C   UNL A   1      44.023  25.745  34.637  1.00  0.00     0.059 A 
ATOM     68  F   UNL A   1      43.557  26.364  32.468  1.00  0.00    -0.206 F 
ATOM     69  C   UNL A   1      44.163  26.072  35.976  1.00  0.00     0.060 A 
BRANCH  69  70
ATOM     70  S   UNL A   1      44.952  24.915  37.109  1.00  0.00     0.124 S 
ATOM     71  O   UNL A   1      44.594  23.631  36.515  1.00  0.00    -0.237 OA
ATOM     72  O   UNL A   1      46.356  25.298  37.003  1.00  0.00    -0.237 OA
ATOM     73  O   UNL A   1      44.323  25.215  38.391  1.00  0.00    -0.744 OA
ENDBRANCH  69  70
ENDBRANCH  48  62
BRANCH  49  74
ATOM     74  C   UNL A   1      43.606  25.403  26.030  1.00  0.00     0.058 A 
ATOM     75  C   UNL A   1      44.669  25.119  25.155  1.00  0.00     0.135 A 
ATOM     76  C   UNL A   1      42.823  24.304  26.439  1.00  0.00     0.135 A 
ATOM     77  F   UNL A   1      45.463  26.107  24.716  1.00  0.00    -0.206 F 
ATOM     78  C   UNL A   1      44.995  23.812  24.776  1.00  0.00     0.059 A 
ATOM     79  C   UNL A   1      43.127  22.993  26.073  1.00  0.00     0.059 A 
ATOM     80  F   UNL A   1      41.797  24.467  27.289  1.00  0.00    -0.206 F 
ATOM     81  C   UNL A   1      44.236  22.751  25.269  1.00  0.00     0.060 A 
BRANCH  81  82
ATOM     82  S   UNL A   1      44.783  21.056  24.954  1.00  0.00     0.124 S 
ATOM     83  O   UNL A   1      43.781  20.277  25.674  1.00  0.00    -0.237 OA
ATOM     84  O   UNL A   1      44.723  20.982  23.499  1.00  0.00    -0.237 OA
ATOM     85  O   UNL A   1      46.127  21.023  25.524  1.00  0.00    -0.744 OA
ENDBRANCH  81  82
ENDBRANCH  49  74
BRANCH  61  86
ATOM     86  C   UNL A   1      45.421  31.049  28.446  1.00  0.00     0.058 A 
ATOM     87  C   UNL A   1      44.395  31.606  27.664  1.00  0.00     0.135 A 
ATOM     88  C   UNL A   1      46.695  31.627  28.338  1.00  0.00     0.135 A 
ATOM     89  F   UNL A   1      43.135  31.161  27.762  1.00  0.00    -0.206 F 
ATOM     90  C   UNL A   1      44.636  32.668  26.788  1.00  0.00     0.059 A 
ATOM     91  C   UNL A   1      46.951  32.703  27.495  1.00  0.00     0.059 A 
ATOM     92  F   UNL A   1      47.708  31.165  29.090  1.00  0.00    -0.206 F 
ATOM     93  C   UNL A   1      45.919  33.210  26.712  1.00  0.00     0.060 A 
BRANCH  93  94
ATOM     94  S   UNL A   1      46.224  34.610  25.612  1.00  0.00     0.124 S 
ATOM     95  O   UNL A   1      45.314  34.338  24.505  1.00  0.00    -0.237 OA
ATOM     96  O   UNL A   1      45.876  35.753  26.453  1.00  0.00    -0.237 OA
ATOM     97  O   UNL A   1      47.645  34.493  25.293  1.00  0.00    -0.744 OA
ENDBRANCH  93  94
ENDBRANCH  61  86
ENDBRANCH  35  36
ENDBRANCH  27  30
ENDBRANCH  25  26
ENDBRANCH   1  25
TORSDOF 16
ENDMDL
MODEL 2
REMARK VINA RESULT:     -13.3      3.561      9.738
REMARK SMILES Cc1ccc(-c2cc3cccnc3n2CCC(=O)NCCCNC(=O)c2ccc(-c3c4nc(c(-c5c(F)cc(S(=O)(=O)[O-])cc5F)c5ccc([nH]5)c(-c5c(F)cc(S(=O)(=O)[O-])cc5F)c5nc(c(-c6c(F)cc(S(=O)(=O)[O-])cc6F)c6ccc3[nH]6)C=C5)C=C4)cc2)cn1
REMARK SMILES IDX 21 1 20 2 19 3 17 4 18 5 16 7 15 8 14 9 6 10 7 11 8 12 13 13
REMARK SMILES IDX 9 14 12 15 10 16 11 17 5 18 1 19 2 20 3 21 93 22 4 23 92 24
REMARK SMILES IDX 22 25 23 26 24 27 25 29 26 30 27 31 91 32 28 33 90 34 29 35
REMARK SMILES IDX 30 36 31 37 84 38 32 39 89 40 83 41 85 42 33 43 88 44 82 45
REMARK SMILES IDX 81 46 34 48 68 49 47 50 67 51 48 52 51 53 66 54 86 55 49 56
REMARK SMILES IDX 50 57 65 59 87 60 52 61 35 62 36 63 45 64 37 65 38 66 44 67
REMARK SMILES IDX 46 68 39 69 40 70 41 71 42 72 43 73 69 74 70 75 79 76 71 77
REMARK SMILES IDX 72 78 78 79 80 80 73 81 74 82 75 83 76 84 77 85 53 86 54 87
REMARK SMILES IDX 63 88 55 89 56 90 62 91 64 92 57 93 58 94 59 95 60 96 61 97
REMARK H PARENT 19 6 23 28 85 47 51 58
REMARK Flexibility Score: inf
ROOT
ATOM      1  C   UNL A   1      39.685  21.228  26.315  1.00  0.00     0.042 C 
ENDROOT
BRANCH   1   2
ATOM      2  C   UNL A   1      38.709  22.382  26.232  1.00  0.00     0.117 C 
BRANCH   2   3
ATOM      3  N   UNL A   1      38.142  22.576  24.904  1.00  0.00    -0.356 N 
ATOM      4  C   UNL A   1      37.017  22.067  24.331  1.00  0.00     0.221 C 
ATOM      5  O   UNL A   1      36.649  22.549  23.255  1.00  0.00    -0.275 OA
ATOM      6  H   UNL A   1      38.660  23.178  24.323  1.00  0.00     0.163 HD
BRANCH   4   7
ATOM      7  C   UNL A   1      36.237  20.932  24.954  1.00  0.00     0.122 C 
BRANCH   7   8
ATOM      8  C   UNL A   1      34.894  21.348  25.581  1.00  0.00     0.134 C 
BRANCH   8   9
ATOM      9  N   UNL A   1      33.805  21.530  24.631  1.00  0.00    -0.325 N 
ATOM     10  C   UNL A   1      32.998  20.584  23.990  1.00  0.00     0.052 A 
ATOM     11  C   UNL A   1      32.115  21.336  23.201  1.00  0.00     0.039 A 
ATOM     12  C   UNL A   1      32.267  22.713  23.501  1.00  0.00     0.020 A 
ATOM     13  C   UNL A   1      33.377  22.814  24.322  1.00  0.00     0.140 A 
ATOM     14  C   UNL A   1      31.532  23.883  23.249  1.00  0.00     0.013 A 
ATOM     15  N   UNL A   1      33.885  23.949  24.854  1.00  0.00    -0.238 NA
ATOM     16  C   UNL A   1      31.986  25.071  23.825  1.00  0.00     0.021 A 
ATOM     17  C   UNL A   1      33.151  25.048  24.576  1.00  0.00     0.113 A 
BRANCH  10  18
ATOM     18  C   UNL A   1      32.882  19.120  24.245  1.00  0.00     0.017 A 
ATOM     19  C   UNL A   1      33.192  14.986  25.405  1.00  0.00     0.066 C 
ATOM     20  C   UNL A   1      33.062  16.419  24.983  1.00  0.00     0.037 A 
ATOM     21  C   UNL A   1      33.324  16.788  23.678  1.00  0.00     0.024 A 
ATOM     22  N   UNL A   1      32.668  17.325  25.904  1.00  0.00    -0.261 NA
ATOM     23  C   UNL A   1      33.222  18.134  23.324  1.00  0.00     0.014 A 
ATOM     24  C   UNL A   1      32.583  18.629  25.518  1.00  0.00     0.121 A 
ENDBRANCH  10  18
ENDBRANCH   8   9
ENDBRANCH   7   8
ENDBRANCH   4   7
ENDBRANCH   2   3
ENDBRANCH   1   2
BRANCH   1  25
ATOM     25  C   UNL A   1      40.986  21.491  27.036  1.00  0.00     0.118 C 
BRANCH  25  26
ATOM     26  N   UNL A   1      42.038  21.950  26.151  1.00  0.00    -0.352 N 
ATOM     27  C   UNL A   1      42.393  23.233  25.788  1.00  0.00     0.251 C 
ATOM     28  H   UNL A   1      42.584  21.236  25.747  1.00  0.00     0.163 HD
ATOM     29  O   UNL A   1      43.116  23.379  24.815  1.00  0.00    -0.269 OA
BRANCH  27  30
ATOM     30  C   UNL A   1      41.947  24.420  26.574  1.00  0.00     0.039 A 
ATOM     31  C   UNL A   1      41.089  25.351  25.967  1.00  0.00     0.014 A 
ATOM     32  C   UNL A   1      42.447  24.691  27.848  1.00  0.00     0.014 A 
ATOM     33  C   UNL A   1      40.832  26.563  26.604  1.00  0.00     0.010 A 
ATOM     34  C   UNL A   1      42.054  25.797  28.549  1.00  0.00     0.010 A 
ATOM     35  C   UNL A   1      41.370  26.786  27.874  1.00  0.00    -0.014 A 
BRANCH  35  36
ATOM     36  C   UNL A   1      41.277  28.066  28.545  1.00  0.00     0.031 A 
ATOM     37  C   UNL A   1      42.341  29.013  28.174  1.00  0.00     0.074 A 
ATOM     38  C   UNL A   1      40.186  28.429  29.255  1.00  0.00     0.049 A 
ATOM     39  N   UNL A   1      43.389  29.311  28.863  1.00  0.00    -0.248 NA
ATOM     40  C   UNL A   1      42.340  29.567  26.810  1.00  0.00     0.031 C 
ATOM     41  C   UNL A   1      38.906  27.715  29.379  1.00  0.00     0.029 A 
ATOM     42  N   UNL A   1      39.955  29.577  29.948  1.00  0.00    -0.354 N 
ATOM     43  C   UNL A   1      44.037  30.296  28.131  1.00  0.00     0.074 A 
ATOM     44  C   UNL A   1      43.495  30.237  26.798  1.00  0.00     0.031 C 
ATOM     45  C   UNL A   1      37.976  28.539  29.913  1.00  0.00     0.029 A 
ATOM     46  C   UNL A   1      38.633  29.763  30.331  1.00  0.00     0.049 A 
ATOM     47  H   UNL A   1      40.667  30.223  30.160  1.00  0.00     0.167 HD
ATOM     48  C   UNL A   1      44.735  31.281  28.760  1.00  0.00     0.037 A 
ATOM     49  C   UNL A   1      38.121  30.856  30.947  1.00  0.00     0.037 A 
ATOM     50  C   UNL A   1      44.819  31.031  30.176  1.00  0.00     0.049 A 
ATOM     51  C   UNL A   1      39.253  31.526  31.636  1.00  0.00     0.074 A 
ATOM     52  C   UNL A   1      45.558  30.217  31.005  1.00  0.00     0.029 A 
ATOM     53  N   UNL A   1      43.707  31.427  30.874  1.00  0.00    -0.354 N 
ATOM     54  N   UNL A   1      39.930  30.978  32.609  1.00  0.00    -0.248 NA
ATOM     55  C   UNL A   1      39.891  32.679  31.009  1.00  0.00     0.031 C 
ATOM     56  C   UNL A   1      44.759  30.002  32.169  1.00  0.00     0.029 A 
ATOM     57  C   UNL A   1      43.569  30.717  32.040  1.00  0.00     0.049 A 
ATOM     58  H   UNL A   1      43.085  32.131  30.577  1.00  0.00     0.167 HD
ATOM     59  C   UNL A   1      41.223  31.429  32.428  1.00  0.00     0.074 A 
ATOM     60  C   UNL A   1      41.106  32.591  31.558  1.00  0.00     0.031 C 
ATOM     61  C   UNL A   1      42.295  30.640  32.728  1.00  0.00     0.037 A 
BRANCH  48  62
ATOM     62  C   UNL A   1      44.949  32.664  28.207  1.00  0.00     0.058 A 
ATOM     63  C   UNL A   1      46.246  33.078  27.852  1.00  0.00     0.135 A 
ATOM     64  C   UNL A   1      43.969  33.679  28.255  1.00  0.00     0.135 A 
ATOM     65  F   UNL A   1      47.257  32.196  27.817  1.00  0.00    -0.206 F 
ATOM     66  C   UNL A   1      46.549  34.412  27.574  1.00  0.00     0.059 A 
ATOM     67  C   UNL A   1      44.236  35.003  27.927  1.00  0.00     0.059 A 
ATOM     68  F   UNL A   1      42.732  33.445  28.716  1.00  0.00    -0.206 F 
ATOM     69  C   UNL A   1      45.535  35.366  27.613  1.00  0.00     0.060 A 
BRANCH  69  70
ATOM     70  S   UNL A   1      45.935  37.094  27.297  1.00  0.00     0.124 S 
ATOM     71  O   UNL A   1      44.609  37.677  27.126  1.00  0.00    -0.237 OA
ATOM     72  O   UNL A   1      46.645  37.468  28.516  1.00  0.00    -0.237 OA
ATOM     73  O   UNL A   1      46.760  37.035  26.094  1.00  0.00    -0.744 OA
ENDBRANCH  69  70
ENDBRANCH  48  62
BRANCH  49  74
ATOM     74  C   UNL A   1      36.824  31.536  30.698  1.00  0.00     0.058 A 
ATOM     75  C   UNL A   1      35.925  31.775  31.753  1.00  0.00     0.135 A 
ATOM     76  C   UNL A   1      36.587  32.247  29.504  1.00  0.00     0.135 A 
ATOM     77  F   UNL A   1      36.077  31.139  32.925  1.00  0.00    -0.206 F 
ATOM     78  C   UNL A   1      34.905  32.727  31.663  1.00  0.00     0.059 A 
ATOM     79  C   UNL A   1      35.575  33.199  29.389  1.00  0.00     0.059 A 
ATOM     80  F   UNL A   1      37.399  32.104  28.445  1.00  0.00    -0.206 F 
ATOM     81  C   UNL A   1      34.759  33.459  30.485  1.00  0.00     0.060 A 
BRANCH  81  82
ATOM     82  S   UNL A   1      33.583  34.833  30.441  1.00  0.00     0.124 S 
ATOM     83  O   UNL A   1      32.655  34.403  29.401  1.00  0.00    -0.237 OA
ATOM     84  O   UNL A   1      33.060  34.831  31.802  1.00  0.00    -0.237 OA
ATOM     85  O   UNL A   1      34.417  35.981  30.097  1.00  0.00    -0.744 OA
ENDBRANCH  81  82
ENDBRANCH  49  74
BRANCH  61  86
ATOM     86  C   UNL A   1      42.096  29.551  33.743  1.00  0.00     0.058 A 
ATOM     87  C   UNL A   1      41.700  28.234  33.455  1.00  0.00     0.135 A 
ATOM     88  C   UNL A   1      42.394  29.852  35.081  1.00  0.00     0.135 A 
ATOM     89  F   UNL A   1      41.467  27.844  32.195  1.00  0.00    -0.206 F 
ATOM     90  C   UNL A   1      41.572  27.271  34.460  1.00  0.00     0.059 A 
ATOM     91  C   UNL A   1      42.303  28.902  36.092  1.00  0.00     0.059 A 
ATOM     92  F   UNL A   1      42.818  31.083  35.413  1.00  0.00    -0.206 F 
ATOM     93  C   UNL A   1      41.878  27.616  35.776  1.00  0.00     0.060 A 
BRANCH  93  94
ATOM     94  S   UNL A   1      41.755  26.362  37.070  1.00  0.00     0.124 S 
ATOM     95  O   UNL A   1      41.844  25.121  36.309  1.00  0.00    -0.237 OA
ATOM     96  O   UNL A   1      42.904  26.670  37.918  1.00  0.00    -0.237 OA
ATOM     97  O   UNL A   1      40.454  26.625  37.681  1.00  0.00    -0.744 OA
ENDBRANCH  93  94
ENDBRANCH  61  86
ENDBRANCH  35  36
ENDBRANCH  27  30
ENDBRANCH  25  26
ENDBRANCH   1  25
TORSDOF 16
ENDMDL
MODEL 3
REMARK VINA RESULT:     -13.2      3.394      9.744
REMARK SMILES Cc1ccc(-c2cc3cccnc3n2CCC(=O)NCCCNC(=O)c2ccc(-c3c4nc(c(-c5c(F)cc(S(=O)(=O)[O-])cc5F)c5ccc([nH]5)c(-c5c(F)cc(S(=O)(=O)[O-])cc5F)c5nc(c(-c6c(F)cc(S(=O)(=O)[O-])cc6F)c6ccc3[nH]6)C=C5)C=C4)cc2)cn1
REMARK SMILES IDX 21 1 20 2 19 3 17 4 18 5 16 7 15 8 14 9 6 10 7 11 8 12 13 13
REMARK SMILES IDX 9 14 12 15 10 16 11 17 5 18 1 19 2 20 3 21 93 22 4 23 92 24
REMARK SMILES IDX 22 25 23 26 24 27 25 29 26 30 27 31 91 32 28 33 90 34 29 35
REMARK SMILES IDX 30 36 31 37 84 38 32 39 89 40 83 41 85 42 33 43 88 44 82 45
REMARK SMILES IDX 81 46 34 48 68 49 47 50 67 51 48 52 51 53 66 54 86 55 49 56
REMARK SMILES IDX 50 57 65 59 87 60 52 61 35 62 36 63 45 64 37 65 38 66 44 67
REMARK SMILES IDX 46 68 39 69 40 70 41 71 42 72 43 73 69 74 70 75 79 76 71 77
REMARK SMILES IDX 72 78 78 79 80 80 73 81 74 82 75 83 76 84 77 85 53 86 54 87
REMARK SMILES IDX 63 88 55 89 56 90 62 91 64 92 57 93 58 94 59 95 60 96 61 97
REMARK H PARENT 19 6 23 28 85 47 51 58
REMARK Flexibility Score: inf
ROOT
ATOM      1  C   UNL A   1      39.229  23.751  26.468  1.00  0.00     0.042 C 
ENDROOT
BRANCH   1   2
ATOM      2  C   UNL A   1      37.744  23.689  26.180  1.00  0.00     0.117 C 
BRANCH   2   3
ATOM      3  N   UNL A   1      37.424  23.661  24.758  1.00  0.00    -0.356 N 
ATOM      4  C   UNL A   1      36.929  22.664  23.974  1.00  0.00     0.221 C 
ATOM      5  O   UNL A   1      36.555  22.957  22.835  1.00  0.00    -0.275 OA
ATOM      6  H   UNL A   1      37.592  24.506  24.285  1.00  0.00     0.163 HD
BRANCH   4   7
ATOM      7  C   UNL A   1      36.854  21.229  24.446  1.00  0.00     0.122 C 
BRANCH   7   8
ATOM      8  C   UNL A   1      35.773  20.963  25.510  1.00  0.00     0.134 C 
BRANCH   8   9
ATOM      9  N   UNL A   1      34.447  20.679  24.978  1.00  0.00    -0.325 N 
ATOM     10  C   UNL A   1      33.378  21.540  24.707  1.00  0.00     0.052 A 
ATOM     11  C   UNL A   1      32.366  20.713  24.198  1.00  0.00     0.039 A 
ATOM     12  C   UNL A   1      32.879  19.408  23.993  1.00  0.00     0.020 A 
ATOM     13  C   UNL A   1      34.140  19.390  24.564  1.00  0.00     0.140 A 
ATOM     14  C   UNL A   1      32.458  18.260  23.302  1.00  0.00     0.013 A 
ATOM     15  N   UNL A   1      34.994  18.342  24.597  1.00  0.00    -0.238 NA
ATOM     16  C   UNL A   1      33.331  17.172  23.259  1.00  0.00     0.021 A 
ATOM     17  C   UNL A   1      34.541  17.258  23.929  1.00  0.00     0.113 A 
BRANCH  10  18
ATOM     18  C   UNL A   1      33.353  23.030  24.696  1.00  0.00     0.017 A 
ATOM     19  C   UNL A   1      33.955  27.274  24.292  1.00  0.00     0.066 C 
ATOM     20  C   UNL A   1      33.722  25.801  24.450  1.00  0.00     0.037 A 
ATOM     21  C   UNL A   1      33.840  25.206  25.691  1.00  0.00     0.024 A 
ATOM     22  N   UNL A   1      33.379  25.086  23.356  1.00  0.00    -0.261 NA
ATOM     23  C   UNL A   1      33.645  23.828  25.799  1.00  0.00     0.014 A 
ATOM     24  C   UNL A   1      33.199  23.744  23.505  1.00  0.00     0.121 A 
ENDBRANCH  10  18
ENDBRANCH   8   9
ENDBRANCH   7   8
ENDBRANCH   4   7
ENDBRANCH   2   3
ENDBRANCH   1   2
BRANCH   1  25
ATOM     25  C   UNL A   1      39.904  22.449  26.829  1.00  0.00     0.118 C 
BRANCH  25  26
ATOM     26  N   UNL A   1      41.137  22.233  26.099  1.00  0.00    -0.352 N 
ATOM     27  C   UNL A   1      42.126  23.129  25.746  1.00  0.00     0.251 C 
ATOM     28  H   UNL A   1      41.294  21.304  25.812  1.00  0.00     0.163 HD
ATOM     29  O   UNL A   1      42.931  22.793  24.891  1.00  0.00    -0.269 OA
BRANCH  27  30
ATOM     30  C   UNL A   1      42.248  24.459  26.408  1.00  0.00     0.039 A 
ATOM     31  C   UNL A   1      42.663  24.515  27.749  1.00  0.00     0.014 A 
ATOM     32  C   UNL A   1      41.854  25.637  25.773  1.00  0.00     0.014 A 
ATOM     33  C   UNL A   1      42.581  25.720  28.442  1.00  0.00     0.010 A 
ATOM     34  C   UNL A   1      41.942  26.850  26.399  1.00  0.00     0.010 A 
ATOM     35  C   UNL A   1      42.166  26.866  27.759  1.00  0.00    -0.014 A 
BRANCH  35  36
ATOM     36  C   UNL A   1      41.913  28.123  28.431  1.00  0.00     0.031 A 
ATOM     37  C   UNL A   1      42.936  29.152  28.180  1.00  0.00     0.074 A 
ATOM     38  C   UNL A   1      40.732  28.393  29.032  1.00  0.00     0.049 A 
ATOM     39  N   UNL A   1      43.885  29.511  28.975  1.00  0.00    -0.248 NA
ATOM     40  C   UNL A   1      43.030  29.729  26.830  1.00  0.00     0.031 C 
ATOM     41  C   UNL A   1      39.503  27.586  29.018  1.00  0.00     0.029 A 
ATOM     42  N   UNL A   1      40.350  29.508  29.711  1.00  0.00    -0.354 N 
ATOM     43  C   UNL A   1      44.528  30.554  28.324  1.00  0.00     0.074 A 
ATOM     44  C   UNL A   1      44.128  30.481  26.942  1.00  0.00     0.031 C 
ATOM     45  C   UNL A   1      38.465  28.330  29.464  1.00  0.00     0.029 A 
ATOM     46  C   UNL A   1      38.985  29.591  29.961  1.00  0.00     0.049 A 
ATOM     47  H   UNL A   1      40.987  30.200  30.001  1.00  0.00     0.167 HD
ATOM     48  C   UNL A   1      45.086  31.575  29.031  1.00  0.00     0.037 A 
ATOM     49  C   UNL A   1      38.336  30.633  30.534  1.00  0.00     0.037 A 
ATOM     50  C   UNL A   1      45.046  31.305  30.445  1.00  0.00     0.049 A 
ATOM     51  C   UNL A   1      39.341  31.370  31.342  1.00  0.00     0.074 A 
ATOM     52  C   UNL A   1      45.756  30.531  31.336  1.00  0.00     0.029 A 
ATOM     53  N   UNL A   1      43.843  31.607  31.032  1.00  0.00    -0.354 N 
ATOM     54  N   UNL A   1      39.956  30.854  32.372  1.00  0.00    -0.248 NA
ATOM     55  C   UNL A   1      39.951  32.577  30.795  1.00  0.00     0.031 C 
ATOM     56  C   UNL A   1      44.863  30.237  32.410  1.00  0.00     0.029 A 
ATOM     57  C   UNL A   1      43.643  30.867  32.170  1.00  0.00     0.049 A 
ATOM     58  H   UNL A   1      43.204  32.269  30.682  1.00  0.00     0.167 HD
ATOM     59  C   UNL A   1      41.223  31.400  32.327  1.00  0.00     0.074 A 
ATOM     60  C   UNL A   1      41.109  32.567  31.463  1.00  0.00     0.031 C 
ATOM     61  C   UNL A   1      42.315  30.685  32.725  1.00  0.00     0.037 A 
BRANCH  48  62
ATOM     62  C   UNL A   1      45.251  32.979  28.519  1.00  0.00     0.058 A 
ATOM     63  C   UNL A   1      46.542  33.525  28.387  1.00  0.00     0.135 A 
ATOM     64  C   UNL A   1      44.181  33.892  28.396  1.00  0.00     0.135 A 
ATOM     65  F   UNL A   1      47.627  32.747  28.528  1.00  0.00    -0.206 F 
ATOM     66  C   UNL A   1      46.753  34.886  28.161  1.00  0.00     0.059 A 
ATOM     67  C   UNL A   1      44.366  35.240  28.114  1.00  0.00     0.059 A 
ATOM     68  F   UNL A   1      42.914  33.531  28.641  1.00  0.00    -0.206 F 
ATOM     69  C   UNL A   1      45.657  35.734  28.025  1.00  0.00     0.060 A 
BRANCH  69  70
ATOM     70  S   UNL A   1      45.931  37.498  27.776  1.00  0.00     0.124 S 
ATOM     71  O   UNL A   1      47.016  37.763  28.713  1.00  0.00    -0.237 OA
ATOM     72  O   UNL A   1      46.281  37.552  26.360  1.00  0.00    -0.237 OA
ATOM     73  O   UNL A   1      44.641  38.091  28.118  1.00  0.00    -0.744 OA
ENDBRANCH  69  70
ENDBRANCH  48  62
BRANCH  49  74
ATOM     74  C   UNL A   1      37.023  31.222  30.163  1.00  0.00     0.058 A 
ATOM     75  C   UNL A   1      36.191  31.794  31.143  1.00  0.00     0.135 A 
ATOM     76  C   UNL A   1      36.711  31.526  28.823  1.00  0.00     0.135 A 
ATOM     77  F   UNL A   1      36.418  31.554  32.443  1.00  0.00    -0.206 F 
ATOM     78  C   UNL A   1      35.164  32.686  30.820  1.00  0.00     0.059 A 
ATOM     79  C   UNL A   1      35.690  32.411  28.477  1.00  0.00     0.059 A 
ATOM     80  F   UNL A   1      37.455  31.046  27.815  1.00  0.00    -0.206 F 
ATOM     81  C   UNL A   1      34.943  33.015  29.483  1.00  0.00     0.060 A 
BRANCH  81  82
ATOM     82  S   UNL A   1      33.762  34.325  29.082  1.00  0.00     0.124 S 
ATOM     83  O   UNL A   1      32.896  33.664  28.111  1.00  0.00    -0.237 OA
ATOM     84  O   UNL A   1      33.164  34.606  30.382  1.00  0.00    -0.237 OA
ATOM     85  O   UNL A   1      34.606  35.388  28.543  1.00  0.00    -0.744 OA
ENDBRANCH  81  82
ENDBRANCH  49  74
BRANCH  61  86
ATOM     86  C   UNL A   1      42.097  29.566  33.703  1.00  0.00     0.058 A 
ATOM     87  C   UNL A   1      41.893  28.218  33.361  1.00  0.00     0.135 A 
ATOM     88  C   UNL A   1      42.168  29.878  35.069  1.00  0.00     0.135 A 
ATOM     89  F   UNL A   1      41.885  27.824  32.081  1.00  0.00    -0.206 F 
ATOM     90  C   UNL A   1      41.733  27.232  34.339  1.00  0.00     0.059 A 
ATOM     91  C   UNL A   1      42.042  28.909  36.058  1.00  0.00     0.059 A 
ATOM     92  F   UNL A   1      42.403  31.142  35.457  1.00  0.00    -0.206 F 
ATOM     93  C   UNL A   1      41.809  27.588  35.685  1.00  0.00     0.060 A 
BRANCH  93  94
ATOM     94  S   UNL A   1      41.645  26.309  36.950  1.00  0.00     0.124 S 
ATOM     95  O   UNL A   1      41.702  25.084  36.161  1.00  0.00    -0.237 OA
ATOM     96  O   UNL A   1      42.799  26.565  37.808  1.00  0.00    -0.237 OA
ATOM     97  O   UNL A   1      40.349  26.595  37.562  1.00  0.00    -0.744 OA
ENDBRANCH  93  94
ENDBRANCH  61  86
ENDBRANCH  35  36
ENDBRANCH  27  30
ENDBRANCH  25  26
ENDBRANCH   1  25
TORSDOF 16
ENDMDL
