MODEL 1
REMARK VINA RESULT:     -11.4      0.000      0.000
REMARK SMILES C[C@@H](C(=O)NCCCNC(=O)c1ccc(-c2c3nc(c(-c4c(F)cc(S(=O)(=O)[O-])cc4F)c4ccc([nH]4)c(-c4c(F)cc(S(=O)(=O)[O-])cc4F)c4nc(c(-c5c(F)cc(S(=O)(=O)[O-])cc5F)c5ccc2[nH]5)C=C4)C=C3)cc1)c1ccc(C[C@H]2CCC[C@@H]2O)cc1
REMARK SMILES IDX 6 1 5 2 3 3 4 4 2 6 1 7 78 8 79 9 90 10 80 11 89 12 81 13
REMARK SMILES IDX 82 14 83 15 84 16 87 17 85 18 86 19 88 20 7 22 8 23 9 24
REMARK SMILES IDX 10 25 11 27 12 28 13 29 77 30 14 31 76 32 15 33 16 34 17 35
REMARK SMILES IDX 70 36 18 37 75 38 69 39 71 40 19 41 74 42 68 43 67 44 20 46
REMARK SMILES IDX 54 47 33 48 53 49 34 50 37 51 52 52 72 53 35 54 36 55 51 57
REMARK SMILES IDX 73 58 38 59 21 60 22 61 31 62 23 63 24 64 30 65 32 66 25 67
REMARK SMILES IDX 26 68 27 69 28 70 29 71 55 72 56 73 65 74 57 75 58 76 64 77
REMARK SMILES IDX 66 78 59 79 60 80 61 81 62 82 63 83 39 84 40 85 49 86 41 87
REMARK SMILES IDX 42 88 48 89 50 90 43 91 44 92 45 93 46 94 47 95
REMARK H PARENT 5 5 88 21 9 26 71 45 37 56
REMARK Flexibility Score: inf
ROOT
ATOM      1  C   UNL A   1      31.824  28.187  25.402  1.00  0.00     0.117 C 
ENDROOT
BRANCH   1   2
ATOM      2  N   UNL A   1      31.136  27.082  24.765  1.00  0.00    -0.356 N 
ATOM      3  C   UNL A   1      31.589  26.155  23.872  1.00  0.00     0.227 C 
ATOM      4  O   UNL A   1      30.744  25.412  23.370  1.00  0.00    -0.274 OA
ATOM      5  H   UNL A   1      30.189  26.985  25.016  1.00  0.00     0.163 HD
BRANCH   3   6
ATOM      6  C   UNL A   1      33.095  26.039  23.583  1.00  0.00     0.105 C 
ATOM      7  C   UNL A   1      33.413  26.292  22.106  1.00  0.00     0.023 C 
BRANCH   6   8
ATOM      8  C   UNL A   1      33.659  24.718  24.101  1.00  0.00    -0.036 A 
ATOM      9  C   UNL A   1      34.291  23.851  23.196  1.00  0.00     0.005 A 
ATOM     10  C   UNL A   1      33.586  24.331  25.446  1.00  0.00     0.005 A 
ATOM     11  C   UNL A   1      34.780  22.613  23.613  1.00  0.00     0.004 A 
ATOM     12  C   UNL A   1      34.044  23.079  25.855  1.00  0.00     0.004 A 
ATOM     13  C   UNL A   1      34.607  22.190  24.934  1.00  0.00    -0.048 A 
BRANCH  13  14
ATOM     14  C   UNL A   1      34.976  20.790  25.360  1.00  0.00     0.041 C 
BRANCH  14  15
ATOM     15  C   UNL A   1      34.120  19.669  24.743  1.00  0.00     0.022 C 
ATOM     16  C   UNL A   1      34.854  18.350  24.437  1.00  0.00     0.007 C 
ATOM     17  C   UNL A   1      32.895  19.236  25.555  1.00  0.00     0.117 C 
ATOM     18  C   UNL A   1      33.844  17.230  24.709  1.00  0.00     0.003 C 
ATOM     19  C   UNL A   1      32.505  17.926  24.889  1.00  0.00     0.032 C 
BRANCH  17  20
ATOM     20  O   UNL A   1      31.838  20.174  25.471  1.00  0.00    -0.393 OA
ATOM     21  H   UNL A   1      32.167  21.055  25.709  1.00  0.00     0.210 HD
ENDBRANCH  17  20
ENDBRANCH  14  15
ENDBRANCH  13  14
ENDBRANCH   6   8
ENDBRANCH   3   6
ENDBRANCH   1   2
BRANCH   1  22
ATOM     22  C   UNL A   1      32.336  27.797  26.788  1.00  0.00     0.042 C 
BRANCH  22  23
ATOM     23  C   UNL A   1      33.691  28.400  27.142  1.00  0.00     0.118 C 
BRANCH  23  24
ATOM     24  N   UNL A   1      33.591  29.794  27.548  1.00  0.00    -0.352 N 
ATOM     25  C   UNL A   1      34.490  30.576  28.224  1.00  0.00     0.251 C 
ATOM     26  H   UNL A   1      32.751  30.243  27.300  1.00  0.00     0.163 HD
ATOM     27  O   UNL A   1      34.129  31.676  28.650  1.00  0.00    -0.269 OA
BRANCH  25  28
ATOM     28  C   UNL A   1      35.873  30.108  28.463  1.00  0.00     0.039 A 
ATOM     29  C   UNL A   1      36.787  30.143  27.407  1.00  0.00     0.014 A 
ATOM     30  C   UNL A   1      36.265  29.611  29.709  1.00  0.00     0.014 A 
ATOM     31  C   UNL A   1      38.109  29.740  27.618  1.00  0.00     0.010 A 
ATOM     32  C   UNL A   1      37.599  29.279  29.938  1.00  0.00     0.010 A 
ATOM     33  C   UNL A   1      38.536  29.340  28.895  1.00  0.00    -0.014 A 
BRANCH  33  34
ATOM     34  C   UNL A   1      39.958  28.994  29.157  1.00  0.00     0.031 A 
ATOM     35  C   UNL A   1      40.899  30.024  29.722  1.00  0.00     0.074 A 
ATOM     36  C   UNL A   1      40.414  27.770  28.826  1.00  0.00     0.049 A 
ATOM     37  N   UNL A   1      42.184  29.928  29.952  1.00  0.00    -0.248 NA
ATOM     38  C   UNL A   1      40.329  31.341  30.051  1.00  0.00     0.031 C 
ATOM     39  C   UNL A   1      39.609  26.701  28.227  1.00  0.00     0.029 A 
ATOM     40  N   UNL A   1      41.665  27.218  28.934  1.00  0.00    -0.354 N 
ATOM     41  C   UNL A   1      42.577  31.169  30.438  1.00  0.00     0.074 A 
ATOM     42  C   UNL A   1      41.406  32.018  30.426  1.00  0.00     0.031 C 
ATOM     43  C   UNL A   1      40.382  25.620  28.039  1.00  0.00     0.029 A 
ATOM     44  C   UNL A   1      41.744  25.927  28.464  1.00  0.00     0.049 A 
ATOM     45  H   UNL A   1      42.436  27.701  29.312  1.00  0.00     0.167 HD
ATOM     46  C   UNL A   1      43.799  31.560  30.874  1.00  0.00     0.037 A 
ATOM     47  C   UNL A   1      42.796  25.090  28.372  1.00  0.00     0.037 A 
ATOM     48  C   UNL A   1      44.956  30.702  30.908  1.00  0.00     0.049 A 
ATOM     49  C   UNL A   1      44.143  25.550  28.861  1.00  0.00     0.074 A 
ATOM     50  C   UNL A   1      46.223  30.987  31.389  1.00  0.00     0.029 A 
ATOM     51  N   UNL A   1      44.990  29.396  30.444  1.00  0.00    -0.354 N 
ATOM     52  N   UNL A   1      44.481  26.708  29.379  1.00  0.00    -0.248 NA
ATOM     53  C   UNL A   1      45.251  24.590  28.760  1.00  0.00     0.031 C 
ATOM     54  C   UNL A   1      47.034  29.869  31.173  1.00  0.00     0.029 A 
ATOM     55  C   UNL A   1      46.261  28.868  30.606  1.00  0.00     0.049 A 
ATOM     56  H   UNL A   1      44.224  28.914  30.056  1.00  0.00     0.167 HD
ATOM     57  C   UNL A   1      45.832  26.604  29.692  1.00  0.00     0.074 A 
ATOM     58  C   UNL A   1      46.246  25.268  29.317  1.00  0.00     0.031 C 
ATOM     59  C   UNL A   1      46.655  27.532  30.240  1.00  0.00     0.037 A 
BRANCH  46  60
ATOM     60  C   UNL A   1      43.955  32.976  31.358  1.00  0.00     0.058 A 
ATOM     61  C   UNL A   1      44.337  34.013  30.492  1.00  0.00     0.135 A 
ATOM     62  C   UNL A   1      43.659  33.313  32.689  1.00  0.00     0.135 A 
ATOM     63  F   UNL A   1      44.646  33.746  29.213  1.00  0.00    -0.206 F 
ATOM     64  C   UNL A   1      44.439  35.329  30.932  1.00  0.00     0.059 A 
ATOM     65  C   UNL A   1      43.727  34.627  33.144  1.00  0.00     0.059 A 
ATOM     66  F   UNL A   1      43.290  32.361  33.561  1.00  0.00    -0.206 F 
ATOM     67  C   UNL A   1      44.128  35.627  32.259  1.00  0.00     0.060 A 
BRANCH  67  68
ATOM     68  S   UNL A   1      44.239  37.344  32.805  1.00  0.00     0.124 S 
ATOM     69  O   UNL A   1      43.013  37.480  33.588  1.00  0.00    -0.237 OA
ATOM     70  O   UNL A   1      45.482  37.349  33.570  1.00  0.00    -0.237 OA
ATOM     71  O   UNL A   1      44.271  38.098  31.557  1.00  0.00    -0.744 OA
ENDBRANCH  67  68
ENDBRANCH  46  60
BRANCH  47  72
ATOM     72  C   UNL A   1      42.618  23.726  27.806  1.00  0.00     0.058 A 
ATOM     73  C   UNL A   1      42.542  23.522  26.421  1.00  0.00     0.135 A 
ATOM     74  C   UNL A   1      42.518  22.600  28.638  1.00  0.00     0.135 A 
ATOM     75  F   UNL A   1      42.628  24.567  25.584  1.00  0.00    -0.206 F 
ATOM     76  C   UNL A   1      42.347  22.256  25.879  1.00  0.00     0.059 A 
ATOM     77  C   UNL A   1      42.352  21.320  28.119  1.00  0.00     0.059 A 
ATOM     78  F   UNL A   1      42.604  22.737  29.970  1.00  0.00    -0.206 F 
ATOM     79  C   UNL A   1      42.252  21.160  26.738  1.00  0.00     0.060 A 
BRANCH  79  80
ATOM     80  S   UNL A   1      42.031  19.516  26.024  1.00  0.00     0.124 S 
ATOM     81  O   UNL A   1      42.443  18.659  27.129  1.00  0.00    -0.237 OA
ATOM     82  O   UNL A   1      40.607  19.509  25.704  1.00  0.00    -0.237 OA
ATOM     83  O   UNL A   1      42.925  19.530  24.869  1.00  0.00    -0.744 OA
ENDBRANCH  79  80
ENDBRANCH  47  72
BRANCH  59  84
ATOM     84  C   UNL A   1      48.078  27.124  30.507  1.00  0.00     0.058 A 
ATOM     85  C   UNL A   1      49.101  27.357  29.576  1.00  0.00     0.135 A 
ATOM     86  C   UNL A   1      48.430  26.538  31.735  1.00  0.00     0.135 A 
ATOM     87  F   UNL A   1      48.819  27.907  28.384  1.00  0.00    -0.206 F 
ATOM     88  C   UNL A   1      50.420  27.002  29.841  1.00  0.00     0.059 A 
ATOM     89  C   UNL A   1      49.746  26.201  32.033  1.00  0.00     0.059 A 
ATOM     90  F   UNL A   1      47.490  26.303  32.665  1.00  0.00    -0.206 F 
ATOM     91  C   UNL A   1      50.733  26.426  31.075  1.00  0.00     0.060 A 
BRANCH  91  92
ATOM     92  S   UNL A   1      52.452  26.000  31.420  1.00  0.00     0.124 S 
ATOM     93  O   UNL A   1      52.321  24.644  31.943  1.00  0.00    -0.237 OA
ATOM     94  O   UNL A   1      53.073  26.116  30.104  1.00  0.00    -0.237 OA
ATOM     95  O   UNL A   1      52.864  27.011  32.391  1.00  0.00    -0.744 OA
ENDBRANCH  91  92
ENDBRANCH  59  84
ENDBRANCH  33  34
ENDBRANCH  25  28
ENDBRANCH  23  24
ENDBRANCH  22  23
ENDBRANCH   1  22
TORSDOF 17
ENDMDL
MODEL 2
REMARK VINA RESULT:     -11.3      3.471      5.393
REMARK SMILES C[C@@H](C(=O)NCCCNC(=O)c1ccc(-c2c3nc(c(-c4c(F)cc(S(=O)(=O)[O-])cc4F)c4ccc([nH]4)c(-c4c(F)cc(S(=O)(=O)[O-])cc4F)c4nc(c(-c5c(F)cc(S(=O)(=O)[O-])cc5F)c5ccc2[nH]5)C=C4)C=C3)cc1)c1ccc(C[C@H]2CCC[C@@H]2O)cc1
REMARK SMILES IDX 6 1 5 2 3 3 4 4 2 6 1 7 78 8 79 9 90 10 80 11 89 12 81 13
REMARK SMILES IDX 82 14 83 15 84 16 87 17 85 18 86 19 88 20 7 22 8 23 9 24
REMARK SMILES IDX 10 25 11 27 12 28 13 29 77 30 14 31 76 32 15 33 16 34 17 35
REMARK SMILES IDX 70 36 18 37 75 38 69 39 71 40 19 41 74 42 68 43 67 44 20 46
REMARK SMILES IDX 54 47 33 48 53 49 34 50 37 51 52 52 72 53 35 54 36 55 51 57
REMARK SMILES IDX 73 58 38 59 21 60 22 61 31 62 23 63 24 64 30 65 32 66 25 67
REMARK SMILES IDX 26 68 27 69 28 70 29 71 55 72 56 73 65 74 57 75 58 76 64 77
REMARK SMILES IDX 66 78 59 79 60 80 61 81 62 82 63 83 39 84 40 85 49 86 41 87
REMARK SMILES IDX 42 88 48 89 50 90 43 91 44 92 45 93 46 94 47 95
REMARK H PARENT 5 5 88 21 9 26 71 45 37 56
REMARK Flexibility Score: inf
ROOT
ATOM      1  C   UNL A   1      33.972  28.687  26.435  1.00  0.00     0.117 C 
ENDROOT
BRANCH   1   2
ATOM      2  N   UNL A   1      34.250  28.990  25.045  1.00  0.00    -0.356 N 
ATOM      3  C   UNL A   1      33.977  28.278  23.914  1.00  0.00     0.227 C 
ATOM      4  O   UNL A   1      34.465  28.700  22.864  1.00  0.00    -0.274 OA
ATOM      5  H   UNL A   1      34.712  29.846  24.894  1.00  0.00     0.163 HD
BRANCH   3   6
ATOM      6  C   UNL A   1      33.051  27.052  23.982  1.00  0.00     0.105 C 
ATOM      7  C   UNL A   1      33.585  25.887  23.145  1.00  0.00     0.023 C 
BRANCH   6   8
ATOM      8  C   UNL A   1      31.609  27.426  23.642  1.00  0.00    -0.036 A 
ATOM      9  C   UNL A   1      31.378  28.476  22.742  1.00  0.00     0.005 A 
ATOM     10  C   UNL A   1      30.501  26.758  24.180  1.00  0.00     0.005 A 
ATOM     11  C   UNL A   1      30.079  28.884  22.437  1.00  0.00     0.004 A 
ATOM     12  C   UNL A   1      29.203  27.189  23.901  1.00  0.00     0.004 A 
ATOM     13  C   UNL A   1      28.981  28.284  23.060  1.00  0.00    -0.048 A 
BRANCH  13  14
ATOM     14  C   UNL A   1      27.585  28.824  22.872  1.00  0.00     0.041 C 
BRANCH  14  15
ATOM     15  C   UNL A   1      27.497  30.335  22.591  1.00  0.00     0.022 C 
ATOM     16  C   UNL A   1      28.011  31.260  23.710  1.00  0.00     0.007 C 
ATOM     17  C   UNL A   1      28.222  30.827  21.335  1.00  0.00     0.117 C 
ATOM     18  C   UNL A   1      28.656  32.459  23.006  1.00  0.00     0.003 C 
ATOM     19  C   UNL A   1      28.258  32.333  21.544  1.00  0.00     0.032 C 
BRANCH  17  20
ATOM     20  O   UNL A   1      27.520  30.503  20.149  1.00  0.00    -0.393 OA
ATOM     21  H   UNL A   1      27.478  31.283  19.575  1.00  0.00     0.210 HD
ENDBRANCH  17  20
ENDBRANCH  14  15
ENDBRANCH  13  14
ENDBRANCH   6   8
ENDBRANCH   3   6
ENDBRANCH   1   2
BRANCH   1  22
ATOM     22  C   UNL A   1      33.970  29.954  27.289  1.00  0.00     0.042 C 
BRANCH  22  23
ATOM     23  C   UNL A   1      35.354  30.379  27.771  1.00  0.00     0.118 C 
BRANCH  23  24
ATOM     24  N   UNL A   1      35.360  30.765  29.174  1.00  0.00    -0.352 N 
ATOM     25  C   UNL A   1      36.312  30.554  30.137  1.00  0.00     0.251 C 
ATOM     26  H   UNL A   1      34.560  31.251  29.477  1.00  0.00     0.163 HD
ATOM     27  O   UNL A   1      36.035  30.783  31.317  1.00  0.00    -0.269 OA
BRANCH  25  28
ATOM     28  C   UNL A   1      37.652  30.039  29.778  1.00  0.00     0.039 A 
ATOM     29  C   UNL A   1      38.028  30.022  28.432  1.00  0.00     0.014 A 
ATOM     30  C   UNL A   1      38.525  29.549  30.753  1.00  0.00     0.014 A 
ATOM     31  C   UNL A   1      39.302  29.573  28.073  1.00  0.00     0.010 A 
ATOM     32  C   UNL A   1      39.820  29.172  30.401  1.00  0.00     0.010 A 
ATOM     33  C   UNL A   1      40.222  29.180  29.057  1.00  0.00    -0.014 A 
BRANCH  33  34
ATOM     34  C   UNL A   1      41.610  28.786  28.698  1.00  0.00     0.031 A 
ATOM     35  C   UNL A   1      42.707  29.818  28.655  1.00  0.00     0.074 A 
ATOM     36  C   UNL A   1      41.868  27.510  28.351  1.00  0.00     0.049 A 
ATOM     37  N   UNL A   1      43.958  29.675  28.299  1.00  0.00    -0.248 NA
ATOM     38  C   UNL A   1      42.346  31.191  29.040  1.00  0.00     0.031 C 
ATOM     39  C   UNL A   1      40.879  26.428  28.308  1.00  0.00     0.029 A 
ATOM     40  N   UNL A   1      43.035  26.904  27.956  1.00  0.00    -0.354 N 
ATOM     41  C   UNL A   1      44.529  30.938  28.403  1.00  0.00     0.074 A 
ATOM     42  C   UNL A   1      43.477  31.844  28.811  1.00  0.00     0.031 C 
ATOM     43  C   UNL A   1      41.485  25.292  27.929  1.00  0.00     0.029 A 
ATOM     44  C   UNL A   1      42.893  25.568  27.662  1.00  0.00     0.049 A 
ATOM     45  H   UNL A   1      43.894  27.382  27.890  1.00  0.00     0.167 HD
ATOM     46  C   UNL A   1      45.816  31.305  28.199  1.00  0.00     0.037 A 
ATOM     47  C   UNL A   1      43.791  24.668  27.215  1.00  0.00     0.037 A 
ATOM     48  C   UNL A   1      46.864  30.394  27.818  1.00  0.00     0.049 A 
ATOM     49  C   UNL A   1      45.215  25.103  26.992  1.00  0.00     0.074 A 
ATOM     50  C   UNL A   1      48.213  30.658  27.646  1.00  0.00     0.029 A 
ATOM     51  N   UNL A   1      46.686  29.044  27.551  1.00  0.00    -0.354 N 
ATOM     52  N   UNL A   1      45.750  26.289  27.160  1.00  0.00    -0.248 NA
ATOM     53  C   UNL A   1      46.159  24.077  26.526  1.00  0.00     0.031 C 
ATOM     54  C   UNL A   1      48.840  29.479  27.230  1.00  0.00     0.029 A 
ATOM     55  C   UNL A   1      47.894  28.468  27.193  1.00  0.00     0.049 A 
ATOM     56  H   UNL A   1      45.826  28.567  27.606  1.00  0.00     0.167 HD
ATOM     57  C   UNL A   1      47.098  26.145  26.849  1.00  0.00     0.074 A 
ATOM     58  C   UNL A   1      47.298  24.755  26.495  1.00  0.00     0.031 C 
ATOM     59  C   UNL A   1      48.081  27.079  26.855  1.00  0.00     0.037 A 
BRANCH  46  60
ATOM     60  C   UNL A   1      46.175  32.755  28.386  1.00  0.00     0.058 A 
ATOM     61  C   UNL A   1      46.100  33.675  27.328  1.00  0.00     0.135 A 
ATOM     62  C   UNL A   1      46.537  33.243  29.652  1.00  0.00     0.135 A 
ATOM     63  F   UNL A   1      45.773  33.261  26.093  1.00  0.00    -0.206 F 
ATOM     64  C   UNL A   1      46.389  35.023  27.514  1.00  0.00     0.059 A 
ATOM     65  C   UNL A   1      46.804  34.593  29.867  1.00  0.00     0.059 A 
ATOM     66  F   UNL A   1      46.626  32.408  30.699  1.00  0.00    -0.206 F 
ATOM     67  C   UNL A   1      46.737  35.473  28.788  1.00  0.00     0.060 A 
BRANCH  67  68
ATOM     68  S   UNL A   1      47.083  37.231  29.016  1.00  0.00     0.124 S 
ATOM     69  O   UNL A   1      47.767  37.227  30.306  1.00  0.00    -0.237 OA
ATOM     70  O   UNL A   1      47.917  37.537  27.858  1.00  0.00    -0.237 OA
ATOM     71  O   UNL A   1      45.758  37.843  29.010  1.00  0.00    -0.744 OA
ENDBRANCH  67  68
ENDBRANCH  46  60
BRANCH  47  72
ATOM     72  C   UNL A   1      43.377  23.262  26.957  1.00  0.00     0.058 A 
ATOM     73  C   UNL A   1      43.154  22.369  28.015  1.00  0.00     0.135 A 
ATOM     74  C   UNL A   1      43.199  22.784  25.650  1.00  0.00     0.135 A 
ATOM     75  F   UNL A   1      43.315  22.778  29.283  1.00  0.00    -0.206 F 
ATOM     76  C   UNL A   1      42.795  21.045  27.789  1.00  0.00     0.059 A 
ATOM     77  C   UNL A   1      42.814  21.471  25.398  1.00  0.00     0.059 A 
ATOM     78  F   UNL A   1      43.381  23.602  24.602  1.00  0.00    -0.206 F 
ATOM     79  C   UNL A   1      42.628  20.604  26.474  1.00  0.00     0.060 A 
BRANCH  79  80
ATOM     80  S   UNL A   1      42.131  18.892  26.191  1.00  0.00     0.124 S 
ATOM     81  O   UNL A   1      43.077  18.479  25.161  1.00  0.00    -0.237 OA
ATOM     82  O   UNL A   1      42.320  18.294  27.509  1.00  0.00    -0.237 OA
ATOM     83  O   UNL A   1      40.741  19.014  25.760  1.00  0.00    -0.744 OA
ENDBRANCH  79  80
ENDBRANCH  47  72
BRANCH  59  84
ATOM     84  C   UNL A   1      49.471  26.625  26.508  1.00  0.00     0.058 A 
ATOM     85  C   UNL A   1      50.318  26.040  27.462  1.00  0.00     0.135 A 
ATOM     86  C   UNL A   1      49.944  26.731  25.190  1.00  0.00     0.135 A 
ATOM     87  F   UNL A   1      49.918  25.922  28.738  1.00  0.00    -0.206 F 
ATOM     88  C   UNL A   1      51.593  25.597  27.127  1.00  0.00     0.059 A 
ATOM     89  C   UNL A   1      51.205  26.270  24.826  1.00  0.00     0.059 A 
ATOM     90  F   UNL A   1      49.171  27.275  24.236  1.00  0.00    -0.206 F 
ATOM     91  C   UNL A   1      52.028  25.715  25.805  1.00  0.00     0.060 A 
BRANCH  91  92
ATOM     92  S   UNL A   1      53.672  25.106  25.376  1.00  0.00     0.124 S 
ATOM     93  O   UNL A   1      54.454  25.532  26.532  1.00  0.00    -0.237 OA
ATOM     94  O   UNL A   1      53.451  23.668  25.255  1.00  0.00    -0.237 OA
ATOM     95  O   UNL A   1      53.974  25.795  24.125  1.00  0.00    -0.744 OA
ENDBRANCH  91  92
ENDBRANCH  59  84
ENDBRANCH  33  34
ENDBRANCH  25  28
ENDBRANCH  23  24
ENDBRANCH  22  23
ENDBRANCH   1  22
TORSDOF 17
ENDMDL
MODEL 3
REMARK VINA RESULT:     -11.3      4.217     11.241
REMARK SMILES C[C@@H](C(=O)NCCCNC(=O)c1ccc(-c2c3nc(c(-c4c(F)cc(S(=O)(=O)[O-])cc4F)c4ccc([nH]4)c(-c4c(F)cc(S(=O)(=O)[O-])cc4F)c4nc(c(-c5c(F)cc(S(=O)(=O)[O-])cc5F)c5ccc2[nH]5)C=C4)C=C3)cc1)c1ccc(C[C@H]2CCC[C@@H]2O)cc1
REMARK SMILES IDX 6 1 5 2 3 3 4 4 2 6 1 7 78 8 79 9 90 10 80 11 89 12 81 13
REMARK SMILES IDX 82 14 83 15 84 16 87 17 85 18 86 19 88 20 7 22 8 23 9 24
REMARK SMILES IDX 10 25 11 27 12 28 13 29 77 30 14 31 76 32 15 33 16 34 17 35
REMARK SMILES IDX 70 36 18 37 75 38 69 39 71 40 19 41 74 42 68 43 67 44 20 46
REMARK SMILES IDX 54 47 33 48 53 49 34 50 37 51 52 52 72 53 35 54 36 55 51 57
REMARK SMILES IDX 73 58 38 59 21 60 22 61 31 62 23 63 24 64 30 65 32 66 25 67
REMARK SMILES IDX 26 68 27 69 28 70 29 71 55 72 56 73 65 74 57 75 58 76 64 77
REMARK SMILES IDX 66 78 59 79 60 80 61 81 62 82 63 83 39 84 40 85 49 86 41 87
REMARK SMILES IDX 42 88 48 89 50 90 43 91 44 92 45 93 46 94 47 95
REMARK H PARENT 5 5 88 21 9 26 71 45 37 56
REMARK Flexibility Score: inf
ROOT
ATOM      1  C   UNL A   1      42.740  23.144  25.820  1.00  0.00     0.117 C 
ENDROOT
BRANCH   1   2
ATOM      2  N   UNL A   1      43.416  23.232  27.100  1.00  0.00    -0.356 N 
ATOM      3  C   UNL A   1      44.632  23.759  27.422  1.00  0.00     0.227 C 
ATOM      4  O   UNL A   1      45.032  23.562  28.571  1.00  0.00    -0.274 OA
ATOM      5  H   UNL A   1      42.916  22.850  27.858  1.00  0.00     0.163 HD
BRANCH   3   6
ATOM      6  C   UNL A   1      45.403  24.600  26.392  1.00  0.00     0.105 C 
ATOM      7  C   UNL A   1      46.917  24.402  26.512  1.00  0.00     0.023 C 
BRANCH   6   8
ATOM      8  C   UNL A   1      44.983  26.067  26.446  1.00  0.00    -0.036 A 
ATOM      9  C   UNL A   1      45.736  26.957  27.226  1.00  0.00     0.005 A 
ATOM     10  C   UNL A   1      43.882  26.572  25.741  1.00  0.00     0.005 A 
ATOM     11  C   UNL A   1      45.363  28.296  27.344  1.00  0.00     0.004 A 
ATOM     12  C   UNL A   1      43.490  27.903  25.887  1.00  0.00     0.004 A 
ATOM     13  C   UNL A   1      44.202  28.768  26.724  1.00  0.00    -0.048 A 
BRANCH  13  14
ATOM     14  C   UNL A   1      43.693  30.165  26.979  1.00  0.00     0.041 C 
BRANCH  14  15
ATOM     15  C   UNL A   1      44.396  30.923  28.119  1.00  0.00     0.022 C 
ATOM     16  C   UNL A   1      45.829  31.405  27.826  1.00  0.00     0.007 C 
ATOM     17  C   UNL A   1      43.678  32.173  28.638  1.00  0.00     0.117 C 
ATOM     18  C   UNL A   1      45.982  32.746  28.554  1.00  0.00     0.003 C 
ATOM     19  C   UNL A   1      44.762  32.861  29.453  1.00  0.00     0.032 C 
BRANCH  17  20
ATOM     20  O   UNL A   1      42.566  31.853  29.452  1.00  0.00    -0.393 OA
ATOM     21  H   UNL A   1      42.410  30.896  29.426  1.00  0.00     0.210 HD
ENDBRANCH  17  20
ENDBRANCH  14  15
ENDBRANCH  13  14
ENDBRANCH   6   8
ENDBRANCH   3   6
ENDBRANCH   1   2
BRANCH   1  22
ATOM     22  C   UNL A   1      41.871  21.890  25.737  1.00  0.00     0.042 C 
BRANCH  22  23
ATOM     23  C   UNL A   1      40.636  21.930  26.632  1.00  0.00     0.118 C 
BRANCH  23  24
ATOM     24  N   UNL A   1      39.453  22.397  25.925  1.00  0.00    -0.352 N 
ATOM     25  C   UNL A   1      38.751  23.566  26.068  1.00  0.00     0.251 C 
ATOM     26  H   UNL A   1      39.104  21.781  25.241  1.00  0.00     0.163 HD
ATOM     27  O   UNL A   1      37.655  23.681  25.514  1.00  0.00    -0.269 OA
BRANCH  25  28
ATOM     28  C   UNL A   1      39.283  24.673  26.892  1.00  0.00     0.039 A 
ATOM     29  C   UNL A   1      40.116  25.620  26.290  1.00  0.00     0.014 A 
ATOM     30  C   UNL A   1      38.989  24.769  28.255  1.00  0.00     0.014 A 
ATOM     31  C   UNL A   1      40.601  26.695  27.039  1.00  0.00     0.010 A 
ATOM     32  C   UNL A   1      39.413  25.880  28.982  1.00  0.00     0.010 A 
ATOM     33  C   UNL A   1      40.224  26.855  28.382  1.00  0.00    -0.014 A 
BRANCH  33  34
ATOM     34  C   UNL A   1      40.658  28.041  29.167  1.00  0.00     0.031 A 
ATOM     35  C   UNL A   1      42.007  28.058  29.836  1.00  0.00     0.074 A 
ATOM     36  C   UNL A   1      39.810  29.076  29.328  1.00  0.00     0.049 A 
ATOM     37  N   UNL A   1      42.528  28.971  30.615  1.00  0.00    -0.248 NA
ATOM     38  C   UNL A   1      42.874  26.889  29.621  1.00  0.00     0.031 C 
ATOM     39  C   UNL A   1      38.457  29.156  28.768  1.00  0.00     0.029 A 
ATOM     40  N   UNL A   1      39.950  30.254  30.017  1.00  0.00    -0.354 N 
ATOM     41  C   UNL A   1      43.774  28.483  30.992  1.00  0.00     0.074 A 
ATOM     42  C   UNL A   1      43.911  27.172  30.396  1.00  0.00     0.031 C 
ATOM     43  C   UNL A   1      37.903  30.326  29.121  1.00  0.00     0.029 A 
ATOM     44  C   UNL A   1      38.839  31.063  29.962  1.00  0.00     0.049 A 
ATOM     45  H   UNL A   1      40.771  30.498  30.504  1.00  0.00     0.167 HD
ATOM     46  C   UNL A   1      44.724  29.082  31.749  1.00  0.00     0.037 A 
ATOM     47  C   UNL A   1      38.596  32.258  30.537  1.00  0.00     0.037 A 
ATOM     48  C   UNL A   1      44.592  30.398  32.319  1.00  0.00     0.049 A 
ATOM     49  C   UNL A   1      39.668  32.900  31.376  1.00  0.00     0.074 A 
ATOM     50  C   UNL A   1      45.523  31.116  33.050  1.00  0.00     0.029 A 
ATOM     51  N   UNL A   1      43.461  31.195  32.224  1.00  0.00    -0.354 N 
ATOM     52  N   UNL A   1      40.866  32.450  31.667  1.00  0.00    -0.248 NA
ATOM     53  C   UNL A   1      39.359  34.213  31.960  1.00  0.00     0.031 C 
ATOM     54  C   UNL A   1      44.938  32.326  33.435  1.00  0.00     0.029 A 
ATOM     55  C   UNL A   1      43.662  32.386  32.901  1.00  0.00     0.049 A 
ATOM     56  H   UNL A   1      42.635  30.949  31.745  1.00  0.00     0.167 HD
ATOM     57  C   UNL A   1      41.464  33.438  32.442  1.00  0.00     0.074 A 
ATOM     58  C   UNL A   1      40.501  34.513  32.564  1.00  0.00     0.031 C 
ATOM     59  C   UNL A   1      42.698  33.453  33.003  1.00  0.00     0.037 A 
BRANCH  46  60
ATOM     60  C   UNL A   1      46.001  28.326  32.006  1.00  0.00     0.058 A 
ATOM     61  C   UNL A   1      46.145  27.481  33.118  1.00  0.00     0.135 A 
ATOM     62  C   UNL A   1      47.068  28.398  31.097  1.00  0.00     0.135 A 
ATOM     63  F   UNL A   1      45.161  27.385  34.027  1.00  0.00    -0.206 F 
ATOM     64  C   UNL A   1      47.309  26.750  33.330  1.00  0.00     0.059 A 
ATOM     65  C   UNL A   1      48.232  27.654  31.275  1.00  0.00     0.059 A 
ATOM     66  F   UNL A   1      46.985  29.191  30.018  1.00  0.00    -0.206 F 
ATOM     67  C   UNL A   1      48.346  26.840  32.401  1.00  0.00     0.060 A 
BRANCH  67  68
ATOM     68  S   UNL A   1      49.839  25.863  32.678  1.00  0.00     0.124 S 
ATOM     69  O   UNL A   1      50.627  26.767  33.511  1.00  0.00    -0.237 OA
ATOM     70  O   UNL A   1      49.315  24.678  33.350  1.00  0.00    -0.237 OA
ATOM     71  O   UNL A   1      50.356  25.640  31.332  1.00  0.00    -0.744 OA
ENDBRANCH  67  68
ENDBRANCH  46  60
BRANCH  47  72
ATOM     72  C   UNL A   1      37.286  32.934  30.329  1.00  0.00     0.058 A 
ATOM     73  C   UNL A   1      37.062  33.747  29.209  1.00  0.00     0.135 A 
ATOM     74  C   UNL A   1      36.236  32.784  31.248  1.00  0.00     0.135 A 
ATOM     75  F   UNL A   1      38.037  33.926  28.305  1.00  0.00    -0.206 F 
ATOM     76  C   UNL A   1      35.853  34.409  29.018  1.00  0.00     0.059 A 
ATOM     77  C   UNL A   1      35.009  33.412  31.065  1.00  0.00     0.059 A 
ATOM     78  F   UNL A   1      36.392  32.001  32.327  1.00  0.00    -0.206 F 
ATOM     79  C   UNL A   1      34.832  34.235  29.954  1.00  0.00     0.060 A 
BRANCH  79  80
ATOM     80  S   UNL A   1      33.255  35.072  29.681  1.00  0.00     0.124 S 
ATOM     81  O   UNL A   1      32.689  35.077  31.024  1.00  0.00    -0.237 OA
ATOM     82  O   UNL A   1      33.681  36.368  29.161  1.00  0.00    -0.237 OA
ATOM     83  O   UNL A   1      32.581  34.209  28.714  1.00  0.00    -0.744 OA
ENDBRANCH  79  80
ENDBRANCH  47  72
BRANCH  59  84
ATOM     84  C   UNL A   1      43.098  34.686  33.766  1.00  0.00     0.058 A 
ATOM     85  C   UNL A   1      42.844  34.821  35.139  1.00  0.00     0.135 A 
ATOM     86  C   UNL A   1      43.790  35.725  33.122  1.00  0.00     0.135 A 
ATOM     87  F   UNL A   1      42.180  33.860  35.802  1.00  0.00    -0.206 F 
ATOM     88  C   UNL A   1      43.241  35.952  35.844  1.00  0.00     0.059 A 
ATOM     89  C   UNL A   1      44.222  36.853  33.813  1.00  0.00     0.059 A 
ATOM     90  F   UNL A   1      44.067  35.643  31.811  1.00  0.00    -0.206 F 
ATOM     91  C   UNL A   1      43.932  36.963  35.172  1.00  0.00     0.060 A 
BRANCH  91  92
ATOM     92  S   UNL A   1      44.471  38.411  36.104  1.00  0.00     0.124 S 
ATOM     93  O   UNL A   1      43.986  39.500  35.263  1.00  0.00    -0.237 OA
ATOM     94  O   UNL A   1      43.779  38.238  37.378  1.00  0.00    -0.237 OA
ATOM     95  O   UNL A   1      45.922  38.258  36.161  1.00  0.00    -0.744 OA
ENDBRANCH  91  92
ENDBRANCH  59  84
ENDBRANCH  33  34
ENDBRANCH  25  28
ENDBRANCH  23  24
ENDBRANCH  22  23
ENDBRANCH   1  22
TORSDOF 17
ENDMDL
