MODEL 1
REMARK VINA RESULT:     -11.7      0.000      0.000
REMARK SMILES C[C@H]1CC[C@@H]([C@H](C(=O)NCCCNC(=O)c2ccc(-c3c4nc(c(-c5c(F)cc(S(=O)(=O)[O-])cc5F)c5ccc([nH]5)c(-c5c(F)cc(S(=O)(=O)[O-])cc5F)c5nc(c(-c6c(F)cc(S(=O)(=O)[O-])cc6F)c6ccc3[nH]6)C=C5)C=C4)cc2)[C@@H]2CCS(=O)(=O)C2)C[C@@H]1C
REMARK SMILES IDX 12 1 11 2 10 3 9 4 7 5 8 6 6 8 5 9 1 10 2 11 3 12 90 13 4 14
REMARK SMILES IDX 89 15 91 16 82 17 83 18 88 19 84 20 85 21 86 22 87 23 13 24
REMARK SMILES IDX 14 25 15 27 16 28 17 29 81 30 18 31 80 32 19 33 20 34 21 35
REMARK SMILES IDX 74 36 22 37 79 38 73 39 75 40 23 41 78 42 72 43 71 44 24 46
REMARK SMILES IDX 58 47 37 48 57 49 38 50 41 51 56 52 76 53 39 54 40 55 55 57
REMARK SMILES IDX 77 58 42 59 25 60 26 61 35 62 27 63 28 64 34 65 36 66 29 67
REMARK SMILES IDX 30 68 31 69 32 70 33 71 59 72 60 73 69 74 61 75 62 76 68 77
REMARK SMILES IDX 70 78 63 79 64 80 65 81 66 82 67 83 43 84 44 85 53 86 45 87
REMARK SMILES IDX 46 88 52 89 54 90 47 91 48 92 49 93 50 94 51 95
REMARK H PARENT 9 7 13 26 75 45 41 56
REMARK Flexibility Score: inf
ROOT
ATOM      1  C   UNL A   1      33.603  28.300  27.130  1.00  0.00     0.118 C 
ENDROOT
BRANCH   1   2
ATOM      2  C   UNL A   1      32.225  27.677  27.133  1.00  0.00     0.042 C 
BRANCH   2   3
ATOM      3  C   UNL A   1      31.582  27.755  25.765  1.00  0.00     0.117 C 
BRANCH   3   4
ATOM      4  N   UNL A   1      30.731  26.609  25.499  1.00  0.00    -0.356 N 
ATOM      5  C   UNL A   1      30.968  25.316  25.191  1.00  0.00     0.223 C 
ATOM      6  O   UNL A   1      30.005  24.685  24.737  1.00  0.00    -0.275 OA
ATOM      7  H   UNL A   1      29.771  26.822  25.555  1.00  0.00     0.163 HD
BRANCH   5   8
ATOM      8  C   UNL A   1      32.261  24.540  25.492  1.00  0.00     0.085 C 
BRANCH   8   9
ATOM      9  C   UNL A   1      32.119  23.184  26.263  1.00  0.00     0.002 C 
ATOM     10  C   UNL A   1      35.404  20.527  25.009  1.00  0.00     0.008 C 
ATOM     11  C   UNL A   1      34.125  20.962  25.730  1.00  0.00    -0.011 C 
ATOM     12  C   UNL A   1      34.463  22.163  26.635  1.00  0.00     0.004 C 
ATOM     13  C   UNL A   1      33.012  21.293  24.724  1.00  0.00    -0.011 C 
ATOM     14  C   UNL A   1      33.252  22.848  27.248  1.00  0.00     0.005 C 
ATOM     15  C   UNL A   1      31.810  21.934  25.419  1.00  0.00     0.008 C 
ATOM     16  C   UNL A   1      32.540  20.102  23.881  1.00  0.00     0.008 C 
ENDBRANCH   8   9
BRANCH   8  17
ATOM     17  C   UNL A   1      33.196  24.556  24.240  1.00  0.00     0.018 C 
ATOM     18  C   UNL A   1      34.219  25.714  24.170  1.00  0.00     0.021 C 
ATOM     19  C   UNL A   1      32.501  24.506  22.870  1.00  0.00     0.141 C 
ATOM     20  C   UNL A   1      33.715  26.843  23.281  1.00  0.00     0.137 C 
ATOM     21  S   UNL A   1      32.593  26.111  22.116  1.00  0.00     0.150 S 
ATOM     22  O   UNL A   1      31.293  26.743  22.221  1.00  0.00    -0.229 OA
ATOM     23  O   UNL A   1      33.271  25.966  20.845  1.00  0.00    -0.229 OA
ENDBRANCH   8  17
ENDBRANCH   5   8
ENDBRANCH   3   4
ENDBRANCH   2   3
ENDBRANCH   1   2
BRANCH   1  24
ATOM     24  N   UNL A   1      33.565  29.709  27.522  1.00  0.00    -0.352 N 
ATOM     25  C   UNL A   1      34.508  30.478  28.162  1.00  0.00     0.251 C 
ATOM     26  H   UNL A   1      32.732  30.181  27.292  1.00  0.00     0.163 HD
ATOM     27  O   UNL A   1      34.196  31.570  28.624  1.00  0.00    -0.269 OA
BRANCH  25  28
ATOM     28  C   UNL A   1      35.886  29.966  28.308  1.00  0.00     0.039 A 
ATOM     29  C   UNL A   1      36.789  30.081  27.250  1.00  0.00     0.014 A 
ATOM     30  C   UNL A   1      36.292  29.396  29.514  1.00  0.00     0.014 A 
ATOM     31  C   UNL A   1      38.119  29.701  27.442  1.00  0.00     0.010 A 
ATOM     32  C   UNL A   1      37.637  29.174  29.751  1.00  0.00     0.010 A 
ATOM     33  C   UNL A   1      38.563  29.291  28.710  1.00  0.00    -0.014 A 
BRANCH  33  34
ATOM     34  C   UNL A   1      39.979  28.931  28.972  1.00  0.00     0.031 A 
ATOM     35  C   UNL A   1      40.907  29.959  29.569  1.00  0.00     0.074 A 
ATOM     36  C   UNL A   1      40.441  27.718  28.609  1.00  0.00     0.049 A 
ATOM     37  N   UNL A   1      42.192  29.879  29.795  1.00  0.00    -0.248 NA
ATOM     38  C   UNL A   1      40.322  31.266  29.920  1.00  0.00     0.031 C 
ATOM     39  C   UNL A   1      39.653  26.667  27.960  1.00  0.00     0.029 A 
ATOM     40  N   UNL A   1      41.690  27.165  28.727  1.00  0.00    -0.354 N 
ATOM     41  C   UNL A   1      42.565  31.125  30.289  1.00  0.00     0.074 A 
ATOM     42  C   UNL A   1      41.395  31.967  30.253  1.00  0.00     0.031 C 
ATOM     43  C   UNL A   1      40.425  25.584  27.779  1.00  0.00     0.029 A 
ATOM     44  C   UNL A   1      41.773  25.877  28.254  1.00  0.00     0.049 A 
ATOM     45  H   UNL A   1      42.456  27.646  29.116  1.00  0.00     0.167 HD
ATOM     46  C   UNL A   1      43.766  31.519  30.772  1.00  0.00     0.037 A 
ATOM     47  C   UNL A   1      42.819  25.031  28.207  1.00  0.00     0.037 A 
ATOM     48  C   UNL A   1      44.916  30.658  30.841  1.00  0.00     0.049 A 
ATOM     49  C   UNL A   1      44.144  25.489  28.755  1.00  0.00     0.074 A 
ATOM     50  C   UNL A   1      46.168  30.932  31.361  1.00  0.00     0.029 A 
ATOM     51  N   UNL A   1      44.952  29.350  30.379  1.00  0.00    -0.354 N 
ATOM     52  N   UNL A   1      44.463  26.649  29.281  1.00  0.00    -0.248 NA
ATOM     53  C   UNL A   1      45.248  24.522  28.717  1.00  0.00     0.031 C 
ATOM     54  C   UNL A   1      46.974  29.807  31.170  1.00  0.00     0.029 A 
ATOM     55  C   UNL A   1      46.209  28.810  30.586  1.00  0.00     0.049 A 
ATOM     56  H   UNL A   1      44.194  28.876  29.965  1.00  0.00     0.167 HD
ATOM     57  C   UNL A   1      45.795  26.539  29.666  1.00  0.00     0.074 A 
ATOM     58  C   UNL A   1      46.215  25.194  29.326  1.00  0.00     0.031 C 
ATOM     59  C   UNL A   1      46.598  27.463  30.249  1.00  0.00     0.037 A 
BRANCH  46  60
ATOM     60  C   UNL A   1      43.889  32.931  31.278  1.00  0.00     0.058 A 
ATOM     61  C   UNL A   1      44.077  34.016  30.403  1.00  0.00     0.135 A 
ATOM     62  C   UNL A   1      43.790  33.211  32.649  1.00  0.00     0.135 A 
ATOM     63  F   UNL A   1      44.201  33.806  29.082  1.00  0.00    -0.206 F 
ATOM     64  C   UNL A   1      44.192  35.319  30.872  1.00  0.00     0.059 A 
ATOM     65  C   UNL A   1      43.867  34.513  33.138  1.00  0.00     0.059 A 
ATOM     66  F   UNL A   1      43.616  32.215  33.533  1.00  0.00    -0.206 F 
ATOM     67  C   UNL A   1      44.081  35.559  32.242  1.00  0.00     0.060 A 
BRANCH  67  68
ATOM     68  S   UNL A   1      44.211  37.260  32.828  1.00  0.00     0.124 S 
ATOM     69  O   UNL A   1      44.234  38.002  31.571  1.00  0.00    -0.237 OA
ATOM     70  O   UNL A   1      43.000  37.406  33.628  1.00  0.00    -0.237 OA
ATOM     71  O   UNL A   1      45.462  37.266  33.581  1.00  0.00    -0.744 OA
ENDBRANCH  67  68
ENDBRANCH  46  60
BRANCH  47  72
ATOM     72  C   UNL A   1      42.651  23.659  27.654  1.00  0.00     0.058 A 
ATOM     73  C   UNL A   1      42.381  22.569  28.498  1.00  0.00     0.135 A 
ATOM     74  C   UNL A   1      42.752  23.407  26.277  1.00  0.00     0.135 A 
ATOM     75  F   UNL A   1      42.276  22.756  29.821  1.00  0.00    -0.206 F 
ATOM     76  C   UNL A   1      42.247  21.276  28.000  1.00  0.00     0.059 A 
ATOM     77  C   UNL A   1      42.592  22.128  25.753  1.00  0.00     0.059 A 
ATOM     78  F   UNL A   1      42.987  24.416  25.424  1.00  0.00    -0.206 F 
ATOM     79  C   UNL A   1      42.354  21.066  26.624  1.00  0.00     0.060 A 
BRANCH  79  80
ATOM     80  S   UNL A   1      42.145  19.390  25.987  1.00  0.00     0.124 S 
ATOM     81  O   UNL A   1      42.645  18.588  27.099  1.00  0.00    -0.237 OA
ATOM     82  O   UNL A   1      40.706  19.328  25.751  1.00  0.00    -0.237 OA
ATOM     83  O   UNL A   1      42.971  19.383  24.783  1.00  0.00    -0.744 OA
ENDBRANCH  79  80
ENDBRANCH  47  72
BRANCH  59  84
ATOM     84  C   UNL A   1      47.996  27.036  30.603  1.00  0.00     0.058 A 
ATOM     85  C   UNL A   1      49.082  27.265  29.743  1.00  0.00     0.135 A 
ATOM     86  C   UNL A   1      48.257  26.430  31.843  1.00  0.00     0.135 A 
ATOM     87  F   UNL A   1      48.887  27.839  28.546  1.00  0.00    -0.206 F 
ATOM     88  C   UNL A   1      50.372  26.876  30.086  1.00  0.00     0.059 A 
ATOM     89  C   UNL A   1      49.544  26.063  32.221  1.00  0.00     0.059 A 
ATOM     90  F   UNL A   1      47.257  26.202  32.708  1.00  0.00    -0.206 F 
ATOM     91  C   UNL A   1      50.593  26.277  31.328  1.00  0.00     0.060 A 
BRANCH  91  92
ATOM     92  S   UNL A   1      52.275  25.795  31.768  1.00  0.00     0.124 S 
ATOM     93  O   UNL A   1      52.092  24.394  32.137  1.00  0.00    -0.237 OA
ATOM     94  O   UNL A   1      53.002  26.032  30.525  1.00  0.00    -0.237 OA
ATOM     95  O   UNL A   1      52.612  26.695  32.866  1.00  0.00    -0.744 OA
ENDBRANCH  91  92
ENDBRANCH  59  84
ENDBRANCH  33  34
ENDBRANCH  25  28
ENDBRANCH   1  24
TORSDOF 15
ENDMDL
MODEL 2
REMARK VINA RESULT:     -11.7      2.845      3.553
REMARK SMILES C[C@H]1CC[C@@H]([C@H](C(=O)NCCCNC(=O)c2ccc(-c3c4nc(c(-c5c(F)cc(S(=O)(=O)[O-])cc5F)c5ccc([nH]5)c(-c5c(F)cc(S(=O)(=O)[O-])cc5F)c5nc(c(-c6c(F)cc(S(=O)(=O)[O-])cc6F)c6ccc3[nH]6)C=C5)C=C4)cc2)[C@@H]2CCS(=O)(=O)C2)C[C@@H]1C
REMARK SMILES IDX 12 1 11 2 10 3 9 4 7 5 8 6 6 8 5 9 1 10 2 11 3 12 90 13 4 14
REMARK SMILES IDX 89 15 91 16 82 17 83 18 88 19 84 20 85 21 86 22 87 23 13 24
REMARK SMILES IDX 14 25 15 27 16 28 17 29 81 30 18 31 80 32 19 33 20 34 21 35
REMARK SMILES IDX 74 36 22 37 79 38 73 39 75 40 23 41 78 42 72 43 71 44 24 46
REMARK SMILES IDX 58 47 37 48 57 49 38 50 41 51 56 52 76 53 39 54 40 55 55 57
REMARK SMILES IDX 77 58 42 59 25 60 26 61 35 62 27 63 28 64 34 65 36 66 29 67
REMARK SMILES IDX 30 68 31 69 32 70 33 71 59 72 60 73 69 74 61 75 62 76 68 77
REMARK SMILES IDX 70 78 63 79 64 80 65 81 66 82 67 83 43 84 44 85 53 86 45 87
REMARK SMILES IDX 46 88 52 89 54 90 47 91 48 92 49 93 50 94 51 95
REMARK H PARENT 9 7 13 26 75 45 41 56
REMARK Flexibility Score: inf
ROOT
ATOM      1  C   UNL A   1      34.099  28.623  25.759  1.00  0.00     0.118 C 
ENDROOT
BRANCH   1   2
ATOM      2  C   UNL A   1      33.346  27.547  26.510  1.00  0.00     0.042 C 
BRANCH   2   3
ATOM      3  C   UNL A   1      31.976  28.028  26.936  1.00  0.00     0.117 C 
BRANCH   3   4
ATOM      4  N   UNL A   1      31.004  26.950  26.954  1.00  0.00    -0.356 N 
ATOM      5  C   UNL A   1      30.674  25.970  26.086  1.00  0.00     0.223 C 
ATOM      6  O   UNL A   1      29.593  25.406  26.295  1.00  0.00    -0.275 OA
ATOM      7  H   UNL A   1      30.467  26.930  27.780  1.00  0.00     0.163 HD
BRANCH   5   8
ATOM      8  C   UNL A   1      31.578  25.407  24.976  1.00  0.00     0.085 C 
BRANCH   8   9
ATOM      9  C   UNL A   1      32.037  23.916  25.114  1.00  0.00     0.002 C 
ATOM     10  C   UNL A   1      36.384  23.866  25.836  1.00  0.00     0.008 C 
ATOM     11  C   UNL A   1      34.980  23.310  25.582  1.00  0.00    -0.011 C 
ATOM     12  C   UNL A   1      34.057  23.789  26.720  1.00  0.00     0.004 C 
ATOM     13  C   UNL A   1      34.460  23.738  24.201  1.00  0.00    -0.011 C 
ATOM     14  C   UNL A   1      32.581  23.504  26.493  1.00  0.00     0.005 C 
ATOM     15  C   UNL A   1      32.985  23.376  24.027  1.00  0.00     0.008 C 
ATOM     16  C   UNL A   1      35.264  23.183  23.019  1.00  0.00     0.008 C 
ENDBRANCH   8   9
BRANCH   8  17
ATOM     17  C   UNL A   1      31.053  25.866  23.578  1.00  0.00     0.018 C 
ATOM     18  C   UNL A   1      32.119  26.400  22.593  1.00  0.00     0.021 C 
ATOM     19  C   UNL A   1      29.911  26.895  23.582  1.00  0.00     0.141 C 
ATOM     20  C   UNL A   1      32.166  27.922  22.602  1.00  0.00     0.137 C 
ATOM     21  S   UNL A   1      30.557  28.478  23.105  1.00  0.00     0.150 S 
ATOM     22  O   UNL A   1      30.669  29.305  24.290  1.00  0.00    -0.229 OA
ATOM     23  O   UNL A   1      29.830  28.919  21.932  1.00  0.00    -0.229 OA
ENDBRANCH   8  17
ENDBRANCH   5   8
ENDBRANCH   3   4
ENDBRANCH   2   3
ENDBRANCH   1   2
BRANCH   1  24
ATOM     24  N   UNL A   1      33.827  29.955  26.298  1.00  0.00    -0.352 N 
ATOM     25  C   UNL A   1      34.429  30.633  27.333  1.00  0.00     0.251 C 
ATOM     26  H   UNL A   1      33.099  30.443  25.850  1.00  0.00     0.163 HD
ATOM     27  O   UNL A   1      33.899  31.637  27.795  1.00  0.00    -0.269 OA
BRANCH  25  28
ATOM     28  C   UNL A   1      35.698  30.126  27.893  1.00  0.00     0.039 A 
ATOM     29  C   UNL A   1      36.909  30.439  27.274  1.00  0.00     0.014 A 
ATOM     30  C   UNL A   1      35.686  29.361  29.059  1.00  0.00     0.014 A 
ATOM     31  C   UNL A   1      38.106  30.053  27.880  1.00  0.00     0.010 A 
ATOM     32  C   UNL A   1      36.869  29.124  29.737  1.00  0.00     0.010 A 
ATOM     33  C   UNL A   1      38.096  29.436  29.141  1.00  0.00    -0.014 A 
BRANCH  33  34
ATOM     34  C   UNL A   1      39.346  29.059  29.847  1.00  0.00     0.031 A 
ATOM     35  C   UNL A   1      39.757  29.818  31.084  1.00  0.00     0.074 A 
ATOM     36  C   UNL A   1      40.139  28.095  29.338  1.00  0.00     0.049 A 
ATOM     37  N   UNL A   1      40.848  29.709  31.795  1.00  0.00    -0.248 NA
ATOM     38  C   UNL A   1      38.839  30.869  31.561  1.00  0.00     0.031 C 
ATOM     39  C   UNL A   1      39.878  27.340  28.109  1.00  0.00     0.029 A 
ATOM     40  N   UNL A   1      41.331  27.589  29.787  1.00  0.00    -0.354 N 
ATOM     41  C   UNL A   1      40.754  30.686  32.781  1.00  0.00     0.074 A 
ATOM     42  C   UNL A   1      39.546  31.432  32.529  1.00  0.00     0.031 C 
ATOM     43  C   UNL A   1      40.857  26.439  27.929  1.00  0.00     0.029 A 
ATOM     44  C   UNL A   1      41.837  26.582  29.000  1.00  0.00     0.049 A 
ATOM     45  H   UNL A   1      41.782  27.915  30.600  1.00  0.00     0.167 HD
ATOM     46  C   UNL A   1      41.579  30.913  33.829  1.00  0.00     0.037 A 
ATOM     47  C   UNL A   1      42.966  25.859  29.127  1.00  0.00     0.037 A 
ATOM     48  C   UNL A   1      42.761  30.137  34.093  1.00  0.00     0.049 A 
ATOM     49  C   UNL A   1      43.866  26.126  30.304  1.00  0.00     0.074 A 
ATOM     50  C   UNL A   1      43.641  30.242  35.155  1.00  0.00     0.029 A 
ATOM     51  N   UNL A   1      43.224  29.106  33.287  1.00  0.00    -0.354 N 
ATOM     52  N   UNL A   1      43.728  27.010  31.265  1.00  0.00    -0.248 NA
ATOM     53  C   UNL A   1      45.068  25.291  30.423  1.00  0.00     0.031 C 
ATOM     54  C   UNL A   1      44.662  29.307  34.966  1.00  0.00     0.029 A 
ATOM     55  C   UNL A   1      44.387  28.578  33.820  1.00  0.00     0.049 A 
ATOM     56  H   UNL A   1      42.790  28.796  32.460  1.00  0.00     0.167 HD
ATOM     57  C   UNL A   1      44.807  26.814  32.120  1.00  0.00     0.074 A 
ATOM     58  C   UNL A   1      45.579  25.718  31.569  1.00  0.00     0.031 C 
ATOM     59  C   UNL A   1      45.131  27.478  33.258  1.00  0.00     0.037 A 
BRANCH  46  60
ATOM     60  C   UNL A   1      41.221  32.030  34.772  1.00  0.00     0.058 A 
ATOM     61  C   UNL A   1      40.361  31.826  35.865  1.00  0.00     0.135 A 
ATOM     62  C   UNL A   1      41.764  33.313  34.601  1.00  0.00     0.135 A 
ATOM     63  F   UNL A   1      39.795  30.625  36.066  1.00  0.00    -0.206 F 
ATOM     64  C   UNL A   1      40.029  32.859  36.735  1.00  0.00     0.059 A 
ATOM     65  C   UNL A   1      41.473  34.354  35.480  1.00  0.00     0.059 A 
ATOM     66  F   UNL A   1      42.587  33.568  33.572  1.00  0.00    -0.206 F 
ATOM     67  C   UNL A   1      40.595  34.119  36.537  1.00  0.00     0.060 A 
BRANCH  67  68
ATOM     68  S   UNL A   1      40.169  35.441  37.689  1.00  0.00     0.124 S 
ATOM     69  O   UNL A   1      39.928  36.556  36.778  1.00  0.00    -0.237 OA
ATOM     70  O   UNL A   1      38.988  34.903  38.357  1.00  0.00    -0.237 OA
ATOM     71  O   UNL A   1      41.360  35.561  38.525  1.00  0.00    -0.744 OA
ENDBRANCH  67  68
ENDBRANCH  46  60
BRANCH  47  72
ATOM     72  C   UNL A   1      43.292  24.796  28.137  1.00  0.00     0.058 A 
ATOM     73  C   UNL A   1      44.028  25.090  26.978  1.00  0.00     0.135 A 
ATOM     74  C   UNL A   1      42.880  23.468  28.327  1.00  0.00     0.135 A 
ATOM     75  F   UNL A   1      44.444  26.344  26.748  1.00  0.00    -0.206 F 
ATOM     76  C   UNL A   1      44.319  24.113  26.031  1.00  0.00     0.059 A 
ATOM     77  C   UNL A   1      43.185  22.468  27.409  1.00  0.00     0.059 A 
ATOM     78  F   UNL A   1      42.193  23.128  29.428  1.00  0.00    -0.206 F 
ATOM     79  C   UNL A   1      43.893  22.803  26.256  1.00  0.00     0.060 A 
BRANCH  79  80
ATOM     80  S   UNL A   1      44.305  21.538  25.035  1.00  0.00     0.124 S 
ATOM     81  O   UNL A   1      45.666  21.186  25.424  1.00  0.00    -0.237 OA
ATOM     82  O   UNL A   1      43.285  20.525  25.290  1.00  0.00    -0.237 OA
ATOM     83  O   UNL A   1      44.173  22.243  23.763  1.00  0.00    -0.744 OA
ENDBRANCH  79  80
ENDBRANCH  47  72
BRANCH  59  84
ATOM     84  C   UNL A   1      46.343  27.004  34.011  1.00  0.00     0.058 A 
ATOM     85  C   UNL A   1      47.614  27.560  33.797  1.00  0.00     0.135 A 
ATOM     86  C   UNL A   1      46.220  26.008  34.994  1.00  0.00     0.135 A 
ATOM     87  F   UNL A   1      47.787  28.513  32.867  1.00  0.00    -0.206 F 
ATOM     88  C   UNL A   1      48.726  27.122  34.507  1.00  0.00     0.059 A 
ATOM     89  C   UNL A   1      47.311  25.578  35.740  1.00  0.00     0.059 A 
ATOM     90  F   UNL A   1      45.024  25.453  35.249  1.00  0.00    -0.206 F 
ATOM     91  C   UNL A   1      48.564  26.131  35.477  1.00  0.00     0.060 A 
BRANCH  91  92
ATOM     92  S   UNL A   1      50.012  25.584  36.405  1.00  0.00     0.124 S 
ATOM     93  O   UNL A   1      49.474  24.451  37.150  1.00  0.00    -0.237 OA
ATOM     94  O   UNL A   1      50.956  25.252  35.342  1.00  0.00    -0.237 OA
ATOM     95  O   UNL A   1      50.365  26.752  37.206  1.00  0.00    -0.744 OA
ENDBRANCH  91  92
ENDBRANCH  59  84
ENDBRANCH  33  34
ENDBRANCH  25  28
ENDBRANCH   1  24
TORSDOF 15
ENDMDL
MODEL 3
REMARK VINA RESULT:     -11.6      4.946     10.547
REMARK SMILES C[C@H]1CC[C@@H]([C@H](C(=O)NCCCNC(=O)c2ccc(-c3c4nc(c(-c5c(F)cc(S(=O)(=O)[O-])cc5F)c5ccc([nH]5)c(-c5c(F)cc(S(=O)(=O)[O-])cc5F)c5nc(c(-c6c(F)cc(S(=O)(=O)[O-])cc6F)c6ccc3[nH]6)C=C5)C=C4)cc2)[C@@H]2CCS(=O)(=O)C2)C[C@@H]1C
REMARK SMILES IDX 12 1 11 2 10 3 9 4 7 5 8 6 6 8 5 9 1 10 2 11 3 12 90 13 4 14
REMARK SMILES IDX 89 15 91 16 82 17 83 18 88 19 84 20 85 21 86 22 87 23 13 24
REMARK SMILES IDX 14 25 15 27 16 28 17 29 81 30 18 31 80 32 19 33 20 34 21 35
REMARK SMILES IDX 74 36 22 37 79 38 73 39 75 40 23 41 78 42 72 43 71 44 24 46
REMARK SMILES IDX 58 47 37 48 57 49 38 50 41 51 56 52 76 53 39 54 40 55 55 57
REMARK SMILES IDX 77 58 42 59 25 60 26 61 35 62 27 63 28 64 34 65 36 66 29 67
REMARK SMILES IDX 30 68 31 69 32 70 33 71 59 72 60 73 69 74 61 75 62 76 68 77
REMARK SMILES IDX 70 78 63 79 64 80 65 81 66 82 67 83 43 84 44 85 53 86 45 87
REMARK SMILES IDX 46 88 52 89 54 90 47 91 48 92 49 93 50 94 51 95
REMARK H PARENT 9 7 13 26 75 45 41 56
REMARK Flexibility Score: inf
ROOT
ATOM      1  C   UNL A   1      38.753  23.762  26.643  1.00  0.00     0.118 C 
ENDROOT
BRANCH   1   2
ATOM      2  C   UNL A   1      37.865  23.275  25.518  1.00  0.00     0.042 C 
BRANCH   2   3
ATOM      3  C   UNL A   1      36.430  23.711  25.722  1.00  0.00     0.117 C 
BRANCH   3   4
ATOM      4  N   UNL A   1      35.742  23.916  24.460  1.00  0.00    -0.356 N 
ATOM      5  C   UNL A   1      34.446  24.071  24.113  1.00  0.00     0.223 C 
ATOM      6  O   UNL A   1      34.188  23.925  22.912  1.00  0.00    -0.275 OA
ATOM      7  H   UNL A   1      36.353  23.949  23.689  1.00  0.00     0.163 HD
BRANCH   5   8
ATOM      8  C   UNL A   1      33.316  24.552  25.040  1.00  0.00     0.085 C 
BRANCH   8   9
ATOM      9  C   UNL A   1      32.504  25.812  24.584  1.00  0.00     0.002 C 
ATOM     10  C   UNL A   1      34.076  29.325  26.730  1.00  0.00     0.008 C 
ATOM     11  C   UNL A   1      33.162  28.518  25.804  1.00  0.00    -0.011 C 
ATOM     12  C   UNL A   1      34.028  27.895  24.691  1.00  0.00     0.004 C 
ATOM     13  C   UNL A   1      32.382  27.453  26.592  1.00  0.00    -0.011 C 
ATOM     14  C   UNL A   1      33.299  26.885  23.820  1.00  0.00     0.005 C 
ATOM     15  C   UNL A   1      31.638  26.504  25.652  1.00  0.00     0.008 C 
ATOM     16  C   UNL A   1      31.404  28.018  27.629  1.00  0.00     0.008 C 
ENDBRANCH   8   9
BRANCH   8  17
ATOM     17  C   UNL A   1      32.500  23.327  25.564  1.00  0.00     0.018 C 
ATOM     18  C   UNL A   1      32.787  22.891  27.020  1.00  0.00     0.021 C 
ATOM     19  C   UNL A   1      32.559  22.051  24.708  1.00  0.00     0.141 C 
ATOM     20  C   UNL A   1      33.761  21.722  27.064  1.00  0.00     0.137 C 
ATOM     21  S   UNL A   1      33.586  20.855  25.524  1.00  0.00     0.150 S 
ATOM     22  O   UNL A   1      34.863  20.802  24.841  1.00  0.00    -0.229 OA
ATOM     23  O   UNL A   1      32.790  19.666  25.748  1.00  0.00    -0.229 OA
ENDBRANCH   8  17
ENDBRANCH   5   8
ENDBRANCH   3   4
ENDBRANCH   2   3
ENDBRANCH   1   2
BRANCH   1  24
ATOM     24  N   UNL A   1      40.147  23.893  26.219  1.00  0.00    -0.352 N 
ATOM     25  C   UNL A   1      41.057  24.895  26.462  1.00  0.00     0.251 C 
ATOM     26  H   UNL A   1      40.486  23.148  25.673  1.00  0.00     0.163 HD
ATOM     27  O   UNL A   1      42.099  24.945  25.816  1.00  0.00    -0.269 OA
BRANCH  25  28
ATOM     28  C   UNL A   1      40.757  25.917  27.485  1.00  0.00     0.039 A 
ATOM     29  C   UNL A   1      39.807  25.658  28.474  1.00  0.00     0.014 A 
ATOM     30  C   UNL A   1      41.447  27.130  27.479  1.00  0.00     0.014 A 
ATOM     31  C   UNL A   1      39.620  26.585  29.502  1.00  0.00     0.010 A 
ATOM     32  C   UNL A   1      41.377  27.965  28.580  1.00  0.00     0.010 A 
ATOM     33  C   UNL A   1      40.439  27.722  29.589  1.00  0.00    -0.014 A 
BRANCH  33  34
ATOM     34  C   UNL A   1      40.312  28.705  30.694  1.00  0.00     0.031 A 
ATOM     35  C   UNL A   1      41.184  28.563  31.916  1.00  0.00     0.074 A 
ATOM     36  C   UNL A   1      39.372  29.668  30.629  1.00  0.00     0.049 A 
ATOM     37  N   UNL A   1      41.171  29.256  33.024  1.00  0.00    -0.248 NA
ATOM     38  C   UNL A   1      42.173  27.469  31.910  1.00  0.00     0.031 C 
ATOM     39  C   UNL A   1      38.425  29.862  29.528  1.00  0.00     0.029 A 
ATOM     40  N   UNL A   1      39.052  30.666  31.515  1.00  0.00    -0.354 N 
ATOM     41  C   UNL A   1      42.128  28.669  33.846  1.00  0.00     0.074 A 
ATOM     42  C   UNL A   1      42.643  27.517  33.147  1.00  0.00     0.031 C 
ATOM     43  C   UNL A   1      37.663  30.936  29.784  1.00  0.00     0.029 A 
ATOM     44  C   UNL A   1      38.032  31.481  31.085  1.00  0.00     0.049 A 
ATOM     45  H   UNL A   1      39.511  30.786  32.378  1.00  0.00     0.167 HD
ATOM     46  C   UNL A   1      42.571  29.079  35.057  1.00  0.00     0.037 A 
ATOM     47  C   UNL A   1      37.459  32.546  31.677  1.00  0.00     0.037 A 
ATOM     48  C   UNL A   1      42.079  30.253  35.727  1.00  0.00     0.049 A 
ATOM     49  C   UNL A   1      37.972  32.988  33.022  1.00  0.00     0.074 A 
ATOM     50  C   UNL A   1      42.493  30.795  36.930  1.00  0.00     0.029 A 
ATOM     51  N   UNL A   1      41.066  31.070  35.246  1.00  0.00    -0.354 N 
ATOM     52  N   UNL A   1      38.925  32.461  33.756  1.00  0.00    -0.248 NA
ATOM     53  C   UNL A   1      37.343  34.175  33.615  1.00  0.00     0.031 C 
ATOM     54  C   UNL A   1      41.697  31.912  37.200  1.00  0.00     0.029 A 
ATOM     55  C   UNL A   1      40.829  32.102  36.136  1.00  0.00     0.049 A 
ATOM     56  H   UNL A   1      40.587  30.936  34.396  1.00  0.00     0.167 HD
ATOM     57  C   UNL A   1      39.032  33.272  34.881  1.00  0.00     0.074 A 
ATOM     58  C   UNL A   1      38.057  34.332  34.721  1.00  0.00     0.031 C 
ATOM     59  C   UNL A   1      39.860  33.153  35.948  1.00  0.00     0.037 A 
BRANCH  46  60
ATOM     60  C   UNL A   1      43.649  28.265  35.721  1.00  0.00     0.058 A 
ATOM     61  C   UNL A   1      43.344  27.239  36.633  1.00  0.00     0.135 A 
ATOM     62  C   UNL A   1      45.002  28.492  35.425  1.00  0.00     0.135 A 
ATOM     63  F   UNL A   1      42.068  26.991  36.971  1.00  0.00    -0.206 F 
ATOM     64  C   UNL A   1      44.341  26.490  37.247  1.00  0.00     0.059 A 
ATOM     65  C   UNL A   1      46.016  27.731  36.003  1.00  0.00     0.059 A 
ATOM     66  F   UNL A   1      45.353  29.463  34.567  1.00  0.00    -0.206 F 
ATOM     67  C   UNL A   1      45.674  26.740  36.922  1.00  0.00     0.060 A 
BRANCH  67  68
ATOM     68  S   UNL A   1      46.952  25.742  37.714  1.00  0.00     0.124 S 
ATOM     69  O   UNL A   1      46.382  24.402  37.611  1.00  0.00    -0.237 OA
ATOM     70  O   UNL A   1      48.115  26.002  36.871  1.00  0.00    -0.237 OA
ATOM     71  O   UNL A   1      47.025  26.290  39.065  1.00  0.00    -0.744 OA
ENDBRANCH  67  68
ENDBRANCH  46  60
BRANCH  47  72
ATOM     72  C   UNL A   1      36.365  33.288  30.993  1.00  0.00     0.058 A 
ATOM     73  C   UNL A   1      36.632  34.106  29.884  1.00  0.00     0.135 A 
ATOM     74  C   UNL A   1      35.034  33.194  31.428  1.00  0.00     0.135 A 
ATOM     75  F   UNL A   1      37.887  34.231  29.430  1.00  0.00    -0.206 F 
ATOM     76  C   UNL A   1      35.625  34.826  29.248  1.00  0.00     0.059 A 
ATOM     77  C   UNL A   1      34.005  33.881  30.789  1.00  0.00     0.059 A 
ATOM     78  F   UNL A   1      34.720  32.409  32.469  1.00  0.00    -0.206 F 
ATOM     79  C   UNL A   1      34.313  34.706  29.709  1.00  0.00     0.060 A 
BRANCH  79  80
ATOM     80  S   UNL A   1      33.010  35.620  28.856  1.00  0.00     0.124 S 
ATOM     81  O   UNL A   1      33.775  36.659  28.177  1.00  0.00    -0.237 OA
ATOM     82  O   UNL A   1      32.426  34.592  28.000  1.00  0.00    -0.237 OA
ATOM     83  O   UNL A   1      32.152  36.078  29.946  1.00  0.00    -0.744 OA
ENDBRANCH  79  80
ENDBRANCH  47  72
BRANCH  59  84
ATOM     84  C   UNL A   1      39.785  34.224  37.002  1.00  0.00     0.058 A 
ATOM     85  C   UNL A   1      40.415  35.468  36.842  1.00  0.00     0.135 A 
ATOM     86  C   UNL A   1      39.032  34.015  38.169  1.00  0.00     0.135 A 
ATOM     87  F   UNL A   1      41.149  35.718  35.746  1.00  0.00    -0.206 F 
ATOM     88  C   UNL A   1      40.329  36.455  37.818  1.00  0.00     0.059 A 
ATOM     89  C   UNL A   1      38.903  34.999  39.142  1.00  0.00     0.059 A 
ATOM     90  F   UNL A   1      38.397  32.848  38.364  1.00  0.00    -0.206 F 
ATOM     91  C   UNL A   1      39.570  36.211  38.964  1.00  0.00     0.060 A 
BRANCH  91  92
ATOM     92  S   UNL A   1      39.451  37.507  40.214  1.00  0.00     0.124 S 
ATOM     93  O   UNL A   1      38.934  36.764  41.359  1.00  0.00    -0.237 OA
ATOM     94  O   UNL A   1      40.834  37.960  40.325  1.00  0.00    -0.237 OA
ATOM     95  O   UNL A   1      38.527  38.469  39.621  1.00  0.00    -0.744 OA
ENDBRANCH  91  92
ENDBRANCH  59  84
ENDBRANCH  33  34
ENDBRANCH  25  28
ENDBRANCH   1  24
TORSDOF 15
ENDMDL
