MODEL 1
REMARK VINA RESULT:      -9.5      0.000      0.000
REMARK SMILES C[C@@H]([NH3+])CCC(=O)N[C@H]1C=C[C@@H](C(=O)NCCCNC(=O)c2ccc(-c3c4nc(c(-c5c(F)cc(S(=O)(=O)[O-])cc5F)c5ccc([nH]5)c(-c5c(F)cc(S(=O)(=O)[O-])cc5F)c5nc(c(-c6c(F)cc(S(=O)(=O)[O-])cc6F)c6ccc3[nH]6)C=C5)C=C4)cc2)C1
REMARK SMILES IDX 16 1 15 2 13 3 14 4 12 6 9 7 10 8 88 9 11 10 8 11 6 12 7 13
REMARK SMILES IDX 5 15 4 16 2 17 1 18 3 19 17 23 18 24 19 25 20 26 21 28 22 29
REMARK SMILES IDX 23 30 87 31 24 32 86 33 25 34 26 35 27 36 80 37 28 38 85 39
REMARK SMILES IDX 79 40 81 41 29 42 84 43 78 44 77 45 30 47 64 48 43 49 63 50
REMARK SMILES IDX 44 51 47 52 62 53 82 54 45 55 46 56 61 58 83 59 48 60 31 61
REMARK SMILES IDX 32 62 41 63 33 64 34 65 40 66 42 67 35 68 36 69 37 70 38 71
REMARK SMILES IDX 39 72 65 73 66 74 75 75 67 76 68 77 74 78 76 79 69 80 70 81
REMARK SMILES IDX 71 82 72 83 73 84 49 85 50 86 59 87 51 88 52 89 58 90 60 91
REMARK SMILES IDX 53 92 54 93 55 94 56 95 57 96
REMARK H PARENT 15 5 8 14 3 20 3 21 3 22 19 27 81 46 47 57
REMARK Flexibility Score: inf
ROOT
ATOM      1  C   UNL A   1      34.178  34.685  29.893  1.00  0.00     0.117 C 
ENDROOT
BRANCH   1   2
ATOM      2  N   UNL A   1      33.716  34.225  31.193  1.00  0.00    -0.356 N 
ATOM      3  C   UNL A   1      34.369  33.574  32.194  1.00  0.00     0.227 C 
ATOM      4  O   UNL A   1      33.756  33.371  33.246  1.00  0.00    -0.274 OA
ATOM      5  H   UNL A   1      32.769  34.416  31.381  1.00  0.00     0.163 HD
BRANCH   3   6
ATOM      6  C   UNL A   1      35.809  33.097  32.044  1.00  0.00     0.103 C 
ATOM      7  C   UNL A   1      37.451  32.038  33.470  1.00  0.00     0.106 C 
ATOM      8  C   UNL A   1      36.792  31.038  32.585  1.00  0.00    -0.006 C 
ATOM      9  C   UNL A   1      36.657  33.324  33.299  1.00  0.00     0.047 C 
ATOM     10  C   UNL A   1      35.914  31.625  31.766  1.00  0.00    -0.016 C 
BRANCH   7  11
ATOM     11  N   UNL A   1      37.578  31.513  34.795  1.00  0.00    -0.350 N 
ATOM     12  C   UNL A   1      38.617  30.770  35.283  1.00  0.00     0.220 C 
ATOM     13  O   UNL A   1      38.469  30.182  36.353  1.00  0.00    -0.275 OA
ATOM     14  H   UNL A   1      36.842  31.707  35.419  1.00  0.00     0.164 HD
BRANCH  12  15
ATOM     15  C   UNL A   1      39.930  30.704  34.514  1.00  0.00     0.106 C 
BRANCH  15  16
ATOM     16  C   UNL A   1      40.824  29.496  34.843  1.00  0.00     0.074 C 
BRANCH  16  17
ATOM     17  C   UNL A   1      40.856  28.354  33.811  1.00  0.00     0.178 C 
ATOM     18  C   UNL A   1      39.690  28.385  32.811  1.00  0.00     0.075 C 
BRANCH  17  19
ATOM     19  N   UNL A   1      42.098  28.384  33.034  1.00  0.00    -0.355 N 
ATOM     20  H   UNL A   1      42.723  27.646  33.363  1.00  0.00     0.344 HD
ATOM     21  H   UNL A   1      42.552  29.290  33.152  1.00  0.00     0.344 HD
ATOM     22  H   UNL A   1      41.886  28.235  32.048  1.00  0.00     0.344 HD
ENDBRANCH  17  19
ENDBRANCH  16  17
ENDBRANCH  15  16
ENDBRANCH  12  15
ENDBRANCH   7  11
ENDBRANCH   3   6
ENDBRANCH   1   2
BRANCH   1  23
ATOM     23  C   UNL A   1      33.734  33.788  28.749  1.00  0.00     0.042 C 
BRANCH  23  24
ATOM     24  C   UNL A   1      34.701  32.652  28.482  1.00  0.00     0.118 C 
BRANCH  24  25
ATOM     25  N   UNL A   1      34.002  31.442  28.076  1.00  0.00    -0.352 N 
ATOM     26  C   UNL A   1      34.517  30.217  27.738  1.00  0.00     0.251 C 
ATOM     27  H   UNL A   1      33.021  31.514  28.037  1.00  0.00     0.163 HD
ATOM     28  O   UNL A   1      33.815  29.407  27.141  1.00  0.00    -0.269 OA
BRANCH  26  29
ATOM     29  C   UNL A   1      35.912  29.887  28.097  1.00  0.00     0.039 A 
ATOM     30  C   UNL A   1      36.180  29.318  29.343  1.00  0.00     0.014 A 
ATOM     31  C   UNL A   1      36.956  30.160  27.209  1.00  0.00     0.014 A 
ATOM     32  C   UNL A   1      37.495  28.986  29.678  1.00  0.00     0.010 A 
ATOM     33  C   UNL A   1      38.242  29.729  27.497  1.00  0.00     0.010 A 
ATOM     34  C   UNL A   1      38.530  29.166  28.747  1.00  0.00    -0.014 A 
BRANCH  34  35
ATOM     35  C   UNL A   1      39.935  28.822  29.073  1.00  0.00     0.031 A 
ATOM     36  C   UNL A   1      40.800  29.823  29.792  1.00  0.00     0.074 A 
ATOM     37  C   UNL A   1      40.444  27.641  28.674  1.00  0.00     0.049 A 
ATOM     38  N   UNL A   1      42.065  29.743  30.114  1.00  0.00    -0.248 NA
ATOM     39  C   UNL A   1      40.166  31.098  30.171  1.00  0.00     0.031 C 
ATOM     40  C   UNL A   1      39.713  26.611  27.932  1.00  0.00     0.029 A 
ATOM     41  N   UNL A   1      41.696  27.107  28.836  1.00  0.00    -0.354 N 
ATOM     42  C   UNL A   1      42.378  30.956  30.718  1.00  0.00     0.074 A 
ATOM     43  C   UNL A   1      41.193  31.782  30.648  1.00  0.00     0.031 C 
ATOM     44  C   UNL A   1      40.517  25.553  27.739  1.00  0.00     0.029 A 
ATOM     45  C   UNL A   1      41.830  25.846  28.305  1.00  0.00     0.049 A 
ATOM     46  H   UNL A   1      42.429  27.582  29.290  1.00  0.00     0.167 HD
ATOM     47  C   UNL A   1      43.535  31.337  31.308  1.00  0.00     0.037 A 
ATOM     48  C   UNL A   1      42.894  25.021  28.282  1.00  0.00     0.037 A 
ATOM     49  C   UNL A   1      44.703  30.498  31.388  1.00  0.00     0.049 A 
ATOM     50  C   UNL A   1      44.177  25.470  28.927  1.00  0.00     0.074 A 
ATOM     51  C   UNL A   1      45.917  30.766  31.993  1.00  0.00     0.029 A 
ATOM     52  N   UNL A   1      44.800  29.226  30.842  1.00  0.00    -0.354 N 
ATOM     53  N   UNL A   1      44.443  26.600  29.538  1.00  0.00    -0.248 NA
ATOM     54  C   UNL A   1      45.303  24.528  28.884  1.00  0.00     0.031 C 
ATOM     55  C   UNL A   1      46.762  29.673  31.775  1.00  0.00     0.029 A 
ATOM     56  C   UNL A   1      46.058  28.701  31.082  1.00  0.00     0.049 A 
ATOM     57  H   UNL A   1      44.078  28.764  30.355  1.00  0.00     0.167 HD
ATOM     58  C   UNL A   1      45.755  26.491  29.984  1.00  0.00     0.074 A 
ATOM     59  C   UNL A   1      46.225  25.182  29.577  1.00  0.00     0.031 C 
ATOM     60  C   UNL A   1      46.502  27.390  30.674  1.00  0.00     0.037 A 
BRANCH  47  61
ATOM     61  C   UNL A   1      43.584  32.716  31.910  1.00  0.00     0.058 A 
ATOM     62  C   UNL A   1      43.344  32.933  33.278  1.00  0.00     0.135 A 
ATOM     63  C   UNL A   1      43.861  33.838  31.113  1.00  0.00     0.135 A 
ATOM     64  F   UNL A   1      43.057  31.899  34.087  1.00  0.00    -0.206 F 
ATOM     65  C   UNL A   1      43.326  34.213  33.822  1.00  0.00     0.059 A 
ATOM     66  C   UNL A   1      43.883  35.125  31.643  1.00  0.00     0.059 A 
ATOM     67  F   UNL A   1      44.100  33.693  29.800  1.00  0.00    -0.206 F 
ATOM     68  C   UNL A   1      43.591  35.304  32.994  1.00  0.00     0.060 A 
BRANCH  68  69
ATOM     69  S   UNL A   1      43.534  36.961  33.709  1.00  0.00     0.124 S 
ATOM     70  O   UNL A   1      42.250  36.934  34.402  1.00  0.00    -0.237 OA
ATOM     71  O   UNL A   1      44.716  36.973  34.566  1.00  0.00    -0.237 OA
ATOM     72  O   UNL A   1      43.600  37.837  32.544  1.00  0.00    -0.744 OA
ENDBRANCH  68  69
ENDBRANCH  47  61
BRANCH  48  73
ATOM     73  C   UNL A   1      42.769  23.669  27.674  1.00  0.00     0.058 A 
ATOM     74  C   UNL A   1      42.997  23.479  26.303  1.00  0.00     0.135 A 
ATOM     75  C   UNL A   1      42.450  22.542  28.446  1.00  0.00     0.135 A 
ATOM     76  F   UNL A   1      43.302  24.526  25.522  1.00  0.00    -0.206 F 
ATOM     77  C   UNL A   1      42.900  22.222  25.715  1.00  0.00     0.059 A 
ATOM     78  C   UNL A   1      42.372  21.270  27.886  1.00  0.00     0.059 A 
ATOM     79  F   UNL A   1      42.239  22.668  29.766  1.00  0.00    -0.206 F 
ATOM     80  C   UNL A   1      42.590  21.122  26.517  1.00  0.00     0.060 A 
BRANCH  80  81
ATOM     81  S   UNL A   1      42.516  19.489  25.749  1.00  0.00     0.124 S 
ATOM     82  O   UNL A   1      43.437  19.650  24.629  1.00  0.00    -0.237 OA
ATOM     83  O   UNL A   1      42.971  18.622  26.832  1.00  0.00    -0.237 OA
ATOM     84  O   UNL A   1      41.107  19.350  25.392  1.00  0.00    -0.744 OA
ENDBRANCH  80  81
ENDBRANCH  48  73
BRANCH  60  85
ATOM     85  C   UNL A   1      47.891  26.972  31.073  1.00  0.00     0.058 A 
ATOM     86  C   UNL A   1      48.178  26.480  32.354  1.00  0.00     0.135 A 
ATOM     87  C   UNL A   1      48.939  27.023  30.138  1.00  0.00     0.135 A 
ATOM     88  F   UNL A   1      47.214  26.416  33.287  1.00  0.00    -0.206 F 
ATOM     89  C   UNL A   1      49.462  26.077  32.706  1.00  0.00     0.059 A 
ATOM     90  C   UNL A   1      50.223  26.595  30.459  1.00  0.00     0.059 A 
ATOM     91  F   UNL A   1      48.716  27.474  28.895  1.00  0.00    -0.206 F 
ATOM     92  C   UNL A   1      50.478  26.136  31.750  1.00  0.00     0.060 A 
BRANCH  92  93
ATOM     93  S   UNL A   1      52.133  25.580  32.209  1.00  0.00     0.124 S 
ATOM     94  O   UNL A   1      51.985  24.130  32.142  1.00  0.00    -0.237 OA
ATOM     95  O   UNL A   1      52.963  26.181  31.170  1.00  0.00    -0.237 OA
ATOM     96  O   UNL A   1      52.318  26.132  33.547  1.00  0.00    -0.744 OA
ENDBRANCH  92  93
ENDBRANCH  60  85
ENDBRANCH  34  35
ENDBRANCH  26  29
ENDBRANCH  24  25
ENDBRANCH  23  24
ENDBRANCH   1  23
TORSDOF 18
ENDMDL
MODEL 2
REMARK VINA RESULT:      -9.4      5.372     12.106
REMARK SMILES C[C@@H]([NH3+])CCC(=O)N[C@H]1C=C[C@@H](C(=O)NCCCNC(=O)c2ccc(-c3c4nc(c(-c5c(F)cc(S(=O)(=O)[O-])cc5F)c5ccc([nH]5)c(-c5c(F)cc(S(=O)(=O)[O-])cc5F)c5nc(c(-c6c(F)cc(S(=O)(=O)[O-])cc6F)c6ccc3[nH]6)C=C5)C=C4)cc2)C1
REMARK SMILES IDX 16 1 15 2 13 3 14 4 12 6 9 7 10 8 88 9 11 10 8 11 6 12 7 13
REMARK SMILES IDX 5 15 4 16 2 17 1 18 3 19 17 23 18 24 19 25 20 26 21 28 22 29
REMARK SMILES IDX 23 30 87 31 24 32 86 33 25 34 26 35 27 36 80 37 28 38 85 39
REMARK SMILES IDX 79 40 81 41 29 42 84 43 78 44 77 45 30 47 64 48 43 49 63 50
REMARK SMILES IDX 44 51 47 52 62 53 82 54 45 55 46 56 61 58 83 59 48 60 31 61
REMARK SMILES IDX 32 62 41 63 33 64 34 65 40 66 42 67 35 68 36 69 37 70 38 71
REMARK SMILES IDX 39 72 65 73 66 74 75 75 67 76 68 77 74 78 76 79 69 80 70 81
REMARK SMILES IDX 71 82 72 83 73 84 49 85 50 86 59 87 51 88 52 89 58 90 60 91
REMARK SMILES IDX 53 92 54 93 55 94 56 95 57 96
REMARK H PARENT 15 5 8 14 3 20 3 21 3 22 19 27 81 46 47 57
REMARK Flexibility Score: inf
ROOT
ATOM      1  C   UNL A   1      39.755  21.574  26.248  1.00  0.00     0.117 C 
ENDROOT
BRANCH   1   2
ATOM      2  N   UNL A   1      38.913  22.751  26.400  1.00  0.00    -0.356 N 
ATOM      3  C   UNL A   1      37.706  23.063  25.853  1.00  0.00     0.227 C 
ATOM      4  O   UNL A   1      37.160  24.107  26.220  1.00  0.00    -0.274 OA
ATOM      5  H   UNL A   1      39.278  23.439  27.001  1.00  0.00     0.163 HD
BRANCH   3   6
ATOM      6  C   UNL A   1      37.035  22.171  24.815  1.00  0.00     0.103 C 
ATOM      7  C   UNL A   1      34.773  21.468  24.325  1.00  0.00     0.106 C 
ATOM      8  C   UNL A   1      35.190  22.580  23.427  1.00  0.00    -0.006 C 
ATOM      9  C   UNL A   1      35.863  21.361  25.379  1.00  0.00     0.047 C 
ATOM     10  C   UNL A   1      36.453  22.943  23.666  1.00  0.00    -0.016 C 
BRANCH   7  11
ATOM     11  N   UNL A   1      33.434  21.683  24.782  1.00  0.00    -0.350 N 
ATOM     12  C   UNL A   1      32.560  20.729  25.226  1.00  0.00     0.220 C 
ATOM     13  O   UNL A   1      31.373  21.029  25.345  1.00  0.00    -0.275 OA
ATOM     14  H   UNL A   1      33.109  22.611  24.776  1.00  0.00     0.164 HD
BRANCH  12  15
ATOM     15  C   UNL A   1      33.070  19.340  25.583  1.00  0.00     0.106 C 
BRANCH  15  16
ATOM     16  C   UNL A   1      32.472  18.188  24.757  1.00  0.00     0.074 C 
BRANCH  16  17
ATOM     17  C   UNL A   1      32.969  18.044  23.305  1.00  0.00     0.178 C 
ATOM     18  C   UNL A   1      34.031  16.950  23.117  1.00  0.00     0.075 C 
BRANCH  17  19
ATOM     19  N   UNL A   1      31.859  17.736  22.400  1.00  0.00    -0.355 N 
ATOM     20  H   UNL A   1      31.973  18.260  21.532  1.00  0.00     0.344 HD
ATOM     21  H   UNL A   1      30.977  17.997  22.841  1.00  0.00     0.344 HD
ATOM     22  H   UNL A   1      31.855  16.737  22.196  1.00  0.00     0.344 HD
ENDBRANCH  17  19
ENDBRANCH  16  17
ENDBRANCH  15  16
ENDBRANCH  12  15
ENDBRANCH   7  11
ENDBRANCH   3   6
ENDBRANCH   1   2
BRANCH   1  23
ATOM     23  C   UNL A   1      40.941  21.562  27.198  1.00  0.00     0.042 C 
BRANCH  23  24
ATOM     24  C   UNL A   1      41.412  22.955  27.569  1.00  0.00     0.118 C 
BRANCH  24  25
ATOM     25  N   UNL A   1      41.858  23.696  26.400  1.00  0.00    -0.352 N 
ATOM     26  C   UNL A   1      41.794  25.043  26.152  1.00  0.00     0.251 C 
ATOM     27  H   UNL A   1      42.262  23.153  25.684  1.00  0.00     0.163 HD
ATOM     28  O   UNL A   1      41.941  25.457  25.007  1.00  0.00    -0.269 OA
BRANCH  26  29
ATOM     29  C   UNL A   1      41.547  25.979  27.268  1.00  0.00     0.039 A 
ATOM     30  C   UNL A   1      40.394  25.831  28.041  1.00  0.00     0.014 A 
ATOM     31  C   UNL A   1      42.445  27.016  27.536  1.00  0.00     0.014 A 
ATOM     32  C   UNL A   1      40.168  26.701  29.109  1.00  0.00     0.010 A 
ATOM     33  C   UNL A   1      42.275  27.806  28.663  1.00  0.00     0.010 A 
ATOM     34  C   UNL A   1      41.119  27.678  29.443  1.00  0.00    -0.014 A 
BRANCH  34  35
ATOM     35  C   UNL A   1      40.907  28.614  30.572  1.00  0.00     0.031 A 
ATOM     36  C   UNL A   1      41.761  28.499  31.807  1.00  0.00     0.074 A 
ATOM     37  C   UNL A   1      39.916  29.524  30.509  1.00  0.00     0.049 A 
ATOM     38  N   UNL A   1      41.696  29.175  32.924  1.00  0.00    -0.248 NA
ATOM     39  C   UNL A   1      42.806  27.460  31.797  1.00  0.00     0.031 C 
ATOM     40  C   UNL A   1      38.997  29.699  29.382  1.00  0.00     0.029 A 
ATOM     41  N   UNL A   1      39.515  30.473  31.414  1.00  0.00    -0.354 N 
ATOM     42  C   UNL A   1      42.679  28.637  33.749  1.00  0.00     0.074 A 
ATOM     43  C   UNL A   1      43.272  27.529  33.033  1.00  0.00     0.031 C 
ATOM     44  C   UNL A   1      38.168  30.721  29.645  1.00  0.00     0.029 A 
ATOM     45  C   UNL A   1      38.467  31.245  30.975  1.00  0.00     0.049 A 
ATOM     46  H   UNL A   1      39.940  30.590  32.295  1.00  0.00     0.167 HD
ATOM     47  C   UNL A   1      43.076  29.049  34.976  1.00  0.00     0.037 A 
ATOM     48  C   UNL A   1      37.823  32.262  31.578  1.00  0.00     0.037 A 
ATOM     49  C   UNL A   1      42.489  30.165  35.670  1.00  0.00     0.049 A 
ATOM     50  C   UNL A   1      38.267  32.693  32.949  1.00  0.00     0.074 A 
ATOM     51  C   UNL A   1      42.836  30.693  36.901  1.00  0.00     0.029 A 
ATOM     52  N   UNL A   1      41.431  30.926  35.192  1.00  0.00    -0.354 N 
ATOM     53  N   UNL A   1      39.230  32.207  33.696  1.00  0.00    -0.248 NA
ATOM     54  C   UNL A   1      37.540  33.814  33.558  1.00  0.00     0.031 C 
ATOM     55  C   UNL A   1      41.958  31.745  37.185  1.00  0.00     0.029 A 
ATOM     56  C   UNL A   1      41.101  31.909  36.108  1.00  0.00     0.049 A 
ATOM     57  H   UNL A   1      40.982  30.786  34.326  1.00  0.00     0.167 HD
ATOM     58  C   UNL A   1      39.248  32.986  34.847  1.00  0.00     0.074 A 
ATOM     59  C   UNL A   1      38.204  33.978  34.694  1.00  0.00     0.031 C 
ATOM     60  C   UNL A   1      40.060  32.893  35.931  1.00  0.00     0.037 A 
BRANCH  47  61
ATOM     61  C   UNL A   1      44.194  28.284  35.633  1.00  0.00     0.058 A 
ATOM     62  C   UNL A   1      43.941  27.202  36.494  1.00  0.00     0.135 A 
ATOM     63  C   UNL A   1      45.534  28.640  35.413  1.00  0.00     0.135 A 
ATOM     64  F   UNL A   1      42.678  26.826  36.755  1.00  0.00    -0.206 F 
ATOM     65  C   UNL A   1      44.970  26.536  37.150  1.00  0.00     0.059 A 
ATOM     66  C   UNL A   1      46.582  27.964  36.032  1.00  0.00     0.059 A 
ATOM     67  F   UNL A   1      45.837  29.664  34.600  1.00  0.00    -0.206 F 
ATOM     68  C   UNL A   1      46.288  26.929  36.918  1.00  0.00     0.060 A 
BRANCH  68  69
ATOM     69  S   UNL A   1      47.611  26.074  37.801  1.00  0.00     0.124 S 
ATOM     70  O   UNL A   1      48.782  26.479  37.030  1.00  0.00    -0.237 OA
ATOM     71  O   UNL A   1      47.509  26.640  39.142  1.00  0.00    -0.237 OA
ATOM     72  O   UNL A   1      47.241  24.667  37.687  1.00  0.00    -0.744 OA
ENDBRANCH  68  69
ENDBRANCH  47  61
BRANCH  48  73
ATOM     73  C   UNL A   1      36.731  32.974  30.863  1.00  0.00     0.058 A 
ATOM     74  C   UNL A   1      35.394  32.816  31.262  1.00  0.00     0.135 A 
ATOM     75  C   UNL A   1      36.995  33.843  29.794  1.00  0.00     0.135 A 
ATOM     76  F   UNL A   1      35.090  31.994  32.277  1.00  0.00    -0.206 F 
ATOM     77  C   UNL A   1      34.358  33.482  30.617  1.00  0.00     0.059 A 
ATOM     78  C   UNL A   1      35.977  34.541  29.150  1.00  0.00     0.059 A 
ATOM     79  F   UNL A   1      38.258  34.043  29.385  1.00  0.00    -0.206 F 
ATOM     80  C   UNL A   1      34.660  34.347  29.564  1.00  0.00     0.060 A 
BRANCH  80  81
ATOM     81  S   UNL A   1      33.308  35.243  28.770  1.00  0.00     0.124 S 
ATOM     82  O   UNL A   1      34.034  36.251  28.005  1.00  0.00    -0.237 OA
ATOM     83  O   UNL A   1      32.661  34.192  27.991  1.00  0.00    -0.237 OA
ATOM     84  O   UNL A   1      32.531  35.748  29.898  1.00  0.00    -0.744 OA
ENDBRANCH  80  81
ENDBRANCH  48  73
BRANCH  60  85
ATOM     85  C   UNL A   1      39.882  33.919  37.017  1.00  0.00     0.058 A 
ATOM     86  C   UNL A   1      40.456  35.196  36.931  1.00  0.00     0.135 A 
ATOM     87  C   UNL A   1      39.085  33.630  38.137  1.00  0.00     0.135 A 
ATOM     88  F   UNL A   1      41.232  35.522  35.885  1.00  0.00    -0.206 F 
ATOM     89  C   UNL A   1      40.268  36.144  37.932  1.00  0.00     0.059 A 
ATOM     90  C   UNL A   1      38.857  34.574  39.133  1.00  0.00     0.059 A 
ATOM     91  F   UNL A   1      38.503  32.428  38.261  1.00  0.00    -0.206 F 
ATOM     92  C   UNL A   1      39.464  35.824  39.028  1.00  0.00     0.060 A 
BRANCH  92  93
ATOM     93  S   UNL A   1      39.202  37.074  40.304  1.00  0.00     0.124 S 
ATOM     94  O   UNL A   1      38.520  38.122  39.553  1.00  0.00    -0.237 OA
ATOM     95  O   UNL A   1      38.384  36.358  41.278  1.00  0.00    -0.237 OA
ATOM     96  O   UNL A   1      40.555  37.397  40.747  1.00  0.00    -0.744 OA
ENDBRANCH  92  93
ENDBRANCH  60  85
ENDBRANCH  34  35
ENDBRANCH  26  29
ENDBRANCH  24  25
ENDBRANCH  23  24
ENDBRANCH   1  23
TORSDOF 18
ENDMDL
MODEL 3
REMARK VINA RESULT:      -9.3      3.914      6.700
REMARK SMILES C[C@@H]([NH3+])CCC(=O)N[C@H]1C=C[C@@H](C(=O)NCCCNC(=O)c2ccc(-c3c4nc(c(-c5c(F)cc(S(=O)(=O)[O-])cc5F)c5ccc([nH]5)c(-c5c(F)cc(S(=O)(=O)[O-])cc5F)c5nc(c(-c6c(F)cc(S(=O)(=O)[O-])cc6F)c6ccc3[nH]6)C=C5)C=C4)cc2)C1
REMARK SMILES IDX 16 1 15 2 13 3 14 4 12 6 9 7 10 8 88 9 11 10 8 11 6 12 7 13
REMARK SMILES IDX 5 15 4 16 2 17 1 18 3 19 17 23 18 24 19 25 20 26 21 28 22 29
REMARK SMILES IDX 23 30 87 31 24 32 86 33 25 34 26 35 27 36 80 37 28 38 85 39
REMARK SMILES IDX 79 40 81 41 29 42 84 43 78 44 77 45 30 47 64 48 43 49 63 50
REMARK SMILES IDX 44 51 47 52 62 53 82 54 45 55 46 56 61 58 83 59 48 60 31 61
REMARK SMILES IDX 32 62 41 63 33 64 34 65 40 66 42 67 35 68 36 69 37 70 38 71
REMARK SMILES IDX 39 72 65 73 66 74 75 75 67 76 68 77 74 78 76 79 69 80 70 81
REMARK SMILES IDX 71 82 72 83 73 84 49 85 50 86 59 87 51 88 52 89 58 90 60 91
REMARK SMILES IDX 53 92 54 93 55 94 56 95 57 96
REMARK H PARENT 15 5 8 14 3 20 3 21 3 22 19 27 81 46 47 57
REMARK Flexibility Score: inf
ROOT
ATOM      1  C   UNL A   1      34.037  32.159  27.816  1.00  0.00     0.117 C 
ENDROOT
BRANCH   1   2
ATOM      2  N   UNL A   1      34.655  30.884  27.485  1.00  0.00    -0.356 N 
ATOM      3  C   UNL A   1      34.115  29.721  27.028  1.00  0.00     0.227 C 
ATOM      4  O   UNL A   1      34.886  28.801  26.742  1.00  0.00    -0.274 OA
ATOM      5  H   UNL A   1      35.630  30.858  27.613  1.00  0.00     0.163 HD
BRANCH   3   6
ATOM      6  C   UNL A   1      32.611  29.536  26.871  1.00  0.00     0.103 C 
ATOM      7  C   UNL A   1      31.051  29.427  25.025  1.00  0.00     0.106 C 
ATOM      8  C   UNL A   1      31.394  28.062  25.512  1.00  0.00    -0.006 C 
ATOM      9  C   UNL A   1      32.012  30.369  25.734  1.00  0.00     0.047 C 
ATOM     10  C   UNL A   1      32.223  28.119  26.559  1.00  0.00    -0.016 C 
BRANCH   7  11
ATOM     11  N   UNL A   1      31.042  29.449  23.594  1.00  0.00    -0.350 N 
ATOM     12  C   UNL A   1      29.940  29.483  22.785  1.00  0.00     0.220 C 
ATOM     13  O   UNL A   1      30.082  29.246  21.587  1.00  0.00    -0.275 OA
ATOM     14  H   UNL A   1      31.918  29.441  23.146  1.00  0.00     0.164 HD
BRANCH  12  15
ATOM     15  C   UNL A   1      28.578  29.832  23.371  1.00  0.00     0.106 C 
BRANCH  15  16
ATOM     16  C   UNL A   1      28.316  31.334  23.575  1.00  0.00     0.074 C 
BRANCH  16  17
ATOM     17  C   UNL A   1      28.949  32.295  22.551  1.00  0.00     0.178 C 
ATOM     18  C   UNL A   1      28.100  32.506  21.288  1.00  0.00     0.075 C 
BRANCH  17  19
ATOM     19  N   UNL A   1      29.183  33.613  23.145  1.00  0.00    -0.355 N 
ATOM     20  H   UNL A   1      28.350  33.909  23.655  1.00  0.00     0.344 HD
ATOM     21  H   UNL A   1      29.387  34.288  22.407  1.00  0.00     0.344 HD
ATOM     22  H   UNL A   1      29.974  33.560  23.787  1.00  0.00     0.344 HD
ENDBRANCH  17  19
ENDBRANCH  16  17
ENDBRANCH  15  16
ENDBRANCH  12  15
ENDBRANCH   7  11
ENDBRANCH   3   6
ENDBRANCH   1   2
BRANCH   1  23
ATOM     23  C   UNL A   1      35.035  33.198  28.302  1.00  0.00     0.042 C 
BRANCH  23  24
ATOM     24  C   UNL A   1      36.264  32.580  28.941  1.00  0.00     0.118 C 
BRANCH  24  25
ATOM     25  N   UNL A   1      35.923  31.839  30.145  1.00  0.00    -0.352 N 
ATOM     26  C   UNL A   1      36.516  30.720  30.671  1.00  0.00     0.251 C 
ATOM     27  H   UNL A   1      35.156  32.190  30.654  1.00  0.00     0.163 HD
ATOM     28  O   UNL A   1      35.924  30.061  31.518  1.00  0.00    -0.269 OA
BRANCH  26  29
ATOM     29  C   UNL A   1      37.863  30.323  30.208  1.00  0.00     0.039 A 
ATOM     30  C   UNL A   1      38.870  30.103  31.150  1.00  0.00     0.014 A 
ATOM     31  C   UNL A   1      38.132  30.189  28.844  1.00  0.00     0.014 A 
ATOM     32  C   UNL A   1      40.138  29.708  30.718  1.00  0.00     0.010 A 
ATOM     33  C   UNL A   1      39.357  29.689  28.426  1.00  0.00     0.010 A 
ATOM     34  C   UNL A   1      40.382  29.474  29.356  1.00  0.00    -0.014 A 
BRANCH  34  35
ATOM     35  C   UNL A   1      41.717  29.052  28.868  1.00  0.00     0.031 A 
ATOM     36  C   UNL A   1      42.834  30.059  28.788  1.00  0.00     0.074 A 
ATOM     37  C   UNL A   1      41.906  27.787  28.447  1.00  0.00     0.049 A 
ATOM     38  N   UNL A   1      44.051  29.910  28.334  1.00  0.00    -0.248 NA
ATOM     39  C   UNL A   1      42.530  31.425  29.249  1.00  0.00     0.031 C 
ATOM     40  C   UNL A   1      40.885  26.736  28.437  1.00  0.00     0.029 A 
ATOM     41  N   UNL A   1      43.022  27.169  27.946  1.00  0.00    -0.354 N 
ATOM     42  C   UNL A   1      44.650  31.160  28.444  1.00  0.00     0.074 A 
ATOM     43  C   UNL A   1      43.640  32.073  28.933  1.00  0.00     0.031 C 
ATOM     44  C   UNL A   1      41.434  25.594  27.992  1.00  0.00     0.029 A 
ATOM     45  C   UNL A   1      42.830  25.842  27.647  1.00  0.00     0.049 A 
ATOM     46  H   UNL A   1      43.881  27.633  27.813  1.00  0.00     0.167 HD
ATOM     47  C   UNL A   1      45.933  31.511  28.193  1.00  0.00     0.037 A 
ATOM     48  C   UNL A   1      43.687  24.929  27.152  1.00  0.00     0.037 A 
ATOM     49  C   UNL A   1      46.934  30.590  27.723  1.00  0.00     0.049 A 
ATOM     50  C   UNL A   1      45.104  25.343  26.862  1.00  0.00     0.074 A 
ATOM     51  C   UNL A   1      48.273  30.827  27.470  1.00  0.00     0.029 A 
ATOM     52  N   UNL A   1      46.703  29.252  27.435  1.00  0.00    -0.354 N 
ATOM     53  N   UNL A   1      45.669  26.517  27.017  1.00  0.00    -0.248 NA
ATOM     54  C   UNL A   1      46.002  24.307  26.334  1.00  0.00     0.031 C 
ATOM     55  C   UNL A   1      48.841  29.643  26.987  1.00  0.00     0.029 A 
ATOM     56  C   UNL A   1      47.870  28.654  26.991  1.00  0.00     0.049 A 
ATOM     57  H   UNL A   1      45.836  28.795  27.532  1.00  0.00     0.167 HD
ATOM     58  C   UNL A   1      46.998  26.352  26.641  1.00  0.00     0.074 A 
ATOM     59  C   UNL A   1      47.151  24.963  26.257  1.00  0.00     0.031 C 
ATOM     60  C   UNL A   1      48.002  27.265  26.621  1.00  0.00     0.037 A 
BRANCH  47  61
ATOM     61  C   UNL A   1      46.315  32.950  28.425  1.00  0.00     0.058 A 
ATOM     62  C   UNL A   1      46.222  33.911  27.404  1.00  0.00     0.135 A 
ATOM     63  C   UNL A   1      46.788  33.374  29.676  1.00  0.00     0.135 A 
ATOM     64  F   UNL A   1      45.791  33.560  26.181  1.00  0.00    -0.206 F 
ATOM     65  C   UNL A   1      46.633  35.225  27.599  1.00  0.00     0.059 A 
ATOM     66  C   UNL A   1      47.173  34.692  29.905  1.00  0.00     0.059 A 
ATOM     67  F   UNL A   1      46.897  32.501  30.690  1.00  0.00    -0.206 F 
ATOM     68  C   UNL A   1      47.114  35.605  28.853  1.00  0.00     0.060 A 
BRANCH  68  69
ATOM     69  S   UNL A   1      47.672  37.307  29.082  1.00  0.00     0.124 S 
ATOM     70  O   UNL A   1      46.970  37.990  27.999  1.00  0.00    -0.237 OA
ATOM     71  O   UNL A   1      47.204  37.611  30.430  1.00  0.00    -0.237 OA
ATOM     72  O   UNL A   1      49.120  37.213  28.930  1.00  0.00    -0.744 OA
ENDBRANCH  68  69
ENDBRANCH  47  61
BRANCH  48  73
ATOM     73  C   UNL A   1      43.240  23.524  26.954  1.00  0.00     0.058 A 
ATOM     74  C   UNL A   1      43.020  23.020  25.663  1.00  0.00     0.135 A 
ATOM     75  C   UNL A   1      43.051  22.653  28.037  1.00  0.00     0.135 A 
ATOM     76  F   UNL A   1      43.184  23.815  24.595  1.00  0.00    -0.206 F 
ATOM     77  C   UNL A   1      42.614  21.706  25.453  1.00  0.00     0.059 A 
ATOM     78  C   UNL A   1      42.671  21.327  27.851  1.00  0.00     0.059 A 
ATOM     79  F   UNL A   1      43.266  23.082  29.291  1.00  0.00    -0.206 F 
ATOM     80  C   UNL A   1      42.447  20.865  26.555  1.00  0.00     0.060 A 
BRANCH  80  81
ATOM     81  S   UNL A   1      41.969  19.148  26.263  1.00  0.00     0.124 S 
ATOM     82  O   UNL A   1      42.874  18.771  25.184  1.00  0.00    -0.237 OA
ATOM     83  O   UNL A   1      42.230  18.534  27.561  1.00  0.00    -0.237 OA
ATOM     84  O   UNL A   1      40.559  19.250  25.898  1.00  0.00    -0.744 OA
ENDBRANCH  80  81
ENDBRANCH  48  73
BRANCH  60  85
ATOM     85  C   UNL A   1      49.367  26.781  26.213  1.00  0.00     0.058 A 
ATOM     86  C   UNL A   1      49.841  26.921  24.900  1.00  0.00     0.135 A 
ATOM     87  C   UNL A   1      50.228  26.212  27.166  1.00  0.00     0.135 A 
ATOM     88  F   UNL A   1      49.056  27.452  23.949  1.00  0.00    -0.206 F 
ATOM     89  C   UNL A   1      51.112  26.488  24.538  1.00  0.00     0.059 A 
ATOM     90  C   UNL A   1      51.515  25.803  26.833  1.00  0.00     0.059 A 
ATOM     91  F   UNL A   1      49.828  26.067  28.438  1.00  0.00    -0.206 F 
ATOM     92  C   UNL A   1      51.943  25.932  25.513  1.00  0.00     0.060 A 
BRANCH  92  93
ATOM     93  S   UNL A   1      53.603  25.404  25.038  1.00  0.00     0.124 S 
ATOM     94  O   UNL A   1      54.421  26.054  26.055  1.00  0.00    -0.237 OA
ATOM     95  O   UNL A   1      53.507  23.951  25.135  1.00  0.00    -0.237 OA
ATOM     96  O   UNL A   1      53.751  25.926  23.683  1.00  0.00    -0.744 OA
ENDBRANCH  92  93
ENDBRANCH  60  85
ENDBRANCH  34  35
ENDBRANCH  26  29
ENDBRANCH  24  25
ENDBRANCH  23  24
ENDBRANCH   1  23
TORSDOF 18
ENDMDL
