MODEL 1
REMARK VINA RESULT:     -12.2      0.000      0.000
REMARK SMILES Cc1ccc(OC(F)(F)F)cc1C(=O)NCCCNC(=O)c1ccc(-c2c3nc(c(-c4c(F)cc(S(=O)(=O)[O-])cc4F)c4ccc([nH]4)c(-c4c(F)cc(S(=O)(=O)[O-])cc4F)c4nc(c(-c5c(F)cc(S(=O)(=O)[O-])cc5F)c5ccc2[nH]5)C=C4)C=C3)cc1
REMARK SMILES IDX 17 1 16 2 15 3 13 4 14 5 12 7 1 8 2 9 3 10 4 11 11 12 5 13
REMARK SMILES IDX 6 14 7 15 8 16 9 17 10 18 18 19 19 20 20 21 21 23 22 24
REMARK SMILES IDX 23 25 87 26 24 27 86 28 25 29 26 30 27 31 80 32 28 33 85 34
REMARK SMILES IDX 79 35 81 36 29 37 84 38 78 39 77 40 30 42 64 43 43 44 63 45
REMARK SMILES IDX 44 46 47 47 62 48 82 49 45 50 46 51 61 53 83 54 48 55 31 56
REMARK SMILES IDX 32 57 41 58 33 59 34 60 40 61 42 62 35 63 36 64 37 65 38 66
REMARK SMILES IDX 39 67 65 68 66 69 75 70 67 71 68 72 74 73 76 74 69 75 70 76
REMARK SMILES IDX 71 77 72 78 73 79 49 80 50 81 59 82 51 83 52 84 58 85 60 86
REMARK SMILES IDX 53 87 54 88 55 89 56 90 57 91
REMARK H PARENT 15 6 19 22 81 41 47 52
REMARK Flexibility Score: inf
ROOT
ATOM      1  C   UNL A   1      37.733  23.752  25.570  1.00  0.00     0.042 C 
ENDROOT
BRANCH   1   2
ATOM      2  C   UNL A   1      36.752  22.457  25.513  1.00  0.00     0.118 C 
BRANCH   2   3
ATOM      3  N   UNL A   1      35.627  22.381  26.475  1.00  0.00    -0.352 N 
ATOM      4  C   UNL A   1      34.399  21.759  26.591  1.00  0.00     0.251 C 
ATOM      5  O   UNL A   1      33.848  21.668  27.691  1.00  0.00    -0.269 OA
ATOM      6  H   UNL A   1      35.809  22.940  27.265  1.00  0.00     0.163 HD
BRANCH   4   7
ATOM      7  C   UNL A   1      33.658  21.164  25.448  1.00  0.00     0.046 A 
ATOM      8  C   UNL A   1      32.476  23.345  24.840  1.00  0.00     0.045 C 
ATOM      9  C   UNL A   1      32.850  21.915  24.586  1.00  0.00    -0.038 A 
ATOM     10  C   UNL A   1      32.286  21.281  23.470  1.00  0.00     0.008 A 
ATOM     11  C   UNL A   1      32.354  19.898  23.323  1.00  0.00     0.047 A 
ATOM     12  C   UNL A   1      33.645  19.745  25.341  1.00  0.00     0.061 A 
ATOM     13  C   UNL A   1      32.961  19.112  24.301  1.00  0.00     0.130 A 
BRANCH  13  14
ATOM     14  O   UNL A   1      32.817  17.770  24.098  1.00  0.00    -0.406 OA
BRANCH  14  15
ATOM     15  C   UNL A   1      33.947  17.036  23.655  1.00  0.00     0.573 C 
ATOM     16  F   UNL A   1      34.024  17.044  22.310  1.00  0.00    -0.132 F 
ATOM     17  F   UNL A   1      35.094  17.494  24.194  1.00  0.00    -0.132 F 
ATOM     18  F   UNL A   1      33.791  15.749  24.054  1.00  0.00    -0.132 F 
ENDBRANCH  14  15
ENDBRANCH  13  14
ENDBRANCH   4   7
ENDBRANCH   2   3
ENDBRANCH   1   2
BRANCH   1  19
ATOM     19  C   UNL A   1      38.544  23.984  26.927  1.00  0.00     0.118 C 
BRANCH  19  20
ATOM     20  N   UNL A   1      39.525  25.175  27.248  1.00  0.00    -0.352 N 
ATOM     21  C   UNL A   1      39.935  25.942  28.423  1.00  0.00     0.251 C 
ATOM     22  H   UNL A   1      39.986  25.487  26.437  1.00  0.00     0.163 HD
ATOM     23  O   UNL A   1      41.134  25.781  28.716  1.00  0.00    -0.269 OA
BRANCH  21  24
ATOM     24  C   UNL A   1      39.207  27.000  29.357  1.00  0.00     0.039 A 
ATOM     25  C   UNL A   1      38.630  28.197  28.813  1.00  0.00     0.014 A 
ATOM     26  C   UNL A   1      39.127  26.963  30.744  1.00  0.00     0.014 A 
ATOM     27  C   UNL A   1      38.571  29.429  29.587  1.00  0.00     0.010 A 
ATOM     28  C   UNL A   1      39.080  28.176  31.509  1.00  0.00     0.010 A 
ATOM     29  C   UNL A   1      39.056  29.445  30.907  1.00  0.00    -0.014 A 
BRANCH  29  30
ATOM     30  C   UNL A   1      39.801  30.619  31.555  1.00  0.00     0.031 A 
ATOM     31  C   UNL A   1      40.949  30.399  32.427  1.00  0.00     0.074 A 
ATOM     32  C   UNL A   1      39.667  31.965  31.324  1.00  0.00     0.049 A 
ATOM     33  N   UNL A   1      41.118  30.950  33.587  1.00  0.00    -0.248 NA
ATOM     34  C   UNL A   1      42.071  29.611  31.953  1.00  0.00     0.031 C 
ATOM     35  C   UNL A   1      40.428  33.159  31.744  1.00  0.00     0.029 A 
ATOM     36  N   UNL A   1      38.761  32.600  30.509  1.00  0.00    -0.354 N 
ATOM     37  C   UNL A   1      42.470  30.858  33.839  1.00  0.00     0.074 A 
ATOM     38  C   UNL A   1      42.960  29.846  32.920  1.00  0.00     0.031 C 
ATOM     39  C   UNL A   1      39.699  34.277  31.504  1.00  0.00     0.029 A 
ATOM     40  C   UNL A   1      38.420  33.869  30.963  1.00  0.00     0.049 A 
ATOM     41  H   UNL A   1      38.391  32.198  29.689  1.00  0.00     0.167 HD
ATOM     42  C   UNL A   1      43.143  31.819  34.546  1.00  0.00     0.037 A 
ATOM     43  C   UNL A   1      37.137  34.092  31.403  1.00  0.00     0.037 A 
ATOM     44  C   UNL A   1      42.333  33.039  34.745  1.00  0.00     0.049 A 
ATOM     45  C   UNL A   1      37.146  34.203  32.908  1.00  0.00     0.074 A 
ATOM     46  C   UNL A   1      42.420  34.342  34.268  1.00  0.00     0.029 A 
ATOM     47  N   UNL A   1      41.069  32.952  35.306  1.00  0.00    -0.354 N 
ATOM     48  N   UNL A   1      38.234  34.419  33.588  1.00  0.00    -0.248 NA
ATOM     49  C   UNL A   1      35.991  33.991  33.778  1.00  0.00     0.031 C 
ATOM     50  C   UNL A   1      41.206  35.029  34.573  1.00  0.00     0.029 A 
ATOM     51  C   UNL A   1      40.380  34.154  35.253  1.00  0.00     0.049 A 
ATOM     52  H   UNL A   1      40.700  32.128  35.698  1.00  0.00     0.167 HD
ATOM     53  C   UNL A   1      38.005  34.222  34.914  1.00  0.00     0.074 A 
ATOM     54  C   UNL A   1      36.568  34.014  34.995  1.00  0.00     0.031 C 
ATOM     55  C   UNL A   1      39.033  34.207  35.814  1.00  0.00     0.037 A 
BRANCH  42  56
ATOM     56  C   UNL A   1      44.650  31.761  34.782  1.00  0.00     0.058 A 
ATOM     57  C   UNL A   1      45.210  31.155  35.926  1.00  0.00     0.135 A 
ATOM     58  C   UNL A   1      45.610  32.244  33.862  1.00  0.00     0.135 A 
ATOM     59  F   UNL A   1      44.452  30.503  36.817  1.00  0.00    -0.206 F 
ATOM     60  C   UNL A   1      46.583  31.142  36.190  1.00  0.00     0.059 A 
ATOM     61  C   UNL A   1      46.978  32.319  34.137  1.00  0.00     0.059 A 
ATOM     62  F   UNL A   1      45.270  32.585  32.609  1.00  0.00    -0.206 F 
ATOM     63  C   UNL A   1      47.460  31.755  35.305  1.00  0.00     0.060 A 
BRANCH  63  64
ATOM     64  S   UNL A   1      49.230  31.704  35.639  1.00  0.00     0.124 S 
ATOM     65  O   UNL A   1      49.648  30.496  34.935  1.00  0.00    -0.237 OA
ATOM     66  O   UNL A   1      49.682  32.966  35.060  1.00  0.00    -0.237 OA
ATOM     67  O   UNL A   1      49.301  31.627  37.096  1.00  0.00    -0.744 OA
ENDBRANCH  63  64
ENDBRANCH  42  56
BRANCH  43  68
ATOM     68  C   UNL A   1      36.002  33.432  30.571  1.00  0.00     0.058 A 
ATOM     69  C   UNL A   1      34.908  33.003  31.351  1.00  0.00     0.135 A 
ATOM     70  C   UNL A   1      35.616  34.213  29.497  1.00  0.00     0.135 A 
ATOM     71  F   UNL A   1      34.965  31.822  31.977  1.00  0.00    -0.206 F 
ATOM     72  C   UNL A   1      33.798  33.825  31.573  1.00  0.00     0.059 A 
ATOM     73  C   UNL A   1      34.529  35.063  29.728  1.00  0.00     0.059 A 
ATOM     74  F   UNL A   1      36.516  34.552  28.556  1.00  0.00    -0.206 F 
ATOM     75  C   UNL A   1      33.744  35.006  30.864  1.00  0.00     0.060 A 
BRANCH  75  76
ATOM     76  S   UNL A   1      32.953  36.623  31.674  1.00  0.00     0.124 S 
ATOM     77  O   UNL A   1      33.983  36.900  32.660  1.00  0.00    -0.237 OA
ATOM     78  O   UNL A   1      32.893  37.619  30.636  1.00  0.00    -0.237 OA
ATOM     79  O   UNL A   1      31.666  36.247  32.242  1.00  0.00    -0.744 OA
ENDBRANCH  75  76
ENDBRANCH  43  68
BRANCH  55  80
ATOM     80  C   UNL A   1      38.849  34.191  37.306  1.00  0.00     0.058 A 
ATOM     81  C   UNL A   1      39.169  35.291  38.119  1.00  0.00     0.135 A 
ATOM     82  C   UNL A   1      38.474  33.015  37.996  1.00  0.00     0.135 A 
ATOM     83  F   UNL A   1      39.697  36.411  37.601  1.00  0.00    -0.206 F 
ATOM     84  C   UNL A   1      39.000  35.268  39.502  1.00  0.00     0.059 A 
ATOM     85  C   UNL A   1      38.343  32.954  39.376  1.00  0.00     0.059 A 
ATOM     86  F   UNL A   1      38.216  31.863  37.366  1.00  0.00    -0.206 F 
ATOM     87  C   UNL A   1      38.569  34.097  40.119  1.00  0.00     0.060 A 
BRANCH  87  88
ATOM     88  S   UNL A   1      38.336  34.071  41.898  1.00  0.00     0.124 S 
ATOM     89  O   UNL A   1      37.483  32.901  42.086  1.00  0.00    -0.237 OA
ATOM     90  O   UNL A   1      39.711  33.933  42.367  1.00  0.00    -0.237 OA
ATOM     91  O   UNL A   1      37.702  35.355  42.181  1.00  0.00    -0.744 OA
ENDBRANCH  87  88
ENDBRANCH  55  80
ENDBRANCH  29  30
ENDBRANCH  21  24
ENDBRANCH  19  20
ENDBRANCH   1  19
TORSDOF 15
ENDMDL
MODEL 2
REMARK VINA RESULT:     -12.1      4.453     10.005
REMARK SMILES Cc1ccc(OC(F)(F)F)cc1C(=O)NCCCNC(=O)c1ccc(-c2c3nc(c(-c4c(F)cc(S(=O)(=O)[O-])cc4F)c4ccc([nH]4)c(-c4c(F)cc(S(=O)(=O)[O-])cc4F)c4nc(c(-c5c(F)cc(S(=O)(=O)[O-])cc5F)c5ccc2[nH]5)C=C4)C=C3)cc1
REMARK SMILES IDX 17 1 16 2 15 3 13 4 14 5 12 7 1 8 2 9 3 10 4 11 11 12 5 13
REMARK SMILES IDX 6 14 7 15 8 16 9 17 10 18 18 19 19 20 20 21 21 23 22 24
REMARK SMILES IDX 23 25 87 26 24 27 86 28 25 29 26 30 27 31 80 32 28 33 85 34
REMARK SMILES IDX 79 35 81 36 29 37 84 38 78 39 77 40 30 42 64 43 43 44 63 45
REMARK SMILES IDX 44 46 47 47 62 48 82 49 45 50 46 51 61 53 83 54 48 55 31 56
REMARK SMILES IDX 32 57 41 58 33 59 34 60 40 61 42 62 35 63 36 64 37 65 38 66
REMARK SMILES IDX 39 67 65 68 66 69 75 70 67 71 68 72 74 73 76 74 69 75 70 76
REMARK SMILES IDX 71 77 72 78 73 79 49 80 50 81 59 82 51 83 52 84 58 85 60 86
REMARK SMILES IDX 53 87 54 88 55 89 56 90 57 91
REMARK H PARENT 15 6 19 22 81 41 47 52
REMARK Flexibility Score: inf
ROOT
ATOM      1  C   UNL A   1      40.042  21.732  26.699  1.00  0.00     0.042 C 
ENDROOT
BRANCH   1   2
ATOM      2  C   UNL A   1      38.745  22.649  26.349  1.00  0.00     0.118 C 
BRANCH   2   3
ATOM      3  N   UNL A   1      38.148  22.540  24.997  1.00  0.00    -0.352 N 
ATOM      4  C   UNL A   1      36.938  22.774  24.374  1.00  0.00     0.251 C 
ATOM      5  O   UNL A   1      36.879  22.875  23.146  1.00  0.00    -0.269 OA
ATOM      6  H   UNL A   1      38.810  22.200  24.353  1.00  0.00     0.163 HD
BRANCH   4   7
ATOM      7  C   UNL A   1      35.646  22.924  25.095  1.00  0.00     0.046 A 
ATOM      8  C   UNL A   1      35.095  20.432  25.001  1.00  0.00     0.045 C 
ATOM      9  C   UNL A   1      34.849  21.835  25.468  1.00  0.00    -0.038 A 
ATOM     10  C   UNL A   1      33.708  22.073  26.246  1.00  0.00     0.008 A 
ATOM     11  C   UNL A   1      33.258  23.371  26.479  1.00  0.00     0.047 A 
ATOM     12  C   UNL A   1      35.133  24.240  25.258  1.00  0.00     0.061 A 
ATOM     13  C   UNL A   1      33.921  24.460  25.916  1.00  0.00     0.130 A 
BRANCH  13  14
ATOM     14  O   UNL A   1      33.281  25.651  26.101  1.00  0.00    -0.406 OA
BRANCH  14  15
ATOM     15  C   UNL A   1      32.427  26.118  25.070  1.00  0.00     0.573 C 
ATOM     16  F   UNL A   1      31.229  26.480  25.570  1.00  0.00    -0.132 F 
ATOM     17  F   UNL A   1      32.974  27.138  24.379  1.00  0.00    -0.132 F 
ATOM     18  F   UNL A   1      32.222  25.096  24.202  1.00  0.00    -0.132 F 
ENDBRANCH  14  15
ENDBRANCH  13  14
ENDBRANCH   4   7
ENDBRANCH   2   3
ENDBRANCH   1   2
BRANCH   1  19
ATOM     19  C   UNL A   1      41.451  22.228  26.130  1.00  0.00     0.118 C 
BRANCH  19  20
ATOM     20  N   UNL A   1      42.118  23.637  26.361  1.00  0.00    -0.352 N 
ATOM     21  C   UNL A   1      41.871  24.821  27.183  1.00  0.00     0.251 C 
ATOM     22  H   UNL A   1      42.918  23.751  25.800  1.00  0.00     0.163 HD
ATOM     23  O   UNL A   1      42.764  25.025  28.026  1.00  0.00    -0.269 OA
BRANCH  21  24
ATOM     24  C   UNL A   1      40.754  25.951  27.181  1.00  0.00     0.039 A 
ATOM     25  C   UNL A   1      40.917  27.153  26.414  1.00  0.00     0.014 A 
ATOM     26  C   UNL A   1      39.597  25.972  27.949  1.00  0.00     0.014 A 
ATOM     27  C   UNL A   1      40.340  28.416  26.854  1.00  0.00     0.010 A 
ATOM     28  C   UNL A   1      39.032  27.213  28.393  1.00  0.00     0.010 A 
ATOM     29  C   UNL A   1      39.577  28.458  28.034  1.00  0.00    -0.014 A 
BRANCH  29  30
ATOM     30  C   UNL A   1      39.578  29.616  29.040  1.00  0.00     0.031 A 
ATOM     31  C   UNL A   1      38.530  30.631  29.028  1.00  0.00     0.074 A 
ATOM     32  C   UNL A   1      40.371  29.807  30.144  1.00  0.00     0.049 A 
ATOM     33  N   UNL A   1      38.733  31.909  29.070  1.00  0.00    -0.248 NA
ATOM     34  C   UNL A   1      37.139  30.228  29.101  1.00  0.00     0.031 C 
ATOM     35  C   UNL A   1      40.357  30.768  31.264  1.00  0.00     0.029 A 
ATOM     36  N   UNL A   1      41.429  29.040  30.571  1.00  0.00    -0.354 N 
ATOM     37  C   UNL A   1      37.542  32.451  29.505  1.00  0.00     0.074 A 
ATOM     38  C   UNL A   1      36.552  31.410  29.295  1.00  0.00     0.031 C 
ATOM     39  C   UNL A   1      41.543  30.726  31.922  1.00  0.00     0.029 A 
ATOM     40  C   UNL A   1      42.398  29.778  31.240  1.00  0.00     0.049 A 
ATOM     41  H   UNL A   1      41.493  28.069  30.418  1.00  0.00     0.167 HD
ATOM     42  C   UNL A   1      37.499  33.577  30.284  1.00  0.00     0.037 A 
ATOM     43  C   UNL A   1      43.635  29.927  30.661  1.00  0.00     0.037 A 
ATOM     44  C   UNL A   1      38.830  33.948  30.807  1.00  0.00     0.049 A 
ATOM     45  C   UNL A   1      43.767  31.337  30.141  1.00  0.00     0.074 A 
ATOM     46  C   UNL A   1      39.399  33.956  32.076  1.00  0.00     0.029 A 
ATOM     47  N   UNL A   1      39.899  34.112  29.940  1.00  0.00    -0.354 N 
ATOM     48  N   UNL A   1      42.984  32.302  30.527  1.00  0.00    -0.248 NA
ATOM     49  C   UNL A   1      44.695  31.770  29.098  1.00  0.00     0.031 C 
ATOM     50  C   UNL A   1      40.808  34.149  31.950  1.00  0.00     0.029 A 
ATOM     51  C   UNL A   1      41.103  34.278  30.606  1.00  0.00     0.049 A 
ATOM     52  H   UNL A   1      39.813  34.110  28.960  1.00  0.00     0.167 HD
ATOM     53  C   UNL A   1      43.153  33.390  29.728  1.00  0.00     0.074 A 
ATOM     54  C   UNL A   1      44.280  33.033  28.881  1.00  0.00     0.031 C 
ATOM     55  C   UNL A   1      42.315  34.466  29.813  1.00  0.00     0.037 A 
BRANCH  42  56
ATOM     56  C   UNL A   1      36.192  34.155  30.822  1.00  0.00     0.058 A 
ATOM     57  C   UNL A   1      35.174  34.631  29.970  1.00  0.00     0.135 A 
ATOM     58  C   UNL A   1      35.861  34.206  32.196  1.00  0.00     0.135 A 
ATOM     59  F   UNL A   1      35.255  34.505  28.639  1.00  0.00    -0.206 F 
ATOM     60  C   UNL A   1      33.995  35.217  30.442  1.00  0.00     0.059 A 
ATOM     61  C   UNL A   1      34.731  34.859  32.697  1.00  0.00     0.059 A 
ATOM     62  F   UNL A   1      36.578  33.541  33.114  1.00  0.00    -0.206 F 
ATOM     63  C   UNL A   1      33.794  35.356  31.809  1.00  0.00     0.060 A 
BRANCH  63  64
ATOM     64  S   UNL A   1      32.257  36.083  32.405  1.00  0.00     0.124 S 
ATOM     65  O   UNL A   1      31.805  36.853  31.251  1.00  0.00    -0.237 OA
ATOM     66  O   UNL A   1      31.469  34.897  32.728  1.00  0.00    -0.237 OA
ATOM     67  O   UNL A   1      32.679  36.880  33.554  1.00  0.00    -0.744 OA
ENDBRANCH  63  64
ENDBRANCH  42  56
BRANCH  43  68
ATOM     68  C   UNL A   1      44.222  28.667  29.963  1.00  0.00     0.058 A 
ATOM     69  C   UNL A   1      44.865  28.949  28.741  1.00  0.00     0.135 A 
ATOM     70  C   UNL A   1      45.005  27.912  30.815  1.00  0.00     0.135 A 
ATOM     71  F   UNL A   1      44.138  29.075  27.624  1.00  0.00    -0.206 F 
ATOM     72  C   UNL A   1      46.239  29.202  28.675  1.00  0.00     0.059 A 
ATOM     73  C   UNL A   1      46.377  28.190  30.779  1.00  0.00     0.059 A 
ATOM     74  F   UNL A   1      44.476  27.406  31.944  1.00  0.00    -0.206 F 
ATOM     75  C   UNL A   1      46.966  29.003  29.830  1.00  0.00     0.060 A 
BRANCH  75  76
ATOM     76  S   UNL A   1      48.510  30.158  30.251  1.00  0.00     0.124 S 
ATOM     77  O   UNL A   1      47.787  31.329  30.718  1.00  0.00    -0.237 OA
ATOM     78  O   UNL A   1      49.243  29.501  31.302  1.00  0.00    -0.237 OA
ATOM     79  O   UNL A   1      49.255  30.366  29.017  1.00  0.00    -0.744 OA
ENDBRANCH  75  76
ENDBRANCH  43  68
BRANCH  55  80
ATOM     80  C   UNL A   1      42.547  35.775  29.111  1.00  0.00     0.058 A 
ATOM     81  C   UNL A   1      41.851  36.142  27.948  1.00  0.00     0.135 A 
ATOM     82  C   UNL A   1      43.583  36.655  29.503  1.00  0.00     0.135 A 
ATOM     83  F   UNL A   1      40.961  35.315  27.377  1.00  0.00    -0.206 F 
ATOM     84  C   UNL A   1      42.074  37.356  27.300  1.00  0.00     0.059 A 
ATOM     85  C   UNL A   1      43.854  37.846  28.847  1.00  0.00     0.059 A 
ATOM     86  F   UNL A   1      44.385  36.403  30.544  1.00  0.00    -0.206 F 
ATOM     87  C   UNL A   1      43.068  38.210  27.770  1.00  0.00     0.060 A 
BRANCH  87  88
ATOM     88  S   UNL A   1      43.345  39.780  26.945  1.00  0.00     0.124 S 
ATOM     89  O   UNL A   1      43.440  40.710  28.066  1.00  0.00    -0.237 OA
ATOM     90  O   UNL A   1      44.592  39.516  26.235  1.00  0.00    -0.237 OA
ATOM     91  O   UNL A   1      42.164  39.939  26.103  1.00  0.00    -0.744 OA
ENDBRANCH  87  88
ENDBRANCH  55  80
ENDBRANCH  29  30
ENDBRANCH  21  24
ENDBRANCH  19  20
ENDBRANCH   1  19
TORSDOF 15
ENDMDL
MODEL 3
REMARK VINA RESULT:     -12.0      5.589     10.138
REMARK SMILES Cc1ccc(OC(F)(F)F)cc1C(=O)NCCCNC(=O)c1ccc(-c2c3nc(c(-c4c(F)cc(S(=O)(=O)[O-])cc4F)c4ccc([nH]4)c(-c4c(F)cc(S(=O)(=O)[O-])cc4F)c4nc(c(-c5c(F)cc(S(=O)(=O)[O-])cc5F)c5ccc2[nH]5)C=C4)C=C3)cc1
REMARK SMILES IDX 17 1 16 2 15 3 13 4 14 5 12 7 1 8 2 9 3 10 4 11 11 12 5 13
REMARK SMILES IDX 6 14 7 15 8 16 9 17 10 18 18 19 19 20 20 21 21 23 22 24
REMARK SMILES IDX 23 25 87 26 24 27 86 28 25 29 26 30 27 31 80 32 28 33 85 34
REMARK SMILES IDX 79 35 81 36 29 37 84 38 78 39 77 40 30 42 64 43 43 44 63 45
REMARK SMILES IDX 44 46 47 47 62 48 82 49 45 50 46 51 61 53 83 54 48 55 31 56
REMARK SMILES IDX 32 57 41 58 33 59 34 60 40 61 42 62 35 63 36 64 37 65 38 66
REMARK SMILES IDX 39 67 65 68 66 69 75 70 67 71 68 72 74 73 76 74 69 75 70 76
REMARK SMILES IDX 71 77 72 78 73 79 49 80 50 81 59 82 51 83 52 84 58 85 60 86
REMARK SMILES IDX 53 87 54 88 55 89 56 90 57 91
REMARK H PARENT 15 6 19 22 81 41 47 52
REMARK Flexibility Score: inf
ROOT
ATOM      1  C   UNL A   1      31.771  28.865  26.802  1.00  0.00     0.042 C 
ENDROOT
BRANCH   1   2
ATOM      2  C   UNL A   1      32.725  27.624  26.359  1.00  0.00     0.118 C 
BRANCH   2   3
ATOM      3  N   UNL A   1      33.030  27.449  24.919  1.00  0.00    -0.352 N 
ATOM      4  C   UNL A   1      32.434  27.682  23.695  1.00  0.00     0.251 C 
ATOM      5  O   UNL A   1      33.114  27.706  22.665  1.00  0.00    -0.269 OA
ATOM      6  H   UNL A   1      33.920  27.046  24.800  1.00  0.00     0.163 HD
BRANCH   4   7
ATOM      7  C   UNL A   1      30.978  27.919  23.510  1.00  0.00     0.046 A 
ATOM      8  C   UNL A   1      30.368  25.444  23.669  1.00  0.00     0.045 C 
ATOM      9  C   UNL A   1      30.020  26.900  23.597  1.00  0.00    -0.038 A 
ATOM     10  C   UNL A   1      28.664  27.245  23.523  1.00  0.00     0.008 A 
ATOM     11  C   UNL A   1      28.272  28.535  23.172  1.00  0.00     0.047 A 
ATOM     12  C   UNL A   1      30.573  29.207  23.064  1.00  0.00     0.061 A 
ATOM     13  C   UNL A   1      29.224  29.503  22.858  1.00  0.00     0.130 A 
BRANCH  13  14
ATOM     14  O   UNL A   1      28.692  30.667  22.385  1.00  0.00    -0.406 OA
BRANCH  14  15
ATOM     15  C   UNL A   1      28.328  31.665  23.324  1.00  0.00     0.573 C 
ATOM     16  F   UNL A   1      27.151  31.367  23.907  1.00  0.00    -0.132 F 
ATOM     17  F   UNL A   1      29.280  31.854  24.260  1.00  0.00    -0.132 F 
ATOM     18  F   UNL A   1      28.174  32.834  22.654  1.00  0.00    -0.132 F 
ENDBRANCH  14  15
ENDBRANCH  13  14
ENDBRANCH   4   7
ENDBRANCH   2   3
ENDBRANCH   1   2
BRANCH   1  19
ATOM     19  C   UNL A   1      32.367  30.336  26.614  1.00  0.00     0.118 C 
BRANCH  19  20
ATOM     20  N   UNL A   1      33.333  31.095  27.601  1.00  0.00    -0.352 N 
ATOM     21  C   UNL A   1      34.775  31.250  27.787  1.00  0.00     0.251 C 
ATOM     22  H   UNL A   1      32.827  31.603  28.276  1.00  0.00     0.163 HD
ATOM     23  O   UNL A   1      35.168  32.416  27.597  1.00  0.00    -0.269 OA
BRANCH  21  24
ATOM     24  C   UNL A   1      35.936  30.275  28.258  1.00  0.00     0.039 A 
ATOM     25  C   UNL A   1      35.905  29.658  29.554  1.00  0.00     0.014 A 
ATOM     26  C   UNL A   1      37.108  29.990  27.569  1.00  0.00     0.014 A 
ATOM     27  C   UNL A   1      37.133  29.345  30.273  1.00  0.00     0.010 A 
ATOM     28  C   UNL A   1      38.321  29.692  28.275  1.00  0.00     0.010 A 
ATOM     29  C   UNL A   1      38.377  29.618  29.676  1.00  0.00    -0.014 A 
BRANCH  29  30
ATOM     30  C   UNL A   1      39.618  30.120  30.426  1.00  0.00     0.031 A 
ATOM     31  C   UNL A   1      39.572  31.327  31.243  1.00  0.00     0.074 A 
ATOM     32  C   UNL A   1      40.831  29.504  30.605  1.00  0.00     0.049 A 
ATOM     33  N   UNL A   1      40.439  32.288  31.197  1.00  0.00    -0.248 NA
ATOM     34  C   UNL A   1      38.573  31.450  32.287  1.00  0.00     0.031 C 
ATOM     35  C   UNL A   1      42.018  29.798  31.432  1.00  0.00     0.029 A 
ATOM     36  N   UNL A   1      41.264  28.311  30.077  1.00  0.00    -0.354 N 
ATOM     37  C   UNL A   1      40.302  32.957  32.396  1.00  0.00     0.074 A 
ATOM     38  C   UNL A   1      39.012  32.541  32.917  1.00  0.00     0.031 C 
ATOM     39  C   UNL A   1      43.070  29.053  31.009  1.00  0.00     0.029 A 
ATOM     40  C   UNL A   1      42.637  28.279  29.865  1.00  0.00     0.049 A 
ATOM     41  H   UNL A   1      40.663  27.559  29.869  1.00  0.00     0.167 HD
ATOM     42  C   UNL A   1      41.367  33.548  33.022  1.00  0.00     0.037 A 
ATOM     43  C   UNL A   1      43.108  28.228  28.574  1.00  0.00     0.037 A 
ATOM     44  C   UNL A   1      42.659  33.153  32.424  1.00  0.00     0.049 A 
ATOM     45  C   UNL A   1      43.680  29.574  28.207  1.00  0.00     0.074 A 
ATOM     46  C   UNL A   1      43.734  32.392  32.869  1.00  0.00     0.029 A 
ATOM     47  N   UNL A   1      42.873  33.302  31.062  1.00  0.00    -0.354 N 
ATOM     48  N   UNL A   1      43.993  30.470  29.098  1.00  0.00    -0.248 NA
ATOM     49  C   UNL A   1      43.861  30.073  26.845  1.00  0.00     0.031 C 
ATOM     50  C   UNL A   1      44.594  32.113  31.764  1.00  0.00     0.029 A 
ATOM     51  C   UNL A   1      44.058  32.718  30.643  1.00  0.00     0.049 A 
ATOM     52  H   UNL A   1      42.251  33.769  30.460  1.00  0.00     0.167 HD
ATOM     53  C   UNL A   1      44.242  31.663  28.495  1.00  0.00     0.074 A 
ATOM     54  C   UNL A   1      44.207  31.353  27.075  1.00  0.00     0.031 C 
ATOM     55  C   UNL A   1      44.411  32.803  29.229  1.00  0.00     0.037 A 
BRANCH  42  56
ATOM     56  C   UNL A   1      41.242  34.241  34.377  1.00  0.00     0.058 A 
ATOM     57  C   UNL A   1      40.928  33.535  35.556  1.00  0.00     0.135 A 
ATOM     58  C   UNL A   1      41.489  35.618  34.581  1.00  0.00     0.135 A 
ATOM     59  F   UNL A   1      40.825  32.200  35.569  1.00  0.00    -0.206 F 
ATOM     60  C   UNL A   1      40.753  34.158  36.796  1.00  0.00     0.059 A 
ATOM     61  C   UNL A   1      41.240  36.279  35.788  1.00  0.00     0.059 A 
ATOM     62  F   UNL A   1      42.072  36.374  33.638  1.00  0.00    -0.206 F 
ATOM     63  C   UNL A   1      40.880  35.537  36.898  1.00  0.00     0.060 A 
BRANCH  63  64
ATOM     64  S   UNL A   1      40.683  36.324  38.507  1.00  0.00     0.124 S 
ATOM     65  O   UNL A   1      41.924  37.079  38.641  1.00  0.00    -0.237 OA
ATOM     66  O   UNL A   1      39.474  37.118  38.307  1.00  0.00    -0.237 OA
ATOM     67  O   UNL A   1      40.542  35.197  39.425  1.00  0.00    -0.744 OA
ENDBRANCH  63  64
ENDBRANCH  42  56
BRANCH  43  68
ATOM     68  C   UNL A   1      42.332  27.299  27.598  1.00  0.00     0.058 A 
ATOM     69  C   UNL A   1      42.344  27.750  26.263  1.00  0.00     0.135 A 
ATOM     70  C   UNL A   1      42.716  25.976  27.716  1.00  0.00     0.135 A 
ATOM     71  F   UNL A   1      41.467  28.684  25.873  1.00  0.00    -0.206 F 
ATOM     72  C   UNL A   1      43.315  27.323  25.352  1.00  0.00     0.059 A 
ATOM     73  C   UNL A   1      43.715  25.556  26.830  1.00  0.00     0.059 A 
ATOM     74  F   UNL A   1      42.586  25.342  28.896  1.00  0.00    -0.206 F 
ATOM     75  C   UNL A   1      44.161  26.318  25.767  1.00  0.00     0.060 A 
BRANCH  75  76
ATOM     76  S   UNL A   1      46.043  26.283  25.170  1.00  0.00     0.124 S 
ATOM     77  O   UNL A   1      46.053  24.967  24.554  1.00  0.00    -0.237 OA
ATOM     78  O   UNL A   1      46.192  27.347  24.212  1.00  0.00    -0.237 OA
ATOM     79  O   UNL A   1      46.883  26.397  26.354  1.00  0.00    -0.744 OA
ENDBRANCH  75  76
ENDBRANCH  43  68
BRANCH  55  80
ATOM     80  C   UNL A   1      44.878  34.114  28.659  1.00  0.00     0.058 A 
ATOM     81  C   UNL A   1      46.093  34.711  29.032  1.00  0.00     0.135 A 
ATOM     82  C   UNL A   1      44.053  34.893  27.814  1.00  0.00     0.135 A 
ATOM     83  F   UNL A   1      46.888  34.152  29.958  1.00  0.00    -0.206 F 
ATOM     84  C   UNL A   1      46.518  35.928  28.503  1.00  0.00     0.059 A 
ATOM     85  C   UNL A   1      44.435  36.128  27.311  1.00  0.00     0.059 A 
ATOM     86  F   UNL A   1      42.833  34.496  27.435  1.00  0.00    -0.206 F 
ATOM     87  C   UNL A   1      45.687  36.620  27.627  1.00  0.00     0.060 A 
BRANCH  87  88
ATOM     88  S   UNL A   1      46.240  38.180  26.932  1.00  0.00     0.124 S 
ATOM     89  O   UNL A   1      47.215  38.634  27.919  1.00  0.00    -0.237 OA
ATOM     90  O   UNL A   1      46.789  37.746  25.652  1.00  0.00    -0.237 OA
ATOM     91  O   UNL A   1      45.018  38.974  26.855  1.00  0.00    -0.744 OA
ENDBRANCH  87  88
ENDBRANCH  55  80
ENDBRANCH  29  30
ENDBRANCH  21  24
ENDBRANCH  19  20
ENDBRANCH   1  19
TORSDOF 15
ENDMDL
