MODEL 1
REMARK VINA RESULT:     -14.0      0.000      0.000
REMARK SMILES Cc1cc(C(=O)N[C@@H](C(=O)NCCCNC(=O)c2ccc(-c3c4nc(c(-c5c(F)cc(S(=O)(=O)[O-])cc5F)c5ccc([nH]5)c(-c5c(F)cc(S(=O)(=O)[O-])cc5F)c5nc(c(-c6c(F)cc(S(=O)(=O)[O-])cc6F)c6ccc3[nH]6)C=C5)C=C4)cc2)c2c(C)n[nH]c2C)c2ccc(C)c(C)c2n1
REMARK SMILES IDX 13 1 12 2 11 3 9 4 10 5 8 7 7 8 5 9 6 10 4 12 1 13 2 14 3 15
REMARK SMILES IDX 99 16 98 17 91 18 96 19 92 20 94 21 97 22 93 23 95 24 84 25
REMARK SMILES IDX 85 26 89 27 86 28 87 29 88 30 90 31 14 33 15 34 16 35 17 37
REMARK SMILES IDX 18 38 19 39 83 40 20 41 82 42 21 43 22 44 23 45 76 46 24 47
REMARK SMILES IDX 81 48 75 49 77 50 25 51 80 52 74 53 73 54 26 56 60 57 39 58
REMARK SMILES IDX 59 59 40 60 43 61 58 62 78 63 41 64 42 65 57 67 79 68 44 69
REMARK SMILES IDX 27 70 28 71 37 72 29 73 30 74 36 75 38 76 31 77 32 78 33 79
REMARK SMILES IDX 34 80 35 81 61 82 62 83 71 84 63 85 64 86 70 87 72 88 65 89
REMARK SMILES IDX 66 90 67 91 68 92 69 93 45 94 46 95 55 96 47 97 48 98 54 99
REMARK SMILES IDX 56 100 49 101 50 102 51 103 52 104 53 105
REMARK H PARENT 11 6 7 11 88 32 15 36 77 55 43 66
REMARK Flexibility Score: inf
ROOT
ATOM      1  C   UNL A   1      33.799  30.119  26.758  1.00  0.00     0.042 C 
ENDROOT
BRANCH   1   2
ATOM      2  C   UNL A   1      34.178  28.595  25.964  1.00  0.00     0.117 C 
BRANCH   2   3
ATOM      3  N   UNL A   1      33.550  28.182  24.680  1.00  0.00    -0.354 N 
ATOM      4  C   UNL A   1      33.578  26.918  24.122  1.00  0.00     0.247 C 
ATOM      5  O   UNL A   1      33.655  26.758  22.893  1.00  0.00    -0.272 OA
ATOM      6  H   UNL A   1      33.066  28.877  24.179  1.00  0.00     0.163 HD
BRANCH   4   7
ATOM      7  C   UNL A   1      33.540  25.814  25.131  1.00  0.00     0.206 C 
BRANCH   7   8
ATOM      8  N   UNL A   1      34.771  25.300  24.237  1.00  0.00    -0.336 N 
ATOM      9  C   UNL A   1      35.468  24.072  24.050  1.00  0.00     0.252 C 
ATOM     10  O   UNL A   1      36.097  23.978  22.988  1.00  0.00    -0.269 OA
ATOM     11  H   UNL A   1      35.139  26.020  23.675  1.00  0.00     0.165 HD
BRANCH   9  12
ATOM     12  C   UNL A   1      35.668  22.913  25.140  1.00  0.00     0.051 A 
ATOM     13  C   UNL A   1      38.950  21.198  25.376  1.00  0.00     0.067 C 
ATOM     14  C   UNL A   1      37.473  21.406  25.370  1.00  0.00     0.039 A 
ATOM     15  C   UNL A   1      37.019  22.613  24.952  1.00  0.00     0.038 A 
ATOM     16  N   UNL A   1      36.637  20.382  25.587  1.00  0.00    -0.253 NA
ATOM     17  C   UNL A   1      35.323  20.586  25.404  1.00  0.00     0.074 A 
ATOM     18  C   UNL A   1      34.611  21.995  25.841  1.00  0.00     0.013 A 
ATOM     19  C   UNL A   1      34.475  19.431  24.498  1.00  0.00    -0.022 A 
ATOM     20  C   UNL A   1      32.758  22.088  25.956  1.00  0.00     0.011 A 
ATOM     21  C   UNL A   1      32.747  19.560  24.054  1.00  0.00    -0.046 A 
ATOM     22  C   UNL A   1      35.203  18.093  24.627  1.00  0.00     0.047 C 
ATOM     23  C   UNL A   1      31.762  21.025  24.804  1.00  0.00     0.004 A 
ATOM     24  C   UNL A   1      32.396  18.076  23.705  1.00  0.00     0.044 C 
ENDBRANCH   9  12
ENDBRANCH   7   8
BRANCH   7  25
ATOM     25  C   UNL A   1      31.928  25.799  24.987  1.00  0.00     0.027 A 
ATOM     26  C   UNL A   1      30.904  26.390  25.794  1.00  0.00     0.065 A 
ATOM     27  C   UNL A   1      31.181  25.040  24.043  1.00  0.00     0.038 A 
ATOM     28  C   UNL A   1      31.019  27.270  26.979  1.00  0.00     0.069 C 
ATOM     29  N   UNL A   1      29.677  25.993  25.428  1.00  0.00    -0.180 NA
ATOM     30  N   UNL A   1      29.893  25.090  24.474  1.00  0.00    -0.282 N 
ATOM     31  C   UNL A   1      31.550  24.009  23.009  1.00  0.00     0.066 C 
ATOM     32  H   UNL A   1      29.183  24.509  24.114  1.00  0.00     0.190 HD
ENDBRANCH   7  25
ENDBRANCH   4   7
ENDBRANCH   2   3
ENDBRANCH   1   2
BRANCH   1  33
ATOM     33  C   UNL A   1      32.088  31.040  26.860  1.00  0.00     0.118 C 
BRANCH  33  34
ATOM     34  N   UNL A   1      32.016  33.136  27.256  1.00  0.00    -0.352 N 
ATOM     35  C   UNL A   1      32.988  34.124  28.287  1.00  0.00     0.251 C 
ATOM     36  H   UNL A   1      31.311  33.621  26.769  1.00  0.00     0.163 HD
ATOM     37  O   UNL A   1      32.538  35.260  28.489  1.00  0.00    -0.269 OA
BRANCH  35  38
ATOM     38  C   UNL A   1      34.515  33.667  29.127  1.00  0.00     0.039 A 
ATOM     39  C   UNL A   1      35.779  34.221  28.880  1.00  0.00     0.014 A 
ATOM     40  C   UNL A   1      34.626  32.719  30.213  1.00  0.00     0.014 A 
ATOM     41  C   UNL A   1      36.979  33.761  29.598  1.00  0.00     0.010 A 
ATOM     42  C   UNL A   1      35.724  32.225  30.866  1.00  0.00     0.010 A 
ATOM     43  C   UNL A   1      36.948  32.714  30.546  1.00  0.00    -0.014 A 
BRANCH  43  44
ATOM     44  C   UNL A   1      37.971  32.030  31.378  1.00  0.00     0.031 A 
ATOM     45  C   UNL A   1      38.511  32.735  32.615  1.00  0.00     0.074 A 
ATOM     46  C   UNL A   1      38.768  31.128  30.760  1.00  0.00     0.049 A 
ATOM     47  N   UNL A   1      39.428  32.344  33.462  1.00  0.00    -0.248 NA
ATOM     48  C   UNL A   1      38.003  34.097  32.893  1.00  0.00     0.031 C 
ATOM     49  C   UNL A   1      38.610  30.684  29.367  1.00  0.00     0.029 A 
ATOM     50  N   UNL A   1      39.903  30.482  31.176  1.00  0.00    -0.354 N 
ATOM     51  C   UNL A   1      39.533  33.358  34.413  1.00  0.00     0.074 A 
ATOM     52  C   UNL A   1      38.702  34.449  33.965  1.00  0.00     0.031 C 
ATOM     53  C   UNL A   1      39.564  29.785  29.075  1.00  0.00     0.029 A 
ATOM     54  C   UNL A   1      40.379  29.568  30.262  1.00  0.00     0.049 A 
ATOM     55  H   UNL A   1      40.335  30.653  32.043  1.00  0.00     0.167 HD
ATOM     56  C   UNL A   1      40.214  33.335  35.585  1.00  0.00     0.037 A 
ATOM     57  C   UNL A   1      41.313  28.611  30.410  1.00  0.00     0.037 A 
ATOM     58  C   UNL A   1      41.079  32.239  35.938  1.00  0.00     0.049 A 
ATOM     59  C   UNL A   1      41.955  28.483  31.764  1.00  0.00     0.074 A 
ATOM     60  C   UNL A   1      41.730  31.985  37.130  1.00  0.00     0.029 A 
ATOM     61  N   UNL A   1      41.425  31.216  35.063  1.00  0.00    -0.354 N 
ATOM     62  N   UNL A   1      41.838  29.277  32.806  1.00  0.00    -0.248 NA
ATOM     63  C   UNL A   1      42.814  27.317  31.987  1.00  0.00     0.031 C 
ATOM     64  C   UNL A   1      42.500  30.828  36.960  1.00  0.00     0.029 A 
ATOM     65  C   UNL A   1      42.288  30.333  35.682  1.00  0.00     0.049 A 
ATOM     66  H   UNL A   1      41.102  31.133  34.137  1.00  0.00     0.167 HD
ATOM     67  C   UNL A   1      42.591  28.697  33.816  1.00  0.00     0.074 A 
ATOM     68  C   UNL A   1      43.133  27.467  33.266  1.00  0.00     0.031 C 
ATOM     69  C   UNL A   1      42.822  29.134  35.080  1.00  0.00     0.037 A 
BRANCH  56  70
ATOM     70  C   UNL A   1      39.971  34.441  36.587  1.00  0.00     0.058 A 
ATOM     71  C   UNL A   1      38.950  34.322  37.550  1.00  0.00     0.135 A 
ATOM     72  C   UNL A   1      40.801  35.571  36.673  1.00  0.00     0.135 A 
ATOM     73  F   UNL A   1      38.121  33.265  37.529  1.00  0.00    -0.206 F 
ATOM     74  C   UNL A   1      38.750  35.281  38.538  1.00  0.00     0.059 A 
ATOM     75  C   UNL A   1      40.637  36.533  37.673  1.00  0.00     0.059 A 
ATOM     76  F   UNL A   1      41.797  35.749  35.790  1.00  0.00    -0.206 F 
ATOM     77  C   UNL A   1      39.604  36.381  38.598  1.00  0.00     0.060 A 
BRANCH  77  78
ATOM     78  S   UNL A   1      39.348  37.588  39.918  1.00  0.00     0.124 S 
ATOM     79  O   UNL A   1      39.177  36.722  41.081  1.00  0.00    -0.237 OA
ATOM     80  O   UNL A   1      40.589  38.356  39.880  1.00  0.00    -0.237 OA
ATOM     81  O   UNL A   1      38.153  38.311  39.495  1.00  0.00    -0.744 OA
ENDBRANCH  77  78
ENDBRANCH  56  70
BRANCH  57  82
ATOM     82  C   UNL A   1      41.512  27.601  29.334  1.00  0.00     0.058 A 
ATOM     83  C   UNL A   1      42.681  27.618  28.554  1.00  0.00     0.135 A 
ATOM     84  C   UNL A   1      40.605  26.553  29.116  1.00  0.00     0.135 A 
ATOM     85  F   UNL A   1      43.591  28.586  28.733  1.00  0.00    -0.206 F 
ATOM     86  C   UNL A   1      42.934  26.650  27.585  1.00  0.00     0.059 A 
ATOM     87  C   UNL A   1      40.847  25.558  28.169  1.00  0.00     0.059 A 
ATOM     88  F   UNL A   1      39.492  26.463  29.859  1.00  0.00    -0.206 F 
ATOM     89  C   UNL A   1      42.012  25.620  27.404  1.00  0.00     0.060 A 
BRANCH  89  90
ATOM     90  S   UNL A   1      42.378  24.343  26.177  1.00  0.00     0.124 S 
ATOM     91  O   UNL A   1      41.266  23.420  26.372  1.00  0.00    -0.237 OA
ATOM     92  O   UNL A   1      42.365  25.107  24.933  1.00  0.00    -0.237 OA
ATOM     93  O   UNL A   1      43.688  23.848  26.587  1.00  0.00    -0.744 OA
ENDBRANCH  89  90
ENDBRANCH  57  82
BRANCH  69  94
ATOM     94  C   UNL A   1      43.712  28.279  35.934  1.00  0.00     0.058 A 
ATOM     95  C   UNL A   1      45.099  28.491  35.981  1.00  0.00     0.135 A 
ATOM     96  C   UNL A   1      43.169  27.266  36.738  1.00  0.00     0.135 A 
ATOM     97  F   UNL A   1      45.663  29.449  35.228  1.00  0.00    -0.206 F 
ATOM     98  C   UNL A   1      45.923  27.696  36.763  1.00  0.00     0.059 A 
ATOM     99  C   UNL A   1      43.970  26.485  37.560  1.00  0.00     0.059 A 
ATOM    100  F   UNL A   1      41.845  27.038  36.740  1.00  0.00    -0.206 F 
ATOM    101  C   UNL A   1      45.349  26.694  37.550  1.00  0.00     0.060 A 
BRANCH 101 102
ATOM    102  S   UNL A   1      46.436  25.671  38.558  1.00  0.00     0.124 S 
ATOM    103  O   UNL A   1      47.441  26.642  38.980  1.00  0.00    -0.237 OA
ATOM    104  O   UNL A   1      45.533  25.197  39.602  1.00  0.00    -0.237 OA
ATOM    105  O   UNL A   1      46.904  24.649  37.627  1.00  0.00    -0.744 OA
ENDBRANCH 101 102
ENDBRANCH  69  94
ENDBRANCH  43  44
ENDBRANCH  35  38
ENDBRANCH  33  34
ENDBRANCH   1  33
TORSDOF 16
ENDMDL
MODEL 2
REMARK VINA RESULT:     -13.8      5.796      7.974
REMARK SMILES Cc1cc(C(=O)N[C@@H](C(=O)NCCCNC(=O)c2ccc(-c3c4nc(c(-c5c(F)cc(S(=O)(=O)[O-])cc5F)c5ccc([nH]5)c(-c5c(F)cc(S(=O)(=O)[O-])cc5F)c5nc(c(-c6c(F)cc(S(=O)(=O)[O-])cc6F)c6ccc3[nH]6)C=C5)C=C4)cc2)c2c(C)n[nH]c2C)c2ccc(C)c(C)c2n1
REMARK SMILES IDX 13 1 12 2 11 3 9 4 10 5 8 7 7 8 5 9 6 10 4 12 1 13 2 14 3 15
REMARK SMILES IDX 99 16 98 17 91 18 96 19 92 20 94 21 97 22 93 23 95 24 84 25
REMARK SMILES IDX 85 26 89 27 86 28 87 29 88 30 90 31 14 33 15 34 16 35 17 37
REMARK SMILES IDX 18 38 19 39 83 40 20 41 82 42 21 43 22 44 23 45 76 46 24 47
REMARK SMILES IDX 81 48 75 49 77 50 25 51 80 52 74 53 73 54 26 56 60 57 39 58
REMARK SMILES IDX 59 59 40 60 43 61 58 62 78 63 41 64 42 65 57 67 79 68 44 69
REMARK SMILES IDX 27 70 28 71 37 72 29 73 30 74 36 75 38 76 31 77 32 78 33 79
REMARK SMILES IDX 34 80 35 81 61 82 62 83 71 84 63 85 64 86 70 87 72 88 65 89
REMARK SMILES IDX 66 90 67 91 68 92 69 93 45 94 46 95 55 96 47 97 48 98 54 99
REMARK SMILES IDX 56 100 49 101 50 102 51 103 52 104 53 105
REMARK H PARENT 11 6 7 11 88 32 15 36 77 55 43 66
REMARK Flexibility Score: inf
ROOT
ATOM      1  C   UNL A   1      33.752  29.367  25.758  1.00  0.00     0.042 C 
ENDROOT
BRANCH   1   2
ATOM      2  C   UNL A   1      33.906  28.701  24.137  1.00  0.00     0.117 C 
BRANCH   2   3
ATOM      3  N   UNL A   1      32.843  27.872  23.506  1.00  0.00    -0.354 N 
ATOM      4  C   UNL A   1      32.757  26.492  23.530  1.00  0.00     0.247 C 
ATOM      5  O   UNL A   1      32.331  25.857  22.551  1.00  0.00    -0.272 OA
ATOM      6  H   UNL A   1      32.132  28.352  23.026  1.00  0.00     0.163 HD
BRANCH   4   7
ATOM      7  C   UNL A   1      33.246  25.880  24.804  1.00  0.00     0.206 C 
BRANCH   7   8
ATOM      8  N   UNL A   1      34.199  25.108  23.768  1.00  0.00    -0.336 N 
ATOM      9  C   UNL A   1      34.840  23.837  23.706  1.00  0.00     0.252 C 
ATOM     10  O   UNL A   1      35.161  23.462  22.572  1.00  0.00    -0.269 OA
ATOM     11  H   UNL A   1      34.390  25.654  22.971  1.00  0.00     0.165 HD
BRANCH   9  12
ATOM     12  C   UNL A   1      35.345  22.962  24.952  1.00  0.00     0.051 A 
ATOM     13  C   UNL A   1      38.984  22.721  25.635  1.00  0.00     0.067 C 
ATOM     14  C   UNL A   1      37.553  22.324  25.501  1.00  0.00     0.039 A 
ATOM     15  C   UNL A   1      36.719  23.206  24.897  1.00  0.00     0.038 A 
ATOM     16  N   UNL A   1      37.157  21.079  25.795  1.00  0.00    -0.253 NA
ATOM     17  C   UNL A   1      35.898  20.726  25.498  1.00  0.00     0.074 A 
ATOM     18  C   UNL A   1      34.652  21.772  25.695  1.00  0.00     0.013 A 
ATOM     19  C   UNL A   1      35.670  19.249  24.699  1.00  0.00    -0.022 A 
ATOM     20  C   UNL A   1      32.906  21.133  25.672  1.00  0.00     0.011 A 
ATOM     21  C   UNL A   1      34.089  18.639  24.126  1.00  0.00    -0.046 A 
ATOM     22  C   UNL A   1      36.838  18.329  25.053  1.00  0.00     0.047 C 
ATOM     23  C   UNL A   1      32.536  19.657  24.607  1.00  0.00     0.004 A 
ATOM     24  C   UNL A   1      34.380  17.112  23.954  1.00  0.00     0.044 C 
ENDBRANCH   9  12
ENDBRANCH   7   8
BRANCH   7  25
ATOM     25  C   UNL A   1      31.704  25.740  25.275  1.00  0.00     0.027 A 
ATOM     26  C   UNL A   1      30.944  26.468  26.244  1.00  0.00     0.065 A 
ATOM     27  C   UNL A   1      30.801  24.715  24.877  1.00  0.00     0.038 A 
ATOM     28  C   UNL A   1      31.327  27.639  27.065  1.00  0.00     0.069 C 
ATOM     29  N   UNL A   1      29.740  25.921  26.461  1.00  0.00    -0.180 NA
ATOM     30  N   UNL A   1      29.747  24.808  25.731  1.00  0.00    -0.282 N 
ATOM     31  C   UNL A   1      30.941  23.465  24.047  1.00  0.00     0.066 C 
ATOM     32  H   UNL A   1      29.051  24.114  25.803  1.00  0.00     0.190 HD
ENDBRANCH   7  25
ENDBRANCH   4   7
ENDBRANCH   2   3
ENDBRANCH   1   2
BRANCH   1  33
ATOM     33  C   UNL A   1      34.925  29.113  27.289  1.00  0.00     0.118 C 
BRANCH  33  34
ATOM     34  N   UNL A   1      35.036  30.599  28.819  1.00  0.00    -0.352 N 
ATOM     35  C   UNL A   1      36.319  31.013  29.898  1.00  0.00     0.251 C 
ATOM     36  H   UNL A   1      34.219  31.137  28.927  1.00  0.00     0.163 HD
ATOM     37  O   UNL A   1      35.988  31.752  30.835  1.00  0.00    -0.269 OA
BRANCH  35  38
ATOM     38  C   UNL A   1      38.030  30.449  29.840  1.00  0.00     0.039 A 
ATOM     39  C   UNL A   1      38.907  30.390  30.932  1.00  0.00     0.014 A 
ATOM     40  C   UNL A   1      38.701  29.918  28.674  1.00  0.00     0.014 A 
ATOM     41  C   UNL A   1      40.301  29.941  30.781  1.00  0.00     0.010 A 
ATOM     42  C   UNL A   1      40.004  29.545  28.480  1.00  0.00     0.010 A 
ATOM     43  C   UNL A   1      40.857  29.582  29.534  1.00  0.00    -0.014 A 
BRANCH  43  44
ATOM     44  C   UNL A   1      42.200  29.139  29.081  1.00  0.00     0.031 A 
ATOM     45  C   UNL A   1      43.244  30.188  28.721  1.00  0.00     0.074 A 
ATOM     46  C   UNL A   1      42.282  27.928  28.482  1.00  0.00     0.049 A 
ATOM     47  N   UNL A   1      44.462  30.030  28.271  1.00  0.00    -0.248 NA
ATOM     48  C   UNL A   1      42.834  31.607  28.810  1.00  0.00     0.031 C 
ATOM     49  C   UNL A   1      41.171  26.972  28.367  1.00  0.00     0.029 A 
ATOM     50  N   UNL A   1      43.301  27.320  27.795  1.00  0.00    -0.354 N 
ATOM     51  C   UNL A   1      44.986  31.313  28.118  1.00  0.00     0.074 A 
ATOM     52  C   UNL A   1      43.915  32.244  28.376  1.00  0.00     0.031 C 
ATOM     53  C   UNL A   1      41.594  25.873  27.721  1.00  0.00     0.029 A 
ATOM     54  C   UNL A   1      43.005  26.033  27.404  1.00  0.00     0.049 A 
ATOM     55  H   UNL A   1      44.159  27.760  27.601  1.00  0.00     0.167 HD
ATOM     56  C   UNL A   1      46.268  31.664  27.852  1.00  0.00     0.037 A 
ATOM     57  C   UNL A   1      43.817  25.074  26.922  1.00  0.00     0.037 A 
ATOM     58  C   UNL A   1      47.274  30.682  27.538  1.00  0.00     0.049 A 
ATOM     59  C   UNL A   1      45.275  25.416  26.779  1.00  0.00     0.074 A 
ATOM     60  C   UNL A   1      48.637  30.842  27.381  1.00  0.00     0.029 A 
ATOM     61  N   UNL A   1      46.996  29.339  27.310  1.00  0.00    -0.354 N 
ATOM     62  N   UNL A   1      45.860  26.584  26.924  1.00  0.00    -0.248 NA
ATOM     63  C   UNL A   1      46.188  24.317  26.455  1.00  0.00     0.031 C 
ATOM     64  C   UNL A   1      49.176  29.601  27.020  1.00  0.00     0.029 A 
ATOM     65  C   UNL A   1      48.158  28.658  27.004  1.00  0.00     0.049 A 
ATOM     66  H   UNL A   1      46.102  28.932  27.360  1.00  0.00     0.167 HD
ATOM     67  C   UNL A   1      47.216  26.360  26.730  1.00  0.00     0.074 A 
ATOM     68  C   UNL A   1      47.362  24.935  26.489  1.00  0.00     0.031 C 
ATOM     69  C   UNL A   1      48.248  27.241  26.744  1.00  0.00     0.037 A 
BRANCH  56  70
ATOM     70  C   UNL A   1      46.669  33.115  27.997  1.00  0.00     0.058 A 
ATOM     71  C   UNL A   1      46.437  34.029  26.951  1.00  0.00     0.135 A 
ATOM     72  C   UNL A   1      47.184  33.634  29.196  1.00  0.00     0.135 A 
ATOM     73  F   UNL A   1      45.943  33.602  25.777  1.00  0.00    -0.206 F 
ATOM     74  C   UNL A   1      46.718  35.386  27.079  1.00  0.00     0.059 A 
ATOM     75  C   UNL A   1      47.448  34.997  29.357  1.00  0.00     0.059 A 
ATOM     76  F   UNL A   1      47.427  32.821  30.237  1.00  0.00    -0.206 F 
ATOM     77  C   UNL A   1      47.215  35.864  28.290  1.00  0.00     0.060 A 
BRANCH  77  78
ATOM     78  S   UNL A   1      47.530  37.637  28.442  1.00  0.00     0.124 S 
ATOM     79  O   UNL A   1      46.603  38.010  29.507  1.00  0.00    -0.237 OA
ATOM     80  O   UNL A   1      48.945  37.670  28.796  1.00  0.00    -0.237 OA
ATOM     81  O   UNL A   1      47.204  38.158  27.118  1.00  0.00    -0.744 OA
ENDBRANCH  77  78
ENDBRANCH  56  70
BRANCH  57  82
ATOM     82  C   UNL A   1      43.304  23.684  26.764  1.00  0.00     0.058 A 
ATOM     83  C   UNL A   1      43.133  23.134  25.482  1.00  0.00     0.135 A 
ATOM     84  C   UNL A   1      43.062  22.848  27.865  1.00  0.00     0.135 A 
ATOM     85  F   UNL A   1      43.368  23.883  24.395  1.00  0.00    -0.206 F 
ATOM     86  C   UNL A   1      42.722  21.817  25.296  1.00  0.00     0.059 A 
ATOM     87  C   UNL A   1      42.673  21.519  27.703  1.00  0.00     0.059 A 
ATOM     88  F   UNL A   1      43.249  23.307  29.110  1.00  0.00    -0.206 F 
ATOM     89  C   UNL A   1      42.499  21.014  26.414  1.00  0.00     0.060 A 
BRANCH  89  90
ATOM     90  S   UNL A   1      42.013  19.293  26.156  1.00  0.00     0.124 S 
ATOM     91  O   UNL A   1      40.580  19.422  25.920  1.00  0.00    -0.237 OA
ATOM     92  O   UNL A   1      42.821  18.921  24.999  1.00  0.00    -0.237 OA
ATOM     93  O   UNL A   1      42.390  18.645  27.409  1.00  0.00    -0.744 OA
ENDBRANCH  89  90
ENDBRANCH  57  82
BRANCH  69  94
ATOM     94  C   UNL A   1      49.613  26.680  26.473  1.00  0.00     0.058 A 
ATOM     95  C   UNL A   1      50.380  26.103  27.497  1.00  0.00     0.135 A 
ATOM     96  C   UNL A   1      50.141  26.687  25.173  1.00  0.00     0.135 A 
ATOM     97  F   UNL A   1      49.915  26.074  28.756  1.00  0.00    -0.206 F 
ATOM     98  C   UNL A   1      51.644  25.592  27.249  1.00  0.00     0.059 A 
ATOM     99  C   UNL A   1      51.389  26.145  24.895  1.00  0.00     0.059 A 
ATOM    100  F   UNL A   1      49.436  27.213  24.158  1.00  0.00    -0.206 F 
ATOM    101  C   UNL A   1      52.141  25.618  25.944  1.00  0.00     0.060 A 
BRANCH 101 102
ATOM    102  S   UNL A   1      53.787  24.951  25.642  1.00  0.00     0.124 S 
ATOM    103  O   UNL A   1      54.217  25.743  24.495  1.00  0.00    -0.237 OA
ATOM    104  O   UNL A   1      54.470  25.234  26.901  1.00  0.00    -0.237 OA
ATOM    105  O   UNL A   1      53.539  23.539  25.372  1.00  0.00    -0.744 OA
ENDBRANCH 101 102
ENDBRANCH  69  94
ENDBRANCH  43  44
ENDBRANCH  35  38
ENDBRANCH  33  34
ENDBRANCH   1  33
TORSDOF 16
ENDMDL
MODEL 3
REMARK VINA RESULT:     -13.6      2.412      8.878
REMARK SMILES Cc1cc(C(=O)N[C@@H](C(=O)NCCCNC(=O)c2ccc(-c3c4nc(c(-c5c(F)cc(S(=O)(=O)[O-])cc5F)c5ccc([nH]5)c(-c5c(F)cc(S(=O)(=O)[O-])cc5F)c5nc(c(-c6c(F)cc(S(=O)(=O)[O-])cc6F)c6ccc3[nH]6)C=C5)C=C4)cc2)c2c(C)n[nH]c2C)c2ccc(C)c(C)c2n1
REMARK SMILES IDX 13 1 12 2 11 3 9 4 10 5 8 7 7 8 5 9 6 10 4 12 1 13 2 14 3 15
REMARK SMILES IDX 99 16 98 17 91 18 96 19 92 20 94 21 97 22 93 23 95 24 84 25
REMARK SMILES IDX 85 26 89 27 86 28 87 29 88 30 90 31 14 33 15 34 16 35 17 37
REMARK SMILES IDX 18 38 19 39 83 40 20 41 82 42 21 43 22 44 23 45 76 46 24 47
REMARK SMILES IDX 81 48 75 49 77 50 25 51 80 52 74 53 73 54 26 56 60 57 39 58
REMARK SMILES IDX 59 59 40 60 43 61 58 62 78 63 41 64 42 65 57 67 79 68 44 69
REMARK SMILES IDX 27 70 28 71 37 72 29 73 30 74 36 75 38 76 31 77 32 78 33 79
REMARK SMILES IDX 34 80 35 81 61 82 62 83 71 84 63 85 64 86 70 87 72 88 65 89
REMARK SMILES IDX 66 90 67 91 68 92 69 93 45 94 46 95 55 96 47 97 48 98 54 99
REMARK SMILES IDX 56 100 49 101 50 102 51 103 52 104 53 105
REMARK H PARENT 11 6 7 11 88 32 15 36 77 55 43 66
REMARK Flexibility Score: inf
ROOT
ATOM      1  C   UNL A   1      36.801  22.244  26.138  1.00  0.00     0.042 C 
ENDROOT
BRANCH   1   2
ATOM      2  C   UNL A   1      35.136  22.065  26.676  1.00  0.00     0.117 C 
BRANCH   2   3
ATOM      3  N   UNL A   1      34.056  21.556  25.788  1.00  0.00    -0.354 N 
ATOM      4  C   UNL A   1      32.882  22.210  25.465  1.00  0.00     0.247 C 
ATOM      5  O   UNL A   1      31.818  21.588  25.319  1.00  0.00    -0.272 OA
ATOM      6  H   UNL A   1      34.191  20.666  25.389  1.00  0.00     0.163 HD
BRANCH   4   7
ATOM      7  C   UNL A   1      33.032  23.694  25.351  1.00  0.00     0.206 C 
BRANCH   7   8
ATOM      8  N   UNL A   1      31.852  23.640  26.439  1.00  0.00    -0.336 N 
ATOM      9  C   UNL A   1      30.609  24.305  26.647  1.00  0.00     0.252 C 
ATOM     10  O   UNL A   1      29.806  23.708  27.374  1.00  0.00    -0.269 OA
ATOM     11  H   UNL A   1      32.035  22.977  27.144  1.00  0.00     0.165 HD
BRANCH   9  12
ATOM     12  C   UNL A   1      30.242  25.801  26.201  1.00  0.00     0.051 A 
ATOM     13  C   UNL A   1      27.282  26.368  24.038  1.00  0.00     0.067 C 
ATOM     14  C   UNL A   1      28.655  26.511  24.601  1.00  0.00     0.039 A 
ATOM     15  C   UNL A   1      29.057  25.576  25.497  1.00  0.00     0.038 A 
ATOM     16  N   UNL A   1      29.511  27.411  24.100  1.00  0.00    -0.253 NA
ATOM     17  C   UNL A   1      30.783  27.383  24.526  1.00  0.00     0.074 A 
ATOM     18  C   UNL A   1      31.149  27.072  26.091  1.00  0.00     0.013 A 
ATOM     19  C   UNL A   1      32.000  27.453  23.348  1.00  0.00    -0.022 A 
ATOM     20  C   UNL A   1      32.857  27.444  26.725  1.00  0.00     0.011 A 
ATOM     21  C   UNL A   1      33.751  27.330  23.692  1.00  0.00    -0.046 A 
ATOM     22  C   UNL A   1      31.441  28.178  22.124  1.00  0.00     0.047 C 
ATOM     23  C   UNL A   1      34.276  27.289  25.536  1.00  0.00     0.004 A 
ATOM     24  C   UNL A   1      34.374  27.945  22.395  1.00  0.00     0.044 C 
ENDBRANCH   9  12
ENDBRANCH   7   8
BRANCH   7  25
ATOM     25  C   UNL A   1      33.127  23.516  23.746  1.00  0.00     0.027 A 
ATOM     26  C   UNL A   1      34.256  23.391  22.876  1.00  0.00     0.065 A 
ATOM     27  C   UNL A   1      32.037  23.583  22.833  1.00  0.00     0.038 A 
ATOM     28  C   UNL A   1      35.698  23.310  23.199  1.00  0.00     0.069 C 
ATOM     29  N   UNL A   1      33.908  23.438  21.582  1.00  0.00    -0.180 NA
ATOM     30  N   UNL A   1      32.601  23.687  21.601  1.00  0.00    -0.282 N 
ATOM     31  C   UNL A   1      30.572  23.906  22.979  1.00  0.00     0.066 C 
ATOM     32  H   UNL A   1      32.088  23.926  20.794  1.00  0.00     0.190 HD
ENDBRANCH   7  25
ENDBRANCH   4   7
ENDBRANCH   2   3
ENDBRANCH   1   2
BRANCH   1  33
ATOM     33  C   UNL A   1      38.034  23.710  26.477  1.00  0.00     0.118 C 
BRANCH  33  34
ATOM     34  N   UNL A   1      40.114  23.488  26.051  1.00  0.00    -0.352 N 
ATOM     35  C   UNL A   1      41.458  24.504  26.432  1.00  0.00     0.251 C 
ATOM     36  H   UNL A   1      40.346  22.671  25.554  1.00  0.00     0.163 HD
ATOM     37  O   UNL A   1      42.505  24.224  25.831  1.00  0.00    -0.269 OA
BRANCH  35  38
ATOM     38  C   UNL A   1      41.482  25.928  27.536  1.00  0.00     0.039 A 
ATOM     39  C   UNL A   1      42.335  27.035  27.422  1.00  0.00     0.014 A 
ATOM     40  C   UNL A   1      40.579  26.148  28.644  1.00  0.00     0.014 A 
ATOM     41  C   UNL A   1      42.301  28.141  28.392  1.00  0.00     0.010 A 
ATOM     42  C   UNL A   1      40.551  27.129  29.599  1.00  0.00     0.010 A 
ATOM     43  C   UNL A   1      41.446  28.145  29.516  1.00  0.00    -0.014 A 
BRANCH  43  44
ATOM     44  C   UNL A   1      41.222  29.076  30.652  1.00  0.00     0.031 A 
ATOM     45  C   UNL A   1      41.847  28.758  32.004  1.00  0.00     0.074 A 
ATOM     46  C   UNL A   1      40.087  29.813  30.633  1.00  0.00     0.049 A 
ATOM     47  N   UNL A   1      41.754  29.406  33.137  1.00  0.00    -0.248 NA
ATOM     48  C   UNL A   1      42.619  27.500  32.113  1.00  0.00     0.031 C 
ATOM     49  C   UNL A   1      39.133  29.855  29.515  1.00  0.00     0.029 A 
ATOM     50  N   UNL A   1      39.498  30.600  31.588  1.00  0.00    -0.354 N 
ATOM     51  C   UNL A   1      42.526  28.692  34.053  1.00  0.00     0.074 A 
ATOM     52  C   UNL A   1      42.959  27.484  33.395  1.00  0.00     0.031 C 
ATOM     53  C   UNL A   1      38.123  30.685  29.823  1.00  0.00     0.029 A 
ATOM     54  C   UNL A   1      38.371  31.253  31.139  1.00  0.00     0.049 A 
ATOM     55  H   UNL A   1      39.845  30.689  32.504  1.00  0.00     0.167 HD
ATOM     56  C   UNL A   1      42.887  29.063  35.306  1.00  0.00     0.037 A 
ATOM     57  C   UNL A   1      37.677  32.257  31.707  1.00  0.00     0.037 A 
ATOM     58  C   UNL A   1      42.363  30.253  35.926  1.00  0.00     0.049 A 
ATOM     59  C   UNL A   1      38.176  32.777  33.027  1.00  0.00     0.074 A 
ATOM     60  C   UNL A   1      42.720  30.850  37.119  1.00  0.00     0.029 A 
ATOM     61  N   UNL A   1      41.335  31.016  35.385  1.00  0.00    -0.354 N 
ATOM     62  N   UNL A   1      39.128  32.289  33.793  1.00  0.00    -0.248 NA
ATOM     63  C   UNL A   1      37.552  33.998  33.542  1.00  0.00     0.031 C 
ATOM     64  C   UNL A   1      41.880  31.952  37.317  1.00  0.00     0.029 A 
ATOM     65  C   UNL A   1      41.035  32.073  36.222  1.00  0.00     0.049 A 
ATOM     66  H   UNL A   1      40.885  30.830  34.530  1.00  0.00     0.167 HD
ATOM     67  C   UNL A   1      39.233  33.155  34.872  1.00  0.00     0.074 A 
ATOM     68  C   UNL A   1      38.266  34.214  34.639  1.00  0.00     0.031 C 
ATOM     69  C   UNL A   1      40.043  33.088  35.958  1.00  0.00     0.037 A 
BRANCH  56  70
ATOM     70  C   UNL A   1      43.949  28.259  36.023  1.00  0.00     0.058 A 
ATOM     71  C   UNL A   1      43.590  27.182  36.856  1.00  0.00     0.135 A 
ATOM     72  C   UNL A   1      45.321  28.477  35.815  1.00  0.00     0.135 A 
ATOM     73  F   UNL A   1      42.296  26.914  37.096  1.00  0.00    -0.206 F 
ATOM     74  C   UNL A   1      44.542  26.371  37.467  1.00  0.00     0.059 A 
ATOM     75  C   UNL A   1      46.294  27.659  36.396  1.00  0.00     0.059 A 
ATOM     76  F   UNL A   1      45.736  29.485  35.031  1.00  0.00    -0.206 F 
ATOM     77  C   UNL A   1      45.893  26.611  37.224  1.00  0.00     0.060 A 
BRANCH  77  78
ATOM     78  S   UNL A   1      47.106  25.515  37.996  1.00  0.00     0.124 S 
ATOM     79  O   UNL A   1      46.730  24.220  37.436  1.00  0.00    -0.237 OA
ATOM     80  O   UNL A   1      48.370  26.067  37.517  1.00  0.00    -0.237 OA
ATOM     81  O   UNL A   1      46.855  25.677  39.424  1.00  0.00    -0.744 OA
ENDBRANCH  77  78
ENDBRANCH  56  70
BRANCH  57  82
ATOM     82  C   UNL A   1      36.609  32.946  30.930  1.00  0.00     0.058 A 
ATOM     83  C   UNL A   1      35.259  32.784  31.285  1.00  0.00     0.135 A 
ATOM     84  C   UNL A   1      36.902  33.843  29.891  1.00  0.00     0.135 A 
ATOM     85  F   UNL A   1      34.924  31.954  32.283  1.00  0.00    -0.206 F 
ATOM     86  C   UNL A   1      34.238  33.466  30.627  1.00  0.00     0.059 A 
ATOM     87  C   UNL A   1      35.899  34.555  29.233  1.00  0.00     0.059 A 
ATOM     88  F   UNL A   1      38.175  34.068  29.538  1.00  0.00    -0.206 F 
ATOM     89  C   UNL A   1      34.569  34.354  29.604  1.00  0.00     0.060 A 
BRANCH  89  90
ATOM     90  S   UNL A   1      33.238  35.268  28.793  1.00  0.00     0.124 S 
ATOM     91  O   UNL A   1      33.984  36.252  28.019  1.00  0.00    -0.237 OA
ATOM     92  O   UNL A   1      32.575  34.219  28.024  1.00  0.00    -0.237 OA
ATOM     93  O   UNL A   1      32.464  35.799  29.911  1.00  0.00    -0.744 OA
ENDBRANCH  89  90
ENDBRANCH  57  82
BRANCH  69  94
ATOM     94  C   UNL A   1      39.897  34.182  36.974  1.00  0.00     0.058 A 
ATOM     95  C   UNL A   1      40.512  35.431  36.792  1.00  0.00     0.135 A 
ATOM     96  C   UNL A   1      39.107  33.992  38.117  1.00  0.00     0.135 A 
ATOM     97  F   UNL A   1      41.278  35.657  35.713  1.00  0.00    -0.206 F 
ATOM     98  C   UNL A   1      40.384  36.440  37.734  1.00  0.00     0.059 A 
ATOM     99  C   UNL A   1      38.932  35.003  39.053  1.00  0.00     0.059 A 
ATOM    100  F   UNL A   1      38.484  32.820  38.325  1.00  0.00    -0.206 F 
ATOM    101  C   UNL A   1      39.592  36.217  38.863  1.00  0.00     0.060 A 
BRANCH 101 102
ATOM    102  S   UNL A   1      39.440  37.540  40.076  1.00  0.00     0.124 S 
ATOM    103  O   UNL A   1      40.812  38.033  40.142  1.00  0.00    -0.237 OA
ATOM    104  O   UNL A   1      38.475  38.431  39.441  1.00  0.00    -0.237 OA
ATOM    105  O   UNL A   1      38.962  36.853  41.272  1.00  0.00    -0.744 OA
ENDBRANCH 101 102
ENDBRANCH  69  94
ENDBRANCH  43  44
ENDBRANCH  35  38
ENDBRANCH  33  34
ENDBRANCH   1  33
TORSDOF 16
ENDMDL
