MODEL 1
REMARK VINA RESULT:     -12.9      0.000      0.000
REMARK SMILES O=C(NCCCNC(=O)c1cccn1CC(=O)N1CC[C@H]2CCCC[C@H]2C1)c1ccc(-c2c3nc(c(-c4c(F)cc(S(=O)(=O)[O-])cc4F)c4ccc([nH]4)c(-c4c(F)cc(S(=O)(=O)[O-])cc4F)c4nc(c(-c5c(F)cc(S(=O)(=O)[O-])cc5F)c5ccc2[nH]5)C=C4)C=C3)cc1
REMARK SMILES IDX 5 1 4 2 3 3 1 4 2 5 28 7 29 8 93 9 30 10 92 11 31 12 32 13
REMARK SMILES IDX 33 14 86 15 34 16 91 17 85 18 87 19 35 20 90 21 84 22 83 23
REMARK SMILES IDX 36 25 70 26 49 27 69 28 50 29 53 30 68 31 88 32 51 33 52 34
REMARK SMILES IDX 67 36 89 37 54 38 37 39 38 40 47 41 39 42 40 43 46 44 48 45
REMARK SMILES IDX 41 46 42 47 43 48 44 49 45 50 71 51 72 52 81 53 73 54 74 55
REMARK SMILES IDX 80 56 82 57 75 58 76 59 77 60 78 61 79 62 55 63 56 64 65 65
REMARK SMILES IDX 57 66 58 67 64 68 66 69 59 70 60 71 61 72 62 73 63 74 6 75
REMARK SMILES IDX 7 76 8 77 9 79 10 80 11 81 14 82 12 83 13 84 15 85 16 86
REMARK SMILES IDX 17 87 18 88 19 89 27 90 20 91 26 92 21 93 25 94 22 95 24 96
REMARK SMILES IDX 23 97
REMARK H PARENT 3 6 87 24 53 35 7 78
REMARK Flexibility Score: inf
ROOT
ATOM      1  C   UNL A   1      33.483  28.075  27.137  1.00  0.00     0.042 C 
ENDROOT
BRANCH   1   2
ATOM      2  C   UNL A   1      34.465  29.025  26.470  1.00  0.00     0.118 C 
BRANCH   2   3
ATOM      3  N   UNL A   1      34.800  30.217  27.213  1.00  0.00    -0.352 N 
ATOM      4  O   UNL A   1      35.984  31.861  28.116  1.00  0.00    -0.269 OA
ATOM      5  C   UNL A   1      35.974  30.688  27.744  1.00  0.00     0.251 C 
ATOM      6  H   UNL A   1      34.031  30.812  27.371  1.00  0.00     0.163 HD
BRANCH   5   7
ATOM      7  C   UNL A   1      37.184  29.849  27.971  1.00  0.00     0.039 A 
ATOM      8  C   UNL A   1      38.316  29.829  27.150  1.00  0.00     0.014 A 
ATOM      9  C   UNL A   1      37.176  29.051  29.130  1.00  0.00     0.014 A 
ATOM     10  C   UNL A   1      39.389  28.984  27.453  1.00  0.00     0.010 A 
ATOM     11  C   UNL A   1      38.251  28.216  29.445  1.00  0.00     0.010 A 
ATOM     12  C   UNL A   1      39.369  28.189  28.610  1.00  0.00    -0.014 A 
BRANCH  12  13
ATOM     13  C   UNL A   1      40.655  27.582  29.056  1.00  0.00     0.031 A 
ATOM     14  C   UNL A   1      40.942  26.279  28.251  1.00  0.00     0.074 A 
ATOM     15  C   UNL A   1      41.319  28.170  30.107  1.00  0.00     0.049 A 
ATOM     16  N   UNL A   1      41.536  25.183  28.610  1.00  0.00    -0.248 NA
ATOM     17  C   UNL A   1      40.400  26.140  26.865  1.00  0.00     0.031 C 
ATOM     18  C   UNL A   1      40.973  29.484  30.701  1.00  0.00     0.029 A 
ATOM     19  N   UNL A   1      42.409  27.814  30.890  1.00  0.00    -0.354 N 
ATOM     20  C   UNL A   1      41.634  24.340  27.470  1.00  0.00     0.074 A 
ATOM     21  C   UNL A   1      40.807  24.930  26.469  1.00  0.00     0.031 C 
ATOM     22  C   UNL A   1      41.752  29.760  31.776  1.00  0.00     0.029 A 
ATOM     23  C   UNL A   1      42.689  28.676  32.000  1.00  0.00     0.049 A 
ATOM     24  H   UNL A   1      42.955  27.019  30.695  1.00  0.00     0.167 HD
ATOM     25  C   UNL A   1      42.499  23.281  27.393  1.00  0.00     0.037 A 
ATOM     26  C   UNL A   1      43.580  28.504  33.038  1.00  0.00     0.037 A 
ATOM     27  C   UNL A   1      43.203  23.174  28.623  1.00  0.00     0.049 A 
ATOM     28  C   UNL A   1      44.343  27.311  32.664  1.00  0.00     0.074 A 
ATOM     29  C   UNL A   1      42.813  22.768  29.871  1.00  0.00     0.029 A 
ATOM     30  N   UNL A   1      44.385  23.869  28.709  1.00  0.00    -0.354 N 
ATOM     31  N   UNL A   1      45.274  27.288  31.762  1.00  0.00    -0.248 NA
ATOM     32  C   UNL A   1      44.006  26.033  33.305  1.00  0.00     0.031 C 
ATOM     33  C   UNL A   1      43.500  23.658  30.715  1.00  0.00     0.029 A 
ATOM     34  C   UNL A   1      44.459  24.368  29.981  1.00  0.00     0.049 A 
ATOM     35  H   UNL A   1      45.050  23.984  27.993  1.00  0.00     0.167 HD
ATOM     36  C   UNL A   1      45.372  25.948  31.494  1.00  0.00     0.074 A 
ATOM     37  C   UNL A   1      44.865  25.251  32.658  1.00  0.00     0.031 C 
ATOM     38  C   UNL A   1      45.283  25.529  30.208  1.00  0.00     0.037 A 
BRANCH  25  39
ATOM     39  C   UNL A   1      43.017  22.417  26.265  1.00  0.00     0.058 A 
ATOM     40  C   UNL A   1      42.651  21.041  26.266  1.00  0.00     0.135 A 
ATOM     41  C   UNL A   1      44.094  22.759  25.440  1.00  0.00     0.135 A 
ATOM     42  F   UNL A   1      41.578  20.613  26.953  1.00  0.00    -0.206 F 
ATOM     43  C   UNL A   1      43.407  20.058  25.641  1.00  0.00     0.059 A 
ATOM     44  C   UNL A   1      44.840  21.787  24.757  1.00  0.00     0.059 A 
ATOM     45  F   UNL A   1      44.501  24.030  25.329  1.00  0.00    -0.206 F 
ATOM     46  C   UNL A   1      44.527  20.437  24.916  1.00  0.00     0.060 A 
BRANCH  46  47
ATOM     47  S   UNL A   1      45.569  19.136  24.222  1.00  0.00     0.124 S 
ATOM     48  O   UNL A   1      46.886  19.764  24.246  1.00  0.00    -0.237 OA
ATOM     49  O   UNL A   1      45.373  18.044  25.172  1.00  0.00    -0.237 OA
ATOM     50  O   UNL A   1      44.994  18.916  22.900  1.00  0.00    -0.744 OA
ENDBRANCH  46  47
ENDBRANCH  25  39
BRANCH  26  51
ATOM     51  C   UNL A   1      43.950  29.075  34.410  1.00  0.00     0.058 A 
ATOM     52  C   UNL A   1      43.203  28.990  35.589  1.00  0.00     0.135 A 
ATOM     53  C   UNL A   1      45.241  29.669  34.601  1.00  0.00     0.135 A 
ATOM     54  F   UNL A   1      41.922  28.600  35.560  1.00  0.00    -0.206 F 
ATOM     55  C   UNL A   1      43.751  29.299  36.860  1.00  0.00     0.059 A 
ATOM     56  C   UNL A   1      45.824  29.922  35.840  1.00  0.00     0.059 A 
ATOM     57  F   UNL A   1      46.030  30.012  33.573  1.00  0.00    -0.206 F 
ATOM     58  C   UNL A   1      45.084  29.697  36.978  1.00  0.00     0.060 A 
BRANCH  58  59
ATOM     59  S   UNL A   1      45.913  29.782  38.586  1.00  0.00     0.124 S 
ATOM     60  O   UNL A   1      45.952  31.217  38.838  1.00  0.00    -0.237 OA
ATOM     61  O   UNL A   1      45.019  29.007  39.438  1.00  0.00    -0.237 OA
ATOM     62  O   UNL A   1      47.208  29.154  38.329  1.00  0.00    -0.744 OA
ENDBRANCH  58  59
ENDBRANCH  26  51
BRANCH  38  63
ATOM     63  C   UNL A   1      45.739  26.544  29.173  1.00  0.00     0.058 A 
ATOM     64  C   UNL A   1      47.089  26.936  29.141  1.00  0.00     0.135 A 
ATOM     65  C   UNL A   1      44.885  27.212  28.278  1.00  0.00     0.135 A 
ATOM     66  F   UNL A   1      47.973  26.351  29.964  1.00  0.00    -0.206 F 
ATOM     67  C   UNL A   1      47.561  27.923  28.274  1.00  0.00     0.059 A 
ATOM     68  C   UNL A   1      45.333  28.200  27.391  1.00  0.00     0.059 A 
ATOM     69  F   UNL A   1      43.581  26.930  28.245  1.00  0.00    -0.206 F 
ATOM     70  C   UNL A   1      46.678  28.549  27.395  1.00  0.00     0.060 A 
BRANCH  70  71
ATOM     71  S   UNL A   1      47.322  29.796  26.255  1.00  0.00     0.124 S 
ATOM     72  O   UNL A   1      46.393  29.707  25.133  1.00  0.00    -0.237 OA
ATOM     73  O   UNL A   1      47.231  31.015  27.052  1.00  0.00    -0.237 OA
ATOM     74  O   UNL A   1      48.681  29.340  25.971  1.00  0.00    -0.744 OA
ENDBRANCH  70  71
ENDBRANCH  38  63
ENDBRANCH  12  13
ENDBRANCH   5   7
ENDBRANCH   2   3
ENDBRANCH   1   2
BRANCH   1  75
ATOM     75  C   UNL A   1      31.996  28.268  26.838  1.00  0.00     0.118 C 
BRANCH  75  76
ATOM     76  N   UNL A   1      31.279  27.016  26.656  1.00  0.00    -0.351 N 
ATOM     77  C   UNL A   1      30.578  26.505  25.591  1.00  0.00     0.267 C 
ATOM     78  H   UNL A   1      31.301  26.425  27.443  1.00  0.00     0.163 HD
ATOM     79  O   UNL A   1      29.985  25.446  25.787  1.00  0.00    -0.268 OA
BRANCH  77  80
ATOM     80  C   UNL A   1      30.544  27.190  24.310  1.00  0.00     0.107 A 
ATOM     81  C   UNL A   1      29.486  27.854  23.701  1.00  0.00     0.033 A 
ATOM     82  N   UNL A   1      31.648  27.396  23.483  1.00  0.00    -0.334 N 
ATOM     83  C   UNL A   1      29.950  28.463  22.512  1.00  0.00     0.020 A 
ATOM     84  C   UNL A   1      31.295  28.195  22.420  1.00  0.00     0.087 A 
BRANCH  82  85
ATOM     85  C   UNL A   1      33.005  26.912  23.709  1.00  0.00     0.222 C 
BRANCH  85  86
ATOM     86  C   UNL A   1      33.477  25.639  23.009  1.00  0.00     0.242 C 
ATOM     87  O   UNL A   1      33.744  25.706  21.801  1.00  0.00    -0.273 OA
BRANCH  86  88
ATOM     88  N   UNL A   1      33.844  24.525  23.742  1.00  0.00    -0.341 N 
ATOM     89  C   UNL A   1      33.003  23.784  24.662  1.00  0.00     0.120 C 
ATOM     90  C   UNL A   1      35.185  23.954  23.604  1.00  0.00     0.123 C 
ATOM     91  C   UNL A   1      33.598  23.871  26.050  1.00  0.00     0.025 C 
ATOM     92  C   UNL A   1      35.892  23.955  24.983  1.00  0.00     0.012 C 
ATOM     93  C   UNL A   1      35.036  23.329  26.102  1.00  0.00    -0.005 C 
ATOM     94  C   UNL A   1      37.264  23.284  24.959  1.00  0.00     0.006 C 
ATOM     95  C   UNL A   1      35.011  21.793  26.133  1.00  0.00     0.004 C 
ATOM     96  C   UNL A   1      37.167  21.798  24.662  1.00  0.00     0.000 C 
ATOM     97  C   UNL A   1      36.220  21.041  25.584  1.00  0.00     0.000 C 
ENDBRANCH  86  88
ENDBRANCH  85  86
ENDBRANCH  82  85
ENDBRANCH  77  80
ENDBRANCH  75  76
ENDBRANCH   1  75
TORSDOF 16
ENDMDL
MODEL 2
REMARK VINA RESULT:     -12.9      0.986      1.653
REMARK SMILES O=C(NCCCNC(=O)c1cccn1CC(=O)N1CC[C@H]2CCCC[C@H]2C1)c1ccc(-c2c3nc(c(-c4c(F)cc(S(=O)(=O)[O-])cc4F)c4ccc([nH]4)c(-c4c(F)cc(S(=O)(=O)[O-])cc4F)c4nc(c(-c5c(F)cc(S(=O)(=O)[O-])cc5F)c5ccc2[nH]5)C=C4)C=C3)cc1
REMARK SMILES IDX 5 1 4 2 3 3 1 4 2 5 28 7 29 8 93 9 30 10 92 11 31 12 32 13
REMARK SMILES IDX 33 14 86 15 34 16 91 17 85 18 87 19 35 20 90 21 84 22 83 23
REMARK SMILES IDX 36 25 70 26 49 27 69 28 50 29 53 30 68 31 88 32 51 33 52 34
REMARK SMILES IDX 67 36 89 37 54 38 37 39 38 40 47 41 39 42 40 43 46 44 48 45
REMARK SMILES IDX 41 46 42 47 43 48 44 49 45 50 71 51 72 52 81 53 73 54 74 55
REMARK SMILES IDX 80 56 82 57 75 58 76 59 77 60 78 61 79 62 55 63 56 64 65 65
REMARK SMILES IDX 57 66 58 67 64 68 66 69 59 70 60 71 61 72 62 73 63 74 6 75
REMARK SMILES IDX 7 76 8 77 9 79 10 80 11 81 14 82 12 83 13 84 15 85 16 86
REMARK SMILES IDX 17 87 18 88 19 89 27 90 20 91 26 92 21 93 25 94 22 95 24 96
REMARK SMILES IDX 23 97
REMARK H PARENT 3 6 87 24 53 35 7 78
REMARK Flexibility Score: inf
ROOT
ATOM      1  C   UNL A   1      32.867  28.748  26.908  1.00  0.00     0.042 C 
ENDROOT
BRANCH   1   2
ATOM      2  C   UNL A   1      34.356  28.926  27.156  1.00  0.00     0.118 C 
BRANCH   2   3
ATOM      3  N   UNL A   1      34.749  30.151  27.811  1.00  0.00    -0.352 N 
ATOM      4  O   UNL A   1      36.002  31.833  28.536  1.00  0.00    -0.269 OA
ATOM      5  C   UNL A   1      35.962  30.643  28.223  1.00  0.00     0.251 C 
ATOM      6  H   UNL A   1      33.996  30.755  28.002  1.00  0.00     0.163 HD
BRANCH   5   7
ATOM      7  C   UNL A   1      37.187  29.811  28.392  1.00  0.00     0.039 A 
ATOM      8  C   UNL A   1      38.284  29.809  27.526  1.00  0.00     0.014 A 
ATOM      9  C   UNL A   1      37.231  29.002  29.542  1.00  0.00     0.014 A 
ATOM     10  C   UNL A   1      39.375  28.971  27.777  1.00  0.00     0.010 A 
ATOM     11  C   UNL A   1      38.325  28.173  29.805  1.00  0.00     0.010 A 
ATOM     12  C   UNL A   1      39.409  28.163  28.925  1.00  0.00    -0.014 A 
BRANCH  12  13
ATOM     13  C   UNL A   1      40.717  27.563  29.313  1.00  0.00     0.031 A 
ATOM     14  C   UNL A   1      40.989  26.279  28.472  1.00  0.00     0.074 A 
ATOM     15  C   UNL A   1      41.411  28.138  30.351  1.00  0.00     0.049 A 
ATOM     16  N   UNL A   1      41.607  25.183  28.788  1.00  0.00    -0.248 NA
ATOM     17  C   UNL A   1      40.398  26.161  27.104  1.00  0.00     0.031 C 
ATOM     18  C   UNL A   1      41.073  29.436  30.983  1.00  0.00     0.029 A 
ATOM     19  N   UNL A   1      42.532  27.779  31.087  1.00  0.00    -0.354 N 
ATOM     20  C   UNL A   1      41.673  24.364  27.628  1.00  0.00     0.074 A 
ATOM     21  C   UNL A   1      40.803  24.964  26.669  1.00  0.00     0.031 C 
ATOM     22  C   UNL A   1      41.887  29.700  32.035  1.00  0.00     0.029 A 
ATOM     23  C   UNL A   1      42.844  28.622  32.203  1.00  0.00     0.049 A 
ATOM     24  H   UNL A   1      43.080  26.995  30.856  1.00  0.00     0.167 HD
ATOM     25  C   UNL A   1      42.546  23.317  27.499  1.00  0.00     0.037 A 
ATOM     26  C   UNL A   1      43.773  28.440  33.205  1.00  0.00     0.037 A 
ATOM     27  C   UNL A   1      43.295  23.194  28.701  1.00  0.00     0.049 A 
ATOM     28  C   UNL A   1      44.535  27.264  32.780  1.00  0.00     0.074 A 
ATOM     29  C   UNL A   1      42.955  22.760  29.953  1.00  0.00     0.029 A 
ATOM     30  N   UNL A   1      44.472  23.901  28.758  1.00  0.00    -0.354 N 
ATOM     31  N   UNL A   1      45.433  27.269  31.845  1.00  0.00    -0.248 NA
ATOM     32  C   UNL A   1      44.235  25.969  33.407  1.00  0.00     0.031 C 
ATOM     33  C   UNL A   1      43.661  23.640  30.789  1.00  0.00     0.029 A 
ATOM     34  C   UNL A   1      44.586  24.376  30.036  1.00  0.00     0.049 A 
ATOM     35  H   UNL A   1      45.109  24.038  28.021  1.00  0.00     0.167 HD
ATOM     36  C   UNL A   1      45.535  25.935  31.547  1.00  0.00     0.074 A 
ATOM     37  C   UNL A   1      45.078  25.211  32.714  1.00  0.00     0.031 C 
ATOM     38  C   UNL A   1      45.405  25.542  30.256  1.00  0.00     0.037 A 
BRANCH  25  39
ATOM     39  C   UNL A   1      43.032  22.481  26.336  1.00  0.00     0.058 A 
ATOM     40  C   UNL A   1      42.613  21.122  26.279  1.00  0.00     0.135 A 
ATOM     41  C   UNL A   1      44.123  22.815  25.526  1.00  0.00     0.135 A 
ATOM     42  F   UNL A   1      41.524  20.707  26.948  1.00  0.00    -0.206 F 
ATOM     43  C   UNL A   1      43.332  20.137  25.614  1.00  0.00     0.059 A 
ATOM     44  C   UNL A   1      44.832  21.845  24.803  1.00  0.00     0.059 A 
ATOM     45  F   UNL A   1      44.579  24.073  25.468  1.00  0.00    -0.206 F 
ATOM     46  C   UNL A   1      44.467  20.503  24.906  1.00  0.00     0.060 A 
BRANCH  46  47
ATOM     47  S   UNL A   1      45.460  19.192  24.158  1.00  0.00     0.124 S 
ATOM     48  O   UNL A   1      44.804  19.023  22.866  1.00  0.00    -0.237 OA
ATOM     49  O   UNL A   1      46.789  19.798  24.117  1.00  0.00    -0.237 OA
ATOM     50  O   UNL A   1      45.314  18.085  25.096  1.00  0.00    -0.744 OA
ENDBRANCH  46  47
ENDBRANCH  25  39
BRANCH  26  51
ATOM     51  C   UNL A   1      44.186  28.988  34.574  1.00  0.00     0.058 A 
ATOM     52  C   UNL A   1      45.421  29.546  34.923  1.00  0.00     0.135 A 
ATOM     53  C   UNL A   1      43.211  29.076  35.622  1.00  0.00     0.135 A 
ATOM     54  F   UNL A   1      46.482  29.413  34.117  1.00  0.00    -0.206 F 
ATOM     55  C   UNL A   1      45.613  30.276  36.122  1.00  0.00     0.059 A 
ATOM     56  C   UNL A   1      43.353  29.838  36.779  1.00  0.00     0.059 A 
ATOM     57  F   UNL A   1      42.034  28.438  35.558  1.00  0.00    -0.206 F 
ATOM     58  C   UNL A   1      44.552  30.474  37.009  1.00  0.00     0.060 A 
BRANCH  58  59
ATOM     59  S   UNL A   1      44.659  31.660  38.373  1.00  0.00     0.124 S 
ATOM     60  O   UNL A   1      45.946  31.329  38.971  1.00  0.00    -0.237 OA
ATOM     61  O   UNL A   1      44.588  32.941  37.677  1.00  0.00    -0.237 OA
ATOM     62  O   UNL A   1      43.487  31.342  39.186  1.00  0.00    -0.744 OA
ENDBRANCH  58  59
ENDBRANCH  26  51
BRANCH  38  63
ATOM     63  C   UNL A   1      45.812  26.581  29.227  1.00  0.00     0.058 A 
ATOM     64  C   UNL A   1      47.160  26.973  29.139  1.00  0.00     0.135 A 
ATOM     65  C   UNL A   1      44.918  27.273  28.391  1.00  0.00     0.135 A 
ATOM     66  F   UNL A   1      48.081  26.366  29.904  1.00  0.00    -0.206 F 
ATOM     67  C   UNL A   1      47.592  27.982  28.275  1.00  0.00     0.059 A 
ATOM     68  C   UNL A   1      45.323  28.282  27.509  1.00  0.00     0.059 A 
ATOM     69  F   UNL A   1      43.612  26.992  28.415  1.00  0.00    -0.206 F 
ATOM     70  C   UNL A   1      46.668  28.630  27.456  1.00  0.00     0.060 A 
BRANCH  70  71
ATOM     71  S   UNL A   1      47.259  29.905  26.318  1.00  0.00     0.124 S 
ATOM     72  O   UNL A   1      46.953  31.137  27.037  1.00  0.00    -0.237 OA
ATOM     73  O   UNL A   1      48.677  29.578  26.203  1.00  0.00    -0.237 OA
ATOM     74  O   UNL A   1      46.471  29.682  25.107  1.00  0.00    -0.744 OA
ENDBRANCH  70  71
ENDBRANCH  38  63
ENDBRANCH  12  13
ENDBRANCH   5   7
ENDBRANCH   2   3
ENDBRANCH   1   2
BRANCH   1  75
ATOM     75  C   UNL A   1      32.168  29.780  26.022  1.00  0.00     0.118 C 
BRANCH  75  76
ATOM     76  N   UNL A   1      32.623  29.753  24.641  1.00  0.00    -0.351 N 
ATOM     77  C   UNL A   1      32.375  28.880  23.608  1.00  0.00     0.267 C 
ATOM     78  H   UNL A   1      33.218  30.500  24.401  1.00  0.00     0.163 HD
ATOM     79  O   UNL A   1      33.002  29.075  22.569  1.00  0.00    -0.268 OA
BRANCH  77  80
ATOM     80  C   UNL A   1      31.426  27.790  23.752  1.00  0.00     0.107 A 
ATOM     81  C   UNL A   1      30.046  27.804  23.588  1.00  0.00     0.033 A 
ATOM     82  N   UNL A   1      31.766  26.459  23.991  1.00  0.00    -0.334 N 
ATOM     83  C   UNL A   1      29.555  26.485  23.722  1.00  0.00     0.020 A 
ATOM     84  C   UNL A   1      30.641  25.669  23.935  1.00  0.00     0.087 A 
BRANCH  82  85
ATOM     85  C   UNL A   1      33.108  25.931  24.206  1.00  0.00     0.222 C 
BRANCH  85  86
ATOM     86  C   UNL A   1      33.740  25.027  23.149  1.00  0.00     0.242 C 
ATOM     87  O   UNL A   1      33.942  25.502  22.023  1.00  0.00    -0.273 OA
BRANCH  86  88
ATOM     88  N   UNL A   1      34.306  23.815  23.504  1.00  0.00    -0.341 N 
ATOM     89  C   UNL A   1      33.665  22.517  23.447  1.00  0.00     0.120 C 
ATOM     90  C   UNL A   1      35.696  23.749  23.955  1.00  0.00     0.123 C 
ATOM     91  C   UNL A   1      33.583  21.948  24.847  1.00  0.00     0.025 C 
ATOM     92  C   UNL A   1      35.750  23.143  25.380  1.00  0.00     0.012 C 
ATOM     93  C   UNL A   1      34.967  21.821  25.505  1.00  0.00    -0.005 C 
ATOM     94  C   UNL A   1      37.172  22.941  25.898  1.00  0.00     0.006 C 
ATOM     95  C   UNL A   1      35.687  20.575  24.965  1.00  0.00     0.004 C 
ATOM     96  C   UNL A   1      37.931  21.902  25.092  1.00  0.00     0.000 C 
ATOM     97  C   UNL A   1      37.212  20.564  24.972  1.00  0.00     0.000 C 
ENDBRANCH  86  88
ENDBRANCH  85  86
ENDBRANCH  82  85
ENDBRANCH  77  80
ENDBRANCH  75  76
ENDBRANCH   1  75
TORSDOF 16
ENDMDL
MODEL 3
REMARK VINA RESULT:     -12.5      3.267      8.999
REMARK SMILES O=C(NCCCNC(=O)c1cccn1CC(=O)N1CC[C@H]2CCCC[C@H]2C1)c1ccc(-c2c3nc(c(-c4c(F)cc(S(=O)(=O)[O-])cc4F)c4ccc([nH]4)c(-c4c(F)cc(S(=O)(=O)[O-])cc4F)c4nc(c(-c5c(F)cc(S(=O)(=O)[O-])cc5F)c5ccc2[nH]5)C=C4)C=C3)cc1
REMARK SMILES IDX 5 1 4 2 3 3 1 4 2 5 28 7 29 8 93 9 30 10 92 11 31 12 32 13
REMARK SMILES IDX 33 14 86 15 34 16 91 17 85 18 87 19 35 20 90 21 84 22 83 23
REMARK SMILES IDX 36 25 70 26 49 27 69 28 50 29 53 30 68 31 88 32 51 33 52 34
REMARK SMILES IDX 67 36 89 37 54 38 37 39 38 40 47 41 39 42 40 43 46 44 48 45
REMARK SMILES IDX 41 46 42 47 43 48 44 49 45 50 71 51 72 52 81 53 73 54 74 55
REMARK SMILES IDX 80 56 82 57 75 58 76 59 77 60 78 61 79 62 55 63 56 64 65 65
REMARK SMILES IDX 57 66 58 67 64 68 66 69 59 70 60 71 61 72 62 73 63 74 6 75
REMARK SMILES IDX 7 76 8 77 9 79 10 80 11 81 14 82 12 83 13 84 15 85 16 86
REMARK SMILES IDX 17 87 18 88 19 89 27 90 20 91 26 92 21 93 25 94 22 95 24 96
REMARK SMILES IDX 23 97
REMARK H PARENT 3 6 87 24 53 35 7 78
REMARK Flexibility Score: inf
ROOT
ATOM      1  C   UNL A   1      31.799  28.888  26.272  1.00  0.00     0.042 C 
ENDROOT
BRANCH   1   2
ATOM      2  C   UNL A   1      32.900  29.073  27.305  1.00  0.00     0.118 C 
BRANCH   2   3
ATOM      3  N   UNL A   1      33.113  30.423  27.770  1.00  0.00    -0.352 N 
ATOM      4  O   UNL A   1      34.104  32.360  28.202  1.00  0.00    -0.269 OA
ATOM      5  C   UNL A   1      34.244  31.146  28.053  1.00  0.00     0.251 C 
ATOM      6  H   UNL A   1      32.279  30.926  27.914  1.00  0.00     0.163 HD
BRANCH   5   7
ATOM      7  C   UNL A   1      35.588  30.543  28.273  1.00  0.00     0.039 A 
ATOM      8  C   UNL A   1      36.528  30.282  27.272  1.00  0.00     0.014 A 
ATOM      9  C   UNL A   1      35.927  30.256  29.609  1.00  0.00     0.014 A 
ATOM     10  C   UNL A   1      37.755  29.694  27.595  1.00  0.00     0.010 A 
ATOM     11  C   UNL A   1      37.157  29.682  29.939  1.00  0.00     0.010 A 
ATOM     12  C   UNL A   1      38.082  29.408  28.930  1.00  0.00    -0.014 A 
BRANCH  12  13
ATOM     13  C   UNL A   1      39.508  29.108  29.246  1.00  0.00     0.031 A 
ATOM     14  C   UNL A   1      40.253  30.413  29.659  1.00  0.00     0.074 A 
ATOM     15  C   UNL A   1      39.957  27.823  29.055  1.00  0.00     0.049 A 
ATOM     16  N   UNL A   1      41.485  30.772  29.471  1.00  0.00    -0.248 NA
ATOM     17  C   UNL A   1      39.482  31.526  30.293  1.00  0.00     0.031 C 
ATOM     18  C   UNL A   1      39.091  26.655  28.761  1.00  0.00     0.029 A 
ATOM     19  N   UNL A   1      41.205  27.216  29.070  1.00  0.00    -0.354 N 
ATOM     20  C   UNL A   1      41.689  32.012  30.136  1.00  0.00     0.074 A 
ATOM     21  C   UNL A   1      40.393  32.480  30.508  1.00  0.00     0.031 C 
ATOM     22  C   UNL A   1      39.826  25.538  28.541  1.00  0.00     0.029 A 
ATOM     23  C   UNL A   1      41.239  25.841  28.670  1.00  0.00     0.049 A 
ATOM     24  H   UNL A   1      42.018  27.702  29.339  1.00  0.00     0.167 HD
ATOM     25  C   UNL A   1      42.930  32.500  30.446  1.00  0.00     0.037 A 
ATOM     26  C   UNL A   1      42.323  25.027  28.424  1.00  0.00     0.037 A 
ATOM     27  C   UNL A   1      43.913  31.596  29.961  1.00  0.00     0.049 A 
ATOM     28  C   UNL A   1      43.476  25.823  28.851  1.00  0.00     0.074 A 
ATOM     29  C   UNL A   1      44.343  31.301  28.696  1.00  0.00     0.029 A 
ATOM     30  N   UNL A   1      44.310  30.608  30.829  1.00  0.00    -0.354 N 
ATOM     31  N   UNL A   1      43.812  26.025  30.088  1.00  0.00    -0.248 NA
ATOM     32  C   UNL A   1      44.285  26.494  27.825  1.00  0.00     0.031 C 
ATOM     33  C   UNL A   1      44.542  29.911  28.752  1.00  0.00     0.029 A 
ATOM     34  C   UNL A   1      44.489  29.475  30.083  1.00  0.00     0.049 A 
ATOM     35  H   UNL A   1      44.441  30.698  31.801  1.00  0.00     0.167 HD
ATOM     36  C   UNL A   1      44.639  27.111  29.980  1.00  0.00     0.074 A 
ATOM     37  C   UNL A   1      45.145  27.119  28.623  1.00  0.00     0.031 C 
ATOM     38  C   UNL A   1      44.393  28.200  30.749  1.00  0.00     0.037 A 
BRANCH  25  39
ATOM     39  C   UNL A   1      43.439  33.593  31.360  1.00  0.00     0.058 A 
ATOM     40  C   UNL A   1      43.249  33.423  32.761  1.00  0.00     0.135 A 
ATOM     41  C   UNL A   1      43.747  34.892  30.942  1.00  0.00     0.135 A 
ATOM     42  F   UNL A   1      43.035  32.205  33.285  1.00  0.00    -0.206 F 
ATOM     43  C   UNL A   1      43.190  34.489  33.650  1.00  0.00     0.059 A 
ATOM     44  C   UNL A   1      43.745  35.976  31.832  1.00  0.00     0.059 A 
ATOM     45  F   UNL A   1      43.986  35.163  29.652  1.00  0.00    -0.206 F 
ATOM     46  C   UNL A   1      43.402  35.772  33.168  1.00  0.00     0.060 A 
BRANCH  46  47
ATOM     47  S   UNL A   1      43.191  37.154  34.312  1.00  0.00     0.124 S 
ATOM     48  O   UNL A   1      41.880  36.870  34.884  1.00  0.00    -0.237 OA
ATOM     49  O   UNL A   1      44.325  36.981  35.217  1.00  0.00    -0.237 OA
ATOM     50  O   UNL A   1      43.267  38.322  33.443  1.00  0.00    -0.744 OA
ENDBRANCH  46  47
ENDBRANCH  25  39
BRANCH  26  51
ATOM     51  C   UNL A   1      42.695  23.674  27.810  1.00  0.00     0.058 A 
ATOM     52  C   UNL A   1      43.091  22.518  28.491  1.00  0.00     0.135 A 
ATOM     53  C   UNL A   1      42.527  23.469  26.401  1.00  0.00     0.135 A 
ATOM     54  F   UNL A   1      43.436  22.571  29.784  1.00  0.00    -0.206 F 
ATOM     55  C   UNL A   1      43.141  21.247  27.865  1.00  0.00     0.059 A 
ATOM     56  C   UNL A   1      42.509  22.226  25.774  1.00  0.00     0.059 A 
ATOM     57  F   UNL A   1      42.337  24.486  25.549  1.00  0.00    -0.206 F 
ATOM     58  C   UNL A   1      42.780  21.104  26.523  1.00  0.00     0.060 A 
BRANCH  58  59
ATOM     59  S   UNL A   1      42.513  19.476  25.777  1.00  0.00     0.124 S 
ATOM     60  O   UNL A   1      41.092  19.511  25.456  1.00  0.00    -0.237 OA
ATOM     61  O   UNL A   1      43.427  19.501  24.640  1.00  0.00    -0.237 OA
ATOM     62  O   UNL A   1      42.893  18.552  26.845  1.00  0.00    -0.744 OA
ENDBRANCH  58  59
ENDBRANCH  26  51
BRANCH  38  63
ATOM     63  C   UNL A   1      43.695  27.907  32.067  1.00  0.00     0.058 A 
ATOM     64  C   UNL A   1      44.373  27.176  33.058  1.00  0.00     0.135 A 
ATOM     65  C   UNL A   1      42.358  28.234  32.353  1.00  0.00     0.135 A 
ATOM     66  F   UNL A   1      45.653  26.819  32.865  1.00  0.00    -0.206 F 
ATOM     67  C   UNL A   1      43.765  26.798  34.258  1.00  0.00     0.059 A 
ATOM     68  C   UNL A   1      41.726  27.876  33.551  1.00  0.00     0.059 A 
ATOM     69  F   UNL A   1      41.619  28.907  31.468  1.00  0.00    -0.206 F 
ATOM     70  C   UNL A   1      42.440  27.157  34.502  1.00  0.00     0.060 A 
BRANCH  70  71
ATOM     71  S   UNL A   1      41.689  26.691  36.079  1.00  0.00     0.124 S 
ATOM     72  O   UNL A   1      42.843  26.264  36.864  1.00  0.00    -0.237 OA
ATOM     73  O   UNL A   1      41.067  27.942  36.502  1.00  0.00    -0.237 OA
ATOM     74  O   UNL A   1      40.757  25.625  35.719  1.00  0.00    -0.744 OA
ENDBRANCH  70  71
ENDBRANCH  38  63
ENDBRANCH  12  13
ENDBRANCH   5   7
ENDBRANCH   2   3
ENDBRANCH   1   2
BRANCH   1  75
ATOM     75  C   UNL A   1      31.769  27.570  25.498  1.00  0.00     0.118 C 
BRANCH  75  76
ATOM     76  N   UNL A   1      30.450  27.235  24.986  1.00  0.00    -0.351 N 
ATOM     77  C   UNL A   1      30.046  26.521  23.883  1.00  0.00     0.267 C 
ATOM     78  H   UNL A   1      29.708  27.583  25.531  1.00  0.00     0.163 HD
ATOM     79  O   UNL A   1      28.838  26.502  23.659  1.00  0.00    -0.268 OA
BRANCH  77  80
ATOM     80  C   UNL A   1      31.006  25.836  23.034  1.00  0.00     0.107 A 
ATOM     81  C   UNL A   1      31.704  26.320  21.935  1.00  0.00     0.033 A 
ATOM     82  N   UNL A   1      31.489  24.546  23.253  1.00  0.00    -0.334 N 
ATOM     83  C   UNL A   1      32.609  25.328  21.493  1.00  0.00     0.020 A 
ATOM     84  C   UNL A   1      32.482  24.257  22.345  1.00  0.00     0.087 A 
BRANCH  82  85
ATOM     85  C   UNL A   1      31.079  23.633  24.313  1.00  0.00     0.222 C 
BRANCH  85  86
ATOM     86  C   UNL A   1      32.021  22.511  24.746  1.00  0.00     0.242 C 
ATOM     87  O   UNL A   1      31.715  21.348  24.448  1.00  0.00    -0.273 OA
BRANCH  86  88
ATOM     88  N   UNL A   1      33.290  22.797  25.216  1.00  0.00    -0.341 N 
ATOM     89  C   UNL A   1      33.631  23.771  26.234  1.00  0.00     0.120 C 
ATOM     90  C   UNL A   1      34.451  22.062  24.714  1.00  0.00     0.123 C 
ATOM     91  C   UNL A   1      34.517  24.833  25.620  1.00  0.00     0.025 C 
ATOM     92  C   UNL A   1      35.461  23.055  24.085  1.00  0.00     0.012 C 
ATOM     93  C   UNL A   1      35.799  24.241  25.011  1.00  0.00    -0.005 C 
ATOM     94  C   UNL A   1      36.755  22.390  23.621  1.00  0.00     0.006 C 
ATOM     95  C   UNL A   1      36.813  23.939  26.126  1.00  0.00     0.004 C 
ATOM     96  C   UNL A   1      37.556  21.828  24.783  1.00  0.00     0.000 C 
ATOM     97  C   UNL A   1      37.843  22.840  25.885  1.00  0.00     0.000 C 
ENDBRANCH  86  88
ENDBRANCH  85  86
ENDBRANCH  82  85
ENDBRANCH  77  80
ENDBRANCH  75  76
ENDBRANCH   1  75
TORSDOF 16
ENDMDL
