MODEL 1
REMARK VINA RESULT:     -10.3      0.000      0.000
REMARK SMILES C=CCc1cccc(-c2ccc([C@@H](C)C(=O)NCCCNC(=O)c3ccc(-c4c5nc(c(-c6c(F)cc(S(=O)(=O)[O-])cc6F)c6ccc([nH]6)c(-c6c(F)cc(S(=O)(=O)[O-])cc6F)c6nc(c(-c7c(F)cc(S(=O)(=O)[O-])cc7F)c7ccc4[nH]7)C=C6)C=C5)cc3)cc2)c1
REMARK SMILES IDX 18 1 17 2 15 3 16 4 13 6 14 7 12 8 9 9 10 10 91 11 11 12
REMARK SMILES IDX 90 13 8 14 4 15 5 16 92 17 6 18 7 19 3 20 2 21 1 22 19 23
REMARK SMILES IDX 20 24 21 25 22 26 23 28 24 29 25 30 89 31 26 32 88 33 27 34
REMARK SMILES IDX 28 35 29 36 82 37 30 38 87 39 81 40 83 41 31 42 86 43 80 44
REMARK SMILES IDX 79 45 32 47 66 48 45 49 65 50 46 51 49 52 64 53 84 54 47 55
REMARK SMILES IDX 48 56 63 58 85 59 50 60 33 61 34 62 43 63 35 64 36 65 42 66
REMARK SMILES IDX 44 67 37 68 38 69 39 70 40 71 41 72 67 73 68 74 77 75 69 76
REMARK SMILES IDX 70 77 76 78 78 79 71 80 72 81 73 82 74 83 75 84 51 85 52 86
REMARK SMILES IDX 61 87 53 88 54 89 60 90 62 91 55 92 56 93 57 94 58 95 59 96
REMARK H PARENT 17 5 21 27 83 46 49 57
REMARK Flexibility Score: inf
ROOT
ATOM      1  C   UNL A   1      33.194  34.597  28.851  1.00  0.00     0.117 C 
ENDROOT
BRANCH   1   2
ATOM      2  N   UNL A   1      33.161  35.931  29.415  1.00  0.00    -0.356 N 
ATOM      3  C   UNL A   1      32.924  36.378  30.678  1.00  0.00     0.227 C 
ATOM      4  O   UNL A   1      32.922  37.606  30.833  1.00  0.00    -0.274 OA
ATOM      5  H   UNL A   1      33.343  36.647  28.763  1.00  0.00     0.163 HD
BRANCH   3   6
ATOM      6  C   UNL A   1      32.687  35.458  31.886  1.00  0.00     0.105 C 
ATOM      7  C   UNL A   1      31.743  36.034  32.941  1.00  0.00     0.023 C 
BRANCH   6   8
ATOM      8  C   UNL A   1      33.955  34.808  32.414  1.00  0.00    -0.036 A 
ATOM      9  C   UNL A   1      36.364  33.490  33.226  1.00  0.00    -0.018 A 
ATOM     10  C   UNL A   1      36.285  34.887  33.112  1.00  0.00     0.009 A 
ATOM     11  C   UNL A   1      35.189  32.770  32.959  1.00  0.00     0.009 A 
ATOM     12  C   UNL A   1      35.098  35.535  32.748  1.00  0.00     0.005 A 
ATOM     13  C   UNL A   1      34.014  33.412  32.542  1.00  0.00     0.005 A 
BRANCH   9  14
ATOM     14  C   UNL A   1      37.637  32.819  33.589  1.00  0.00    -0.018 A 
ATOM     15  C   UNL A   1      39.116  30.850  33.544  1.00  0.00    -0.044 A 
ATOM     16  C   UNL A   1      40.113  31.583  34.195  1.00  0.00     0.004 A 
ATOM     17  C   UNL A   1      37.896  31.481  33.236  1.00  0.00     0.012 A 
ATOM     18  C   UNL A   1      39.881  32.905  34.563  1.00  0.00     0.001 A 
ATOM     19  C   UNL A   1      38.655  33.508  34.274  1.00  0.00     0.009 A 
BRANCH  15  20
ATOM     20  C   UNL A   1      39.363  29.412  33.151  1.00  0.00     0.062 C 
BRANCH  20  21
ATOM     21  C   UNL A   1      40.722  28.923  33.560  1.00  0.00    -0.030 C 
ATOM     22  C   UNL A   1      41.450  28.041  32.862  1.00  0.00     0.004 C 
ENDBRANCH  20  21
ENDBRANCH  15  20
ENDBRANCH   9  14
ENDBRANCH   6   8
ENDBRANCH   3   6
ENDBRANCH   1   2
BRANCH   1  23
ATOM     23  C   UNL A   1      34.531  33.899  29.080  1.00  0.00     0.042 C 
BRANCH  23  24
ATOM     24  C   UNL A   1      34.948  32.973  27.945  1.00  0.00     0.118 C 
BRANCH  24  25
ATOM     25  N   UNL A   1      34.142  31.762  27.899  1.00  0.00    -0.352 N 
ATOM     26  C   UNL A   1      34.512  30.440  27.879  1.00  0.00     0.251 C 
ATOM     27  H   UNL A   1      33.169  31.917  27.876  1.00  0.00     0.163 HD
ATOM     28  O   UNL A   1      33.660  29.594  27.617  1.00  0.00    -0.269 OA
BRANCH  26  29
ATOM     29  C   UNL A   1      35.906  30.020  28.162  1.00  0.00     0.039 A 
ATOM     30  C   UNL A   1      36.224  29.572  29.449  1.00  0.00     0.014 A 
ATOM     31  C   UNL A   1      36.917  30.132  27.204  1.00  0.00     0.014 A 
ATOM     32  C   UNL A   1      37.539  29.212  29.763  1.00  0.00     0.010 A 
ATOM     33  C   UNL A   1      38.207  29.690  27.490  1.00  0.00     0.010 A 
ATOM     34  C   UNL A   1      38.539  29.253  28.780  1.00  0.00    -0.014 A 
BRANCH  34  35
ATOM     35  C   UNL A   1      39.951  28.910  29.095  1.00  0.00     0.031 A 
ATOM     36  C   UNL A   1      40.838  29.931  29.763  1.00  0.00     0.074 A 
ATOM     37  C   UNL A   1      40.450  27.711  28.737  1.00  0.00     0.049 A 
ATOM     38  N   UNL A   1      42.114  29.863  30.045  1.00  0.00    -0.248 NA
ATOM     39  C   UNL A   1      40.213  31.212  30.132  1.00  0.00     0.031 C 
ATOM     40  C   UNL A   1      39.707  26.656  28.046  1.00  0.00     0.029 A 
ATOM     41  N   UNL A   1      41.707  27.181  28.896  1.00  0.00    -0.354 N 
ATOM     42  C   UNL A   1      42.447  31.094  30.597  1.00  0.00     0.074 A 
ATOM     43  C   UNL A   1      41.253  31.910  30.563  1.00  0.00     0.031 C 
ATOM     44  C   UNL A   1      40.515  25.599  27.858  1.00  0.00     0.029 A 
ATOM     45  C   UNL A   1      41.840  25.912  28.383  1.00  0.00     0.049 A 
ATOM     46  H   UNL A   1      42.444  27.664  29.335  1.00  0.00     0.167 HD
ATOM     47  C   UNL A   1      43.633  31.503  31.110  1.00  0.00     0.037 A 
ATOM     48  C   UNL A   1      42.911  25.096  28.338  1.00  0.00     0.037 A 
ATOM     49  C   UNL A   1      44.805  30.671  31.181  1.00  0.00     0.049 A 
ATOM     50  C   UNL A   1      44.210  25.558  28.944  1.00  0.00     0.074 A 
ATOM     51  C   UNL A   1      46.039  30.966  31.732  1.00  0.00     0.029 A 
ATOM     52  N   UNL A   1      44.885  29.374  30.694  1.00  0.00    -0.354 N 
ATOM     53  N   UNL A   1      44.493  26.709  29.507  1.00  0.00    -0.248 NA
ATOM     54  C   UNL A   1      45.330  24.607  28.919  1.00  0.00     0.031 C 
ATOM     55  C   UNL A   1      46.876  29.860  31.550  1.00  0.00     0.029 A 
ATOM     56  C   UNL A   1      46.149  28.859  30.924  1.00  0.00     0.049 A 
ATOM     57  H   UNL A   1      44.151  28.892  30.249  1.00  0.00     0.167 HD
ATOM     58  C   UNL A   1      45.814  26.609  29.932  1.00  0.00     0.074 A 
ATOM     59  C   UNL A   1      46.270  25.283  29.568  1.00  0.00     0.031 C 
ATOM     60  C   UNL A   1      46.578  27.529  30.569  1.00  0.00     0.037 A 
BRANCH  47  61
ATOM     61  C   UNL A   1      43.716  32.907  31.642  1.00  0.00     0.058 A 
ATOM     62  C   UNL A   1      43.973  34.002  30.800  1.00  0.00     0.135 A 
ATOM     63  C   UNL A   1      43.514  33.169  33.007  1.00  0.00     0.135 A 
ATOM     64  F   UNL A   1      44.189  33.809  29.489  1.00  0.00    -0.206 F 
ATOM     65  C   UNL A   1      44.061  35.299  31.295  1.00  0.00     0.059 A 
ATOM     66  C   UNL A   1      43.569  34.462  33.520  1.00  0.00     0.059 A 
ATOM     67  F   UNL A   1      43.265  32.161  33.859  1.00  0.00    -0.206 F 
ATOM     68  C   UNL A   1      43.861  35.518  32.658  1.00  0.00     0.060 A 
BRANCH  68  69
ATOM     69  S   UNL A   1      43.981  37.206  33.287  1.00  0.00     0.124 S 
ATOM     70  O   UNL A   1      45.162  37.115  34.141  1.00  0.00    -0.237 OA
ATOM     71  O   UNL A   1      44.143  37.985  32.064  1.00  0.00    -0.237 OA
ATOM     72  O   UNL A   1      42.715  37.399  33.986  1.00  0.00    -0.744 OA
ENDBRANCH  68  69
ENDBRANCH  47  61
BRANCH  48  73
ATOM     73  C   UNL A   1      42.790  23.745  27.728  1.00  0.00     0.058 A 
ATOM     74  C   UNL A   1      42.960  23.561  26.348  1.00  0.00     0.135 A 
ATOM     75  C   UNL A   1      42.523  22.611  28.511  1.00  0.00     0.135 A 
ATOM     76  F   UNL A   1      43.212  24.615  25.557  1.00  0.00    -0.206 F 
ATOM     77  C   UNL A   1      42.850  22.304  25.762  1.00  0.00     0.059 A 
ATOM     78  C   UNL A   1      42.434  21.341  27.951  1.00  0.00     0.059 A 
ATOM     79  F   UNL A   1      42.370  22.732  29.838  1.00  0.00    -0.206 F 
ATOM     80  C   UNL A   1      42.590  21.199  26.573  1.00  0.00     0.060 A 
BRANCH  80  81
ATOM     81  S   UNL A   1      42.498  19.565  25.808  1.00  0.00     0.124 S 
ATOM     82  O   UNL A   1      42.904  18.701  26.912  1.00  0.00    -0.237 OA
ATOM     83  O   UNL A   1      41.094  19.485  25.418  1.00  0.00    -0.237 OA
ATOM     84  O   UNL A   1      43.443  19.660  24.699  1.00  0.00    -0.744 OA
ENDBRANCH  80  81
ENDBRANCH  48  73
BRANCH  60  85
ATOM     85  C   UNL A   1      47.971  27.122  30.960  1.00  0.00     0.058 A 
ATOM     86  C   UNL A   1      48.222  26.350  32.105  1.00  0.00     0.135 A 
ATOM     87  C   UNL A   1      49.063  27.465  30.147  1.00  0.00     0.135 A 
ATOM     88  F   UNL A   1      47.212  26.001  32.918  1.00  0.00    -0.206 F 
ATOM     89  C   UNL A   1      49.511  25.952  32.443  1.00  0.00     0.059 A 
ATOM     90  C   UNL A   1      50.357  27.056  30.451  1.00  0.00     0.059 A 
ATOM     91  F   UNL A   1      48.875  28.192  29.033  1.00  0.00    -0.206 F 
ATOM     92  C   UNL A   1      50.572  26.309  31.609  1.00  0.00     0.060 A 
BRANCH  92  93
ATOM     93  S   UNL A   1      52.237  25.761  32.040  1.00  0.00     0.124 S 
ATOM     94  O   UNL A   1      52.906  25.805  30.745  1.00  0.00    -0.237 OA
ATOM     95  O   UNL A   1      52.660  26.771  33.006  1.00  0.00    -0.237 OA
ATOM     96  O   UNL A   1      52.022  24.426  32.592  1.00  0.00    -0.744 OA
ENDBRANCH  92  93
ENDBRANCH  60  85
ENDBRANCH  34  35
ENDBRANCH  26  29
ENDBRANCH  24  25
ENDBRANCH  23  24
ENDBRANCH   1  23
TORSDOF 17
ENDMDL
MODEL 2
REMARK VINA RESULT:     -10.2      4.224      7.039
REMARK SMILES C=CCc1cccc(-c2ccc([C@@H](C)C(=O)NCCCNC(=O)c3ccc(-c4c5nc(c(-c6c(F)cc(S(=O)(=O)[O-])cc6F)c6ccc([nH]6)c(-c6c(F)cc(S(=O)(=O)[O-])cc6F)c6nc(c(-c7c(F)cc(S(=O)(=O)[O-])cc7F)c7ccc4[nH]7)C=C6)C=C5)cc3)cc2)c1
REMARK SMILES IDX 18 1 17 2 15 3 16 4 13 6 14 7 12 8 9 9 10 10 91 11 11 12
REMARK SMILES IDX 90 13 8 14 4 15 5 16 92 17 6 18 7 19 3 20 2 21 1 22 19 23
REMARK SMILES IDX 20 24 21 25 22 26 23 28 24 29 25 30 89 31 26 32 88 33 27 34
REMARK SMILES IDX 28 35 29 36 82 37 30 38 87 39 81 40 83 41 31 42 86 43 80 44
REMARK SMILES IDX 79 45 32 47 66 48 45 49 65 50 46 51 49 52 64 53 84 54 47 55
REMARK SMILES IDX 48 56 63 58 85 59 50 60 33 61 34 62 43 63 35 64 36 65 42 66
REMARK SMILES IDX 44 67 37 68 38 69 39 70 40 71 41 72 67 73 68 74 77 75 69 76
REMARK SMILES IDX 70 77 76 78 78 79 71 80 72 81 73 82 74 83 75 84 51 85 52 86
REMARK SMILES IDX 61 87 53 88 54 89 60 90 62 91 55 92 56 93 57 94 58 95 59 96
REMARK H PARENT 17 5 21 27 83 46 49 57
REMARK Flexibility Score: inf
ROOT
ATOM      1  C   UNL A   1      33.168  30.342  27.143  1.00  0.00     0.117 C 
ENDROOT
BRANCH   1   2
ATOM      2  N   UNL A   1      32.273  29.315  27.637  1.00  0.00    -0.356 N 
ATOM      3  C   UNL A   1      31.777  28.188  27.059  1.00  0.00     0.227 C 
ATOM      4  O   UNL A   1      30.982  27.527  27.741  1.00  0.00    -0.274 OA
ATOM      5  H   UNL A   1      31.968  29.460  28.562  1.00  0.00     0.163 HD
BRANCH   3   6
ATOM      6  C   UNL A   1      32.158  27.702  25.652  1.00  0.00     0.105 C 
ATOM      7  C   UNL A   1      31.070  27.905  24.598  1.00  0.00     0.023 C 
BRANCH   6   8
ATOM      8  C   UNL A   1      32.847  26.348  25.642  1.00  0.00    -0.036 A 
ATOM      9  C   UNL A   1      34.042  23.752  25.450  1.00  0.00    -0.018 A 
ATOM     10  C   UNL A   1      34.801  24.928  25.339  1.00  0.00     0.009 A 
ATOM     11  C   UNL A   1      32.670  23.910  25.700  1.00  0.00     0.009 A 
ATOM     12  C   UNL A   1      34.224  26.197  25.467  1.00  0.00     0.005 A 
ATOM     13  C   UNL A   1      32.080  25.181  25.773  1.00  0.00     0.005 A 
BRANCH   9  14
ATOM     14  C   UNL A   1      34.667  22.416  25.288  1.00  0.00    -0.018 A 
ATOM     15  C   UNL A   1      34.479  19.986  24.930  1.00  0.00    -0.044 A 
ATOM     16  C   UNL A   1      35.872  19.886  24.873  1.00  0.00     0.004 A 
ATOM     17  C   UNL A   1      33.892  21.252  25.122  1.00  0.00     0.012 A 
ATOM     18  C   UNL A   1      36.662  21.019  25.042  1.00  0.00     0.001 A 
ATOM     19  C   UNL A   1      36.065  22.263  25.259  1.00  0.00     0.009 A 
BRANCH  15  20
ATOM     20  C   UNL A   1      33.620  18.755  24.754  1.00  0.00     0.062 C 
BRANCH  20  21
ATOM     21  C   UNL A   1      34.382  17.591  24.193  1.00  0.00    -0.030 C 
ATOM     22  C   UNL A   1      34.107  16.999  23.023  1.00  0.00     0.004 C 
ENDBRANCH  20  21
ENDBRANCH  15  20
ENDBRANCH   9  14
ENDBRANCH   6   8
ENDBRANCH   3   6
ENDBRANCH   1   2
BRANCH   1  23
ATOM     23  C   UNL A   1      34.634  29.929  27.227  1.00  0.00     0.042 C 
BRANCH  23  24
ATOM     24  C   UNL A   1      35.526  30.950  27.922  1.00  0.00     0.118 C 
BRANCH  24  25
ATOM     25  N   UNL A   1      35.460  30.840  29.372  1.00  0.00    -0.352 N 
ATOM     26  C   UNL A   1      36.360  30.325  30.272  1.00  0.00     0.251 C 
ATOM     27  H   UNL A   1      34.633  31.192  29.774  1.00  0.00     0.163 HD
ATOM     28  O   UNL A   1      35.994  30.139  31.430  1.00  0.00    -0.269 OA
BRANCH  26  29
ATOM     29  C   UNL A   1      37.749  29.989  29.876  1.00  0.00     0.039 A 
ATOM     30  C   UNL A   1      38.033  29.800  28.519  1.00  0.00     0.014 A 
ATOM     31  C   UNL A   1      38.756  29.784  30.824  1.00  0.00     0.014 A 
ATOM     32  C   UNL A   1      39.322  29.437  28.114  1.00  0.00     0.010 A 
ATOM     33  C   UNL A   1      40.059  29.511  30.414  1.00  0.00     0.010 A 
ATOM     34  C   UNL A   1      40.351  29.305  29.059  1.00  0.00    -0.014 A 
BRANCH  34  35
ATOM     35  C   UNL A   1      41.721  28.886  28.661  1.00  0.00     0.031 A 
ATOM     36  C   UNL A   1      42.827  29.908  28.596  1.00  0.00     0.074 A 
ATOM     37  C   UNL A   1      41.959  27.608  28.307  1.00  0.00     0.049 A 
ATOM     38  N   UNL A   1      44.064  29.767  28.193  1.00  0.00    -0.248 NA
ATOM     39  C   UNL A   1      42.488  31.279  29.010  1.00  0.00     0.031 C 
ATOM     40  C   UNL A   1      40.963  26.535  28.283  1.00  0.00     0.029 A 
ATOM     41  N   UNL A   1      43.114  26.995  27.887  1.00  0.00    -0.354 N 
ATOM     42  C   UNL A   1      44.638  31.030  28.279  1.00  0.00     0.074 A 
ATOM     43  C   UNL A   1      43.602  31.936  28.723  1.00  0.00     0.031 C 
ATOM     44  C   UNL A   1      41.553  25.394  27.891  1.00  0.00     0.029 A 
ATOM     45  C   UNL A   1      42.959  25.659  27.603  1.00  0.00     0.049 A 
ATOM     46  H   UNL A   1      43.973  27.468  27.799  1.00  0.00     0.167 HD
ATOM     47  C   UNL A   1      45.918  31.400  28.036  1.00  0.00     0.037 A 
ATOM     48  C   UNL A   1      43.850  24.752  27.156  1.00  0.00     0.037 A 
ATOM     49  C   UNL A   1      46.956  30.485  27.637  1.00  0.00     0.049 A 
ATOM     50  C   UNL A   1      45.275  25.178  26.923  1.00  0.00     0.074 A 
ATOM     51  C   UNL A   1      48.297  30.744  27.420  1.00  0.00     0.029 A 
ATOM     52  N   UNL A   1      46.768  29.130  27.405  1.00  0.00    -0.354 N 
ATOM     53  N   UNL A   1      45.812  26.368  27.058  1.00  0.00    -0.248 NA
ATOM     54  C   UNL A   1      46.217  24.137  26.491  1.00  0.00     0.031 C 
ATOM     55  C   UNL A   1      48.915  29.553  27.027  1.00  0.00     0.029 A 
ATOM     56  C   UNL A   1      47.967  28.542  27.041  1.00  0.00     0.049 A 
ATOM     57  H   UNL A   1      45.909  28.656  27.488  1.00  0.00     0.167 HD
ATOM     58  C   UNL A   1      47.161  26.211  26.757  1.00  0.00     0.074 A 
ATOM     59  C   UNL A   1      47.359  24.811  26.442  1.00  0.00     0.031 C 
ATOM     60  C   UNL A   1      48.147  27.142  26.747  1.00  0.00     0.037 A 
BRANCH  47  61
ATOM     61  C   UNL A   1      46.269  32.853  28.203  1.00  0.00     0.058 A 
ATOM     62  C   UNL A   1      46.785  33.354  29.409  1.00  0.00     0.135 A 
ATOM     63  C   UNL A   1      46.108  33.755  27.139  1.00  0.00     0.135 A 
ATOM     64  F   UNL A   1      46.944  32.540  30.465  1.00  0.00    -0.206 F 
ATOM     65  C   UNL A   1      47.097  34.700  29.566  1.00  0.00     0.059 A 
ATOM     66  C   UNL A   1      46.441  35.101  27.263  1.00  0.00     0.059 A 
ATOM     67  F   UNL A   1      45.619  33.332  25.962  1.00  0.00    -0.206 F 
ATOM     68  C   UNL A   1      46.918  35.567  28.487  1.00  0.00     0.060 A 
BRANCH  68  69
ATOM     69  S   UNL A   1      47.325  37.313  28.707  1.00  0.00     0.124 S 
ATOM     70  O   UNL A   1      46.014  37.937  28.564  1.00  0.00    -0.237 OA
ATOM     71  O   UNL A   1      47.895  37.335  30.051  1.00  0.00    -0.237 OA
ATOM     72  O   UNL A   1      48.269  37.579  27.626  1.00  0.00    -0.744 OA
ENDBRANCH  68  69
ENDBRANCH  47  61
BRANCH  48  73
ATOM     73  C   UNL A   1      43.427  23.344  26.932  1.00  0.00     0.058 A 
ATOM     74  C   UNL A   1      43.274  22.836  25.634  1.00  0.00     0.135 A 
ATOM     75  C   UNL A   1      43.186  22.474  28.007  1.00  0.00     0.135 A 
ATOM     76  F   UNL A   1      43.488  23.629  24.574  1.00  0.00    -0.206 F 
ATOM     77  C   UNL A   1      42.879  21.521  25.408  1.00  0.00     0.059 A 
ATOM     78  C   UNL A   1      42.815  21.149  27.806  1.00  0.00     0.059 A 
ATOM     79  F   UNL A   1      43.336  22.907  29.268  1.00  0.00    -0.206 F 
ATOM     80  C   UNL A   1      42.655  20.683  26.501  1.00  0.00     0.060 A 
BRANCH  80  81
ATOM     81  S   UNL A   1      42.191  18.965  26.197  1.00  0.00     0.124 S 
ATOM     82  O   UNL A   1      43.095  18.604  25.110  1.00  0.00    -0.237 OA
ATOM     83  O   UNL A   1      42.462  18.339  27.487  1.00  0.00    -0.237 OA
ATOM     84  O   UNL A   1      40.778  19.057  25.840  1.00  0.00    -0.744 OA
ENDBRANCH  80  81
ENDBRANCH  48  73
BRANCH  60  85
ATOM     85  C   UNL A   1      49.539  26.671  26.434  1.00  0.00     0.058 A 
ATOM     86  C   UNL A   1      50.371  26.116  27.417  1.00  0.00     0.135 A 
ATOM     87  C   UNL A   1      50.026  26.729  25.118  1.00  0.00     0.135 A 
ATOM     88  F   UNL A   1      49.955  26.043  28.692  1.00  0.00    -0.206 F 
ATOM     89  C   UNL A   1      51.648  25.656  27.112  1.00  0.00     0.059 A 
ATOM     90  C   UNL A   1      51.289  26.251  24.785  1.00  0.00     0.059 A 
ATOM     91  F   UNL A   1      49.264  27.241  24.137  1.00  0.00    -0.206 F 
ATOM     92  C   UNL A   1      52.098  25.727  25.792  1.00  0.00     0.060 A 
BRANCH  92  93
ATOM     93  S   UNL A   1      53.744  25.098  25.401  1.00  0.00     0.124 S 
ATOM     94  O   UNL A   1      53.509  23.658  25.375  1.00  0.00    -0.237 OA
ATOM     95  O   UNL A   1      54.019  25.718  24.109  1.00  0.00    -0.237 OA
ATOM     96  O   UNL A   1      54.564  25.581  26.508  1.00  0.00    -0.744 OA
ENDBRANCH  92  93
ENDBRANCH  60  85
ENDBRANCH  34  35
ENDBRANCH  26  29
ENDBRANCH  24  25
ENDBRANCH  23  24
ENDBRANCH   1  23
TORSDOF 17
ENDMDL
MODEL 3
REMARK VINA RESULT:     -10.2      3.229     11.150
REMARK SMILES C=CCc1cccc(-c2ccc([C@@H](C)C(=O)NCCCNC(=O)c3ccc(-c4c5nc(c(-c6c(F)cc(S(=O)(=O)[O-])cc6F)c6ccc([nH]6)c(-c6c(F)cc(S(=O)(=O)[O-])cc6F)c6nc(c(-c7c(F)cc(S(=O)(=O)[O-])cc7F)c7ccc4[nH]7)C=C6)C=C5)cc3)cc2)c1
REMARK SMILES IDX 18 1 17 2 15 3 16 4 13 6 14 7 12 8 9 9 10 10 91 11 11 12
REMARK SMILES IDX 90 13 8 14 4 15 5 16 92 17 6 18 7 19 3 20 2 21 1 22 19 23
REMARK SMILES IDX 20 24 21 25 22 26 23 28 24 29 25 30 89 31 26 32 88 33 27 34
REMARK SMILES IDX 28 35 29 36 82 37 30 38 87 39 81 40 83 41 31 42 86 43 80 44
REMARK SMILES IDX 79 45 32 47 66 48 45 49 65 50 46 51 49 52 64 53 84 54 47 55
REMARK SMILES IDX 48 56 63 58 85 59 50 60 33 61 34 62 43 63 35 64 36 65 42 66
REMARK SMILES IDX 44 67 37 68 38 69 39 70 40 71 41 72 67 73 68 74 77 75 69 76
REMARK SMILES IDX 70 77 76 78 78 79 71 80 72 81 73 82 74 83 75 84 51 85 52 86
REMARK SMILES IDX 61 87 53 88 54 89 60 90 62 91 55 92 56 93 57 94 58 95 59 96
REMARK H PARENT 17 5 21 27 83 46 49 57
REMARK Flexibility Score: inf
ROOT
ATOM      1  C   UNL A   1      42.322  19.713  26.746  1.00  0.00     0.117 C 
ENDROOT
BRANCH   1   2
ATOM      2  N   UNL A   1      43.426  20.046  25.869  1.00  0.00    -0.356 N 
ATOM      3  C   UNL A   1      43.885  21.238  25.399  1.00  0.00     0.227 C 
ATOM      4  O   UNL A   1      44.840  21.184  24.613  1.00  0.00    -0.274 OA
ATOM      5  H   UNL A   1      43.938  19.266  25.553  1.00  0.00     0.163 HD
BRANCH   3   6
ATOM      6  C   UNL A   1      43.304  22.602  25.800  1.00  0.00     0.105 C 
ATOM      7  C   UNL A   1      43.518  23.708  24.766  1.00  0.00     0.023 C 
BRANCH   6   8
ATOM      8  C   UNL A   1      43.585  22.982  27.245  1.00  0.00    -0.036 A 
ATOM      9  C   UNL A   1      44.173  23.882  29.899  1.00  0.00    -0.018 A 
ATOM     10  C   UNL A   1      42.867  23.556  29.498  1.00  0.00     0.009 A 
ATOM     11  C   UNL A   1      45.186  23.708  28.943  1.00  0.00     0.009 A 
ATOM     12  C   UNL A   1      42.584  23.083  28.212  1.00  0.00     0.005 A 
ATOM     13  C   UNL A   1      44.897  23.287  27.637  1.00  0.00     0.005 A 
BRANCH   9  14
ATOM     14  C   UNL A   1      44.451  24.406  31.260  1.00  0.00    -0.018 A 
ATOM     15  C   UNL A   1      45.050  26.260  32.766  1.00  0.00    -0.044 A 
ATOM     16  C   UNL A   1      44.876  25.420  33.870  1.00  0.00     0.004 A 
ATOM     17  C   UNL A   1      44.822  25.747  31.475  1.00  0.00     0.012 A 
ATOM     18  C   UNL A   1      44.519  24.088  33.686  1.00  0.00     0.001 A 
ATOM     19  C   UNL A   1      44.322  23.587  32.396  1.00  0.00     0.009 A 
BRANCH  15  20
ATOM     20  C   UNL A   1      45.446  27.705  32.964  1.00  0.00     0.062 C 
BRANCH  20  21
ATOM     21  C   UNL A   1      44.604  28.653  32.163  1.00  0.00    -0.030 C 
ATOM     22  C   UNL A   1      44.172  29.841  32.607  1.00  0.00     0.004 C 
ENDBRANCH  20  21
ENDBRANCH  15  20
ENDBRANCH   9  14
ENDBRANCH   6   8
ENDBRANCH   3   6
ENDBRANCH   1   2
BRANCH   1  23
ATOM     23  C   UNL A   1      40.969  20.088  26.152  1.00  0.00     0.042 C 
BRANCH  23  24
ATOM     24  C   UNL A   1      40.229  21.168  26.931  1.00  0.00     0.118 C 
BRANCH  24  25
ATOM     25  N   UNL A   1      39.046  21.640  26.227  1.00  0.00    -0.352 N 
ATOM     26  C   UNL A   1      38.482  22.890  26.162  1.00  0.00     0.251 C 
ATOM     27  H   UNL A   1      38.570  20.947  25.713  1.00  0.00     0.163 HD
ATOM     28  O   UNL A   1      37.356  23.004  25.683  1.00  0.00    -0.269 OA
BRANCH  26  29
ATOM     29  C   UNL A   1      39.196  24.091  26.658  1.00  0.00     0.039 A 
ATOM     30  C   UNL A   1      39.034  24.464  27.997  1.00  0.00     0.014 A 
ATOM     31  C   UNL A   1      39.960  24.896  25.808  1.00  0.00     0.014 A 
ATOM     32  C   UNL A   1      39.657  25.617  28.486  1.00  0.00     0.010 A 
ATOM     33  C   UNL A   1      40.652  25.994  26.317  1.00  0.00     0.010 A 
ATOM     34  C   UNL A   1      40.485  26.384  27.653  1.00  0.00    -0.014 A 
BRANCH  34  35
ATOM     35  C   UNL A   1      41.129  27.633  28.136  1.00  0.00     0.031 A 
ATOM     36  C   UNL A   1      42.630  27.769  28.085  1.00  0.00     0.074 A 
ATOM     37  C   UNL A   1      40.379  28.617  28.668  1.00  0.00     0.049 A 
ATOM     38  N   UNL A   1      43.391  28.734  28.532  1.00  0.00    -0.248 NA
ATOM     39  C   UNL A   1      43.377  26.654  27.478  1.00  0.00     0.031 C 
ATOM     40  C   UNL A   1      38.922  28.587  28.816  1.00  0.00     0.029 A 
ATOM     41  N   UNL A   1      40.739  29.833  29.194  1.00  0.00    -0.354 N 
ATOM     42  C   UNL A   1      44.699  28.332  28.286  1.00  0.00     0.074 A 
ATOM     43  C   UNL A   1      44.632  27.013  27.699  1.00  0.00     0.031 C 
ATOM     44  C   UNL A   1      38.512  29.738  29.375  1.00  0.00     0.029 A 
ATOM     45  C   UNL A   1      39.676  30.572  29.656  1.00  0.00     0.049 A 
ATOM     46  H   UNL A   1      41.672  30.147  29.237  1.00  0.00     0.167 HD
ATOM     47  C   UNL A   1      45.852  29.010  28.507  1.00  0.00     0.037 A 
ATOM     48  C   UNL A   1      39.645  31.784  30.244  1.00  0.00     0.037 A 
ATOM     49  C   UNL A   1      45.909  30.341  29.051  1.00  0.00     0.049 A 
ATOM     50  C   UNL A   1      40.934  32.533  30.449  1.00  0.00     0.074 A 
ATOM     51  C   UNL A   1      47.018  31.140  29.262  1.00  0.00     0.029 A 
ATOM     52  N   UNL A   1      44.805  31.075  29.463  1.00  0.00    -0.354 N 
ATOM     53  N   UNL A   1      42.159  32.157  30.165  1.00  0.00    -0.248 NA
ATOM     54  C   UNL A   1      40.838  33.874  31.042  1.00  0.00     0.031 C 
ATOM     55  C   UNL A   1      46.590  32.344  29.829  1.00  0.00     0.029 A 
ATOM     56  C   UNL A   1      45.208  32.313  29.932  1.00  0.00     0.049 A 
ATOM     57  H   UNL A   1      43.872  30.761  29.426  1.00  0.00     0.167 HD
ATOM     58  C   UNL A   1      42.975  33.228  30.515  1.00  0.00     0.074 A 
ATOM     59  C   UNL A   1      42.104  34.268  31.024  1.00  0.00     0.031 C 
ATOM     60  C   UNL A   1      44.323  33.341  30.420  1.00  0.00     0.037 A 
BRANCH  47  61
ATOM     61  C   UNL A   1      47.142  28.325  28.149  1.00  0.00     0.058 A 
ATOM     62  C   UNL A   1      47.838  27.531  29.075  1.00  0.00     0.135 A 
ATOM     63  C   UNL A   1      47.682  28.444  26.858  1.00  0.00     0.135 A 
ATOM     64  F   UNL A   1      47.378  27.395  30.329  1.00  0.00    -0.206 F 
ATOM     65  C   UNL A   1      49.037  26.908  28.747  1.00  0.00     0.059 A 
ATOM     66  C   UNL A   1      48.866  27.806  26.497  1.00  0.00     0.059 A 
ATOM     67  F   UNL A   1      47.059  29.190  25.931  1.00  0.00    -0.206 F 
ATOM     68  C   UNL A   1      49.545  27.054  27.455  1.00  0.00     0.060 A 
BRANCH  68  69
ATOM     69  S   UNL A   1      51.104  26.242  27.044  1.00  0.00     0.124 S 
ATOM     70  O   UNL A   1      51.268  26.619  25.643  1.00  0.00    -0.237 OA
ATOM     71  O   UNL A   1      52.037  26.862  27.980  1.00  0.00    -0.237 OA
ATOM     72  O   UNL A   1      50.825  24.830  27.286  1.00  0.00    -0.744 OA
ENDBRANCH  68  69
ENDBRANCH  47  61
BRANCH  48  73
ATOM     73  C   UNL A   1      38.343  32.379  30.649  1.00  0.00     0.058 A 
ATOM     74  C   UNL A   1      37.814  32.151  31.928  1.00  0.00     0.135 A 
ATOM     75  C   UNL A   1      37.613  33.202  29.778  1.00  0.00     0.135 A 
ATOM     76  F   UNL A   1      38.472  31.368  32.796  1.00  0.00    -0.206 F 
ATOM     77  C   UNL A   1      36.598  32.700  32.323  1.00  0.00     0.059 A 
ATOM     78  C   UNL A   1      36.407  33.782  30.158  1.00  0.00     0.059 A 
ATOM     79  F   UNL A   1      38.085  33.466  28.550  1.00  0.00    -0.206 F 
ATOM     80  C   UNL A   1      35.903  33.518  31.431  1.00  0.00     0.060 A 
BRANCH  80  81
ATOM     81  S   UNL A   1      34.350  34.266  31.970  1.00  0.00     0.124 S 
ATOM     82  O   UNL A   1      33.825  33.241  32.865  1.00  0.00    -0.237 OA
ATOM     83  O   UNL A   1      34.806  35.497  32.607  1.00  0.00    -0.237 OA
ATOM     84  O   UNL A   1      33.616  34.452  30.722  1.00  0.00    -0.744 OA
ENDBRANCH  80  81
ENDBRANCH  48  73
BRANCH  60  85
ATOM     85  C   UNL A   1      44.938  34.651  30.827  1.00  0.00     0.058 A 
ATOM     86  C   UNL A   1      45.090  35.710  29.920  1.00  0.00     0.135 A 
ATOM     87  C   UNL A   1      45.332  34.863  32.158  1.00  0.00     0.135 A 
ATOM     88  F   UNL A   1      44.733  35.556  28.635  1.00  0.00    -0.206 F 
ATOM     89  C   UNL A   1      45.633  36.930  30.314  1.00  0.00     0.059 A 
ATOM     90  C   UNL A   1      45.853  36.082  32.579  1.00  0.00     0.059 A 
ATOM     91  F   UNL A   1      45.197  33.884  33.068  1.00  0.00    -0.206 F 
ATOM     92  C   UNL A   1      46.011  37.106  31.646  1.00  0.00     0.060 A 
BRANCH  92  93
ATOM     93  S   UNL A   1      46.685  38.702  32.152  1.00  0.00     0.124 S 
ATOM     94  O   UNL A   1      47.839  38.827  31.269  1.00  0.00    -0.237 OA
ATOM     95  O   UNL A   1      45.577  39.612  31.879  1.00  0.00    -0.237 OA
ATOM     96  O   UNL A   1      46.993  38.507  33.566  1.00  0.00    -0.744 OA
ENDBRANCH  92  93
ENDBRANCH  60  85
ENDBRANCH  34  35
ENDBRANCH  26  29
ENDBRANCH  24  25
ENDBRANCH  23  24
ENDBRANCH   1  23
TORSDOF 17
ENDMDL
