MODEL 1
REMARK VINA RESULT:     -13.2      0.000      0.000
REMARK SMILES O=C(NCCCNC(=O)c1cc(N2C(=O)C[C@H](Nc3ccccc3O)C2=O)ccc1O)c1ccc(-c2c3nc(c(-c4c(F)cc(S(=O)(=O)[O-])cc4F)c4ccc([nH]4)c(-c4c(F)cc(S(=O)(=O)[O-])cc4F)c4nc(c(-c5c(F)cc(S(=O)(=O)[O-])cc5F)c5ccc2[nH]5)C=C4)C=C3)cc1
REMARK SMILES IDX 5 1 4 2 3 3 1 4 2 5 32 7 33 8 97 9 34 10 96 11 35 12 36 13
REMARK SMILES IDX 37 14 90 15 38 16 95 17 89 18 91 19 39 20 94 21 88 22 87 23
REMARK SMILES IDX 40 25 74 26 53 27 73 28 54 29 57 30 72 31 92 32 55 33 56 34
REMARK SMILES IDX 71 36 93 37 58 38 41 39 42 40 51 41 43 42 44 43 50 44 52 45
REMARK SMILES IDX 45 46 46 47 47 48 48 49 49 50 75 51 76 52 85 53 77 54 78 55
REMARK SMILES IDX 84 56 86 57 79 58 80 59 81 60 82 61 83 62 59 63 60 64 69 65
REMARK SMILES IDX 61 66 62 67 68 68 70 69 63 70 64 71 65 72 66 73 67 74 6 75
REMARK SMILES IDX 7 76 8 77 9 79 10 80 11 81 30 82 12 83 29 84 28 85 31 86
REMARK SMILES IDX 13 88 14 89 26 90 15 91 16 92 17 93 27 94 18 95 19 97 20 98
REMARK SMILES IDX 24 99 21 100 23 101 22 102 25 103
REMARK H PARENT 3 6 91 24 57 35 7 78 31 87 18 96 25 104
REMARK Flexibility Score: inf
ROOT
ATOM      1  C   UNL A   1      37.223  23.717  25.384  1.00  0.00     0.042 C 
ENDROOT
BRANCH   1   2
ATOM      2  C   UNL A   1      38.184  24.119  26.492  1.00  0.00     0.118 C 
BRANCH   2   3
ATOM      3  N   UNL A   1      39.579  23.926  26.113  1.00  0.00    -0.352 N 
ATOM      4  O   UNL A   1      41.749  24.469  25.853  1.00  0.00    -0.269 OA
ATOM      5  C   UNL A   1      40.691  24.658  26.451  1.00  0.00     0.251 C 
ATOM      6  H   UNL A   1      39.750  23.155  25.526  1.00  0.00     0.163 HD
BRANCH   5   7
ATOM      7  C   UNL A   1      40.613  25.675  27.522  1.00  0.00     0.039 A 
ATOM      8  C   UNL A   1      39.687  25.541  28.558  1.00  0.00     0.014 A 
ATOM      9  C   UNL A   1      41.497  26.757  27.511  1.00  0.00     0.014 A 
ATOM     10  C   UNL A   1      39.542  26.556  29.493  1.00  0.00     0.010 A 
ATOM     11  C   UNL A   1      41.422  27.727  28.517  1.00  0.00     0.010 A 
ATOM     12  C   UNL A   1      40.431  27.642  29.505  1.00  0.00    -0.014 A 
BRANCH  12  13
ATOM     13  C   UNL A   1      40.371  28.599  30.637  1.00  0.00     0.031 A 
ATOM     14  C   UNL A   1      41.287  28.479  31.820  1.00  0.00     0.074 A 
ATOM     15  C   UNL A   1      39.474  29.604  30.562  1.00  0.00     0.049 A 
ATOM     16  N   UNL A   1      41.359  29.244  32.879  1.00  0.00    -0.248 NA
ATOM     17  C   UNL A   1      42.241  27.358  31.827  1.00  0.00     0.031 C 
ATOM     18  C   UNL A   1      38.516  29.798  29.467  1.00  0.00     0.029 A 
ATOM     19  N   UNL A   1      39.227  30.657  31.403  1.00  0.00    -0.354 N 
ATOM     20  C   UNL A   1      42.344  28.689  33.688  1.00  0.00     0.074 A 
ATOM     21  C   UNL A   1      42.837  27.513  33.003  1.00  0.00     0.031 C 
ATOM     22  C   UNL A   1      37.819  30.921  29.682  1.00  0.00     0.029 A 
ATOM     23  C   UNL A   1      38.227  31.491  30.960  1.00  0.00     0.049 A 
ATOM     24  H   UNL A   1      39.718  30.804  32.244  1.00  0.00     0.167 HD
ATOM     25  C   UNL A   1      42.791  29.128  34.888  1.00  0.00     0.037 A 
ATOM     26  C   UNL A   1      37.676  32.578  31.528  1.00  0.00     0.037 A 
ATOM     27  C   UNL A   1      42.310  30.320  35.542  1.00  0.00     0.049 A 
ATOM     28  C   UNL A   1      38.191  33.034  32.861  1.00  0.00     0.074 A 
ATOM     29  C   UNL A   1      42.747  30.885  36.728  1.00  0.00     0.029 A 
ATOM     30  N   UNL A   1      41.282  31.124  35.074  1.00  0.00    -0.354 N 
ATOM     31  N   UNL A   1      39.159  32.524  33.585  1.00  0.00    -0.248 NA
ATOM     32  C   UNL A   1      37.536  34.203  33.461  1.00  0.00     0.031 C 
ATOM     33  C   UNL A   1      41.955  32.005  37.000  1.00  0.00     0.029 A 
ATOM     34  C   UNL A   1      41.051  32.163  35.962  1.00  0.00     0.049 A 
ATOM     35  H   UNL A   1      40.788  30.980  34.234  1.00  0.00     0.167 HD
ATOM     36  C   UNL A   1      39.230  33.311  34.726  1.00  0.00     0.074 A 
ATOM     37  C   UNL A   1      38.230  34.349  34.581  1.00  0.00     0.031 C 
ATOM     38  C   UNL A   1      40.045  33.181  35.802  1.00  0.00     0.037 A 
BRANCH  25  39
ATOM     39  C   UNL A   1      43.848  28.326  35.594  1.00  0.00     0.058 A 
ATOM     40  C   UNL A   1      45.215  28.578  35.406  1.00  0.00     0.135 A 
ATOM     41  C   UNL A   1      43.484  27.366  36.554  1.00  0.00     0.135 A 
ATOM     42  F   UNL A   1      45.618  29.475  34.493  1.00  0.00    -0.206 F 
ATOM     43  C   UNL A   1      46.185  27.906  36.145  1.00  0.00     0.059 A 
ATOM     44  C   UNL A   1      44.437  26.696  37.317  1.00  0.00     0.059 A 
ATOM     45  F   UNL A   1      42.190  27.086  36.772  1.00  0.00    -0.206 F 
ATOM     46  C   UNL A   1      45.786  26.972  37.104  1.00  0.00     0.060 A 
BRANCH  46  47
ATOM     47  S   UNL A   1      47.056  26.151  38.090  1.00  0.00     0.124 S 
ATOM     48  O   UNL A   1      46.894  26.812  39.382  1.00  0.00    -0.237 OA
ATOM     49  O   UNL A   1      46.638  24.754  38.038  1.00  0.00    -0.237 OA
ATOM     50  O   UNL A   1      48.293  26.458  37.380  1.00  0.00    -0.744 OA
ENDBRANCH  46  47
ENDBRANCH  25  39
BRANCH  26  51
ATOM     51  C   UNL A   1      36.550  33.277  30.857  1.00  0.00     0.058 A 
ATOM     52  C   UNL A   1      36.767  34.112  29.752  1.00  0.00     0.135 A 
ATOM     53  C   UNL A   1      35.231  33.118  31.310  1.00  0.00     0.135 A 
ATOM     54  F   UNL A   1      38.010  34.296  29.284  1.00  0.00    -0.206 F 
ATOM     55  C   UNL A   1      35.718  34.786  29.135  1.00  0.00     0.059 A 
ATOM     56  C   UNL A   1      34.163  33.758  30.692  1.00  0.00     0.059 A 
ATOM     57  F   UNL A   1      34.969  32.312  32.351  1.00  0.00    -0.206 F 
ATOM     58  C   UNL A   1      34.419  34.605  29.615  1.00  0.00     0.060 A 
BRANCH  58  59
ATOM     59  S   UNL A   1      33.059  35.465  28.798  1.00  0.00     0.124 S 
ATOM     60  O   UNL A   1      33.775  36.472  28.024  1.00  0.00    -0.237 OA
ATOM     61  O   UNL A   1      32.431  34.394  28.031  1.00  0.00    -0.237 OA
ATOM     62  O   UNL A   1      32.268  35.972  29.916  1.00  0.00    -0.744 OA
ENDBRANCH  58  59
ENDBRANCH  26  51
BRANCH  38  63
ATOM     63  C   UNL A   1      39.885  34.193  36.899  1.00  0.00     0.058 A 
ATOM     64  C   UNL A   1      40.493  35.455  36.821  1.00  0.00     0.135 A 
ATOM     65  C   UNL A   1      39.093  33.910  38.023  1.00  0.00     0.135 A 
ATOM     66  F   UNL A   1      41.268  35.769  35.770  1.00  0.00    -0.206 F 
ATOM     67  C   UNL A   1      40.343  36.396  37.834  1.00  0.00     0.059 A 
ATOM     68  C   UNL A   1      38.909  34.844  39.035  1.00  0.00     0.059 A 
ATOM     69  F   UNL A   1      38.486  32.719  38.139  1.00  0.00    -0.206 F 
ATOM     70  C   UNL A   1      39.549  36.081  38.938  1.00  0.00     0.060 A 
BRANCH  70  71
ATOM     71  S   UNL A   1      39.339  37.317  40.235  1.00  0.00     0.124 S 
ATOM     72  O   UNL A   1      38.622  36.556  41.252  1.00  0.00    -0.237 OA
ATOM     73  O   UNL A   1      40.718  37.669  40.561  1.00  0.00    -0.237 OA
ATOM     74  O   UNL A   1      38.569  38.370  39.579  1.00  0.00    -0.744 OA
ENDBRANCH  70  71
ENDBRANCH  38  63
ENDBRANCH  12  13
ENDBRANCH   5   7
ENDBRANCH   2   3
ENDBRANCH   1   2
BRANCH   1  75
ATOM     75  C   UNL A   1      36.902  22.232  25.374  1.00  0.00     0.118 C 
BRANCH  75  76
ATOM     76  N   UNL A   1      36.103  21.847  26.524  1.00  0.00    -0.352 N 
ATOM     77  C   UNL A   1      34.756  21.610  26.583  1.00  0.00     0.255 C 
ATOM     78  H   UNL A   1      36.593  21.742  27.371  1.00  0.00     0.163 HD
ATOM     79  O   UNL A   1      34.203  21.426  27.665  1.00  0.00    -0.269 OA
BRANCH  77  80
ATOM     80  C   UNL A   1      33.947  21.616  25.351  1.00  0.00     0.083 A 
ATOM     81  C   UNL A   1      33.598  22.865  24.819  1.00  0.00     0.044 A 
ATOM     82  C   UNL A   1      33.464  20.442  24.768  1.00  0.00     0.128 A 
ATOM     83  C   UNL A   1      32.740  22.951  23.715  1.00  0.00     0.053 A 
ATOM     84  C   UNL A   1      32.646  20.514  23.645  1.00  0.00     0.049 A 
ATOM     85  C   UNL A   1      32.271  21.762  23.137  1.00  0.00     0.031 A 
BRANCH  82  86
ATOM     86  O   UNL A   1      33.784  19.222  25.292  1.00  0.00    -0.507 OA
ATOM     87  H   UNL A   1      34.160  19.164  26.149  1.00  0.00     0.293 HD
ENDBRANCH  82  86
BRANCH  83  88
ATOM     88  N   UNL A   1      32.326  24.218  23.228  1.00  0.00    -0.249 N 
ATOM     89  C   UNL A   1      33.144  25.095  22.564  1.00  0.00     0.236 C 
ATOM     90  C   UNL A   1      31.055  24.717  23.392  1.00  0.00     0.256 C 
ATOM     91  O   UNL A   1      34.334  24.970  22.300  1.00  0.00    -0.274 OA
ATOM     92  C   UNL A   1      32.340  26.264  22.085  1.00  0.00     0.136 C 
ATOM     93  C   UNL A   1      30.958  26.060  22.679  1.00  0.00     0.179 C 
ATOM     94  O   UNL A   1      30.168  24.233  24.087  1.00  0.00    -0.272 OA
BRANCH  93  95
ATOM     95  N   UNL A   1      30.660  27.156  23.614  1.00  0.00    -0.370 N 
ATOM     96  H   UNL A   1      31.172  27.281  24.446  1.00  0.00     0.161 HD
BRANCH  95  97
ATOM     97  C   UNL A   1      29.608  28.015  23.258  1.00  0.00     0.077 A 
ATOM     98  C   UNL A   1      29.898  29.323  22.861  1.00  0.00     0.029 A 
ATOM     99  C   UNL A   1      28.260  27.659  23.433  1.00  0.00     0.138 A 
ATOM    100  C   UNL A   1      28.870  30.238  22.613  1.00  0.00     0.002 A 
ATOM    101  C   UNL A   1      27.229  28.565  23.194  1.00  0.00     0.048 A 
ATOM    102  C   UNL A   1      27.538  29.859  22.779  1.00  0.00     0.004 A 
BRANCH  99 103
ATOM    103  O   UNL A   1      27.965  26.395  23.864  1.00  0.00    -0.506 OA
ATOM    104  H   UNL A   1      27.885  26.221  24.781  1.00  0.00     0.293 HD
ENDBRANCH  99 103
ENDBRANCH  95  97
ENDBRANCH  93  95
ENDBRANCH  83  88
ENDBRANCH  77  80
ENDBRANCH  75  76
ENDBRANCH   1  75
TORSDOF 18
ENDMDL
MODEL 2
REMARK VINA RESULT:     -13.1      6.568     12.094
REMARK SMILES O=C(NCCCNC(=O)c1cc(N2C(=O)C[C@H](Nc3ccccc3O)C2=O)ccc1O)c1ccc(-c2c3nc(c(-c4c(F)cc(S(=O)(=O)[O-])cc4F)c4ccc([nH]4)c(-c4c(F)cc(S(=O)(=O)[O-])cc4F)c4nc(c(-c5c(F)cc(S(=O)(=O)[O-])cc5F)c5ccc2[nH]5)C=C4)C=C3)cc1
REMARK SMILES IDX 5 1 4 2 3 3 1 4 2 5 32 7 33 8 97 9 34 10 96 11 35 12 36 13
REMARK SMILES IDX 37 14 90 15 38 16 95 17 89 18 91 19 39 20 94 21 88 22 87 23
REMARK SMILES IDX 40 25 74 26 53 27 73 28 54 29 57 30 72 31 92 32 55 33 56 34
REMARK SMILES IDX 71 36 93 37 58 38 41 39 42 40 51 41 43 42 44 43 50 44 52 45
REMARK SMILES IDX 45 46 46 47 47 48 48 49 49 50 75 51 76 52 85 53 77 54 78 55
REMARK SMILES IDX 84 56 86 57 79 58 80 59 81 60 82 61 83 62 59 63 60 64 69 65
REMARK SMILES IDX 61 66 62 67 68 68 70 69 63 70 64 71 65 72 66 73 67 74 6 75
REMARK SMILES IDX 7 76 8 77 9 79 10 80 11 81 30 82 12 83 29 84 28 85 31 86
REMARK SMILES IDX 13 88 14 89 26 90 15 91 16 92 17 93 27 94 18 95 19 97 20 98
REMARK SMILES IDX 24 99 21 100 23 101 22 102 25 103
REMARK H PARENT 3 6 91 24 57 35 7 78 31 87 18 96 25 104
REMARK Flexibility Score: inf
ROOT
ATOM      1  C   UNL A   1      33.800  28.882  27.253  1.00  0.00     0.042 C 
ENDROOT
BRANCH   1   2
ATOM      2  C   UNL A   1      35.203  29.342  27.618  1.00  0.00     0.118 C 
BRANCH   2   3
ATOM      3  N   UNL A   1      35.219  30.192  28.802  1.00  0.00    -0.352 N 
ATOM      4  O   UNL A   1      35.987  31.012  30.754  1.00  0.00    -0.269 OA
ATOM      5  C   UNL A   1      36.234  30.441  29.693  1.00  0.00     0.251 C 
ATOM      6  H   UNL A   1      34.373  30.659  28.993  1.00  0.00     0.163 HD
BRANCH   5   7
ATOM      7  C   UNL A   1      37.616  30.013  29.382  1.00  0.00     0.039 A 
ATOM      8  C   UNL A   1      38.072  30.000  28.063  1.00  0.00     0.014 A 
ATOM      9  C   UNL A   1      38.477  29.655  30.423  1.00  0.00     0.014 A 
ATOM     10  C   UNL A   1      39.328  29.489  27.769  1.00  0.00     0.010 A 
ATOM     11  C   UNL A   1      39.782  29.242  30.134  1.00  0.00     0.010 A 
ATOM     12  C   UNL A   1      40.211  29.139  28.802  1.00  0.00    -0.014 A 
BRANCH  12  13
ATOM     13  C   UNL A   1      41.610  28.790  28.455  1.00  0.00     0.031 A 
ATOM     14  C   UNL A   1      42.705  29.817  28.468  1.00  0.00     0.074 A 
ATOM     15  C   UNL A   1      41.878  27.504  28.146  1.00  0.00     0.049 A 
ATOM     16  N   UNL A   1      43.975  29.660  28.198  1.00  0.00    -0.248 NA
ATOM     17  C   UNL A   1      42.334  31.197  28.818  1.00  0.00     0.031 C 
ATOM     18  C   UNL A   1      40.881  26.429  28.078  1.00  0.00     0.029 A 
ATOM     19  N   UNL A   1      43.057  26.875  27.848  1.00  0.00    -0.354 N 
ATOM     20  C   UNL A   1      44.552  30.918  28.322  1.00  0.00     0.074 A 
ATOM     21  C   UNL A   1      43.491  31.834  28.682  1.00  0.00     0.031 C 
ATOM     22  C   UNL A   1      41.495  25.272  27.803  1.00  0.00     0.029 A 
ATOM     23  C   UNL A   1      42.916  25.529  27.605  1.00  0.00     0.049 A 
ATOM     24  H   UNL A   1      43.924  27.341  27.812  1.00  0.00     0.167 HD
ATOM     25  C   UNL A   1      45.850  31.268  28.152  1.00  0.00     0.037 A 
ATOM     26  C   UNL A   1      43.820  24.604  27.235  1.00  0.00     0.037 A 
ATOM     27  C   UNL A   1      46.901  30.336  27.824  1.00  0.00     0.049 A 
ATOM     28  C   UNL A   1      45.248  25.027  27.051  1.00  0.00     0.074 A 
ATOM     29  C   UNL A   1      48.257  30.582  27.698  1.00  0.00     0.029 A 
ATOM     30  N   UNL A   1      46.714  28.987  27.563  1.00  0.00    -0.354 N 
ATOM     31  N   UNL A   1      45.782  26.213  27.223  1.00  0.00    -0.248 NA
ATOM     32  C   UNL A   1      46.193  23.994  26.611  1.00  0.00     0.031 C 
ATOM     33  C   UNL A   1      48.885  29.392  27.317  1.00  0.00     0.029 A 
ATOM     34  C   UNL A   1      47.927  28.394  27.246  1.00  0.00     0.049 A 
ATOM     35  H   UNL A   1      45.849  28.518  27.598  1.00  0.00     0.167 HD
ATOM     36  C   UNL A   1      47.128  26.068  26.915  1.00  0.00     0.074 A 
ATOM     37  C   UNL A   1      47.331  24.674  26.576  1.00  0.00     0.031 C 
ATOM     38  C   UNL A   1      48.106  27.006  26.905  1.00  0.00     0.037 A 
BRANCH  25  39
ATOM     39  C   UNL A   1      46.227  32.715  28.306  1.00  0.00     0.058 A 
ATOM     40  C   UNL A   1      46.690  33.232  29.525  1.00  0.00     0.135 A 
ATOM     41  C   UNL A   1      46.225  33.568  27.189  1.00  0.00     0.135 A 
ATOM     42  F   UNL A   1      46.700  32.464  30.625  1.00  0.00    -0.206 F 
ATOM     43  C   UNL A   1      47.140  34.545  29.631  1.00  0.00     0.059 A 
ATOM     44  C   UNL A   1      46.689  34.879  27.269  1.00  0.00     0.059 A 
ATOM     45  F   UNL A   1      45.790  33.123  26.000  1.00  0.00    -0.206 F 
ATOM     46  C   UNL A   1      47.143  35.358  28.496  1.00  0.00     0.060 A 
BRANCH  46  47
ATOM     47  S   UNL A   1      47.781  37.042  28.641  1.00  0.00     0.124 S 
ATOM     48  O   UNL A   1      48.030  37.136  30.076  1.00  0.00    -0.237 OA
ATOM     49  O   UNL A   1      48.969  37.000  27.794  1.00  0.00    -0.237 OA
ATOM     50  O   UNL A   1      46.687  37.867  28.139  1.00  0.00    -0.744 OA
ENDBRANCH  46  47
ENDBRANCH  25  39
BRANCH  26  51
ATOM     51  C   UNL A   1      43.391  23.207  26.975  1.00  0.00     0.058 A 
ATOM     52  C   UNL A   1      43.289  22.707  25.670  1.00  0.00     0.135 A 
ATOM     53  C   UNL A   1      43.076  22.341  28.035  1.00  0.00     0.135 A 
ATOM     54  F   UNL A   1      43.578  23.497  24.624  1.00  0.00    -0.206 F 
ATOM     55  C   UNL A   1      42.866  21.405  25.422  1.00  0.00     0.059 A 
ATOM     56  C   UNL A   1      42.679  21.028  27.814  1.00  0.00     0.059 A 
ATOM     57  F   UNL A   1      43.178  22.766  29.305  1.00  0.00    -0.206 F 
ATOM     58  C   UNL A   1      42.560  20.574  26.501  1.00  0.00     0.060 A 
BRANCH  58  59
ATOM     59  S   UNL A   1      42.031  18.879  26.175  1.00  0.00     0.124 S 
ATOM     60  O   UNL A   1      42.245  18.253  27.475  1.00  0.00    -0.237 OA
ATOM     61  O   UNL A   1      40.640  19.060  25.774  1.00  0.00    -0.237 OA
ATOM     62  O   UNL A   1      42.931  18.449  25.110  1.00  0.00    -0.744 OA
ENDBRANCH  58  59
ENDBRANCH  26  51
BRANCH  38  63
ATOM     63  C   UNL A   1      49.482  26.546  26.519  1.00  0.00     0.058 A 
ATOM     64  C   UNL A   1      49.947  26.667  25.201  1.00  0.00     0.135 A 
ATOM     65  C   UNL A   1      50.351  26.007  27.480  1.00  0.00     0.135 A 
ATOM     66  F   UNL A   1      49.149  27.167  24.244  1.00  0.00    -0.206 F 
ATOM     67  C   UNL A   1      51.223  26.246  24.842  1.00  0.00     0.059 A 
ATOM     68  C   UNL A   1      51.638  25.602  27.149  1.00  0.00     0.059 A 
ATOM     69  F   UNL A   1      49.952  25.878  28.755  1.00  0.00    -0.206 F 
ATOM     70  C   UNL A   1      52.061  25.714  25.823  1.00  0.00     0.060 A 
BRANCH  70  71
ATOM     71  S   UNL A   1      53.724  25.193  25.353  1.00  0.00     0.124 S 
ATOM     72  O   UNL A   1      53.601  23.740  25.403  1.00  0.00    -0.237 OA
ATOM     73  O   UNL A   1      53.870  25.771  24.020  1.00  0.00    -0.237 OA
ATOM     74  O   UNL A   1      54.570  25.788  26.383  1.00  0.00    -0.744 OA
ENDBRANCH  70  71
ENDBRANCH  38  63
ENDBRANCH  12  13
ENDBRANCH   5   7
ENDBRANCH   2   3
ENDBRANCH   1   2
BRANCH   1  75
ATOM     75  C   UNL A   1      33.119  29.778  26.233  1.00  0.00     0.118 C 
BRANCH  75  76
ATOM     76  N   UNL A   1      33.704  29.630  24.912  1.00  0.00    -0.352 N 
ATOM     77  C   UNL A   1      33.332  28.780  23.906  1.00  0.00     0.255 C 
ATOM     78  H   UNL A   1      34.467  30.220  24.713  1.00  0.00     0.163 HD
ATOM     79  O   UNL A   1      34.016  28.677  22.891  1.00  0.00    -0.269 OA
BRANCH  77  80
ATOM     80  C   UNL A   1      32.126  27.944  24.050  1.00  0.00     0.083 A 
ATOM     81  C   UNL A   1      32.310  26.619  24.469  1.00  0.00     0.044 A 
ATOM     82  C   UNL A   1      30.852  28.404  23.708  1.00  0.00     0.128 A 
ATOM     83  C   UNL A   1      31.225  25.734  24.522  1.00  0.00     0.053 A 
ATOM     84  C   UNL A   1      29.760  27.547  23.798  1.00  0.00     0.049 A 
ATOM     85  C   UNL A   1      29.952  26.215  24.183  1.00  0.00     0.031 A 
BRANCH  82  86
ATOM     86  O   UNL A   1      30.668  29.688  23.280  1.00  0.00    -0.507 OA
ATOM     87  H   UNL A   1      30.430  29.857  22.390  1.00  0.00     0.293 HD
ENDBRANCH  82  86
BRANCH  83  88
ATOM     88  N   UNL A   1      31.428  24.374  24.871  1.00  0.00    -0.249 N 
ATOM     89  C   UNL A   1      31.273  23.869  26.136  1.00  0.00     0.236 C 
ATOM     90  C   UNL A   1      31.829  23.412  23.974  1.00  0.00     0.256 C 
ATOM     91  O   UNL A   1      30.970  24.470  27.160  1.00  0.00    -0.274 OA
ATOM     92  C   UNL A   1      31.439  22.381  26.105  1.00  0.00     0.136 C 
ATOM     93  C   UNL A   1      31.869  22.064  24.684  1.00  0.00     0.179 C 
ATOM     94  O   UNL A   1      32.204  23.602  22.822  1.00  0.00    -0.272 OA
BRANCH  93  95
ATOM     95  N   UNL A   1      33.225  21.493  24.699  1.00  0.00    -0.370 N 
ATOM     96  H   UNL A   1      34.001  22.011  25.015  1.00  0.00     0.161 HD
BRANCH  95  97
ATOM     97  C   UNL A   1      33.355  20.173  24.239  1.00  0.00     0.077 A 
ATOM     98  C   UNL A   1      32.322  19.605  23.490  1.00  0.00     0.029 A 
ATOM     99  C   UNL A   1      34.420  19.345  24.635  1.00  0.00     0.138 A 
ATOM    100  C   UNL A   1      32.368  18.258  23.116  1.00  0.00     0.002 A 
ATOM    101  C   UNL A   1      34.472  18.000  24.273  1.00  0.00     0.048 A 
ATOM    102  C   UNL A   1      33.441  17.458  23.508  1.00  0.00     0.004 A 
BRANCH  99 103
ATOM    103  O   UNL A   1      35.415  19.878  25.407  1.00  0.00    -0.506 OA
ATOM    104  H   UNL A   1      35.378  20.779  25.661  1.00  0.00     0.293 HD
ENDBRANCH  99 103
ENDBRANCH  95  97
ENDBRANCH  93  95
ENDBRANCH  83  88
ENDBRANCH  77  80
ENDBRANCH  75  76
ENDBRANCH   1  75
TORSDOF 18
ENDMDL
MODEL 3
REMARK VINA RESULT:     -12.7      6.600     11.724
REMARK SMILES O=C(NCCCNC(=O)c1cc(N2C(=O)C[C@H](Nc3ccccc3O)C2=O)ccc1O)c1ccc(-c2c3nc(c(-c4c(F)cc(S(=O)(=O)[O-])cc4F)c4ccc([nH]4)c(-c4c(F)cc(S(=O)(=O)[O-])cc4F)c4nc(c(-c5c(F)cc(S(=O)(=O)[O-])cc5F)c5ccc2[nH]5)C=C4)C=C3)cc1
REMARK SMILES IDX 5 1 4 2 3 3 1 4 2 5 32 7 33 8 97 9 34 10 96 11 35 12 36 13
REMARK SMILES IDX 37 14 90 15 38 16 95 17 89 18 91 19 39 20 94 21 88 22 87 23
REMARK SMILES IDX 40 25 74 26 53 27 73 28 54 29 57 30 72 31 92 32 55 33 56 34
REMARK SMILES IDX 71 36 93 37 58 38 41 39 42 40 51 41 43 42 44 43 50 44 52 45
REMARK SMILES IDX 45 46 46 47 47 48 48 49 49 50 75 51 76 52 85 53 77 54 78 55
REMARK SMILES IDX 84 56 86 57 79 58 80 59 81 60 82 61 83 62 59 63 60 64 69 65
REMARK SMILES IDX 61 66 62 67 68 68 70 69 63 70 64 71 65 72 66 73 67 74 6 75
REMARK SMILES IDX 7 76 8 77 9 79 10 80 11 81 30 82 12 83 29 84 28 85 31 86
REMARK SMILES IDX 13 88 14 89 26 90 15 91 16 92 17 93 27 94 18 95 19 97 20 98
REMARK SMILES IDX 24 99 21 100 23 101 22 102 25 103
REMARK H PARENT 3 6 91 24 57 35 7 78 31 87 18 96 25 104
REMARK Flexibility Score: inf
ROOT
ATOM      1  C   UNL A   1      34.102  30.064  27.316  1.00  0.00     0.042 C 
ENDROOT
BRANCH   1   2
ATOM      2  C   UNL A   1      35.431  29.727  27.974  1.00  0.00     0.118 C 
BRANCH   2   3
ATOM      3  N   UNL A   1      35.437  30.029  29.401  1.00  0.00    -0.352 N 
ATOM      4  O   UNL A   1      36.181  29.980  31.526  1.00  0.00    -0.269 OA
ATOM      5  C   UNL A   1      36.439  29.878  30.328  1.00  0.00     0.251 C 
ATOM      6  H   UNL A   1      34.595  30.397  29.754  1.00  0.00     0.163 HD
BRANCH   5   7
ATOM      7  C   UNL A   1      37.820  29.583  29.886  1.00  0.00     0.039 A 
ATOM      8  C   UNL A   1      38.705  28.914  30.733  1.00  0.00     0.014 A 
ATOM      9  C   UNL A   1      38.224  29.946  28.599  1.00  0.00     0.014 A 
ATOM     10  C   UNL A   1      40.029  28.743  30.355  1.00  0.00     0.010 A 
ATOM     11  C   UNL A   1      39.531  29.677  28.178  1.00  0.00     0.010 A 
ATOM     12  C   UNL A   1      40.448  29.089  29.061  1.00  0.00    -0.014 A 
BRANCH  12  13
ATOM     13  C   UNL A   1      41.815  28.707  28.630  1.00  0.00     0.031 A 
ATOM     14  C   UNL A   1      42.132  27.321  28.149  1.00  0.00     0.074 A 
ATOM     15  C   UNL A   1      42.772  29.659  28.661  1.00  0.00     0.049 A 
ATOM     16  N   UNL A   1      43.275  26.842  27.731  1.00  0.00    -0.248 NA
ATOM     17  C   UNL A   1      41.034  26.340  28.141  1.00  0.00     0.031 C 
ATOM     18  C   UNL A   1      42.577  31.033  29.137  1.00  0.00     0.029 A 
ATOM     19  N   UNL A   1      44.086  29.629  28.276  1.00  0.00    -0.354 N 
ATOM     20  C   UNL A   1      43.045  25.504  27.432  1.00  0.00     0.074 A 
ATOM     21  C   UNL A   1      41.653  25.241  27.727  1.00  0.00     0.031 C 
ATOM     22  C   UNL A   1      43.713  31.723  28.975  1.00  0.00     0.029 A 
ATOM     23  C   UNL A   1      44.737  30.828  28.452  1.00  0.00     0.049 A 
ATOM     24  H   UNL A   1      44.523  28.827  27.908  1.00  0.00     0.167 HD
ATOM     25  C   UNL A   1      43.920  24.588  26.953  1.00  0.00     0.037 A 
ATOM     26  C   UNL A   1      46.022  31.167  28.244  1.00  0.00     0.037 A 
ATOM     27  C   UNL A   1      45.297  24.875  26.635  1.00  0.00     0.049 A 
ATOM     28  C   UNL A   1      46.965  30.125  27.718  1.00  0.00     0.074 A 
ATOM     29  C   UNL A   1      46.244  24.032  26.082  1.00  0.00     0.029 A 
ATOM     30  N   UNL A   1      45.925  26.094  26.848  1.00  0.00    -0.354 N 
ATOM     31  N   UNL A   1      46.715  28.880  27.394  1.00  0.00    -0.248 NA
ATOM     32  C   UNL A   1      48.366  30.529  27.541  1.00  0.00     0.031 C 
ATOM     33  C   UNL A   1      47.456  24.725  26.001  1.00  0.00     0.029 A 
ATOM     34  C   UNL A   1      47.255  26.014  26.466  1.00  0.00     0.049 A 
ATOM     35  H   UNL A   1      45.490  26.897  27.217  1.00  0.00     0.167 HD
ATOM     36  C   UNL A   1      47.926  28.349  26.971  1.00  0.00     0.074 A 
ATOM     37  C   UNL A   1      48.901  29.418  27.052  1.00  0.00     0.031 C 
ATOM     38  C   UNL A   1      48.209  27.089  26.562  1.00  0.00     0.037 A 
BRANCH  25  39
ATOM     39  C   UNL A   1      43.438  23.180  26.744  1.00  0.00     0.058 A 
ATOM     40  C   UNL A   1      43.292  22.631  25.461  1.00  0.00     0.135 A 
ATOM     41  C   UNL A   1      43.223  22.336  27.847  1.00  0.00     0.135 A 
ATOM     42  F   UNL A   1      43.472  23.397  24.374  1.00  0.00    -0.206 F 
ATOM     43  C   UNL A   1      42.950  21.295  25.279  1.00  0.00     0.059 A 
ATOM     44  C   UNL A   1      42.899  20.990  27.686  1.00  0.00     0.059 A 
ATOM     45  F   UNL A   1      43.347  22.811  29.096  1.00  0.00    -0.206 F 
ATOM     46  C   UNL A   1      42.763  20.480  26.397  1.00  0.00     0.060 A 
BRANCH  46  47
ATOM     47  S   UNL A   1      42.375  18.735  26.140  1.00  0.00     0.124 S 
ATOM     48  O   UNL A   1      40.978  18.806  25.721  1.00  0.00    -0.237 OA
ATOM     49  O   UNL A   1      43.328  18.351  25.105  1.00  0.00    -0.237 OA
ATOM     50  O   UNL A   1      42.604  18.137  27.452  1.00  0.00    -0.744 OA
ENDBRANCH  46  47
ENDBRANCH  25  39
BRANCH  26  51
ATOM     51  C   UNL A   1      46.492  32.536  28.575  1.00  0.00     0.058 A 
ATOM     52  C   UNL A   1      46.966  32.853  29.855  1.00  0.00     0.135 A 
ATOM     53  C   UNL A   1      46.478  33.555  27.609  1.00  0.00     0.135 A 
ATOM     54  F   UNL A   1      46.998  31.913  30.811  1.00  0.00    -0.206 F 
ATOM     55  C   UNL A   1      47.387  34.141  30.174  1.00  0.00     0.059 A 
ATOM     56  C   UNL A   1      46.920  34.840  27.896  1.00  0.00     0.059 A 
ATOM     57  F   UNL A   1      46.053  33.296  26.362  1.00  0.00    -0.206 F 
ATOM     58  C   UNL A   1      47.357  35.129  29.188  1.00  0.00     0.060 A 
BRANCH  58  59
ATOM     59  S   UNL A   1      47.922  36.792  29.601  1.00  0.00     0.124 S 
ATOM     60  O   UNL A   1      47.896  36.755  31.059  1.00  0.00    -0.237 OA
ATOM     61  O   UNL A   1      49.245  36.832  28.986  1.00  0.00    -0.237 OA
ATOM     62  O   UNL A   1      46.922  37.649  28.972  1.00  0.00    -0.744 OA
ENDBRANCH  58  59
ENDBRANCH  26  51
BRANCH  38  63
ATOM     63  C   UNL A   1      49.630  26.807  26.167  1.00  0.00     0.058 A 
ATOM     64  C   UNL A   1      50.540  26.242  27.073  1.00  0.00     0.135 A 
ATOM     65  C   UNL A   1      50.077  27.078  24.865  1.00  0.00     0.135 A 
ATOM     66  F   UNL A   1      50.162  25.975  28.334  1.00  0.00    -0.206 F 
ATOM     67  C   UNL A   1      51.855  25.977  26.708  1.00  0.00     0.059 A 
ATOM     68  C   UNL A   1      51.380  26.798  24.471  1.00  0.00     0.059 A 
ATOM     69  F   UNL A   1      49.241  27.613  23.960  1.00  0.00    -0.206 F 
ATOM     70  C   UNL A   1      52.266  26.259  25.405  1.00  0.00     0.060 A 
BRANCH  70  71
ATOM     71  S   UNL A   1      53.968  25.887  24.933  1.00  0.00     0.124 S 
ATOM     72  O   UNL A   1      53.886  25.940  23.477  1.00  0.00    -0.237 OA
ATOM     73  O   UNL A   1      54.714  26.971  25.566  1.00  0.00    -0.237 OA
ATOM     74  O   UNL A   1      54.196  24.563  25.502  1.00  0.00    -0.744 OA
ENDBRANCH  70  71
ENDBRANCH  38  63
ENDBRANCH  12  13
ENDBRANCH   5   7
ENDBRANCH   2   3
ENDBRANCH   1   2
BRANCH   1  75
ATOM     75  C   UNL A   1      33.585  28.964  26.406  1.00  0.00     0.118 C 
BRANCH  75  76
ATOM     76  N   UNL A   1      33.869  29.244  25.009  1.00  0.00    -0.352 N 
ATOM     77  C   UNL A   1      33.246  28.746  23.896  1.00  0.00     0.255 C 
ATOM     78  H   UNL A   1      34.606  29.876  24.840  1.00  0.00     0.163 HD
ATOM     79  O   UNL A   1      33.695  28.975  22.776  1.00  0.00    -0.269 OA
BRANCH  77  80
ATOM     80  C   UNL A   1      32.053  27.892  24.035  1.00  0.00     0.083 A 
ATOM     81  C   UNL A   1      32.257  26.568  24.447  1.00  0.00     0.044 A 
ATOM     82  C   UNL A   1      30.773  28.334  23.693  1.00  0.00     0.128 A 
ATOM     83  C   UNL A   1      31.185  25.667  24.494  1.00  0.00     0.053 A 
ATOM     84  C   UNL A   1      29.694  27.461  23.778  1.00  0.00     0.049 A 
ATOM     85  C   UNL A   1      29.905  26.130  24.156  1.00  0.00     0.031 A 
BRANCH  82  86
ATOM     86  O   UNL A   1      30.570  29.618  23.273  1.00  0.00    -0.507 OA
ATOM     87  H   UNL A   1      29.706  29.909  23.055  1.00  0.00     0.293 HD
ENDBRANCH  82  86
BRANCH  83  88
ATOM     88  N   UNL A   1      31.408  24.308  24.836  1.00  0.00    -0.249 N 
ATOM     89  C   UNL A   1      31.270  23.796  26.100  1.00  0.00     0.236 C 
ATOM     90  C   UNL A   1      31.812  23.353  23.931  1.00  0.00     0.256 C 
ATOM     91  O   UNL A   1      30.969  24.390  27.129  1.00  0.00    -0.274 OA
ATOM     92  C   UNL A   1      31.454  22.310  26.062  1.00  0.00     0.136 C 
ATOM     93  C   UNL A   1      31.875  22.004  24.636  1.00  0.00     0.179 C 
ATOM     94  O   UNL A   1      32.175  23.553  22.777  1.00  0.00    -0.272 OA
BRANCH  93  95
ATOM     95  N   UNL A   1      33.238  21.450  24.637  1.00  0.00    -0.370 N 
ATOM     96  H   UNL A   1      34.013  21.982  24.930  1.00  0.00     0.161 HD
BRANCH  95  97
ATOM     97  C   UNL A   1      33.376  20.123  24.199  1.00  0.00     0.077 A 
ATOM     98  C   UNL A   1      32.353  19.542  23.446  1.00  0.00     0.029 A 
ATOM     99  C   UNL A   1      34.438  19.304  24.619  1.00  0.00     0.138 A 
ATOM    100  C   UNL A   1      32.407  18.189  23.093  1.00  0.00     0.002 A 
ATOM    101  C   UNL A   1      34.497  17.954  24.278  1.00  0.00     0.048 A 
ATOM    102  C   UNL A   1      33.477  17.397  23.509  1.00  0.00     0.004 A 
BRANCH  99 103
ATOM    103  O   UNL A   1      35.423  19.850  25.394  1.00  0.00    -0.506 OA
ATOM    104  H   UNL A   1      35.417  19.716  26.321  1.00  0.00     0.293 HD
ENDBRANCH  99 103
ENDBRANCH  95  97
ENDBRANCH  93  95
ENDBRANCH  83  88
ENDBRANCH  77  80
ENDBRANCH  75  76
ENDBRANCH   1  75
TORSDOF 18
ENDMDL
