MODEL 1
REMARK VINA RESULT:     -12.0      0.000      0.000
REMARK SMILES Cc1ccc(Cl)c(Nc2ccccc2C(=O)NCCCNC(=O)c2ccc(-c3c4nc(c(-c5c(F)cc(S(=O)(=O)[O-])cc5F)c5ccc([nH]5)c(-c5c(F)cc(S(=O)(=O)[O-])cc5F)c5nc(c(-c6c(F)cc(S(=O)(=O)[O-])cc6F)c6ccc3[nH]6)C=C5)C=C4)cc2)c1Cl
REMARK SMILES IDX 19 1 18 2 17 3 15 4 16 5 14 7 9 8 10 9 11 10 13 11 12 12
REMARK SMILES IDX 8 13 7 15 1 16 2 17 3 18 90 19 4 20 91 21 5 22 6 23 20 24
REMARK SMILES IDX 21 25 22 26 23 28 24 29 25 30 89 31 26 32 88 33 27 34 28 35
REMARK SMILES IDX 29 36 82 37 30 38 87 39 81 40 83 41 31 42 86 43 80 44 79 45
REMARK SMILES IDX 32 47 66 48 45 49 65 50 46 51 49 52 64 53 84 54 47 55 48 56
REMARK SMILES IDX 63 58 85 59 50 60 33 61 34 62 43 63 35 64 36 65 42 66 44 67
REMARK SMILES IDX 37 68 38 69 39 70 40 71 41 72 67 73 68 74 77 75 69 76 70 77
REMARK SMILES IDX 76 78 78 79 71 80 72 81 73 82 74 83 75 84 51 85 52 86 61 87
REMARK SMILES IDX 53 88 54 89 60 90 62 91 55 92 56 93 57 94 58 95 59 96
REMARK H PARENT 17 6 8 14 21 27 83 46 49 57
REMARK Flexibility Score: inf
ROOT
ATOM      1  C   UNL A   1      32.284  27.913  27.452  1.00  0.00     0.042 C 
ENDROOT
BRANCH   1   2
ATOM      2  C   UNL A   1      31.976  26.706  26.594  1.00  0.00     0.118 C 
BRANCH   2   3
ATOM      3  N   UNL A   1      30.675  26.109  26.752  1.00  0.00    -0.352 N 
ATOM      4  C   UNL A   1      30.291  24.815  26.478  1.00  0.00     0.253 C 
ATOM      5  O   UNL A   1      29.193  24.453  26.909  1.00  0.00    -0.269 OA
ATOM      6  H   UNL A   1      29.971  26.701  27.102  1.00  0.00     0.163 HD
BRANCH   4   7
ATOM      7  C   UNL A   1      31.049  23.901  25.564  1.00  0.00     0.063 A 
ATOM      8  C   UNL A   1      31.155  23.933  24.156  1.00  0.00     0.051 A 
ATOM      9  C   UNL A   1      31.832  22.861  23.523  1.00  0.00     0.027 A 
ATOM     10  C   UNL A   1      32.454  21.840  24.241  1.00  0.00     0.002 A 
ATOM     11  C   UNL A   1      31.713  22.870  26.275  1.00  0.00     0.016 A 
ATOM     12  C   UNL A   1      32.417  21.858  25.624  1.00  0.00     0.001 A 
BRANCH   8  13
ATOM     13  N   UNL A   1      30.747  24.955  23.270  1.00  0.00    -0.352 N 
ATOM     14  H   UNL A   1      30.154  24.623  22.557  1.00  0.00     0.167 HD
BRANCH  13  15
ATOM     15  C   UNL A   1      30.994  26.346  23.168  1.00  0.00     0.077 A 
ATOM     16  C   UNL A   1      33.835  28.910  22.890  1.00  0.00     0.046 C 
ATOM     17  C   UNL A   1      32.473  28.301  23.080  1.00  0.00    -0.030 A 
ATOM     18  C   UNL A   1      31.412  29.125  23.484  1.00  0.00     0.006 A 
ATOM     19  C   UNL A   1      32.248  26.920  22.886  1.00  0.00     0.069 A 
ATOM     20  C   UNL A   1      30.139  28.597  23.663  1.00  0.00     0.023 A 
ATOM     21  Cl  UNL A   1      33.514  25.972  22.159  1.00  0.00    -0.082 Cl
ATOM     22  C   UNL A   1      29.932  27.229  23.498  1.00  0.00     0.066 A 
ATOM     23  Cl  UNL A   1      28.342  26.613  23.830  1.00  0.00    -0.082 Cl
ENDBRANCH  13  15
ENDBRANCH   8  13
ENDBRANCH   4   7
ENDBRANCH   2   3
ENDBRANCH   1   2
BRANCH   1  24
ATOM     24  C   UNL A   1      33.501  28.722  27.017  1.00  0.00     0.118 C 
BRANCH  24  25
ATOM     25  N   UNL A   1      33.577  30.079  27.565  1.00  0.00    -0.352 N 
ATOM     26  C   UNL A   1      34.584  30.769  28.210  1.00  0.00     0.251 C 
ATOM     27  H   UNL A   1      32.748  30.599  27.453  1.00  0.00     0.163 HD
ATOM     28  O   UNL A   1      34.355  31.886  28.657  1.00  0.00    -0.269 OA
BRANCH  26  29
ATOM     29  C   UNL A   1      35.923  30.161  28.395  1.00  0.00     0.039 A 
ATOM     30  C   UNL A   1      36.839  30.168  27.337  1.00  0.00     0.014 A 
ATOM     31  C   UNL A   1      36.284  29.591  29.611  1.00  0.00     0.014 A 
ATOM     32  C   UNL A   1      38.147  29.711  27.545  1.00  0.00     0.010 A 
ATOM     33  C   UNL A   1      37.612  29.276  29.858  1.00  0.00     0.010 A 
ATOM     34  C   UNL A   1      38.561  29.318  28.827  1.00  0.00    -0.014 A 
BRANCH  34  35
ATOM     35  C   UNL A   1      39.960  28.919  29.137  1.00  0.00     0.031 A 
ATOM     36  C   UNL A   1      40.914  29.940  29.703  1.00  0.00     0.074 A 
ATOM     37  C   UNL A   1      40.406  27.696  28.788  1.00  0.00     0.049 A 
ATOM     38  N   UNL A   1      42.210  29.867  29.860  1.00  0.00    -0.248 NA
ATOM     39  C   UNL A   1      40.338  31.240  30.083  1.00  0.00     0.031 C 
ATOM     40  C   UNL A   1      39.603  26.645  28.160  1.00  0.00     0.029 A 
ATOM     41  N   UNL A   1      41.656  27.139  28.888  1.00  0.00    -0.354 N 
ATOM     42  C   UNL A   1      42.604  31.123  30.313  1.00  0.00     0.074 A 
ATOM     43  C   UNL A   1      41.423  31.955  30.330  1.00  0.00     0.031 C 
ATOM     44  C   UNL A   1      40.373  25.567  27.947  1.00  0.00     0.029 A 
ATOM     45  C   UNL A   1      41.734  25.862  28.382  1.00  0.00     0.049 A 
ATOM     46  H   UNL A   1      42.425  27.609  29.284  1.00  0.00     0.167 HD
ATOM     47  C   UNL A   1      43.831  31.536  30.713  1.00  0.00     0.037 A 
ATOM     48  C   UNL A   1      42.786  25.027  28.271  1.00  0.00     0.037 A 
ATOM     49  C   UNL A   1      44.989  30.681  30.740  1.00  0.00     0.049 A 
ATOM     50  C   UNL A   1      44.129  25.478  28.776  1.00  0.00     0.074 A 
ATOM     51  C   UNL A   1      46.262  30.966  31.198  1.00  0.00     0.029 A 
ATOM     52  N   UNL A   1      45.006  29.365  30.297  1.00  0.00    -0.354 N 
ATOM     53  N   UNL A   1      44.474  26.648  29.262  1.00  0.00    -0.248 NA
ATOM     54  C   UNL A   1      45.221  24.498  28.729  1.00  0.00     0.031 C 
ATOM     55  C   UNL A   1      47.058  29.833  31.000  1.00  0.00     0.029 A 
ATOM     56  C   UNL A   1      46.270  28.826  30.462  1.00  0.00     0.049 A 
ATOM     57  H   UNL A   1      44.233  28.886  29.921  1.00  0.00     0.167 HD
ATOM     58  C   UNL A   1      45.818  26.538  29.598  1.00  0.00     0.074 A 
ATOM     59  C   UNL A   1      46.218  25.184  29.271  1.00  0.00     0.031 C 
ATOM     60  C   UNL A   1      46.646  27.474  30.129  1.00  0.00     0.037 A 
BRANCH  47  61
ATOM     61  C   UNL A   1      43.964  32.969  31.157  1.00  0.00     0.058 A 
ATOM     62  C   UNL A   1      43.685  33.362  32.479  1.00  0.00     0.135 A 
ATOM     63  C   UNL A   1      44.342  33.971  30.249  1.00  0.00     0.135 A 
ATOM     64  F   UNL A   1      43.307  32.450  33.389  1.00  0.00    -0.206 F 
ATOM     65  C   UNL A   1      43.712  34.697  32.865  1.00  0.00     0.059 A 
ATOM     66  C   UNL A   1      44.412  35.310  30.623  1.00  0.00     0.059 A 
ATOM     67  F   UNL A   1      44.627  33.657  28.975  1.00  0.00    -0.206 F 
ATOM     68  C   UNL A   1      44.066  35.667  31.925  1.00  0.00     0.060 A 
BRANCH  68  69
ATOM     69  S   UNL A   1      44.053  37.400  32.429  1.00  0.00     0.124 S 
ATOM     70  O   UNL A   1      45.429  37.580  32.881  1.00  0.00    -0.237 OA
ATOM     71  O   UNL A   1      43.700  38.085  31.189  1.00  0.00    -0.237 OA
ATOM     72  O   UNL A   1      43.037  37.442  33.475  1.00  0.00    -0.744 OA
ENDBRANCH  68  69
ENDBRANCH  47  61
BRANCH  48  73
ATOM     73  C   UNL A   1      42.585  23.671  27.694  1.00  0.00     0.058 A 
ATOM     74  C   UNL A   1      42.714  23.450  26.316  1.00  0.00     0.135 A 
ATOM     75  C   UNL A   1      42.335  22.559  28.513  1.00  0.00     0.135 A 
ATOM     76  F   UNL A   1      42.947  24.482  25.490  1.00  0.00    -0.206 F 
ATOM     77  C   UNL A   1      42.608  22.176  25.768  1.00  0.00     0.059 A 
ATOM     78  C   UNL A   1      42.247  21.271  27.992  1.00  0.00     0.059 A 
ATOM     79  F   UNL A   1      42.222  22.714  29.842  1.00  0.00    -0.206 F 
ATOM     80  C   UNL A   1      42.384  21.089  26.616  1.00  0.00     0.060 A 
BRANCH  80  81
ATOM     81  S   UNL A   1      42.347  19.429  25.904  1.00  0.00     0.124 S 
ATOM     82  O   UNL A   1      43.233  19.580  24.756  1.00  0.00    -0.237 OA
ATOM     83  O   UNL A   1      42.858  18.613  27.002  1.00  0.00    -0.237 OA
ATOM     84  O   UNL A   1      40.934  19.230  25.593  1.00  0.00    -0.744 OA
ENDBRANCH  80  81
ENDBRANCH  48  73
BRANCH  60  85
ATOM     85  C   UNL A   1      48.061  27.058  30.416  1.00  0.00     0.058 A 
ATOM     86  C   UNL A   1      49.112  27.374  29.542  1.00  0.00     0.135 A 
ATOM     87  C   UNL A   1      48.375  26.387  31.608  1.00  0.00     0.135 A 
ATOM     88  F   UNL A   1      48.864  28.009  28.386  1.00  0.00    -0.206 F 
ATOM     89  C   UNL A   1      50.427  27.020  29.832  1.00  0.00     0.059 A 
ATOM     90  C   UNL A   1      49.684  26.048  31.931  1.00  0.00     0.059 A 
ATOM     91  F   UNL A   1      47.406  26.073  32.483  1.00  0.00    -0.206 F 
ATOM     92  C   UNL A   1      50.702  26.359  31.030  1.00  0.00     0.060 A 
BRANCH  92  93
ATOM     93  S   UNL A   1      52.415  25.936  31.412  1.00  0.00     0.124 S 
ATOM     94  O   UNL A   1      52.263  24.617  32.018  1.00  0.00    -0.237 OA
ATOM     95  O   UNL A   1      53.043  25.959  30.094  1.00  0.00    -0.237 OA
ATOM     96  O   UNL A   1      52.834  27.000  32.318  1.00  0.00    -0.744 OA
ENDBRANCH  92  93
ENDBRANCH  60  85
ENDBRANCH  34  35
ENDBRANCH  26  29
ENDBRANCH  24  25
ENDBRANCH   1  24
TORSDOF 15
ENDMDL
MODEL 2
REMARK VINA RESULT:     -11.9      2.425      3.015
REMARK SMILES Cc1ccc(Cl)c(Nc2ccccc2C(=O)NCCCNC(=O)c2ccc(-c3c4nc(c(-c5c(F)cc(S(=O)(=O)[O-])cc5F)c5ccc([nH]5)c(-c5c(F)cc(S(=O)(=O)[O-])cc5F)c5nc(c(-c6c(F)cc(S(=O)(=O)[O-])cc6F)c6ccc3[nH]6)C=C5)C=C4)cc2)c1Cl
REMARK SMILES IDX 19 1 18 2 17 3 15 4 16 5 14 7 9 8 10 9 11 10 13 11 12 12
REMARK SMILES IDX 8 13 7 15 1 16 2 17 3 18 90 19 4 20 91 21 5 22 6 23 20 24
REMARK SMILES IDX 21 25 22 26 23 28 24 29 25 30 89 31 26 32 88 33 27 34 28 35
REMARK SMILES IDX 29 36 82 37 30 38 87 39 81 40 83 41 31 42 86 43 80 44 79 45
REMARK SMILES IDX 32 47 66 48 45 49 65 50 46 51 49 52 64 53 84 54 47 55 48 56
REMARK SMILES IDX 63 58 85 59 50 60 33 61 34 62 43 63 35 64 36 65 42 66 44 67
REMARK SMILES IDX 37 68 38 69 39 70 40 71 41 72 67 73 68 74 77 75 69 76 70 77
REMARK SMILES IDX 76 78 78 79 71 80 72 81 73 82 74 83 75 84 51 85 52 86 61 87
REMARK SMILES IDX 53 88 54 89 60 90 62 91 55 92 56 93 57 94 58 95 59 96
REMARK H PARENT 17 6 8 14 21 27 83 46 49 57
REMARK Flexibility Score: inf
ROOT
ATOM      1  C   UNL A   1      32.780  27.735  26.878  1.00  0.00     0.042 C 
ENDROOT
BRANCH   1   2
ATOM      2  C   UNL A   1      32.486  26.416  26.199  1.00  0.00     0.118 C 
BRANCH   2   3
ATOM      3  N   UNL A   1      31.333  25.687  26.661  1.00  0.00    -0.352 N 
ATOM      4  C   UNL A   1      31.003  24.371  26.426  1.00  0.00     0.253 C 
ATOM      5  O   UNL A   1      30.098  23.889  27.110  1.00  0.00    -0.269 OA
ATOM      6  H   UNL A   1      30.700  26.196  27.218  1.00  0.00     0.163 HD
BRANCH   4   7
ATOM      7  C   UNL A   1      31.564  23.566  25.293  1.00  0.00     0.063 A 
ATOM      8  C   UNL A   1      31.337  23.698  23.905  1.00  0.00     0.051 A 
ATOM      9  C   UNL A   1      31.893  22.712  23.052  1.00  0.00     0.027 A 
ATOM     10  C   UNL A   1      32.706  21.683  23.525  1.00  0.00     0.002 A 
ATOM     11  C   UNL A   1      32.418  22.531  25.749  1.00  0.00     0.016 A 
ATOM     12  C   UNL A   1      32.992  21.607  24.877  1.00  0.00     0.001 A 
BRANCH   8  13
ATOM     13  N   UNL A   1      30.692  24.751  23.220  1.00  0.00    -0.352 N 
ATOM     14  H   UNL A   1      29.879  24.454  22.750  1.00  0.00     0.167 HD
BRANCH  13  15
ATOM     15  C   UNL A   1      30.943  26.134  23.050  1.00  0.00     0.077 A 
ATOM     16  C   UNL A   1      33.766  28.644  22.373  1.00  0.00     0.046 C 
ATOM     17  C   UNL A   1      32.428  28.062  22.736  1.00  0.00    -0.030 A 
ATOM     18  C   UNL A   1      31.430  28.914  23.236  1.00  0.00     0.006 A 
ATOM     19  C   UNL A   1      32.164  26.680  22.609  1.00  0.00     0.069 A 
ATOM     20  C   UNL A   1      30.180  28.412  23.575  1.00  0.00     0.023 A 
ATOM     21  Cl  UNL A   1      33.325  25.693  21.769  1.00  0.00    -0.082 Cl
ATOM     22  C   UNL A   1      29.938  27.043  23.474  1.00  0.00     0.066 A 
ATOM     23  Cl  UNL A   1      28.389  26.462  24.005  1.00  0.00    -0.082 Cl
ENDBRANCH  13  15
ENDBRANCH   8  13
ENDBRANCH   4   7
ENDBRANCH   2   3
ENDBRANCH   1   2
BRANCH   1  24
ATOM     24  C   UNL A   1      33.694  28.673  26.098  1.00  0.00     0.118 C 
BRANCH  24  25
ATOM     25  N   UNL A   1      33.681  30.070  26.542  1.00  0.00    -0.352 N 
ATOM     26  C   UNL A   1      34.522  30.796  27.361  1.00  0.00     0.251 C 
ATOM     27  H   UNL A   1      32.924  30.591  26.189  1.00  0.00     0.163 HD
ATOM     28  O   UNL A   1      34.230  31.950  27.650  1.00  0.00    -0.269 OA
BRANCH  26  29
ATOM     29  C   UNL A   1      35.753  30.186  27.919  1.00  0.00     0.039 A 
ATOM     30  C   UNL A   1      36.944  30.236  27.185  1.00  0.00     0.014 A 
ATOM     31  C   UNL A   1      35.741  29.571  29.166  1.00  0.00     0.014 A 
ATOM     32  C   UNL A   1      38.135  29.776  27.760  1.00  0.00     0.010 A 
ATOM     33  C   UNL A   1      36.938  29.252  29.789  1.00  0.00     0.010 A 
ATOM     34  C   UNL A   1      38.151  29.336  29.093  1.00  0.00    -0.014 A 
BRANCH  34  35
ATOM     35  C   UNL A   1      39.399  28.931  29.793  1.00  0.00     0.031 A 
ATOM     36  C   UNL A   1      39.874  29.726  30.983  1.00  0.00     0.074 A 
ATOM     37  C   UNL A   1      40.167  27.945  29.288  1.00  0.00     0.049 A 
ATOM     38  N   UNL A   1      41.018  29.674  31.614  1.00  0.00    -0.248 NA
ATOM     39  C   UNL A   1      38.960  30.765  31.487  1.00  0.00     0.031 C 
ATOM     40  C   UNL A   1      39.859  27.152  28.096  1.00  0.00     0.029 A 
ATOM     41  N   UNL A   1      41.384  27.460  29.699  1.00  0.00    -0.354 N 
ATOM     42  C   UNL A   1      40.975  30.698  32.555  1.00  0.00     0.074 A 
ATOM     43  C   UNL A   1      39.727  31.399  32.358  1.00  0.00     0.031 C 
ATOM     44  C   UNL A   1      40.848  26.270  27.883  1.00  0.00     0.029 A 
ATOM     45  C   UNL A   1      41.882  26.462  28.895  1.00  0.00     0.049 A 
ATOM     46  H   UNL A   1      41.856  27.796  30.495  1.00  0.00     0.167 HD
ATOM     47  C   UNL A   1      41.876  31.005  33.519  1.00  0.00     0.037 A 
ATOM     48  C   UNL A   1      43.044  25.785  28.958  1.00  0.00     0.037 A 
ATOM     49  C   UNL A   1      43.091  30.264  33.738  1.00  0.00     0.049 A 
ATOM     50  C   UNL A   1      44.007  26.094  30.071  1.00  0.00     0.074 A 
ATOM     51  C   UNL A   1      44.038  30.433  34.730  1.00  0.00     0.029 A 
ATOM     52  N   UNL A   1      43.518  29.203  32.951  1.00  0.00    -0.354 N 
ATOM     53  N   UNL A   1      43.924  27.024  30.994  1.00  0.00    -0.248 NA
ATOM     54  C   UNL A   1      45.212  25.261  30.160  1.00  0.00     0.031 C 
ATOM     55  C   UNL A   1      45.056  29.496  34.523  1.00  0.00     0.029 A 
ATOM     56  C   UNL A   1      44.721  28.712  33.429  1.00  0.00     0.049 A 
ATOM     57  H   UNL A   1      43.037  28.852  32.167  1.00  0.00     0.167 HD
ATOM     58  C   UNL A   1      45.056  26.875  31.787  1.00  0.00     0.074 A 
ATOM     59  C   UNL A   1      45.800  25.757  31.241  1.00  0.00     0.031 C 
ATOM     60  C   UNL A   1      45.444  27.597  32.868  1.00  0.00     0.037 A 
BRANCH  47  61
ATOM     61  C   UNL A   1      41.563  32.183  34.405  1.00  0.00     0.058 A 
ATOM     62  C   UNL A   1      40.761  32.052  35.553  1.00  0.00     0.135 A 
ATOM     63  C   UNL A   1      42.039  33.465  34.089  1.00  0.00     0.135 A 
ATOM     64  F   UNL A   1      40.267  30.851  35.899  1.00  0.00    -0.206 F 
ATOM     65  C   UNL A   1      40.391  33.153  36.315  1.00  0.00     0.059 A 
ATOM     66  C   UNL A   1      41.711  34.578  34.858  1.00  0.00     0.059 A 
ATOM     67  F   UNL A   1      42.814  33.653  33.008  1.00  0.00    -0.206 F 
ATOM     68  C   UNL A   1      40.862  34.416  35.952  1.00  0.00     0.060 A 
BRANCH  68  69
ATOM     69  S   UNL A   1      40.336  35.844  36.924  1.00  0.00     0.124 S 
ATOM     70  O   UNL A   1      41.609  36.307  37.470  1.00  0.00    -0.237 OA
ATOM     71  O   UNL A   1      39.731  36.706  35.913  1.00  0.00    -0.237 OA
ATOM     72  O   UNL A   1      39.407  35.272  37.893  1.00  0.00    -0.744 OA
ENDBRANCH  68  69
ENDBRANCH  47  61
BRANCH  48  73
ATOM     73  C   UNL A   1      43.328  24.723  27.955  1.00  0.00     0.058 A 
ATOM     74  C   UNL A   1      44.126  24.987  26.834  1.00  0.00     0.135 A 
ATOM     75  C   UNL A   1      42.870  23.409  28.136  1.00  0.00     0.135 A 
ATOM     76  F   UNL A   1      44.583  26.230  26.615  1.00  0.00    -0.206 F 
ATOM     77  C   UNL A   1      44.467  23.988  25.928  1.00  0.00     0.059 A 
ATOM     78  C   UNL A   1      43.215  22.386  27.256  1.00  0.00     0.059 A 
ATOM     79  F   UNL A   1      42.118  23.098  29.203  1.00  0.00    -0.206 F 
ATOM     80  C   UNL A   1      44.015  22.686  26.153  1.00  0.00     0.060 A 
BRANCH  80  81
ATOM     81  S   UNL A   1      44.545  21.379  25.024  1.00  0.00     0.124 S 
ATOM     82  O   UNL A   1      44.424  22.039  23.730  1.00  0.00    -0.237 OA
ATOM     83  O   UNL A   1      45.906  21.113  25.481  1.00  0.00    -0.237 OA
ATOM     84  O   UNL A   1      43.587  20.307  25.281  1.00  0.00    -0.744 OA
ENDBRANCH  80  81
ENDBRANCH  48  73
BRANCH  60  85
ATOM     85  C   UNL A   1      46.718  27.185  33.551  1.00  0.00     0.058 A 
ATOM     86  C   UNL A   1      46.727  26.221  34.571  1.00  0.00     0.135 A 
ATOM     87  C   UNL A   1      47.948  27.720  33.139  1.00  0.00     0.135 A 
ATOM     88  F   UNL A   1      45.577  25.684  35.005  1.00  0.00    -0.206 F 
ATOM     89  C   UNL A   1      47.914  25.815  35.174  1.00  0.00     0.059 A 
ATOM     90  C   UNL A   1      49.149  27.310  33.709  1.00  0.00     0.059 A 
ATOM     91  F   UNL A   1      47.994  28.637  32.160  1.00  0.00    -0.206 F 
ATOM     92  C   UNL A   1      49.120  26.365  34.734  1.00  0.00     0.060 A 
BRANCH  92  93
ATOM     93  S   UNL A   1      50.656  25.805  35.498  1.00  0.00     0.124 S 
ATOM     94  O   UNL A   1      51.656  26.482  34.678  1.00  0.00    -0.237 OA
ATOM     95  O   UNL A   1      50.521  26.296  36.866  1.00  0.00    -0.237 OA
ATOM     96  O   UNL A   1      50.601  24.354  35.351  1.00  0.00    -0.744 OA
ENDBRANCH  92  93
ENDBRANCH  60  85
ENDBRANCH  34  35
ENDBRANCH  26  29
ENDBRANCH  24  25
ENDBRANCH   1  24
TORSDOF 15
ENDMDL
MODEL 3
REMARK VINA RESULT:     -11.7      4.905     10.398
REMARK SMILES Cc1ccc(Cl)c(Nc2ccccc2C(=O)NCCCNC(=O)c2ccc(-c3c4nc(c(-c5c(F)cc(S(=O)(=O)[O-])cc5F)c5ccc([nH]5)c(-c5c(F)cc(S(=O)(=O)[O-])cc5F)c5nc(c(-c6c(F)cc(S(=O)(=O)[O-])cc6F)c6ccc3[nH]6)C=C5)C=C4)cc2)c1Cl
REMARK SMILES IDX 19 1 18 2 17 3 15 4 16 5 14 7 9 8 10 9 11 10 13 11 12 12
REMARK SMILES IDX 8 13 7 15 1 16 2 17 3 18 90 19 4 20 91 21 5 22 6 23 20 24
REMARK SMILES IDX 21 25 22 26 23 28 24 29 25 30 89 31 26 32 88 33 27 34 28 35
REMARK SMILES IDX 29 36 82 37 30 38 87 39 81 40 83 41 31 42 86 43 80 44 79 45
REMARK SMILES IDX 32 47 66 48 45 49 65 50 46 51 49 52 64 53 84 54 47 55 48 56
REMARK SMILES IDX 63 58 85 59 50 60 33 61 34 62 43 63 35 64 36 65 42 66 44 67
REMARK SMILES IDX 37 68 38 69 39 70 40 71 41 72 67 73 68 74 77 75 69 76 70 77
REMARK SMILES IDX 76 78 78 79 71 80 72 81 73 82 74 83 75 84 51 85 52 86 61 87
REMARK SMILES IDX 53 88 54 89 60 90 62 91 55 92 56 93 57 94 58 95 59 96
REMARK H PARENT 17 6 8 14 21 27 83 46 49 57
REMARK Flexibility Score: inf
ROOT
ATOM      1  C   UNL A   1      37.583  23.897  25.544  1.00  0.00     0.042 C 
ENDROOT
BRANCH   1   2
ATOM      2  C   UNL A   1      36.606  22.782  25.243  1.00  0.00     0.118 C 
BRANCH   2   3
ATOM      3  N   UNL A   1      35.966  22.807  23.954  1.00  0.00    -0.352 N 
ATOM      4  C   UNL A   1      34.719  23.292  23.630  1.00  0.00     0.253 C 
ATOM      5  O   UNL A   1      34.465  23.429  22.430  1.00  0.00    -0.269 OA
ATOM      6  H   UNL A   1      36.487  22.430  23.209  1.00  0.00     0.163 HD
BRANCH   4   7
ATOM      7  C   UNL A   1      33.623  23.497  24.631  1.00  0.00     0.063 A 
ATOM      8  C   UNL A   1      33.216  24.684  25.279  1.00  0.00     0.051 A 
ATOM      9  C   UNL A   1      32.231  24.576  26.292  1.00  0.00     0.027 A 
ATOM     10  C   UNL A   1      31.608  23.369  26.606  1.00  0.00     0.002 A 
ATOM     11  C   UNL A   1      32.957  22.286  24.945  1.00  0.00     0.016 A 
ATOM     12  C   UNL A   1      31.953  22.223  25.911  1.00  0.00     0.001 A 
BRANCH   8  13
ATOM     13  N   UNL A   1      33.596  26.014  24.990  1.00  0.00    -0.352 N 
ATOM     14  H   UNL A   1      34.571  26.116  24.898  1.00  0.00     0.167 HD
BRANCH  13  15
ATOM     15  C   UNL A   1      32.902  27.234  24.803  1.00  0.00     0.077 A 
ATOM     16  C   UNL A   1      31.929  30.478  26.609  1.00  0.00     0.046 C 
ATOM     17  C   UNL A   1      31.992  29.372  25.591  1.00  0.00    -0.030 A 
ATOM     18  C   UNL A   1      31.085  29.383  24.520  1.00  0.00     0.006 A 
ATOM     19  C   UNL A   1      32.923  28.315  25.705  1.00  0.00     0.069 A 
ATOM     20  C   UNL A   1      31.120  28.381  23.558  1.00  0.00     0.023 A 
ATOM     21  Cl  UNL A   1      34.183  28.451  26.897  1.00  0.00    -0.082 Cl
ATOM     22  C   UNL A   1      32.021  27.327  23.694  1.00  0.00     0.066 A 
ATOM     23  Cl  UNL A   1      31.950  26.055  22.513  1.00  0.00    -0.082 Cl
ENDBRANCH  13  15
ENDBRANCH   8  13
ENDBRANCH   4   7
ENDBRANCH   2   3
ENDBRANCH   1   2
BRANCH   1  24
ATOM     24  C   UNL A   1      38.621  23.576  26.613  1.00  0.00     0.118 C 
BRANCH  24  25
ATOM     25  N   UNL A   1      40.018  23.713  26.190  1.00  0.00    -0.352 N 
ATOM     26  C   UNL A   1      40.988  24.655  26.469  1.00  0.00     0.251 C 
ATOM     27  H   UNL A   1      40.323  22.995  25.589  1.00  0.00     0.163 HD
ATOM     28  O   UNL A   1      42.072  24.586  25.903  1.00  0.00    -0.269 OA
BRANCH  26  29
ATOM     29  C   UNL A   1      40.721  25.764  27.416  1.00  0.00     0.039 A 
ATOM     30  C   UNL A   1      39.792  25.584  28.447  1.00  0.00     0.014 A 
ATOM     31  C   UNL A   1      41.388  26.978  27.298  1.00  0.00     0.014 A 
ATOM     32  C   UNL A   1      39.629  26.580  29.419  1.00  0.00     0.010 A 
ATOM     33  C   UNL A   1      41.336  27.897  28.335  1.00  0.00     0.010 A 
ATOM     34  C   UNL A   1      40.447  27.720  29.404  1.00  0.00    -0.014 A 
BRANCH  34  35
ATOM     35  C   UNL A   1      40.395  28.764  30.462  1.00  0.00     0.031 A 
ATOM     36  C   UNL A   1      41.275  28.632  31.679  1.00  0.00     0.074 A 
ATOM     37  C   UNL A   1      39.474  29.746  30.396  1.00  0.00     0.049 A 
ATOM     38  N   UNL A   1      41.251  29.308  32.798  1.00  0.00    -0.248 NA
ATOM     39  C   UNL A   1      42.272  27.549  31.655  1.00  0.00     0.031 C 
ATOM     40  C   UNL A   1      38.510  29.938  29.310  1.00  0.00     0.029 A 
ATOM     41  N   UNL A   1      39.178  30.754  31.279  1.00  0.00    -0.354 N 
ATOM     42  C   UNL A   1      42.196  28.704  33.621  1.00  0.00     0.074 A 
ATOM     43  C   UNL A   1      42.716  27.564  32.901  1.00  0.00     0.031 C 
ATOM     44  C   UNL A   1      37.744  31.006  29.581  1.00  0.00     0.029 A 
ATOM     45  C   UNL A   1      38.130  31.550  30.879  1.00  0.00     0.049 A 
ATOM     46  H   UNL A   1      39.669  30.895  32.121  1.00  0.00     0.167 HD
ATOM     47  C   UNL A   1      42.620  29.083  34.851  1.00  0.00     0.037 A 
ATOM     48  C   UNL A   1      37.540  32.594  31.492  1.00  0.00     0.037 A 
ATOM     49  C   UNL A   1      42.131  30.251  35.535  1.00  0.00     0.049 A 
ATOM     50  C   UNL A   1      38.061  33.042  32.830  1.00  0.00     0.074 A 
ATOM     51  C   UNL A   1      42.540  30.777  36.746  1.00  0.00     0.029 A 
ATOM     52  N   UNL A   1      41.126  31.081  35.056  1.00  0.00    -0.354 N 
ATOM     53  N   UNL A   1      39.000  32.499  33.569  1.00  0.00    -0.248 NA
ATOM     54  C   UNL A   1      37.455  34.246  33.412  1.00  0.00     0.031 C 
ATOM     55  C   UNL A   1      41.760  31.906  37.016  1.00  0.00     0.029 A 
ATOM     56  C   UNL A   1      40.894  32.111  35.951  1.00  0.00     0.049 A 
ATOM     57  H   UNL A   1      40.648  30.955  34.205  1.00  0.00     0.167 HD
ATOM     58  C   UNL A   1      39.112  33.307  34.695  1.00  0.00     0.074 A 
ATOM     59  C   UNL A   1      38.153  34.381  34.531  1.00  0.00     0.031 C 
ATOM     60  C   UNL A   1      39.933  33.171  35.767  1.00  0.00     0.037 A 
BRANCH  47  61
ATOM     61  C   UNL A   1      43.666  28.226  35.514  1.00  0.00     0.058 A 
ATOM     62  C   UNL A   1      45.038  28.408  35.264  1.00  0.00     0.135 A 
ATOM     63  C   UNL A   1      43.298  27.188  36.385  1.00  0.00     0.135 A 
ATOM     64  F   UNL A   1      45.450  29.378  34.430  1.00  0.00    -0.206 F 
ATOM     65  C   UNL A   1      45.998  27.556  35.798  1.00  0.00     0.059 A 
ATOM     66  C   UNL A   1      44.245  26.344  36.960  1.00  0.00     0.059 A 
ATOM     67  F   UNL A   1      42.004  26.968  36.668  1.00  0.00    -0.206 F 
ATOM     68  C   UNL A   1      45.590  26.518  36.637  1.00  0.00     0.060 A 
BRANCH  68  69
ATOM     69  S   UNL A   1      46.841  25.392  37.287  1.00  0.00     0.124 S 
ATOM     70  O   UNL A   1      48.007  25.765  36.490  1.00  0.00    -0.237 OA
ATOM     71  O   UNL A   1      46.896  25.762  38.698  1.00  0.00    -0.237 OA
ATOM     72  O   UNL A   1      46.287  24.071  37.009  1.00  0.00    -0.744 OA
ENDBRANCH  68  69
ENDBRANCH  47  61
BRANCH  48  73
ATOM     73  C   UNL A   1      36.418  33.301  30.816  1.00  0.00     0.058 A 
ATOM     74  C   UNL A   1      35.110  33.212  31.310  1.00  0.00     0.135 A 
ATOM     75  C   UNL A   1      36.644  34.137  29.711  1.00  0.00     0.135 A 
ATOM     76  F   UNL A   1      34.842  32.422  32.361  1.00  0.00    -0.206 F 
ATOM     77  C   UNL A   1      34.064  33.929  30.739  1.00  0.00     0.059 A 
ATOM     78  C   UNL A   1      35.619  34.881  29.135  1.00  0.00     0.059 A 
ATOM     79  F   UNL A   1      37.883  34.272  29.211  1.00  0.00    -0.206 F 
ATOM     80  C   UNL A   1      34.330  34.770  29.656  1.00  0.00     0.060 A 
BRANCH  80  81
ATOM     81  S   UNL A   1      32.982  35.770  28.986  1.00  0.00     0.124 S 
ATOM     82  O   UNL A   1      32.340  34.828  28.078  1.00  0.00    -0.237 OA
ATOM     83  O   UNL A   1      32.229  36.115  30.188  1.00  0.00    -0.237 OA
ATOM     84  O   UNL A   1      33.678  36.887  28.352  1.00  0.00    -0.744 OA
ENDBRANCH  80  81
ENDBRANCH  48  73
BRANCH  60  85
ATOM     85  C   UNL A   1      39.852  34.225  36.835  1.00  0.00     0.058 A 
ATOM     86  C   UNL A   1      40.510  35.457  36.704  1.00  0.00     0.135 A 
ATOM     87  C   UNL A   1      39.060  34.019  37.975  1.00  0.00     0.135 A 
ATOM     88  F   UNL A   1      41.284  35.701  35.635  1.00  0.00    -0.206 F 
ATOM     89  C   UNL A   1      40.400  36.445  37.679  1.00  0.00     0.059 A 
ATOM     90  C   UNL A   1      38.915  35.001  38.949  1.00  0.00     0.059 A 
ATOM     91  F   UNL A   1      38.402  32.861  38.142  1.00  0.00    -0.206 F 
ATOM     92  C   UNL A   1      39.598  36.207  38.797  1.00  0.00     0.060 A 
BRANCH  92  93
ATOM     93  S   UNL A   1      39.436  37.508  40.037  1.00  0.00     0.124 S 
ATOM     94  O   UNL A   1      40.779  38.078  40.042  1.00  0.00    -0.237 OA
ATOM     95  O   UNL A   1      38.391  38.354  39.468  1.00  0.00    -0.237 OA
ATOM     96  O   UNL A   1      39.056  36.781  41.245  1.00  0.00    -0.744 OA
ENDBRANCH  92  93
ENDBRANCH  60  85
ENDBRANCH  34  35
ENDBRANCH  26  29
ENDBRANCH  24  25
ENDBRANCH   1  24
TORSDOF 15
ENDMDL
