MODEL 1
REMARK VINA RESULT:     -12.1      0.000      0.000
REMARK SMILES COc1cccc(C(=O)N[C@H]2C=C[C@@H](C(=O)NCCCNC(=O)c3ccc(-c4c5nc(c(-c6c(F)cc(S(=O)(=O)[O-])cc6F)c6ccc([nH]6)c(-c6c(F)cc(S(=O)(=O)[O-])cc6F)c6nc(c(-c7c(F)cc(S(=O)(=O)[O-])cc7F)c7ccc4[nH]7)C=C6)C=C5)cc3)C2)c1
REMARK SMILES IDX 19 1 18 2 17 3 15 4 16 5 14 7 11 8 12 9 90 10 13 11 10 12
REMARK SMILES IDX 8 13 9 14 7 16 3 17 4 18 91 19 5 20 6 21 2 22 1 23 20 24
REMARK SMILES IDX 21 25 22 26 23 28 24 29 25 30 89 31 26 32 88 33 27 34 28 35
REMARK SMILES IDX 29 36 82 37 30 38 87 39 81 40 83 41 31 42 86 43 80 44 79 45
REMARK SMILES IDX 32 47 66 48 45 49 65 50 46 51 49 52 64 53 84 54 47 55 48 56
REMARK SMILES IDX 63 58 85 59 50 60 33 61 34 62 43 63 35 64 36 65 42 66 44 67
REMARK SMILES IDX 37 68 38 69 39 70 40 71 41 72 67 73 68 74 77 75 69 76 70 77
REMARK SMILES IDX 76 78 78 79 71 80 72 81 73 82 74 83 75 84 51 85 52 86 61 87
REMARK SMILES IDX 53 88 54 89 60 90 62 91 55 92 56 93 57 94 58 95 59 96
REMARK H PARENT 17 6 10 15 21 27 83 46 49 57
REMARK Flexibility Score: inf
ROOT
ATOM      1  C   UNL A   1      39.313  22.623  26.342  1.00  0.00     0.042 C 
ENDROOT
BRANCH   1   2
ATOM      2  C   UNL A   1      38.170  23.628  26.402  1.00  0.00     0.117 C 
BRANCH   2   3
ATOM      3  N   UNL A   1      37.362  23.658  25.195  1.00  0.00    -0.356 N 
ATOM      4  C   UNL A   1      36.244  22.962  24.850  1.00  0.00     0.227 C 
ATOM      5  O   UNL A   1      35.699  23.262  23.782  1.00  0.00    -0.274 OA
ATOM      6  H   UNL A   1      37.678  24.289  24.509  1.00  0.00     0.163 HD
BRANCH   4   7
ATOM      7  C   UNL A   1      35.714  21.772  25.659  1.00  0.00     0.103 C 
ATOM      8  C   UNL A   1      33.706  21.447  27.076  1.00  0.00     0.106 C 
ATOM      9  C   UNL A   1      33.668  20.640  25.809  1.00  0.00    -0.006 C 
ATOM     10  C   UNL A   1      34.987  22.261  26.909  1.00  0.00     0.047 C 
ATOM     11  C   UNL A   1      34.742  20.832  25.031  1.00  0.00    -0.016 C 
BRANCH   8  12
ATOM     12  N   UNL A   1      32.442  22.153  27.187  1.00  0.00    -0.346 N 
ATOM     13  C   UNL A   1      31.956  23.373  26.789  1.00  0.00     0.251 C 
ATOM     14  O   UNL A   1      30.905  23.756  27.303  1.00  0.00    -0.269 OA
ATOM     15  H   UNL A   1      31.764  21.625  27.667  1.00  0.00     0.164 HD
BRANCH  13  16
ATOM     16  C   UNL A   1      32.525  24.171  25.677  1.00  0.00     0.043 A 
ATOM     17  C   UNL A   1      32.659  24.893  23.381  1.00  0.00     0.119 A 
ATOM     18  C   UNL A   1      33.439  25.988  23.758  1.00  0.00     0.046 A 
ATOM     19  C   UNL A   1      32.256  23.945  24.328  1.00  0.00     0.060 A 
ATOM     20  C   UNL A   1      33.802  26.159  25.091  1.00  0.00     0.005 A 
ATOM     21  C   UNL A   1      33.346  25.253  26.047  1.00  0.00     0.014 A 
BRANCH  17  22
ATOM     22  O   UNL A   1      32.348  24.799  22.051  1.00  0.00    -0.497 OA
ATOM     23  C   UNL A   1      32.850  25.892  21.285  1.00  0.00     0.278 C 
ENDBRANCH  17  22
ENDBRANCH  13  16
ENDBRANCH   8  12
ENDBRANCH   4   7
ENDBRANCH   2   3
ENDBRANCH   1   2
BRANCH   1  24
ATOM     24  C   UNL A   1      40.642  23.089  26.930  1.00  0.00     0.118 C 
BRANCH  24  25
ATOM     25  N   UNL A   1      41.374  23.961  26.029  1.00  0.00    -0.352 N 
ATOM     26  C   UNL A   1      41.581  25.315  26.029  1.00  0.00     0.251 C 
ATOM     27  H   UNL A   1      41.803  23.491  25.278  1.00  0.00     0.163 HD
ATOM     28  O   UNL A   1      42.054  25.822  25.012  1.00  0.00    -0.269 OA
BRANCH  26  29
ATOM     29  C   UNL A   1      41.264  26.179  27.193  1.00  0.00     0.039 A 
ATOM     30  C   UNL A   1      42.075  27.299  27.416  1.00  0.00     0.014 A 
ATOM     31  C   UNL A   1      40.269  25.863  28.124  1.00  0.00     0.014 A 
ATOM     32  C   UNL A   1      41.875  28.103  28.540  1.00  0.00     0.010 A 
ATOM     33  C   UNL A   1      40.022  26.711  29.209  1.00  0.00     0.010 A 
ATOM     34  C   UNL A   1      40.832  27.830  29.440  1.00  0.00    -0.014 A 
BRANCH  34  35
ATOM     35  C   UNL A   1      40.607  28.716  30.617  1.00  0.00     0.031 A 
ATOM     36  C   UNL A   1      41.453  28.590  31.857  1.00  0.00     0.074 A 
ATOM     37  C   UNL A   1      39.629  29.641  30.566  1.00  0.00     0.049 A 
ATOM     38  N   UNL A   1      41.430  29.313  32.949  1.00  0.00    -0.248 NA
ATOM     39  C   UNL A   1      42.438  27.497  31.887  1.00  0.00     0.031 C 
ATOM     40  C   UNL A   1      38.699  29.826  29.450  1.00  0.00     0.029 A 
ATOM     41  N   UNL A   1      39.257  30.607  31.469  1.00  0.00    -0.354 N 
ATOM     42  C   UNL A   1      42.388  28.762  33.795  1.00  0.00     0.074 A 
ATOM     43  C   UNL A   1      42.937  27.612  33.110  1.00  0.00     0.031 C 
ATOM     44  C   UNL A   1      37.891  30.865  29.716  1.00  0.00     0.029 A 
ATOM     45  C   UNL A   1      38.228  31.406  31.029  1.00  0.00     0.049 A 
ATOM     46  H   UNL A   1      39.686  30.716  32.348  1.00  0.00     0.167 HD
ATOM     47  C   UNL A   1      42.790  29.189  35.017  1.00  0.00     0.037 A 
ATOM     48  C   UNL A   1      37.632  32.465  31.609  1.00  0.00     0.037 A 
ATOM     49  C   UNL A   1      42.258  30.348  35.687  1.00  0.00     0.049 A 
ATOM     50  C   UNL A   1      38.125  32.945  32.946  1.00  0.00     0.074 A 
ATOM     51  C   UNL A   1      42.635  30.890  36.904  1.00  0.00     0.029 A 
ATOM     52  N   UNL A   1      41.236  31.149  35.196  1.00  0.00    -0.354 N 
ATOM     53  N   UNL A   1      39.077  32.451  33.700  1.00  0.00    -0.248 NA
ATOM     54  C   UNL A   1      37.473  34.139  33.502  1.00  0.00     0.031 C 
ATOM     55  C   UNL A   1      41.818  31.998  37.165  1.00  0.00     0.029 A 
ATOM     56  C   UNL A   1      40.963  32.171  36.090  1.00  0.00     0.049 A 
ATOM     57  H   UNL A   1      40.772  31.009  34.339  1.00  0.00     0.167 HD
ATOM     58  C   UNL A   1      39.157  33.288  34.809  1.00  0.00     0.074 A 
ATOM     59  C   UNL A   1      38.168  34.329  34.615  1.00  0.00     0.031 C 
ATOM     60  C   UNL A   1      39.974  33.201  35.887  1.00  0.00     0.037 A 
BRANCH  47  61
ATOM     61  C   UNL A   1      43.869  28.399  35.711  1.00  0.00     0.058 A 
ATOM     62  C   UNL A   1      43.562  27.374  36.620  1.00  0.00     0.135 A 
ATOM     63  C   UNL A   1      45.225  28.643  35.437  1.00  0.00     0.135 A 
ATOM     64  F   UNL A   1      42.283  27.105  36.929  1.00  0.00    -0.206 F 
ATOM     65  C   UNL A   1      44.558  26.640  37.257  1.00  0.00     0.059 A 
ATOM     66  C   UNL A   1      46.238  27.903  36.042  1.00  0.00     0.059 A 
ATOM     67  F   UNL A   1      45.577  29.608  34.575  1.00  0.00    -0.206 F 
ATOM     68  C   UNL A   1      45.895  26.915  36.963  1.00  0.00     0.060 A 
BRANCH  68  69
ATOM     69  S   UNL A   1      47.176  25.954  37.796  1.00  0.00     0.124 S 
ATOM     70  O   UNL A   1      46.749  24.588  37.508  1.00  0.00    -0.237 OA
ATOM     71  O   UNL A   1      48.391  26.394  37.119  1.00  0.00    -0.237 OA
ATOM     72  O   UNL A   1      47.056  26.366  39.193  1.00  0.00    -0.744 OA
ENDBRANCH  68  69
ENDBRANCH  47  61
BRANCH  48  73
ATOM     73  C   UNL A   1      36.534  33.175  30.901  1.00  0.00     0.058 A 
ATOM     74  C   UNL A   1      35.205  33.064  31.335  1.00  0.00     0.135 A 
ATOM     75  C   UNL A   1      36.793  33.991  29.788  1.00  0.00     0.135 A 
ATOM     76  F   UNL A   1      34.908  32.292  32.392  1.00  0.00    -0.206 F 
ATOM     77  C   UNL A   1      34.167  33.722  30.683  1.00  0.00     0.059 A 
ATOM     78  C   UNL A   1      35.775  34.679  29.135  1.00  0.00     0.059 A 
ATOM     79  F   UNL A   1      38.050  34.143  29.345  1.00  0.00    -0.206 F 
ATOM     80  C   UNL A   1      34.463  34.529  29.584  1.00  0.00     0.060 A 
BRANCH  80  81
ATOM     81  S   UNL A   1      33.116  35.419  28.774  1.00  0.00     0.124 S 
ATOM     82  O   UNL A   1      32.351  35.899  29.918  1.00  0.00    -0.237 OA
ATOM     83  O   UNL A   1      33.834  36.438  28.012  1.00  0.00    -0.237 OA
ATOM     84  O   UNL A   1      32.470  34.386  27.969  1.00  0.00    -0.744 OA
ENDBRANCH  80  81
ENDBRANCH  48  73
BRANCH  60  85
ATOM     85  C   UNL A   1      39.852  34.284  36.924  1.00  0.00     0.058 A 
ATOM     86  C   UNL A   1      40.551  35.497  36.813  1.00  0.00     0.135 A 
ATOM     87  C   UNL A   1      39.021  34.108  38.041  1.00  0.00     0.135 A 
ATOM     88  F   UNL A   1      41.361  35.715  35.765  1.00  0.00    -0.206 F 
ATOM     89  C   UNL A   1      40.468  36.477  37.796  1.00  0.00     0.059 A 
ATOM     90  C   UNL A   1      38.901  35.086  39.024  1.00  0.00     0.059 A 
ATOM     91  F   UNL A   1      38.318  32.974  38.190  1.00  0.00    -0.206 F 
ATOM     92  C   UNL A   1      39.646  36.258  38.904  1.00  0.00     0.060 A 
BRANCH  92  93
ATOM     93  S   UNL A   1      39.553  37.529  40.182  1.00  0.00     0.124 S 
ATOM     94  O   UNL A   1      40.928  38.015  40.212  1.00  0.00    -0.237 OA
ATOM     95  O   UNL A   1      38.566  38.455  39.636  1.00  0.00    -0.237 OA
ATOM     96  O   UNL A   1      39.121  36.790  41.364  1.00  0.00    -0.744 OA
ENDBRANCH  92  93
ENDBRANCH  60  85
ENDBRANCH  34  35
ENDBRANCH  26  29
ENDBRANCH  24  25
ENDBRANCH   1  24
TORSDOF 16
ENDMDL
MODEL 2
REMARK VINA RESULT:     -12.0      1.366      2.213
REMARK SMILES COc1cccc(C(=O)N[C@H]2C=C[C@@H](C(=O)NCCCNC(=O)c3ccc(-c4c5nc(c(-c6c(F)cc(S(=O)(=O)[O-])cc6F)c6ccc([nH]6)c(-c6c(F)cc(S(=O)(=O)[O-])cc6F)c6nc(c(-c7c(F)cc(S(=O)(=O)[O-])cc7F)c7ccc4[nH]7)C=C6)C=C5)cc3)C2)c1
REMARK SMILES IDX 19 1 18 2 17 3 15 4 16 5 14 7 11 8 12 9 90 10 13 11 10 12
REMARK SMILES IDX 8 13 9 14 7 16 3 17 4 18 91 19 5 20 6 21 2 22 1 23 20 24
REMARK SMILES IDX 21 25 22 26 23 28 24 29 25 30 89 31 26 32 88 33 27 34 28 35
REMARK SMILES IDX 29 36 82 37 30 38 87 39 81 40 83 41 31 42 86 43 80 44 79 45
REMARK SMILES IDX 32 47 66 48 45 49 65 50 46 51 49 52 64 53 84 54 47 55 48 56
REMARK SMILES IDX 63 58 85 59 50 60 33 61 34 62 43 63 35 64 36 65 42 66 44 67
REMARK SMILES IDX 37 68 38 69 39 70 40 71 41 72 67 73 68 74 77 75 69 76 70 77
REMARK SMILES IDX 76 78 78 79 71 80 72 81 73 82 74 83 75 84 51 85 52 86 61 87
REMARK SMILES IDX 53 88 54 89 60 90 62 91 55 92 56 93 57 94 58 95 59 96
REMARK H PARENT 17 6 10 15 21 27 83 46 49 57
REMARK Flexibility Score: inf
ROOT
ATOM      1  C   UNL A   1      39.391  22.005  26.291  1.00  0.00     0.042 C 
ENDROOT
BRANCH   1   2
ATOM      2  C   UNL A   1      38.112  22.353  25.542  1.00  0.00     0.117 C 
BRANCH   2   3
ATOM      3  N   UNL A   1      36.912  21.836  26.175  1.00  0.00    -0.356 N 
ATOM      4  C   UNL A   1      35.595  22.071  25.921  1.00  0.00     0.227 C 
ATOM      5  O   UNL A   1      34.769  21.411  26.561  1.00  0.00    -0.274 OA
ATOM      6  H   UNL A   1      37.079  21.208  26.914  1.00  0.00     0.163 HD
BRANCH   4   7
ATOM      7  C   UNL A   1      35.107  23.178  24.978  1.00  0.00     0.103 C 
ATOM      8  C   UNL A   1      32.890  24.218  24.592  1.00  0.00     0.106 C 
ATOM      9  C   UNL A   1      33.877  25.156  25.229  1.00  0.00    -0.006 C 
ATOM     10  C   UNL A   1      33.670  22.907  24.540  1.00  0.00     0.047 C 
ATOM     11  C   UNL A   1      35.069  24.588  25.459  1.00  0.00    -0.016 C 
BRANCH   8  12
ATOM     12  N   UNL A   1      31.667  24.270  25.373  1.00  0.00    -0.346 N 
ATOM     13  C   UNL A   1      30.827  25.256  25.827  1.00  0.00     0.251 C 
ATOM     14  O   UNL A   1      30.023  24.949  26.707  1.00  0.00    -0.269 OA
ATOM     15  H   UNL A   1      31.364  23.374  25.645  1.00  0.00     0.164 HD
BRANCH  13  16
ATOM     16  C   UNL A   1      30.722  26.602  25.217  1.00  0.00     0.043 A 
ATOM     17  C   UNL A   1      31.332  28.922  24.979  1.00  0.00     0.119 A 
ATOM     18  C   UNL A   1      30.682  28.980  23.745  1.00  0.00     0.046 A 
ATOM     19  C   UNL A   1      31.298  27.755  25.750  1.00  0.00     0.060 A 
ATOM     20  C   UNL A   1      30.012  27.860  23.258  1.00  0.00     0.005 A 
ATOM     21  C   UNL A   1      30.033  26.676  23.992  1.00  0.00     0.014 A 
BRANCH  17  22
ATOM     22  O   UNL A   1      31.965  30.066  25.385  1.00  0.00    -0.497 OA
ATOM     23  C   UNL A   1      33.159  29.808  26.122  1.00  0.00     0.278 C 
ENDBRANCH  17  22
ENDBRANCH  13  16
ENDBRANCH   8  12
ENDBRANCH   4   7
ENDBRANCH   2   3
ENDBRANCH   1   2
BRANCH   1  24
ATOM     24  C   UNL A   1      40.072  23.158  27.023  1.00  0.00     0.118 C 
BRANCH  24  25
ATOM     25  N   UNL A   1      40.866  23.989  26.135  1.00  0.00    -0.352 N 
ATOM     26  C   UNL A   1      41.157  25.328  26.148  1.00  0.00     0.251 C 
ATOM     27  H   UNL A   1      41.271  23.499  25.385  1.00  0.00     0.163 HD
ATOM     28  O   UNL A   1      41.670  25.812  25.139  1.00  0.00    -0.269 OA
BRANCH  26  29
ATOM     29  C   UNL A   1      40.884  26.201  27.316  1.00  0.00     0.039 A 
ATOM     30  C   UNL A   1      41.736  27.291  27.530  1.00  0.00     0.014 A 
ATOM     31  C   UNL A   1      39.889  25.919  28.258  1.00  0.00     0.014 A 
ATOM     32  C   UNL A   1      41.577  28.101  28.657  1.00  0.00     0.010 A 
ATOM     33  C   UNL A   1      39.683  26.774  29.346  1.00  0.00     0.010 A 
ATOM     34  C   UNL A   1      40.535  27.864  29.569  1.00  0.00    -0.014 A 
BRANCH  34  35
ATOM     35  C   UNL A   1      40.354  28.756  30.748  1.00  0.00     0.031 A 
ATOM     36  C   UNL A   1      41.223  28.612  31.972  1.00  0.00     0.074 A 
ATOM     37  C   UNL A   1      39.397  29.703  30.717  1.00  0.00     0.049 A 
ATOM     38  N   UNL A   1      41.239  29.336  33.063  1.00  0.00    -0.248 NA
ATOM     39  C   UNL A   1      42.183  27.497  31.983  1.00  0.00     0.031 C 
ATOM     40  C   UNL A   1      38.448  29.908  29.619  1.00  0.00     0.029 A 
ATOM     41  N   UNL A   1      39.066  30.678  31.626  1.00  0.00    -0.354 N 
ATOM     42  C   UNL A   1      42.201  28.764  33.889  1.00  0.00     0.074 A 
ATOM     43  C   UNL A   1      42.709  27.601  33.195  1.00  0.00     0.031 C 
ATOM     44  C   UNL A   1      37.670  30.965  29.900  1.00  0.00     0.029 A 
ATOM     45  C   UNL A   1      38.046  31.500  31.206  1.00  0.00     0.049 A 
ATOM     46  H   UNL A   1      39.515  30.778  32.495  1.00  0.00     0.167 HD
ATOM     47  C   UNL A   1      42.637  29.183  35.103  1.00  0.00     0.037 A 
ATOM     48  C   UNL A   1      37.487  32.573  31.796  1.00  0.00     0.037 A 
ATOM     49  C   UNL A   1      42.146  30.355  35.782  1.00  0.00     0.049 A 
ATOM     50  C   UNL A   1      38.017  33.043  33.122  1.00  0.00     0.074 A 
ATOM     51  C   UNL A   1      42.560  30.890  36.990  1.00  0.00     0.029 A 
ATOM     52  N   UNL A   1      41.133  31.178  35.311  1.00  0.00    -0.354 N 
ATOM     53  N   UNL A   1      38.973  32.528  33.858  1.00  0.00    -0.248 NA
ATOM     54  C   UNL A   1      37.405  34.252  33.690  1.00  0.00     0.031 C 
ATOM     55  C   UNL A   1      41.774  32.016  37.266  1.00  0.00     0.029 A 
ATOM     56  C   UNL A   1      40.901  32.208  36.208  1.00  0.00     0.049 A 
ATOM     57  H   UNL A   1      40.648  31.048  34.464  1.00  0.00     0.167 HD
ATOM     58  C   UNL A   1      39.095  33.363  34.963  1.00  0.00     0.074 A 
ATOM     59  C   UNL A   1      38.126  34.427  34.788  1.00  0.00     0.031 C 
ATOM     60  C   UNL A   1      39.932  33.260  36.024  1.00  0.00     0.037 A 
BRANCH  47  61
ATOM     61  C   UNL A   1      43.712  28.370  35.775  1.00  0.00     0.058 A 
ATOM     62  C   UNL A   1      45.075  28.611  35.537  1.00  0.00     0.135 A 
ATOM     63  C   UNL A   1      43.379  27.362  36.695  1.00  0.00     0.135 A 
ATOM     64  F   UNL A   1      45.451  29.554  34.658  1.00  0.00    -0.206 F 
ATOM     65  C   UNL A   1      46.069  27.863  36.162  1.00  0.00     0.059 A 
ATOM     66  C   UNL A   1      44.357  26.620  37.353  1.00  0.00     0.059 A 
ATOM     67  F   UNL A   1      42.093  27.090  36.963  1.00  0.00    -0.206 F 
ATOM     68  C   UNL A   1      45.699  26.867  37.068  1.00  0.00     0.060 A 
BRANCH  68  69
ATOM     69  S   UNL A   1      46.999  25.906  37.871  1.00  0.00     0.124 S 
ATOM     70  O   UNL A   1      47.581  25.197  36.735  1.00  0.00    -0.237 OA
ATOM     71  O   UNL A   1      47.835  26.943  38.466  1.00  0.00    -0.237 OA
ATOM     72  O   UNL A   1      46.268  25.073  38.822  1.00  0.00    -0.744 OA
ENDBRANCH  68  69
ENDBRANCH  47  61
BRANCH  48  73
ATOM     73  C   UNL A   1      36.390  33.306  31.110  1.00  0.00     0.058 A 
ATOM     74  C   UNL A   1      35.073  33.252  31.589  1.00  0.00     0.135 A 
ATOM     75  C   UNL A   1      36.640  34.091  29.972  1.00  0.00     0.135 A 
ATOM     76  F   UNL A   1      34.785  32.512  32.672  1.00  0.00    -0.206 F 
ATOM     77  C   UNL A   1      34.038  33.932  30.958  1.00  0.00     0.059 A 
ATOM     78  C   UNL A   1      35.625  34.801  29.339  1.00  0.00     0.059 A 
ATOM     79  F   UNL A   1      37.886  34.190  29.485  1.00  0.00    -0.206 F 
ATOM     80  C   UNL A   1      34.325  34.707  29.833  1.00  0.00     0.060 A 
BRANCH  80  81
ATOM     81  S   UNL A   1      32.983  35.627  29.049  1.00  0.00     0.124 S 
ATOM     82  O   UNL A   1      32.363  34.597  28.225  1.00  0.00    -0.237 OA
ATOM     83  O   UNL A   1      32.206  36.079  30.200  1.00  0.00    -0.237 OA
ATOM     84  O   UNL A   1      33.682  36.684  28.323  1.00  0.00    -0.744 OA
ENDBRANCH  80  81
ENDBRANCH  48  73
BRANCH  60  85
ATOM     85  C   UNL A   1      39.856  34.346  37.062  1.00  0.00     0.058 A 
ATOM     86  C   UNL A   1      39.091  34.200  38.231  1.00  0.00     0.135 A 
ATOM     87  C   UNL A   1      40.560  35.548  36.886  1.00  0.00     0.135 A 
ATOM     88  F   UNL A   1      38.397  33.072  38.446  1.00  0.00    -0.206 F 
ATOM     89  C   UNL A   1      38.990  35.225  39.166  1.00  0.00     0.059 A 
ATOM     90  C   UNL A   1      40.495  36.576  37.821  1.00  0.00     0.059 A 
ATOM     91  F   UNL A   1      41.318  35.734  35.794  1.00  0.00    -0.206 F 
ATOM     92  C   UNL A   1      39.689  36.414  38.947  1.00  0.00     0.060 A 
BRANCH  92  93
ATOM     93  S   UNL A   1      39.543  37.745  40.158  1.00  0.00     0.124 S 
ATOM     94  O   UNL A   1      40.903  38.273  40.178  1.00  0.00    -0.237 OA
ATOM     95  O   UNL A   1      38.535  38.612  39.555  1.00  0.00    -0.237 OA
ATOM     96  O   UNL A   1      39.119  37.053  41.372  1.00  0.00    -0.744 OA
ENDBRANCH  92  93
ENDBRANCH  60  85
ENDBRANCH  34  35
ENDBRANCH  26  29
ENDBRANCH  24  25
ENDBRANCH   1  24
TORSDOF 16
ENDMDL
MODEL 3
REMARK VINA RESULT:     -11.9      5.387     11.514
REMARK SMILES COc1cccc(C(=O)N[C@H]2C=C[C@@H](C(=O)NCCCNC(=O)c3ccc(-c4c5nc(c(-c6c(F)cc(S(=O)(=O)[O-])cc6F)c6ccc([nH]6)c(-c6c(F)cc(S(=O)(=O)[O-])cc6F)c6nc(c(-c7c(F)cc(S(=O)(=O)[O-])cc7F)c7ccc4[nH]7)C=C6)C=C5)cc3)C2)c1
REMARK SMILES IDX 19 1 18 2 17 3 15 4 16 5 14 7 11 8 12 9 90 10 13 11 10 12
REMARK SMILES IDX 8 13 9 14 7 16 3 17 4 18 91 19 5 20 6 21 2 22 1 23 20 24
REMARK SMILES IDX 21 25 22 26 23 28 24 29 25 30 89 31 26 32 88 33 27 34 28 35
REMARK SMILES IDX 29 36 82 37 30 38 87 39 81 40 83 41 31 42 86 43 80 44 79 45
REMARK SMILES IDX 32 47 66 48 45 49 65 50 46 51 49 52 64 53 84 54 47 55 48 56
REMARK SMILES IDX 63 58 85 59 50 60 33 61 34 62 43 63 35 64 36 65 42 66 44 67
REMARK SMILES IDX 37 68 38 69 39 70 40 71 41 72 67 73 68 74 77 75 69 76 70 77
REMARK SMILES IDX 76 78 78 79 71 80 72 81 73 82 74 83 75 84 51 85 52 86 61 87
REMARK SMILES IDX 53 88 54 89 60 90 62 91 55 92 56 93 57 94 58 95 59 96
REMARK H PARENT 17 6 10 15 21 27 83 46 49 57
REMARK Flexibility Score: inf
ROOT
ATOM      1  C   UNL A   1      33.746  33.599  28.321  1.00  0.00     0.042 C 
ENDROOT
BRANCH   1   2
ATOM      2  C   UNL A   1      34.144  34.605  29.394  1.00  0.00     0.117 C 
BRANCH   2   3
ATOM      3  N   UNL A   1      33.650  34.265  30.717  1.00  0.00    -0.356 N 
ATOM      4  C   UNL A   1      34.310  34.025  31.883  1.00  0.00     0.227 C 
ATOM      5  O   UNL A   1      33.624  33.851  32.896  1.00  0.00    -0.274 OA
ATOM      6  H   UNL A   1      32.671  34.196  30.781  1.00  0.00     0.163 HD
BRANCH   4   7
ATOM      7  C   UNL A   1      35.832  33.852  31.965  1.00  0.00     0.103 C 
ATOM      8  C   UNL A   1      37.286  32.037  32.825  1.00  0.00     0.106 C 
ATOM      9  C   UNL A   1      37.355  32.189  31.331  1.00  0.00    -0.006 C 
ATOM     10  C   UNL A   1      36.209  33.049  33.208  1.00  0.00     0.047 C 
ATOM     11  C   UNL A   1      36.552  33.154  30.863  1.00  0.00    -0.016 C 
BRANCH   8  12
ATOM     12  N   UNL A   1      37.057  30.633  33.116  1.00  0.00    -0.346 N 
ATOM     13  C   UNL A   1      37.826  29.499  33.168  1.00  0.00     0.251 C 
ATOM     14  O   UNL A   1      37.237  28.418  33.178  1.00  0.00    -0.269 OA
ATOM     15  H   UNL A   1      36.113  30.449  33.328  1.00  0.00     0.164 HD
BRANCH  13  16
ATOM     16  C   UNL A   1      39.294  29.500  33.375  1.00  0.00     0.043 A 
ATOM     17  C   UNL A   1      41.548  28.805  32.880  1.00  0.00     0.119 A 
ATOM     18  C   UNL A   1      42.054  29.870  33.626  1.00  0.00     0.046 A 
ATOM     19  C   UNL A   1      40.170  28.576  32.806  1.00  0.00     0.060 A 
ATOM     20  C   UNL A   1      41.184  30.733  34.286  1.00  0.00     0.005 A 
ATOM     21  C   UNL A   1      39.809  30.548  34.160  1.00  0.00     0.014 A 
BRANCH  17  22
ATOM     22  O   UNL A   1      42.471  28.003  32.264  1.00  0.00    -0.497 OA
ATOM     23  C   UNL A   1      43.372  27.386  33.182  1.00  0.00     0.278 C 
ENDBRANCH  17  22
ENDBRANCH  13  16
ENDBRANCH   8  12
ENDBRANCH   4   7
ENDBRANCH   2   3
ENDBRANCH   1   2
BRANCH   1  24
ATOM     24  C   UNL A   1      34.777  32.519  28.005  1.00  0.00     0.118 C 
BRANCH  24  25
ATOM     25  N   UNL A   1      34.190  31.193  27.936  1.00  0.00    -0.352 N 
ATOM     26  C   UNL A   1      34.749  29.942  27.921  1.00  0.00     0.251 C 
ATOM     27  H   UNL A   1      33.207  31.192  27.893  1.00  0.00     0.163 HD
ATOM     28  O   UNL A   1      34.022  28.993  27.626  1.00  0.00    -0.269 OA
BRANCH  26  29
ATOM     29  C   UNL A   1      36.175  29.693  28.247  1.00  0.00     0.039 A 
ATOM     30  C   UNL A   1      37.117  29.866  27.226  1.00  0.00     0.014 A 
ATOM     31  C   UNL A   1      36.595  29.195  29.484  1.00  0.00     0.014 A 
ATOM     32  C   UNL A   1      38.464  29.570  27.451  1.00  0.00     0.010 A 
ATOM     33  C   UNL A   1      37.954  28.970  29.731  1.00  0.00     0.010 A 
ATOM     34  C   UNL A   1      38.902  29.136  28.713  1.00  0.00    -0.014 A 
BRANCH  34  35
ATOM     35  C   UNL A   1      40.346  28.857  28.950  1.00  0.00     0.031 A 
ATOM     36  C   UNL A   1      40.950  27.525  28.586  1.00  0.00     0.074 A 
ATOM     37  C   UNL A   1      41.120  29.813  29.501  1.00  0.00     0.049 A 
ATOM     38  N   UNL A   1      42.196  27.133  28.672  1.00  0.00    -0.248 NA
ATOM     39  C   UNL A   1      40.033  26.491  28.079  1.00  0.00     0.031 C 
ATOM     40  C   UNL A   1      40.647  31.123  29.955  1.00  0.00     0.029 A 
ATOM     41  N   UNL A   1      42.467  29.838  29.764  1.00  0.00    -0.354 N 
ATOM     42  C   UNL A   1      42.213  25.810  28.239  1.00  0.00     0.074 A 
ATOM     43  C   UNL A   1      40.844  25.451  27.941  1.00  0.00     0.031 C 
ATOM     44  C   UNL A   1      41.691  31.837  30.404  1.00  0.00     0.029 A 
ATOM     45  C   UNL A   1      42.903  31.031  30.292  1.00  0.00     0.049 A 
ATOM     46  H   UNL A   1      43.064  29.075  29.592  1.00  0.00     0.167 HD
ATOM     47  C   UNL A   1      43.273  24.980  28.082  1.00  0.00     0.037 A 
ATOM     48  C   UNL A   1      44.140  31.437  30.634  1.00  0.00     0.037 A 
ATOM     49  C   UNL A   1      44.639  25.347  28.358  1.00  0.00     0.049 A 
ATOM     50  C   UNL A   1      45.305  30.513  30.410  1.00  0.00     0.074 A 
ATOM     51  C   UNL A   1      45.787  24.594  28.182  1.00  0.00     0.029 A 
ATOM     52  N   UNL A   1      45.043  26.574  28.865  1.00  0.00    -0.354 N 
ATOM     53  N   UNL A   1      45.310  29.290  29.937  1.00  0.00    -0.248 NA
ATOM     54  C   UNL A   1      46.637  31.033  30.749  1.00  0.00     0.031 C 
ATOM     55  C   UNL A   1      46.883  25.353  28.615  1.00  0.00     0.029 A 
ATOM     56  C   UNL A   1      46.420  26.594  29.019  1.00  0.00     0.049 A 
ATOM     57  H   UNL A   1      44.440  27.320  29.085  1.00  0.00     0.167 HD
ATOM     58  C   UNL A   1      46.645  28.902  29.898  1.00  0.00     0.074 A 
ATOM     59  C   UNL A   1      47.419  30.029  30.378  1.00  0.00     0.031 C 
ATOM     60  C   UNL A   1      47.180  27.721  29.500  1.00  0.00     0.037 A 
BRANCH  47  61
ATOM     61  C   UNL A   1      42.999  23.588  27.578  1.00  0.00     0.058 A 
ATOM     62  C   UNL A   1      42.570  22.564  28.439  1.00  0.00     0.135 A 
ATOM     63  C   UNL A   1      43.129  23.280  26.214  1.00  0.00     0.135 A 
ATOM     64  F   UNL A   1      42.440  22.799  29.755  1.00  0.00    -0.206 F 
ATOM     65  C   UNL A   1      42.311  21.279  27.973  1.00  0.00     0.059 A 
ATOM     66  C   UNL A   1      42.850  22.008  25.720  1.00  0.00     0.059 A 
ATOM     67  F   UNL A   1      43.533  24.219  25.345  1.00  0.00    -0.206 F 
ATOM     68  C   UNL A   1      42.457  21.010  26.610  1.00  0.00     0.060 A 
BRANCH  68  69
ATOM     69  S   UNL A   1      42.116  19.338  26.021  1.00  0.00     0.124 S 
ATOM     70  O   UNL A   1      42.913  19.293  24.798  1.00  0.00    -0.237 OA
ATOM     71  O   UNL A   1      42.599  18.511  27.122  1.00  0.00    -0.237 OA
ATOM     72  O   UNL A   1      40.669  19.334  25.826  1.00  0.00    -0.744 OA
ENDBRANCH  68  69
ENDBRANCH  47  61
BRANCH  48  73
ATOM     73  C   UNL A   1      44.345  32.806  31.179  1.00  0.00     0.058 A 
ATOM     74  C   UNL A   1      44.474  33.022  32.559  1.00  0.00     0.135 A 
ATOM     75  C   UNL A   1      44.434  33.921  30.331  1.00  0.00     0.135 A 
ATOM     76  F   UNL A   1      44.392  31.987  33.409  1.00  0.00    -0.206 F 
ATOM     77  C   UNL A   1      44.666  34.296  33.082  1.00  0.00     0.059 A 
ATOM     78  C   UNL A   1      44.652  35.201  30.829  1.00  0.00     0.059 A 
ATOM     79  F   UNL A   1      44.335  33.763  29.002  1.00  0.00    -0.206 F 
ATOM     80  C   UNL A   1      44.756  35.380  32.208  1.00  0.00     0.060 A 
BRANCH  80  81
ATOM     81  S   UNL A   1      45.055  37.024  32.894  1.00  0.00     0.124 S 
ATOM     82  O   UNL A   1      46.509  37.107  32.834  1.00  0.00    -0.237 OA
ATOM     83  O   UNL A   1      44.327  37.883  31.964  1.00  0.00    -0.237 OA
ATOM     84  O   UNL A   1      44.481  36.937  34.234  1.00  0.00    -0.744 OA
ENDBRANCH  80  81
ENDBRANCH  48  73
BRANCH  60  85
ATOM     85  C   UNL A   1      48.679  27.605  29.538  1.00  0.00     0.058 A 
ATOM     86  C   UNL A   1      49.360  27.199  30.698  1.00  0.00     0.135 A 
ATOM     87  C   UNL A   1      49.445  27.900  28.399  1.00  0.00     0.135 A 
ATOM     88  F   UNL A   1      48.675  26.907  31.815  1.00  0.00    -0.206 F 
ATOM     89  C   UNL A   1      50.749  27.134  30.740  1.00  0.00     0.059 A 
ATOM     90  C   UNL A   1      50.833  27.816  28.411  1.00  0.00     0.059 A 
ATOM     91  F   UNL A   1      48.844  28.279  27.260  1.00  0.00    -0.206 F 
ATOM     92  C   UNL A   1      51.478  27.455  29.593  1.00  0.00     0.060 A 
BRANCH  92  93
ATOM     93  S   UNL A   1      53.280  27.381  29.659  1.00  0.00     0.124 S 
ATOM     94  O   UNL A   1      53.594  28.588  30.417  1.00  0.00    -0.237 OA
ATOM     95  O   UNL A   1      53.520  26.119  30.352  1.00  0.00    -0.237 OA
ATOM     96  O   UNL A   1      53.672  27.401  28.253  1.00  0.00    -0.744 OA
ENDBRANCH  92  93
ENDBRANCH  60  85
ENDBRANCH  34  35
ENDBRANCH  26  29
ENDBRANCH  24  25
ENDBRANCH   1  24
TORSDOF 16
ENDMDL
