MODEL 1
REMARK VINA RESULT:     -12.6      0.000      0.000
REMARK SMILES CC(C)(C)c1ccc(NS(=O)(=O)c2cccc(C(=O)NCCCNC(=O)c3ccc(-c4c5nc(c(-c6c(F)cc(S(=O)(=O)[O-])cc6F)c6ccc([nH]6)c(-c6c(F)cc(S(=O)(=O)[O-])cc6F)c6nc(c(-c7c(F)cc(S(=O)(=O)[O-])cc7F)c7ccc4[nH]7)C=C6)C=C5)cc3)c2)cc1
REMARK SMILES IDX 21 1 20 2 18 3 19 4 17 6 13 7 14 8 93 9 15 10 16 11 10 12
REMARK SMILES IDX 11 13 12 14 9 15 8 17 5 18 6 19 95 20 7 21 94 22 2 23 1 24
REMARK SMILES IDX 3 25 4 26 22 27 23 28 24 29 25 30 26 32 27 33 28 34 92 35
REMARK SMILES IDX 29 36 91 37 30 38 31 39 32 40 85 41 33 42 90 43 84 44 86 45
REMARK SMILES IDX 34 46 89 47 83 48 82 49 35 51 69 52 48 53 68 54 49 55 52 56
REMARK SMILES IDX 67 57 87 58 50 59 51 60 66 62 88 63 53 64 36 65 37 66 46 67
REMARK SMILES IDX 38 68 39 69 45 70 47 71 40 72 41 73 42 74 43 75 44 76 70 77
REMARK SMILES IDX 71 78 80 79 72 80 73 81 79 82 81 83 74 84 75 85 76 86 77 87
REMARK SMILES IDX 78 88 54 89 55 90 64 91 56 92 57 93 63 94 65 95 58 96 59 97
REMARK SMILES IDX 60 98 61 99 62 100
REMARK H PARENT 20 5 9 16 24 31 86 50 52 61
REMARK Flexibility Score: inf
ROOT
ATOM      1  C   UNL A   1      36.920  21.884  25.700  1.00  0.00     0.118 C 
ENDROOT
BRANCH   1   2
ATOM      2  N   UNL A   1      35.723  21.929  26.528  1.00  0.00    -0.352 N 
ATOM      3  C   UNL A   1      34.384  21.794  26.244  1.00  0.00     0.251 C 
ATOM      4  O   UNL A   1      33.593  21.836  27.188  1.00  0.00    -0.269 OA
ATOM      5  H   UNL A   1      35.910  22.088  27.482  1.00  0.00     0.163 HD
BRANCH   3   6
ATOM      6  C   UNL A   1      33.840  21.685  24.861  1.00  0.00     0.041 A 
ATOM      7  C   UNL A   1      33.343  22.598  22.691  1.00  0.00     0.088 A 
ATOM      8  C   UNL A   1      32.394  21.599  22.446  1.00  0.00     0.022 A 
ATOM      9  C   UNL A   1      34.159  22.562  23.827  1.00  0.00     0.036 A 
ATOM     10  C   UNL A   1      32.178  20.621  23.412  1.00  0.00     0.002 A 
ATOM     11  C   UNL A   1      32.867  20.692  24.629  1.00  0.00     0.014 A 
BRANCH   7  12
ATOM     12  S   UNL A   1      33.225  24.132  21.789  1.00  0.00     0.261 S 
ATOM     13  O   UNL A   1      33.127  23.826  20.381  1.00  0.00    -0.201 OA
ATOM     14  O   UNL A   1      34.278  24.984  22.305  1.00  0.00    -0.201 OA
BRANCH  12  15
ATOM     15  N   UNL A   1      31.766  24.818  22.291  1.00  0.00    -0.280 N 
ATOM     16  H   UNL A   1      30.952  24.557  21.802  1.00  0.00     0.180 HD
BRANCH  15  17
ATOM     17  C   UNL A   1      31.614  25.747  23.373  1.00  0.00     0.049 A 
ATOM     18  C   UNL A   1      31.895  27.678  25.471  1.00  0.00    -0.042 A 
ATOM     19  C   UNL A   1      31.846  26.310  25.736  1.00  0.00     0.006 A 
ATOM     20  C   UNL A   1      31.745  28.064  24.125  1.00  0.00     0.006 A 
ATOM     21  C   UNL A   1      31.700  25.374  24.708  1.00  0.00     0.027 A 
ATOM     22  C   UNL A   1      31.626  27.113  23.091  1.00  0.00     0.027 A 
BRANCH  18  23
ATOM     23  C   UNL A   1      32.173  28.706  26.581  1.00  0.00    -0.013 C 
ATOM     24  C   UNL A   1      33.671  28.817  26.964  1.00  0.00     0.016 C 
ATOM     25  C   UNL A   1      31.406  28.346  27.867  1.00  0.00     0.016 C 
ATOM     26  C   UNL A   1      31.728  30.097  26.084  1.00  0.00     0.016 C 
ENDBRANCH  18  23
ENDBRANCH  15  17
ENDBRANCH  12  15
ENDBRANCH   7  12
ENDBRANCH   3   6
ENDBRANCH   1   2
BRANCH   1  27
ATOM     27  C   UNL A   1      37.447  23.237  25.241  1.00  0.00     0.042 C 
BRANCH  27  28
ATOM     28  C   UNL A   1      38.298  23.997  26.245  1.00  0.00     0.118 C 
BRANCH  28  29
ATOM     29  N   UNL A   1      39.726  23.744  26.115  1.00  0.00    -0.352 N 
ATOM     30  C   UNL A   1      40.826  24.410  26.605  1.00  0.00     0.251 C 
ATOM     31  H   UNL A   1      39.945  22.950  25.575  1.00  0.00     0.163 HD
ATOM     32  O   UNL A   1      41.942  24.053  26.235  1.00  0.00    -0.269 OA
BRANCH  30  33
ATOM     33  C   UNL A   1      40.697  25.564  27.527  1.00  0.00     0.039 A 
ATOM     34  C   UNL A   1      39.684  25.538  28.494  1.00  0.00     0.014 A 
ATOM     35  C   UNL A   1      41.523  26.683  27.436  1.00  0.00     0.014 A 
ATOM     36  C   UNL A   1      39.568  26.581  29.421  1.00  0.00     0.010 A 
ATOM     37  C   UNL A   1      41.468  27.676  28.414  1.00  0.00     0.010 A 
ATOM     38  C   UNL A   1      40.497  27.633  29.425  1.00  0.00    -0.014 A 
BRANCH  38  39
ATOM     39  C   UNL A   1      40.489  28.687  30.475  1.00  0.00     0.031 A 
ATOM     40  C   UNL A   1      41.423  28.594  31.653  1.00  0.00     0.074 A 
ATOM     41  C   UNL A   1      39.571  29.673  30.425  1.00  0.00     0.049 A 
ATOM     42  N   UNL A   1      41.451  29.314  32.745  1.00  0.00    -0.248 NA
ATOM     43  C   UNL A   1      42.439  27.529  31.609  1.00  0.00     0.031 C 
ATOM     44  C   UNL A   1      38.580  29.857  29.362  1.00  0.00     0.029 A 
ATOM     45  N   UNL A   1      39.304  30.697  31.302  1.00  0.00    -0.354 N 
ATOM     46  C   UNL A   1      42.461  28.772  33.531  1.00  0.00     0.074 A 
ATOM     47  C   UNL A   1      42.998  27.641  32.806  1.00  0.00     0.031 C 
ATOM     48  C   UNL A   1      37.826  30.932  29.642  1.00  0.00     0.029 A 
ATOM     49  C   UNL A   1      38.245  31.488  30.923  1.00  0.00     0.049 A 
ATOM     50  H   UNL A   1      39.824  30.849  32.124  1.00  0.00     0.167 HD
ATOM     51  C   UNL A   1      42.912  29.188  34.739  1.00  0.00     0.037 A 
ATOM     52  C   UNL A   1      37.663  32.531  31.546  1.00  0.00     0.037 A 
ATOM     53  C   UNL A   1      42.407  30.341  35.438  1.00  0.00     0.049 A 
ATOM     54  C   UNL A   1      38.187  32.984  32.878  1.00  0.00     0.074 A 
ATOM     55  C   UNL A   1      42.847  30.883  36.634  1.00  0.00     0.029 A 
ATOM     56  N   UNL A   1      41.357  31.135  35.002  1.00  0.00    -0.354 N 
ATOM     57  N   UNL A   1      39.170  32.483  33.588  1.00  0.00    -0.248 NA
ATOM     58  C   UNL A   1      37.524  34.139  33.499  1.00  0.00     0.031 C 
ATOM     59  C   UNL A   1      42.042  31.987  36.936  1.00  0.00     0.029 A 
ATOM     60  C   UNL A   1      41.124  32.152  35.912  1.00  0.00     0.049 A 
ATOM     61  H   UNL A   1      40.851  30.995  34.169  1.00  0.00     0.167 HD
ATOM     62  C   UNL A   1      39.254  33.272  34.729  1.00  0.00     0.074 A 
ATOM     63  C   UNL A   1      38.231  34.290  34.611  1.00  0.00     0.031 C 
ATOM     64  C   UNL A   1      40.104  33.162  35.779  1.00  0.00     0.037 A 
BRANCH  51  65
ATOM     65  C   UNL A   1      44.013  28.393  35.383  1.00  0.00     0.058 A 
ATOM     66  C   UNL A   1      45.365  28.678  35.138  1.00  0.00     0.135 A 
ATOM     67  C   UNL A   1      43.714  27.351  36.275  1.00  0.00     0.135 A 
ATOM     68  F   UNL A   1      45.705  29.654  34.281  1.00  0.00    -0.206 F 
ATOM     69  C   UNL A   1      46.384  27.939  35.731  1.00  0.00     0.059 A 
ATOM     70  C   UNL A   1      44.716  26.614  36.899  1.00  0.00     0.059 A 
ATOM     71  F   UNL A   1      42.437  27.038  36.546  1.00  0.00    -0.206 F 
ATOM     72  C   UNL A   1      46.049  26.905  36.607  1.00  0.00     0.060 A 
BRANCH  72  73
ATOM     73  S   UNL A   1      47.380  25.949  37.365  1.00  0.00     0.124 S 
ATOM     74  O   UNL A   1      48.535  26.403  36.596  1.00  0.00    -0.237 OA
ATOM     75  O   UNL A   1      47.332  26.389  38.756  1.00  0.00    -0.237 OA
ATOM     76  O   UNL A   1      46.976  24.565  37.134  1.00  0.00    -0.744 OA
ENDBRANCH  72  73
ENDBRANCH  51  65
BRANCH  52  77
ATOM     77  C   UNL A   1      36.516  33.226  30.904  1.00  0.00     0.058 A 
ATOM     78  C   UNL A   1      35.231  33.156  31.463  1.00  0.00     0.135 A 
ATOM     79  C   UNL A   1      36.684  33.988  29.738  1.00  0.00     0.135 A 
ATOM     80  F   UNL A   1      35.023  32.433  32.574  1.00  0.00    -0.206 F 
ATOM     81  C   UNL A   1      34.150  33.812  30.886  1.00  0.00     0.059 A 
ATOM     82  C   UNL A   1      35.621  34.668  29.153  1.00  0.00     0.059 A 
ATOM     83  F   UNL A   1      37.897  34.099  29.175  1.00  0.00    -0.206 F 
ATOM     84  C   UNL A   1      34.355  34.568  29.730  1.00  0.00     0.060 A 
BRANCH  84  85
ATOM     85  S   UNL A   1      32.960  35.469  29.021  1.00  0.00     0.124 S 
ATOM     86  O   UNL A   1      32.096  35.633  30.185  1.00  0.00    -0.237 OA
ATOM     87  O   UNL A   1      33.599  36.682  28.521  1.00  0.00    -0.237 OA
ATOM     88  O   UNL A   1      32.469  34.560  27.990  1.00  0.00    -0.744 OA
ENDBRANCH  84  85
ENDBRANCH  52  77
BRANCH  64  89
ATOM     89  C   UNL A   1      39.983  34.179  36.877  1.00  0.00     0.058 A 
ATOM     90  C   UNL A   1      40.729  35.367  36.861  1.00  0.00     0.135 A 
ATOM     91  C   UNL A   1      39.061  33.994  37.920  1.00  0.00     0.135 A 
ATOM     92  F   UNL A   1      41.630  35.585  35.889  1.00  0.00    -0.206 F 
ATOM     93  C   UNL A   1      40.574  36.335  37.847  1.00  0.00     0.059 A 
ATOM     94  C   UNL A   1      38.875  34.957  38.906  1.00  0.00     0.059 A 
ATOM     95  F   UNL A   1      38.319  32.877  37.975  1.00  0.00    -0.206 F 
ATOM     96  C   UNL A   1      39.641  36.122  38.864  1.00  0.00     0.060 A 
BRANCH  96  97
ATOM     97  S   UNL A   1      39.409  37.408  40.109  1.00  0.00     0.124 S 
ATOM     98  O   UNL A   1      38.903  36.636  41.240  1.00  0.00    -0.237 OA
ATOM     99  O   UNL A   1      40.757  37.946  40.262  1.00  0.00    -0.237 OA
ATOM    100  O   UNL A   1      38.447  38.314  39.486  1.00  0.00    -0.744 OA
ENDBRANCH  96  97
ENDBRANCH  64  89
ENDBRANCH  38  39
ENDBRANCH  30  33
ENDBRANCH  28  29
ENDBRANCH  27  28
ENDBRANCH   1  27
TORSDOF 17
ENDMDL
MODEL 2
REMARK VINA RESULT:     -12.3      1.470      2.035
REMARK SMILES CC(C)(C)c1ccc(NS(=O)(=O)c2cccc(C(=O)NCCCNC(=O)c3ccc(-c4c5nc(c(-c6c(F)cc(S(=O)(=O)[O-])cc6F)c6ccc([nH]6)c(-c6c(F)cc(S(=O)(=O)[O-])cc6F)c6nc(c(-c7c(F)cc(S(=O)(=O)[O-])cc7F)c7ccc4[nH]7)C=C6)C=C5)cc3)c2)cc1
REMARK SMILES IDX 21 1 20 2 18 3 19 4 17 6 13 7 14 8 93 9 15 10 16 11 10 12
REMARK SMILES IDX 11 13 12 14 9 15 8 17 5 18 6 19 95 20 7 21 94 22 2 23 1 24
REMARK SMILES IDX 3 25 4 26 22 27 23 28 24 29 25 30 26 32 27 33 28 34 92 35
REMARK SMILES IDX 29 36 91 37 30 38 31 39 32 40 85 41 33 42 90 43 84 44 86 45
REMARK SMILES IDX 34 46 89 47 83 48 82 49 35 51 69 52 48 53 68 54 49 55 52 56
REMARK SMILES IDX 67 57 87 58 50 59 51 60 66 62 88 63 53 64 36 65 37 66 46 67
REMARK SMILES IDX 38 68 39 69 45 70 47 71 40 72 41 73 42 74 43 75 44 76 70 77
REMARK SMILES IDX 71 78 80 79 72 80 73 81 79 82 81 83 74 84 75 85 76 86 77 87
REMARK SMILES IDX 78 88 54 89 55 90 64 91 56 92 57 93 63 94 65 95 58 96 59 97
REMARK SMILES IDX 60 98 61 99 62 100
REMARK H PARENT 20 5 9 16 24 31 86 50 52 61
REMARK Flexibility Score: inf
ROOT
ATOM      1  C   UNL A   1      37.015  21.916  25.560  1.00  0.00     0.118 C 
ENDROOT
BRANCH   1   2
ATOM      2  N   UNL A   1      35.900  21.668  26.463  1.00  0.00    -0.352 N 
ATOM      3  C   UNL A   1      34.538  21.817  26.330  1.00  0.00     0.251 C 
ATOM      4  O   UNL A   1      33.831  21.472  27.278  1.00  0.00    -0.269 OA
ATOM      5  H   UNL A   1      36.175  21.323  27.344  1.00  0.00     0.163 HD
BRANCH   3   6
ATOM      6  C   UNL A   1      33.889  22.449  25.147  1.00  0.00     0.041 A 
ATOM      7  C   UNL A   1      32.899  24.324  24.010  1.00  0.00     0.088 A 
ATOM      8  C   UNL A   1      32.253  23.480  23.100  1.00  0.00     0.022 A 
ATOM      9  C   UNL A   1      33.820  23.825  24.937  1.00  0.00     0.036 A 
ATOM     10  C   UNL A   1      32.440  22.106  23.204  1.00  0.00     0.002 A 
ATOM     11  C   UNL A   1      33.219  21.594  24.249  1.00  0.00     0.014 A 
BRANCH   7  12
ATOM     12  S   UNL A   1      32.243  25.961  24.276  1.00  0.00     0.261 S 
ATOM     13  O   UNL A   1      33.283  26.921  23.987  1.00  0.00    -0.201 OA
ATOM     14  O   UNL A   1      31.586  25.926  25.568  1.00  0.00    -0.201 OA
BRANCH  12  15
ATOM     15  N   UNL A   1      31.022  26.130  23.123  1.00  0.00    -0.280 N 
ATOM     16  H   UNL A   1      30.783  25.333  22.597  1.00  0.00     0.180 HD
BRANCH  15  17
ATOM     17  C   UNL A   1      30.302  27.340  22.847  1.00  0.00     0.049 A 
ATOM     18  C   UNL A   1      29.057  29.921  22.830  1.00  0.00    -0.042 A 
ATOM     19  C   UNL A   1      28.349  28.768  23.170  1.00  0.00     0.006 A 
ATOM     20  C   UNL A   1      30.399  29.744  22.444  1.00  0.00     0.006 A 
ATOM     21  C   UNL A   1      28.961  27.511  23.168  1.00  0.00     0.027 A 
ATOM     22  C   UNL A   1      31.016  28.477  22.470  1.00  0.00     0.027 A 
BRANCH  18  23
ATOM     23  C   UNL A   1      28.426  31.318  22.945  1.00  0.00    -0.013 C 
ATOM     24  C   UNL A   1      27.998  31.921  21.583  1.00  0.00     0.016 C 
ATOM     25  C   UNL A   1      29.410  32.313  23.586  1.00  0.00     0.016 C 
ATOM     26  C   UNL A   1      27.155  31.213  23.813  1.00  0.00     0.016 C 
ENDBRANCH  18  23
ENDBRANCH  15  17
ENDBRANCH  12  15
ENDBRANCH   7  12
ENDBRANCH   3   6
ENDBRANCH   1   2
BRANCH   1  27
ATOM     27  C   UNL A   1      37.357  23.383  25.335  1.00  0.00     0.042 C 
BRANCH  27  28
ATOM     28  C   UNL A   1      38.201  24.043  26.413  1.00  0.00     0.118 C 
BRANCH  28  29
ATOM     29  N   UNL A   1      39.629  23.799  26.275  1.00  0.00    -0.352 N 
ATOM     30  C   UNL A   1      40.728  24.470  26.758  1.00  0.00     0.251 C 
ATOM     31  H   UNL A   1      39.849  23.006  25.734  1.00  0.00     0.163 HD
ATOM     32  O   UNL A   1      41.844  24.120  26.382  1.00  0.00    -0.269 OA
BRANCH  30  33
ATOM     33  C   UNL A   1      40.598  25.625  27.680  1.00  0.00     0.039 A 
ATOM     34  C   UNL A   1      39.602  25.587  28.664  1.00  0.00     0.014 A 
ATOM     35  C   UNL A   1      41.406  26.756  27.573  1.00  0.00     0.014 A 
ATOM     36  C   UNL A   1      39.487  26.629  29.591  1.00  0.00     0.010 A 
ATOM     37  C   UNL A   1      41.353  27.750  28.550  1.00  0.00     0.010 A 
ATOM     38  C   UNL A   1      40.400  27.695  29.577  1.00  0.00    -0.014 A 
BRANCH  38  39
ATOM     39  C   UNL A   1      40.395  28.750  30.625  1.00  0.00     0.031 A 
ATOM     40  C   UNL A   1      41.306  28.641  31.819  1.00  0.00     0.074 A 
ATOM     41  C   UNL A   1      39.498  29.755  30.557  1.00  0.00     0.049 A 
ATOM     42  N   UNL A   1      41.329  29.363  32.911  1.00  0.00    -0.248 NA
ATOM     43  C   UNL A   1      42.301  27.557  31.795  1.00  0.00     0.031 C 
ATOM     44  C   UNL A   1      38.530  29.956  29.477  1.00  0.00     0.029 A 
ATOM     45  N   UNL A   1      39.237  30.785  31.428  1.00  0.00    -0.354 N 
ATOM     46  C   UNL A   1      42.315  28.803  33.716  1.00  0.00     0.074 A 
ATOM     47  C   UNL A   1      42.842  27.660  33.001  1.00  0.00     0.031 C 
ATOM     48  C   UNL A   1      37.793  31.047  29.741  1.00  0.00     0.029 A 
ATOM     49  C   UNL A   1      38.201  31.596  31.029  1.00  0.00     0.049 A 
ATOM     50  H   UNL A   1      39.745  30.929  32.259  1.00  0.00     0.167 HD
ATOM     51  C   UNL A   1      42.752  29.212  34.930  1.00  0.00     0.037 A 
ATOM     52  C   UNL A   1      37.628  32.652  31.640  1.00  0.00     0.037 A 
ATOM     53  C   UNL A   1      42.259  30.376  35.618  1.00  0.00     0.049 A 
ATOM     54  C   UNL A   1      38.138  33.097  32.981  1.00  0.00     0.074 A 
ATOM     55  C   UNL A   1      42.688  30.912  36.821  1.00  0.00     0.029 A 
ATOM     56  N   UNL A   1      41.232  31.190  35.163  1.00  0.00    -0.354 N 
ATOM     57  N   UNL A   1      39.098  32.578  33.709  1.00  0.00    -0.248 NA
ATOM     58  C   UNL A   1      37.487  34.267  33.588  1.00  0.00     0.031 C 
ATOM     59  C   UNL A   1      41.900  32.032  37.107  1.00  0.00     0.029 A 
ATOM     60  C   UNL A   1      41.004  32.214  36.067  1.00  0.00     0.049 A 
ATOM     61  H   UNL A   1      40.738  31.058  34.321  1.00  0.00     0.167 HD
ATOM     62  C   UNL A   1      39.178  33.368  34.849  1.00  0.00     0.074 A 
ATOM     63  C   UNL A   1      38.178  34.406  34.712  1.00  0.00     0.031 C 
ATOM     64  C   UNL A   1      40.007  33.243  35.914  1.00  0.00     0.037 A 
BRANCH  51  65
ATOM     65  C   UNL A   1      43.826  28.396  35.595  1.00  0.00     0.058 A 
ATOM     66  C   UNL A   1      45.187  28.639  35.356  1.00  0.00     0.135 A 
ATOM     67  C   UNL A   1      43.491  27.376  36.500  1.00  0.00     0.135 A 
ATOM     68  F   UNL A   1      45.561  29.593  34.488  1.00  0.00    -0.206 F 
ATOM     69  C   UNL A   1      46.180  27.882  35.969  1.00  0.00     0.059 A 
ATOM     70  C   UNL A   1      44.468  26.622  37.143  1.00  0.00     0.059 A 
ATOM     71  F   UNL A   1      42.204  27.103  36.765  1.00  0.00    -0.206 F 
ATOM     72  C   UNL A   1      45.810  26.871  36.858  1.00  0.00     0.060 A 
BRANCH  72  73
ATOM     73  S   UNL A   1      47.108  25.889  37.640  1.00  0.00     0.124 S 
ATOM     74  O   UNL A   1      47.653  25.166  36.494  1.00  0.00    -0.237 OA
ATOM     75  O   UNL A   1      47.975  26.914  38.213  1.00  0.00    -0.237 OA
ATOM     76  O   UNL A   1      46.380  25.075  38.608  1.00  0.00    -0.744 OA
ENDBRANCH  72  73
ENDBRANCH  51  65
BRANCH  52  77
ATOM     77  C   UNL A   1      36.507  33.369  30.977  1.00  0.00     0.058 A 
ATOM     78  C   UNL A   1      36.739  34.189  29.863  1.00  0.00     0.135 A 
ATOM     79  C   UNL A   1      35.185  33.231  31.426  1.00  0.00     0.135 A 
ATOM     80  F   UNL A   1      37.988  34.356  29.403  1.00  0.00    -0.206 F 
ATOM     81  C   UNL A   1      35.701  34.855  29.221  1.00  0.00     0.059 A 
ATOM     82  C   UNL A   1      34.127  33.872  30.789  1.00  0.00     0.059 A 
ATOM     83  F   UNL A   1      34.910  32.443  32.478  1.00  0.00    -0.206 F 
ATOM     84  C   UNL A   1      34.397  34.688  29.691  1.00  0.00     0.060 A 
BRANCH  84  85
ATOM     85  S   UNL A   1      33.046  35.505  28.813  1.00  0.00     0.124 S 
ATOM     86  O   UNL A   1      32.248  36.020  29.920  1.00  0.00    -0.237 OA
ATOM     87  O   UNL A   1      33.754  36.501  28.016  1.00  0.00    -0.237 OA
ATOM     88  O   UNL A   1      32.443  34.418  28.049  1.00  0.00    -0.744 OA
ENDBRANCH  84  85
ENDBRANCH  52  77
BRANCH  64  89
ATOM     89  C   UNL A   1      39.886  34.265  37.008  1.00  0.00     0.058 A 
ATOM     90  C   UNL A   1      40.525  35.510  36.920  1.00  0.00     0.135 A 
ATOM     91  C   UNL A   1      39.070  34.020  38.124  1.00  0.00     0.135 A 
ATOM     92  F   UNL A   1      41.324  35.787  35.877  1.00  0.00    -0.206 F 
ATOM     93  C   UNL A   1      40.367  36.478  37.907  1.00  0.00     0.059 A 
ATOM     94  C   UNL A   1      38.880  34.980  39.112  1.00  0.00     0.059 A 
ATOM     95  F   UNL A   1      38.432  32.846  38.250  1.00  0.00    -0.206 F 
ATOM     96  C   UNL A   1      39.539  36.205  38.997  1.00  0.00     0.060 A 
BRANCH  96  97
ATOM     97  S   UNL A   1      39.297  37.488  40.244  1.00  0.00     0.124 S 
ATOM     98  O   UNL A   1      38.864  36.701  41.395  1.00  0.00    -0.237 OA
ATOM     99  O   UNL A   1      40.626  38.081  40.347  1.00  0.00    -0.237 OA
ATOM    100  O   UNL A   1      38.278  38.349  39.651  1.00  0.00    -0.744 OA
ENDBRANCH  96  97
ENDBRANCH  64  89
ENDBRANCH  38  39
ENDBRANCH  30  33
ENDBRANCH  28  29
ENDBRANCH  27  28
ENDBRANCH   1  27
TORSDOF 17
ENDMDL
MODEL 3
REMARK VINA RESULT:     -12.2      6.340     10.872
REMARK SMILES CC(C)(C)c1ccc(NS(=O)(=O)c2cccc(C(=O)NCCCNC(=O)c3ccc(-c4c5nc(c(-c6c(F)cc(S(=O)(=O)[O-])cc6F)c6ccc([nH]6)c(-c6c(F)cc(S(=O)(=O)[O-])cc6F)c6nc(c(-c7c(F)cc(S(=O)(=O)[O-])cc7F)c7ccc4[nH]7)C=C6)C=C5)cc3)c2)cc1
REMARK SMILES IDX 21 1 20 2 18 3 19 4 17 6 13 7 14 8 93 9 15 10 16 11 10 12
REMARK SMILES IDX 11 13 12 14 9 15 8 17 5 18 6 19 95 20 7 21 94 22 2 23 1 24
REMARK SMILES IDX 3 25 4 26 22 27 23 28 24 29 25 30 26 32 27 33 28 34 92 35
REMARK SMILES IDX 29 36 91 37 30 38 31 39 32 40 85 41 33 42 90 43 84 44 86 45
REMARK SMILES IDX 34 46 89 47 83 48 82 49 35 51 69 52 48 53 68 54 49 55 52 56
REMARK SMILES IDX 67 57 87 58 50 59 51 60 66 62 88 63 53 64 36 65 37 66 46 67
REMARK SMILES IDX 38 68 39 69 45 70 47 71 40 72 41 73 42 74 43 75 44 76 70 77
REMARK SMILES IDX 71 78 80 79 72 80 73 81 79 82 81 83 74 84 75 85 76 86 77 87
REMARK SMILES IDX 78 88 54 89 55 90 64 91 56 92 57 93 63 94 65 95 58 96 59 97
REMARK SMILES IDX 60 98 61 99 62 100
REMARK H PARENT 20 5 9 16 24 31 86 50 52 61
REMARK Flexibility Score: inf
ROOT
ATOM      1  C   UNL A   1      38.702  23.288  26.402  1.00  0.00     0.118 C 
ENDROOT
BRANCH   1   2
ATOM      2  N   UNL A   1      38.118  23.378  25.072  1.00  0.00    -0.352 N 
ATOM      3  C   UNL A   1      36.874  23.064  24.573  1.00  0.00     0.251 C 
ATOM      4  O   UNL A   1      36.660  23.301  23.383  1.00  0.00    -0.269 OA
ATOM      5  H   UNL A   1      38.736  23.737  24.394  1.00  0.00     0.163 HD
BRANCH   3   6
ATOM      6  C   UNL A   1      35.815  22.380  25.367  1.00  0.00     0.041 A 
ATOM      7  C   UNL A   1      34.149  20.671  25.667  1.00  0.00     0.088 A 
ATOM      8  C   UNL A   1      33.517  21.409  26.674  1.00  0.00     0.022 A 
ATOM      9  C   UNL A   1      35.366  21.085  25.116  1.00  0.00     0.036 A 
ATOM     10  C   UNL A   1      34.050  22.641  27.042  1.00  0.00     0.002 A 
ATOM     11  C   UNL A   1      35.167  23.139  26.361  1.00  0.00     0.014 A 
BRANCH   7  12
ATOM     12  S   UNL A   1      33.207  19.436  24.790  1.00  0.00     0.261 S 
ATOM     13  O   UNL A   1      32.153  18.965  25.658  1.00  0.00    -0.201 OA
ATOM     14  O   UNL A   1      34.176  18.523  24.216  1.00  0.00    -0.201 OA
BRANCH  12  15
ATOM     15  N   UNL A   1      32.506  20.265  23.497  1.00  0.00    -0.280 N 
ATOM     16  H   UNL A   1      32.203  19.729  22.728  1.00  0.00     0.180 HD
BRANCH  15  17
ATOM     17  C   UNL A   1      32.314  21.684  23.427  1.00  0.00     0.049 A 
ATOM     18  C   UNL A   1      32.377  24.538  23.673  1.00  0.00    -0.042 A 
ATOM     19  C   UNL A   1      31.465  23.762  24.387  1.00  0.00     0.006 A 
ATOM     20  C   UNL A   1      33.228  23.853  22.785  1.00  0.00     0.006 A 
ATOM     21  C   UNL A   1      31.434  22.370  24.255  1.00  0.00     0.027 A 
ATOM     22  C   UNL A   1      33.209  22.448  22.678  1.00  0.00     0.027 A 
BRANCH  18  23
ATOM     23  C   UNL A   1      32.497  26.054  23.901  1.00  0.00    -0.013 C 
ATOM     24  C   UNL A   1      31.220  26.697  24.501  1.00  0.00     0.016 C 
ATOM     25  C   UNL A   1      32.788  26.786  22.577  1.00  0.00     0.016 C 
ATOM     26  C   UNL A   1      33.645  26.311  24.899  1.00  0.00     0.016 C 
ENDBRANCH  18  23
ENDBRANCH  15  17
ENDBRANCH  12  15
ENDBRANCH   7  12
ENDBRANCH   3   6
ENDBRANCH   1   2
BRANCH   1  27
ATOM     27  C   UNL A   1      39.476  22.008  26.689  1.00  0.00     0.042 C 
BRANCH  27  28
ATOM     28  C   UNL A   1      39.205  20.841  25.752  1.00  0.00     0.118 C 
BRANCH  28  29
ATOM     29  N   UNL A   1      40.168  19.756  25.872  1.00  0.00    -0.352 N 
ATOM     30  C   UNL A   1      41.520  19.750  26.124  1.00  0.00     0.251 C 
ATOM     31  H   UNL A   1      39.778  18.860  25.748  1.00  0.00     0.163 HD
ATOM     32  O   UNL A   1      42.128  18.684  26.045  1.00  0.00    -0.269 OA
BRANCH  30  33
ATOM     33  C   UNL A   1      42.264  20.992  26.444  1.00  0.00     0.039 A 
ATOM     34  C   UNL A   1      42.668  21.820  25.388  1.00  0.00     0.014 A 
ATOM     35  C   UNL A   1      42.606  21.339  27.750  1.00  0.00     0.014 A 
ATOM     36  C   UNL A   1      43.318  23.031  25.652  1.00  0.00     0.010 A 
ATOM     37  C   UNL A   1      43.171  22.585  28.019  1.00  0.00     0.010 A 
ATOM     38  C   UNL A   1      43.525  23.451  26.975  1.00  0.00    -0.014 A 
BRANCH  38  39
ATOM     39  C   UNL A   1      44.090  24.789  27.297  1.00  0.00     0.031 A 
ATOM     40  C   UNL A   1      43.188  25.909  27.744  1.00  0.00     0.074 A 
ATOM     41  C   UNL A   1      45.401  25.029  27.087  1.00  0.00     0.049 A 
ATOM     42  N   UNL A   1      43.462  27.178  27.907  1.00  0.00    -0.248 NA
ATOM     43  C   UNL A   1      41.783  25.559  28.013  1.00  0.00     0.031 C 
ATOM     44  C   UNL A   1      46.378  24.046  26.616  1.00  0.00     0.029 A 
ATOM     45  N   UNL A   1      46.135  26.183  27.221  1.00  0.00    -0.354 N 
ATOM     46  C   UNL A   1      42.263  27.783  28.265  1.00  0.00     0.074 A 
ATOM     47  C   UNL A   1      41.252  26.748  28.261  1.00  0.00     0.031 C 
ATOM     48  C   UNL A   1      47.582  24.633  26.514  1.00  0.00     0.029 A 
ATOM     49  C   UNL A   1      47.455  26.043  26.866  1.00  0.00     0.049 A 
ATOM     50  H   UNL A   1      45.750  27.030  27.542  1.00  0.00     0.167 HD
ATOM     51  C   UNL A   1      42.028  29.078  28.584  1.00  0.00     0.037 A 
ATOM     52  C   UNL A   1      48.450  26.949  26.809  1.00  0.00     0.037 A 
ATOM     53  C   UNL A   1      43.045  30.097  28.633  1.00  0.00     0.049 A 
ATOM     54  C   UNL A   1      48.171  28.378  27.180  1.00  0.00     0.074 A 
ATOM     55  C   UNL A   1      42.917  31.422  29.014  1.00  0.00     0.029 A 
ATOM     56  N   UNL A   1      44.377  29.904  28.299  1.00  0.00    -0.354 N 
ATOM     57  N   UNL A   1      47.038  28.923  27.554  1.00  0.00    -0.248 NA
ATOM     58  C   UNL A   1      49.299  29.317  27.119  1.00  0.00     0.031 C 
ATOM     59  C   UNL A   1      44.166  32.038  28.880  1.00  0.00     0.029 A 
ATOM     60  C   UNL A   1      45.078  31.088  28.449  1.00  0.00     0.049 A 
ATOM     61  H   UNL A   1      44.766  29.051  27.998  1.00  0.00     0.167 HD
ATOM     62  C   UNL A   1      47.321  30.263  27.789  1.00  0.00     0.074 A 
ATOM     63  C   UNL A   1      48.734  30.445  27.526  1.00  0.00     0.031 C 
ATOM     64  C   UNL A   1      46.486  31.253  28.188  1.00  0.00     0.037 A 
BRANCH  51  65
ATOM     65  C   UNL A   1      40.614  29.469  28.912  1.00  0.00     0.058 A 
ATOM     66  C   UNL A   1      40.218  29.759  30.227  1.00  0.00     0.135 A 
ATOM     67  C   UNL A   1      39.651  29.581  27.897  1.00  0.00     0.135 A 
ATOM     68  F   UNL A   1      41.097  29.652  31.237  1.00  0.00    -0.206 F 
ATOM     69  C   UNL A   1      38.909  30.117  30.530  1.00  0.00     0.059 A 
ATOM     70  C   UNL A   1      38.341  29.961  28.174  1.00  0.00     0.059 A 
ATOM     71  F   UNL A   1      39.977  29.317  26.623  1.00  0.00    -0.206 F 
ATOM     72  C   UNL A   1      37.975  30.210  29.496  1.00  0.00     0.060 A 
BRANCH  72  73
ATOM     73  S   UNL A   1      36.277  30.669  29.904  1.00  0.00     0.124 S 
ATOM     74  O   UNL A   1      36.407  32.109  30.103  1.00  0.00    -0.237 OA
ATOM     75  O   UNL A   1      35.544  30.257  28.711  1.00  0.00    -0.237 OA
ATOM     76  O   UNL A   1      35.996  29.891  31.107  1.00  0.00    -0.744 OA
ENDBRANCH  72  73
ENDBRANCH  51  65
BRANCH  52  77
ATOM     77  C   UNL A   1      49.812  26.525  26.390  1.00  0.00     0.058 A 
ATOM     78  C   UNL A   1      50.242  26.701  25.066  1.00  0.00     0.135 A 
ATOM     79  C   UNL A   1      50.714  25.960  27.303  1.00  0.00     0.135 A 
ATOM     80  F   UNL A   1      49.410  27.231  24.156  1.00  0.00    -0.206 F 
ATOM     81  C   UNL A   1      51.517  26.324  24.659  1.00  0.00     0.059 A 
ATOM     82  C   UNL A   1      52.001  25.593  26.925  1.00  0.00     0.059 A 
ATOM     83  F   UNL A   1      50.355  25.788  28.585  1.00  0.00    -0.206 F 
ATOM     84  C   UNL A   1      52.391  25.773  25.597  1.00  0.00     0.060 A 
BRANCH  84  85
ATOM     85  S   UNL A   1      54.067  25.345  25.078  1.00  0.00     0.124 S 
ATOM     86  O   UNL A   1      54.854  25.811  26.213  1.00  0.00    -0.237 OA
ATOM     87  O   UNL A   1      53.978  23.898  24.911  1.00  0.00    -0.237 OA
ATOM     88  O   UNL A   1      54.232  26.100  23.839  1.00  0.00    -0.744 OA
ENDBRANCH  84  85
ENDBRANCH  52  77
BRANCH  64  89
ATOM     89  C   UNL A   1      47.077  32.619  28.387  1.00  0.00     0.058 A 
ATOM     90  C   UNL A   1      47.103  33.563  27.350  1.00  0.00     0.135 A 
ATOM     91  C   UNL A   1      47.560  33.009  29.646  1.00  0.00     0.135 A 
ATOM     92  F   UNL A   1      46.661  33.234  26.126  1.00  0.00    -0.206 F 
ATOM     93  C   UNL A   1      47.598  34.847  27.551  1.00  0.00     0.059 A 
ATOM     94  C   UNL A   1      48.040  34.294  29.875  1.00  0.00     0.059 A 
ATOM     95  F   UNL A   1      47.549  32.144  30.672  1.00  0.00    -0.206 F 
ATOM     96  C   UNL A   1      48.060  35.205  28.819  1.00  0.00     0.060 A 
BRANCH  96  97
ATOM     97  S   UNL A   1      48.650  36.891  29.082  1.00  0.00     0.124 S 
ATOM     98  O   UNL A   1      49.080  36.838  30.476  1.00  0.00    -0.237 OA
ATOM     99  O   UNL A   1      49.717  37.009  28.094  1.00  0.00    -0.237 OA
ATOM    100  O   UNL A   1      47.468  37.708  28.819  1.00  0.00    -0.744 OA
ENDBRANCH  96  97
ENDBRANCH  64  89
ENDBRANCH  38  39
ENDBRANCH  30  33
ENDBRANCH  28  29
ENDBRANCH  27  28
ENDBRANCH   1  27
TORSDOF 17
ENDMDL
