MODEL 1
REMARK VINA RESULT:     -11.2      0.000      0.000
REMARK SMILES O=C(C[C@@H]1C[N@@H+](CCSc2ccccc2F)CCO1)NCCCNC(=O)c1ccc(-c2c3nc(c(-c4c(F)cc(S(=O)(=O)[O-])cc4F)c4ccc([nH]4)c(-c4c(F)cc(S(=O)(=O)[O-])cc4F)c4nc(c(-c5c(F)cc(S(=O)(=O)[O-])cc5F)c5ccc2[nH]5)C=C4)C=C3)cc1
REMARK SMILES IDX 21 1 20 2 1 3 2 4 3 6 4 7 5 8 19 9 6 10 18 11 17 12 7 14
REMARK SMILES IDX 8 15 9 16 10 17 11 18 15 19 12 20 14 21 16 22 13 23 22 24
REMARK SMILES IDX 23 25 24 26 25 27 26 29 27 30 28 31 92 32 29 33 91 34 30 35
REMARK SMILES IDX 31 36 32 37 85 38 33 39 90 40 84 41 86 42 34 43 89 44 83 45
REMARK SMILES IDX 82 46 35 48 69 49 48 50 68 51 49 52 52 53 67 54 87 55 50 56
REMARK SMILES IDX 51 57 66 59 88 60 53 61 36 62 37 63 46 64 38 65 39 66 45 67
REMARK SMILES IDX 47 68 40 69 41 70 42 71 43 72 44 73 70 74 71 75 80 76 72 77
REMARK SMILES IDX 73 78 79 79 81 80 74 81 75 82 76 83 77 84 78 85 54 86 55 87
REMARK SMILES IDX 64 88 56 89 57 90 63 91 65 92 58 93 59 94 60 95 61 96 62 97
REMARK H PARENT 20 5 6 13 24 28 86 47 52 58
REMARK Flexibility Score: inf
ROOT
ATOM      1  C   UNL A   1      32.405  28.653  24.146  1.00  0.00     0.117 C 
ENDROOT
BRANCH   1   2
ATOM      2  N   UNL A   1      31.896  27.318  23.957  1.00  0.00    -0.356 N 
ATOM      3  O   UNL A   1      30.329  27.690  22.329  1.00  0.00    -0.275 OA
ATOM      4  C   UNL A   1      30.904  26.941  23.093  1.00  0.00     0.222 C 
ATOM      5  H   UNL A   1      32.302  26.607  24.504  1.00  0.00     0.163 HD
BRANCH   4   6
ATOM      6  C   UNL A   1      30.626  25.451  23.244  1.00  0.00     0.138 C 
BRANCH   6   7
ATOM      7  C   UNL A   1      31.432  24.804  24.372  1.00  0.00     0.182 C 
ATOM      8  C   UNL A   1      32.128  23.375  24.120  1.00  0.00     0.295 C 
ATOM      9  O   UNL A   1      30.474  24.867  25.439  1.00  0.00    -0.366 OA
ATOM     10  N   UNL A   1      32.078  22.349  25.189  1.00  0.00    -0.330 N 
ATOM     11  C   UNL A   1      30.813  23.958  26.449  1.00  0.00     0.222 C 
ATOM     12  C   UNL A   1      30.800  22.555  25.803  1.00  0.00     0.291 C 
ATOM     13  H   UNL A   1      32.287  21.489  24.681  1.00  0.00     0.348 HD
BRANCH  10  14
ATOM     14  C   UNL A   1      33.085  22.201  26.265  1.00  0.00     0.273 C 
BRANCH  14  15
ATOM     15  C   UNL A   1      34.196  23.357  26.603  1.00  0.00     0.136 C 
BRANCH  15  16
ATOM     16  S   UNL A   1      35.625  24.042  25.411  1.00  0.00    -0.117 SA
BRANCH  16  17
ATOM     17  C   UNL A   1      37.370  23.430  25.645  1.00  0.00     0.043 A 
ATOM     18  C   UNL A   1      38.348  23.999  26.489  1.00  0.00     0.018 A 
ATOM     19  C   UNL A   1      37.669  22.104  25.283  1.00  0.00     0.136 A 
ATOM     20  C   UNL A   1      39.550  23.382  26.874  1.00  0.00     0.001 A 
ATOM     21  C   UNL A   1      38.832  21.432  25.735  1.00  0.00     0.040 A 
ATOM     22  F   UNL A   1      36.809  21.390  24.540  1.00  0.00    -0.206 F 
ATOM     23  C   UNL A   1      39.777  22.071  26.530  1.00  0.00     0.003 A 
ENDBRANCH  16  17
ENDBRANCH  15  16
ENDBRANCH  14  15
ENDBRANCH  10  14
ENDBRANCH   6   7
ENDBRANCH   4   6
ENDBRANCH   1   2
BRANCH   1  24
ATOM     24  C   UNL A   1      33.844  28.565  24.636  1.00  0.00     0.042 C 
BRANCH  24  25
ATOM     25  C   UNL A   1      34.010  28.773  26.141  1.00  0.00     0.118 C 
BRANCH  25  26
ATOM     26  N   UNL A   1      33.814  30.151  26.564  1.00  0.00    -0.352 N 
ATOM     27  C   UNL A   1      34.564  30.855  27.479  1.00  0.00     0.251 C 
ATOM     28  H   UNL A   1      33.064  30.634  26.149  1.00  0.00     0.163 HD
ATOM     29  O   UNL A   1      34.212  31.963  27.863  1.00  0.00    -0.269 OA
BRANCH  27  30
ATOM     30  C   UNL A   1      35.783  30.220  28.019  1.00  0.00     0.039 A 
ATOM     31  C   UNL A   1      36.984  30.373  27.327  1.00  0.00     0.014 A 
ATOM     32  C   UNL A   1      35.750  29.576  29.261  1.00  0.00     0.014 A 
ATOM     33  C   UNL A   1      38.173  29.943  27.918  1.00  0.00     0.010 A 
ATOM     34  C   UNL A   1      36.945  29.220  29.879  1.00  0.00     0.010 A 
ATOM     35  C   UNL A   1      38.169  29.409  29.219  1.00  0.00    -0.014 A 
BRANCH  35  36
ATOM     36  C   UNL A   1      39.438  29.074  29.916  1.00  0.00     0.031 A 
ATOM     37  C   UNL A   1      39.876  29.872  31.112  1.00  0.00     0.074 A 
ATOM     38  C   UNL A   1      40.222  28.088  29.435  1.00  0.00     0.049 A 
ATOM     39  N   UNL A   1      40.980  29.776  31.806  1.00  0.00    -0.248 NA
ATOM     40  C   UNL A   1      38.964  30.929  31.579  1.00  0.00     0.031 C 
ATOM     41  C   UNL A   1      39.920  27.263  28.262  1.00  0.00     0.029 A 
ATOM     42  N   UNL A   1      41.437  27.613  29.867  1.00  0.00    -0.354 N 
ATOM     43  C   UNL A   1      40.897  30.756  32.787  1.00  0.00     0.074 A 
ATOM     44  C   UNL A   1      39.661  31.474  32.565  1.00  0.00     0.031 C 
ATOM     45  C   UNL A   1      40.904  26.367  28.089  1.00  0.00     0.029 A 
ATOM     46  C   UNL A   1      41.933  26.583  29.101  1.00  0.00     0.049 A 
ATOM     47  H   UNL A   1      41.908  27.976  30.652  1.00  0.00     0.167 HD
ATOM     48  C   UNL A   1      41.762  31.015  33.796  1.00  0.00     0.037 A 
ATOM     49  C   UNL A   1      43.090  25.897  29.194  1.00  0.00     0.037 A 
ATOM     50  C   UNL A   1      42.981  30.285  34.019  1.00  0.00     0.049 A 
ATOM     51  C   UNL A   1      44.056  26.235  30.296  1.00  0.00     0.074 A 
ATOM     52  C   UNL A   1      43.901  30.446  35.040  1.00  0.00     0.029 A 
ATOM     53  N   UNL A   1      43.456  29.260  33.212  1.00  0.00    -0.354 N 
ATOM     54  N   UNL A   1      43.939  27.133  31.245  1.00  0.00    -0.248 NA
ATOM     55  C   UNL A   1      45.312  25.473  30.343  1.00  0.00     0.031 C 
ATOM     56  C   UNL A   1      44.959  29.560  34.819  1.00  0.00     0.029 A 
ATOM     57  C   UNL A   1      44.669  28.802  33.696  1.00  0.00     0.049 A 
ATOM     58  H   UNL A   1      42.996  28.910  32.414  1.00  0.00     0.167 HD
ATOM     59  C   UNL A   1      45.092  27.028  32.015  1.00  0.00     0.074 A 
ATOM     60  C   UNL A   1      45.891  25.972  31.427  1.00  0.00     0.031 C 
ATOM     61  C   UNL A   1      45.454  27.742  33.108  1.00  0.00     0.037 A 
BRANCH  48  62
ATOM     62  C   UNL A   1      41.422  32.128  34.750  1.00  0.00     0.058 A 
ATOM     63  C   UNL A   1      40.567  31.899  35.840  1.00  0.00     0.135 A 
ATOM     64  C   UNL A   1      41.879  33.440  34.540  1.00  0.00     0.135 A 
ATOM     65  F   UNL A   1      40.106  30.664  36.090  1.00  0.00    -0.206 F 
ATOM     66  C   UNL A   1      40.162  32.934  36.676  1.00  0.00     0.059 A 
ATOM     67  C   UNL A   1      41.511  34.485  35.382  1.00  0.00     0.059 A 
ATOM     68  F   UNL A   1      42.715  33.709  33.524  1.00  0.00    -0.206 F 
ATOM     69  C   UNL A   1      40.638  34.224  36.438  1.00  0.00     0.060 A 
BRANCH  69  70
ATOM     70  S   UNL A   1      40.122  35.550  37.549  1.00  0.00     0.124 S 
ATOM     71  O   UNL A   1      41.323  35.754  38.352  1.00  0.00    -0.237 OA
ATOM     72  O   UNL A   1      39.793  36.620  36.612  1.00  0.00    -0.237 OA
ATOM     73  O   UNL A   1      38.981  34.974  38.256  1.00  0.00    -0.744 OA
ENDBRANCH  69  70
ENDBRANCH  48  62
BRANCH  49  74
ATOM     74  C   UNL A   1      43.382  24.810  28.220  1.00  0.00     0.058 A 
ATOM     75  C   UNL A   1      44.025  25.073  27.000  1.00  0.00     0.135 A 
ATOM     76  C   UNL A   1      42.984  23.488  28.475  1.00  0.00     0.135 A 
ATOM     77  F   UNL A   1      44.419  26.320  26.702  1.00  0.00    -0.206 F 
ATOM     78  C   UNL A   1      44.234  24.074  26.056  1.00  0.00     0.059 A 
ATOM     79  C   UNL A   1      43.208  22.465  27.558  1.00  0.00     0.059 A 
ATOM     80  F   UNL A   1      42.379  23.183  29.633  1.00  0.00    -0.206 F 
ATOM     81  C   UNL A   1      43.817  22.774  26.342  1.00  0.00     0.060 A 
BRANCH  81  82
ATOM     82  S   UNL A   1      44.080  21.498  25.091  1.00  0.00     0.124 S 
ATOM     83  O   UNL A   1      43.002  20.564  25.397  1.00  0.00    -0.237 OA
ATOM     84  O   UNL A   1      43.935  22.253  23.852  1.00  0.00    -0.237 OA
ATOM     85  O   UNL A   1      45.428  21.017  25.376  1.00  0.00    -0.744 OA
ENDBRANCH  81  82
ENDBRANCH  49  74
BRANCH  61  86
ATOM     86  C   UNL A   1      46.762  27.409  33.772  1.00  0.00     0.058 A 
ATOM     87  C   UNL A   1      47.957  27.989  33.315  1.00  0.00     0.135 A 
ATOM     88  C   UNL A   1      46.849  26.432  34.774  1.00  0.00     0.135 A 
ATOM     89  F   UNL A   1      47.931  28.927  32.355  1.00  0.00    -0.206 F 
ATOM     90  C   UNL A   1      49.195  27.586  33.805  1.00  0.00     0.059 A 
ATOM     91  C   UNL A   1      48.076  26.033  35.298  1.00  0.00     0.059 A 
ATOM     92  F   UNL A   1      45.735  25.855  35.253  1.00  0.00    -0.206 F 
ATOM     93  C   UNL A   1      49.244  26.600  34.791  1.00  0.00     0.060 A 
BRANCH  93  94
ATOM     94  S   UNL A   1      50.861  26.068  35.392  1.00  0.00     0.124 S 
ATOM     95  O   UNL A   1      51.662  27.272  35.200  1.00  0.00    -0.237 OA
ATOM     96  O   UNL A   1      50.570  25.713  36.778  1.00  0.00    -0.237 OA
ATOM     97  O   UNL A   1      51.196  24.946  34.520  1.00  0.00    -0.744 OA
ENDBRANCH  93  94
ENDBRANCH  61  86
ENDBRANCH  35  36
ENDBRANCH  27  30
ENDBRANCH  25  26
ENDBRANCH  24  25
ENDBRANCH   1  24
TORSDOF 18
ENDMDL
MODEL 2
REMARK VINA RESULT:     -11.2      4.757      6.064
REMARK SMILES O=C(C[C@@H]1C[N@@H+](CCSc2ccccc2F)CCO1)NCCCNC(=O)c1ccc(-c2c3nc(c(-c4c(F)cc(S(=O)(=O)[O-])cc4F)c4ccc([nH]4)c(-c4c(F)cc(S(=O)(=O)[O-])cc4F)c4nc(c(-c5c(F)cc(S(=O)(=O)[O-])cc5F)c5ccc2[nH]5)C=C4)C=C3)cc1
REMARK SMILES IDX 21 1 20 2 1 3 2 4 3 6 4 7 5 8 19 9 6 10 18 11 17 12 7 14
REMARK SMILES IDX 8 15 9 16 10 17 11 18 15 19 12 20 14 21 16 22 13 23 22 24
REMARK SMILES IDX 23 25 24 26 25 27 26 29 27 30 28 31 92 32 29 33 91 34 30 35
REMARK SMILES IDX 31 36 32 37 85 38 33 39 90 40 84 41 86 42 34 43 89 44 83 45
REMARK SMILES IDX 82 46 35 48 69 49 48 50 68 51 49 52 52 53 67 54 87 55 50 56
REMARK SMILES IDX 51 57 66 59 88 60 53 61 36 62 37 63 46 64 38 65 39 66 45 67
REMARK SMILES IDX 47 68 40 69 41 70 42 71 43 72 44 73 70 74 71 75 80 76 72 77
REMARK SMILES IDX 73 78 79 79 81 80 74 81 75 82 76 83 77 84 78 85 54 86 55 87
REMARK SMILES IDX 64 88 56 89 57 90 63 91 65 92 58 93 59 94 60 95 61 96 62 97
REMARK H PARENT 20 5 6 13 24 28 86 47 52 58
REMARK Flexibility Score: inf
ROOT
ATOM      1  C   UNL A   1      34.625  30.236  27.323  1.00  0.00     0.117 C 
ENDROOT
BRANCH   1   2
ATOM      2  N   UNL A   1      33.677  30.111  26.245  1.00  0.00    -0.356 N 
ATOM      3  O   UNL A   1      31.806  29.471  27.399  1.00  0.00    -0.275 OA
ATOM      4  C   UNL A   1      32.368  29.729  26.354  1.00  0.00     0.222 C 
ATOM      5  H   UNL A   1      34.005  30.320  25.340  1.00  0.00     0.163 HD
BRANCH   4   6
ATOM      6  C   UNL A   1      31.731  29.667  24.972  1.00  0.00     0.138 C 
BRANCH   6   7
ATOM      7  C   UNL A   1      31.766  28.265  24.360  1.00  0.00     0.182 C 
ATOM      8  C   UNL A   1      30.867  27.100  25.011  1.00  0.00     0.295 C 
ATOM      9  O   UNL A   1      33.183  28.035  24.330  1.00  0.00    -0.366 OA
ATOM     10  N   UNL A   1      31.443  25.743  25.164  1.00  0.00    -0.330 N 
ATOM     11  C   UNL A   1      33.449  26.666  24.213  1.00  0.00     0.222 C 
ATOM     12  C   UNL A   1      32.825  25.988  25.453  1.00  0.00     0.291 C 
ATOM     13  H   UNL A   1      30.827  25.316  25.856  1.00  0.00     0.348 HD
BRANCH  10  14
ATOM     14  C   UNL A   1      31.372  24.676  24.140  1.00  0.00     0.273 C 
BRANCH  14  15
ATOM     15  C   UNL A   1      31.392  23.082  24.518  1.00  0.00     0.136 C 
BRANCH  15  16
ATOM     16  S   UNL A   1      32.639  21.698  23.841  1.00  0.00    -0.117 SA
BRANCH  16  17
ATOM     17  C   UNL A   1      34.432  21.769  24.344  1.00  0.00     0.043 A 
ATOM     18  C   UNL A   1      35.172  20.729  24.947  1.00  0.00     0.018 A 
ATOM     19  C   UNL A   1      35.252  22.754  23.764  1.00  0.00     0.136 A 
ATOM     20  C   UNL A   1      36.572  20.688  25.064  1.00  0.00     0.001 A 
ATOM     21  C   UNL A   1      36.667  22.685  23.792  1.00  0.00     0.040 A 
ATOM     22  F   UNL A   1      34.711  23.780  23.089  1.00  0.00    -0.206 F 
ATOM     23  C   UNL A   1      37.331  21.651  24.444  1.00  0.00     0.003 A 
ENDBRANCH  16  17
ENDBRANCH  15  16
ENDBRANCH  14  15
ENDBRANCH  10  14
ENDBRANCH   6   7
ENDBRANCH   4   6
ENDBRANCH   1   2
BRANCH   1  24
ATOM     24  C   UNL A   1      34.727  31.703  27.719  1.00  0.00     0.042 C 
BRANCH  24  25
ATOM     25  C   UNL A   1      35.766  31.992  28.802  1.00  0.00     0.118 C 
BRANCH  25  26
ATOM     26  N   UNL A   1      35.513  31.295  30.053  1.00  0.00    -0.352 N 
ATOM     27  C   UNL A   1      36.382  30.478  30.741  1.00  0.00     0.251 C 
ATOM     28  H   UNL A   1      34.622  31.422  30.452  1.00  0.00     0.163 HD
ATOM     29  O   UNL A   1      36.003  29.829  31.708  1.00  0.00    -0.269 OA
BRANCH  27  30
ATOM     30  C   UNL A   1      37.773  30.374  30.258  1.00  0.00     0.039 A 
ATOM     31  C   UNL A   1      38.816  30.520  31.172  1.00  0.00     0.014 A 
ATOM     32  C   UNL A   1      38.031  30.022  28.928  1.00  0.00     0.014 A 
ATOM     33  C   UNL A   1      40.122  30.237  30.769  1.00  0.00     0.010 A 
ATOM     34  C   UNL A   1      39.323  29.667  28.553  1.00  0.00     0.010 A 
ATOM     35  C   UNL A   1      40.380  29.762  29.471  1.00  0.00    -0.014 A 
BRANCH  35  36
ATOM     36  C   UNL A   1      41.743  29.326  29.069  1.00  0.00     0.031 A 
ATOM     37  C   UNL A   1      42.878  30.311  29.056  1.00  0.00     0.074 A 
ATOM     38  C   UNL A   1      41.943  28.055  28.663  1.00  0.00     0.049 A 
ATOM     39  N   UNL A   1      44.115  30.136  28.671  1.00  0.00    -0.248 NA
ATOM     40  C   UNL A   1      42.580  31.676  29.518  1.00  0.00     0.031 C 
ATOM     41  C   UNL A   1      40.913  27.015  28.601  1.00  0.00     0.029 A 
ATOM     42  N   UNL A   1      43.078  27.422  28.218  1.00  0.00    -0.354 N 
ATOM     43  C   UNL A   1      44.742  31.364  28.842  1.00  0.00     0.074 A 
ATOM     44  C   UNL A   1      43.736  32.291  29.312  1.00  0.00     0.031 C 
ATOM     45  C   UNL A   1      41.470  25.869  28.177  1.00  0.00     0.029 A 
ATOM     46  C   UNL A   1      42.881  26.101  27.885  1.00  0.00     0.049 A 
ATOM     47  H   UNL A   1      43.951  27.871  28.145  1.00  0.00     0.167 HD
ATOM     48  C   UNL A   1      46.044  31.680  28.649  1.00  0.00     0.037 A 
ATOM     49  C   UNL A   1      43.734  25.183  27.389  1.00  0.00     0.037 A 
ATOM     50  C   UNL A   1      47.041  30.747  28.197  1.00  0.00     0.049 A 
ATOM     51  C   UNL A   1      45.166  25.572  27.139  1.00  0.00     0.074 A 
ATOM     52  C   UNL A   1      48.395  30.963  28.012  1.00  0.00     0.029 A 
ATOM     53  N   UNL A   1      46.798  29.424  27.855  1.00  0.00    -0.354 N 
ATOM     54  N   UNL A   1      45.753  26.725  27.352  1.00  0.00    -0.248 NA
ATOM     55  C   UNL A   1      46.052  24.541  26.579  1.00  0.00     0.031 C 
ATOM     56  C   UNL A   1      48.960  29.791  27.504  1.00  0.00     0.029 A 
ATOM     57  C   UNL A   1      47.971  28.822  27.432  1.00  0.00     0.049 A 
ATOM     58  H   UNL A   1      45.921  28.979  27.907  1.00  0.00     0.167 HD
ATOM     59  C   UNL A   1      47.081  26.553  26.976  1.00  0.00     0.074 A 
ATOM     60  C   UNL A   1      47.213  25.181  26.531  1.00  0.00     0.031 C 
ATOM     61  C   UNL A   1      48.095  27.451  26.998  1.00  0.00     0.037 A 
BRANCH  48  62
ATOM     62  C   UNL A   1      46.477  33.092  28.935  1.00  0.00     0.058 A 
ATOM     63  C   UNL A   1      46.860  33.475  30.230  1.00  0.00     0.135 A 
ATOM     64  C   UNL A   1      46.440  34.087  27.943  1.00  0.00     0.135 A 
ATOM     65  F   UNL A   1      46.919  32.564  31.215  1.00  0.00    -0.206 F 
ATOM     66  C   UNL A   1      47.169  34.795  30.537  1.00  0.00     0.059 A 
ATOM     67  C   UNL A   1      46.776  35.408  28.221  1.00  0.00     0.059 A 
ATOM     68  F   UNL A   1      46.101  33.771  26.682  1.00  0.00    -0.206 F 
ATOM     69  C   UNL A   1      47.123  35.756  29.526  1.00  0.00     0.060 A 
BRANCH  69  70
ATOM     70  S   UNL A   1      47.554  37.460  29.937  1.00  0.00     0.124 S 
ATOM     71  O   UNL A   1      47.771  38.042  28.617  1.00  0.00    -0.237 OA
ATOM     72  O   UNL A   1      46.360  37.912  30.644  1.00  0.00    -0.237 OA
ATOM     73  O   UNL A   1      48.747  37.316  30.767  1.00  0.00    -0.744 OA
ENDBRANCH  69  70
ENDBRANCH  48  62
BRANCH  49  74
ATOM     74  C   UNL A   1      43.253  23.801  27.116  1.00  0.00     0.058 A 
ATOM     75  C   UNL A   1      43.174  22.840  28.135  1.00  0.00     0.135 A 
ATOM     76  C   UNL A   1      42.903  23.403  25.816  1.00  0.00     0.135 A 
ATOM     77  F   UNL A   1      43.504  23.163  29.394  1.00  0.00    -0.206 F 
ATOM     78  C   UNL A   1      42.795  21.527  27.872  1.00  0.00     0.059 A 
ATOM     79  C   UNL A   1      42.494  22.104  25.532  1.00  0.00     0.059 A 
ATOM     80  F   UNL A   1      42.950  24.290  24.810  1.00  0.00    -0.206 F 
ATOM     81  C   UNL A   1      42.462  21.168  26.566  1.00  0.00     0.060 A 
BRANCH  81  82
ATOM     82  S   UNL A   1      41.995  19.453  26.244  1.00  0.00     0.124 S 
ATOM     83  O   UNL A   1      42.440  18.796  27.468  1.00  0.00    -0.237 OA
ATOM     84  O   UNL A   1      40.551  19.560  26.069  1.00  0.00    -0.237 OA
ATOM     85  O   UNL A   1      42.748  19.117  25.040  1.00  0.00    -0.744 OA
ENDBRANCH  81  82
ENDBRANCH  49  74
BRANCH  61  86
ATOM     86  C   UNL A   1      49.456  26.994  26.551  1.00  0.00     0.058 A 
ATOM     87  C   UNL A   1      49.840  27.122  25.205  1.00  0.00     0.135 A 
ATOM     88  C   UNL A   1      50.330  26.326  27.421  1.00  0.00     0.135 A 
ATOM     89  F   UNL A   1      49.040  27.749  24.330  1.00  0.00    -0.206 F 
ATOM     90  C   UNL A   1      51.026  26.571  24.732  1.00  0.00     0.059 A 
ATOM     91  C   UNL A   1      51.535  25.791  26.974  1.00  0.00     0.059 A 
ATOM     92  F   UNL A   1      50.016  26.188  28.719  1.00  0.00    -0.206 F 
ATOM     93  C   UNL A   1      51.864  25.899  25.623  1.00  0.00     0.060 A 
BRANCH  93  94
ATOM     94  S   UNL A   1      53.384  25.165  24.984  1.00  0.00     0.124 S 
ATOM     95  O   UNL A   1      54.398  25.810  25.811  1.00  0.00    -0.237 OA
ATOM     96  O   UNL A   1      53.167  23.743  25.238  1.00  0.00    -0.237 OA
ATOM     97  O   UNL A   1      53.382  25.552  23.576  1.00  0.00    -0.744 OA
ENDBRANCH  93  94
ENDBRANCH  61  86
ENDBRANCH  35  36
ENDBRANCH  27  30
ENDBRANCH  25  26
ENDBRANCH  24  25
ENDBRANCH   1  24
TORSDOF 18
ENDMDL
MODEL 3
REMARK VINA RESULT:     -11.1      4.694     10.786
REMARK SMILES O=C(C[C@@H]1C[N@@H+](CCSc2ccccc2F)CCO1)NCCCNC(=O)c1ccc(-c2c3nc(c(-c4c(F)cc(S(=O)(=O)[O-])cc4F)c4ccc([nH]4)c(-c4c(F)cc(S(=O)(=O)[O-])cc4F)c4nc(c(-c5c(F)cc(S(=O)(=O)[O-])cc5F)c5ccc2[nH]5)C=C4)C=C3)cc1
REMARK SMILES IDX 21 1 20 2 1 3 2 4 3 6 4 7 5 8 19 9 6 10 18 11 17 12 7 14
REMARK SMILES IDX 8 15 9 16 10 17 11 18 15 19 12 20 14 21 16 22 13 23 22 24
REMARK SMILES IDX 23 25 24 26 25 27 26 29 27 30 28 31 92 32 29 33 91 34 30 35
REMARK SMILES IDX 31 36 32 37 85 38 33 39 90 40 84 41 86 42 34 43 89 44 83 45
REMARK SMILES IDX 82 46 35 48 69 49 48 50 68 51 49 52 52 53 67 54 87 55 50 56
REMARK SMILES IDX 51 57 66 59 88 60 53 61 36 62 37 63 46 64 38 65 39 66 45 67
REMARK SMILES IDX 47 68 40 69 41 70 42 71 43 72 44 73 70 74 71 75 80 76 72 77
REMARK SMILES IDX 73 78 79 79 81 80 74 81 75 82 76 83 77 84 78 85 54 86 55 87
REMARK SMILES IDX 64 88 56 89 57 90 63 91 65 92 58 93 59 94 60 95 61 96 62 97
REMARK H PARENT 20 5 6 13 24 28 86 47 52 58
REMARK Flexibility Score: inf
ROOT
ATOM      1  C   UNL A   1      41.482  20.446  27.135  1.00  0.00     0.117 C 
ENDROOT
BRANCH   1   2
ATOM      2  N   UNL A   1      42.306  20.464  25.953  1.00  0.00    -0.356 N 
ATOM      3  O   UNL A   1      43.533  18.556  26.264  1.00  0.00    -0.275 OA
ATOM      4  C   UNL A   1      43.264  19.547  25.616  1.00  0.00     0.222 C 
ATOM      5  H   UNL A   1      42.165  21.210  25.326  1.00  0.00     0.163 HD
BRANCH   4   6
ATOM      6  C   UNL A   1      43.944  19.964  24.319  1.00  0.00     0.138 C 
BRANCH   6   7
ATOM      7  C   UNL A   1      44.783  21.235  24.464  1.00  0.00     0.182 C 
ATOM      8  C   UNL A   1      45.641  21.461  25.807  1.00  0.00     0.295 C 
ATOM      9  O   UNL A   1      43.792  22.230  24.166  1.00  0.00    -0.366 OA
ATOM     10  N   UNL A   1      45.673  22.808  26.426  1.00  0.00    -0.330 N 
ATOM     11  C   UNL A   1      44.200  23.479  24.649  1.00  0.00     0.222 C 
ATOM     12  C   UNL A   1      44.363  23.330  26.178  1.00  0.00     0.291 C 
ATOM     13  H   UNL A   1      45.991  22.609  27.375  1.00  0.00     0.348 HD
BRANCH  10  14
ATOM     14  C   UNL A   1      46.657  23.864  26.096  1.00  0.00     0.273 C 
BRANCH  14  15
ATOM     15  C   UNL A   1      47.268  24.887  27.221  1.00  0.00     0.136 C 
BRANCH  15  16
ATOM     16  S   UNL A   1      46.258  26.076  28.445  1.00  0.00    -0.117 SA
BRANCH  16  17
ATOM     17  C   UNL A   1      45.298  25.321  29.852  1.00  0.00     0.043 A 
ATOM     18  C   UNL A   1      44.356  24.273  29.754  1.00  0.00     0.018 A 
ATOM     19  C   UNL A   1      45.778  25.499  31.163  1.00  0.00     0.136 A 
ATOM     20  C   UNL A   1      43.853  23.527  30.833  1.00  0.00     0.001 A 
ATOM     21  C   UNL A   1      45.351  24.696  32.249  1.00  0.00     0.040 A 
ATOM     22  F   UNL A   1      46.731  26.408  31.421  1.00  0.00    -0.206 F 
ATOM     23  C   UNL A   1      44.384  23.709  32.087  1.00  0.00     0.003 A 
ENDBRANCH  16  17
ENDBRANCH  15  16
ENDBRANCH  14  15
ENDBRANCH  10  14
ENDBRANCH   6   7
ENDBRANCH   4   6
ENDBRANCH   1   2
BRANCH   1  24
ATOM     24  C   UNL A   1      40.383  21.488  26.984  1.00  0.00     0.042 C 
BRANCH  24  25
ATOM     25  C   UNL A   1      40.815  22.913  27.330  1.00  0.00     0.118 C 
BRANCH  25  26
ATOM     26  N   UNL A   1      41.012  23.761  26.165  1.00  0.00    -0.352 N 
ATOM     27  C   UNL A   1      41.076  25.135  26.137  1.00  0.00     0.251 C 
ATOM     28  H   UNL A   1      41.112  23.300  25.300  1.00  0.00     0.163 HD
ATOM     29  O   UNL A   1      41.098  25.744  25.075  1.00  0.00    -0.269 OA
BRANCH  27  30
ATOM     30  C   UNL A   1      41.076  25.861  27.424  1.00  0.00     0.039 A 
ATOM     31  C   UNL A   1      42.213  26.579  27.791  1.00  0.00     0.014 A 
ATOM     32  C   UNL A   1      39.913  25.915  28.200  1.00  0.00     0.014 A 
ATOM     33  C   UNL A   1      42.161  27.418  28.905  1.00  0.00     0.010 A 
ATOM     34  C   UNL A   1      39.841  26.811  29.263  1.00  0.00     0.010 A 
ATOM     35  C   UNL A   1      40.961  27.578  29.620  1.00  0.00    -0.014 A 
BRANCH  35  36
ATOM     36  C   UNL A   1      40.849  28.570  30.722  1.00  0.00     0.031 A 
ATOM     37  C   UNL A   1      41.738  28.460  31.930  1.00  0.00     0.074 A 
ATOM     38  C   UNL A   1      39.909  29.534  30.657  1.00  0.00     0.049 A 
ATOM     39  N   UNL A   1      41.740  29.184  33.018  1.00  0.00    -0.248 NA
ATOM     40  C   UNL A   1      42.741  27.383  31.923  1.00  0.00     0.031 C 
ATOM     41  C   UNL A   1      38.966  29.724  29.552  1.00  0.00     0.029 A 
ATOM     42  N   UNL A   1      39.583  30.534  31.543  1.00  0.00    -0.354 N 
ATOM     43  C   UNL A   1      42.740  28.654  33.824  1.00  0.00     0.074 A 
ATOM     44  C   UNL A   1      43.285  27.511  33.125  1.00  0.00     0.031 C 
ATOM     45  C   UNL A   1      38.194  30.791  29.810  1.00  0.00     0.029 A 
ATOM     46  C   UNL A   1      38.546  31.332  31.120  1.00  0.00     0.049 A 
ATOM     47  H   UNL A   1      40.050  30.667  32.399  1.00  0.00     0.167 HD
ATOM     48  C   UNL A   1      43.179  29.098  35.025  1.00  0.00     0.037 A 
ATOM     49  C   UNL A   1      37.936  32.373  31.721  1.00  0.00     0.037 A 
ATOM     50  C   UNL A   1      42.641  30.246  35.705  1.00  0.00     0.049 A 
ATOM     51  C   UNL A   1      38.411  32.818  33.077  1.00  0.00     0.074 A 
ATOM     52  C   UNL A   1      43.050  30.798  36.907  1.00  0.00     0.029 A 
ATOM     53  N   UNL A   1      41.581  31.017  35.251  1.00  0.00    -0.354 N 
ATOM     54  N   UNL A   1      39.391  32.335  33.803  1.00  0.00    -0.248 NA
ATOM     55  C   UNL A   1      37.703  33.945  33.700  1.00  0.00     0.031 C 
ATOM     56  C   UNL A   1      42.200  31.865  37.207  1.00  0.00     0.029 A 
ATOM     57  C   UNL A   1      41.302  32.020  36.164  1.00  0.00     0.049 A 
ATOM     58  H   UNL A   1      41.098  30.872  34.405  1.00  0.00     0.167 HD
ATOM     59  C   UNL A   1      39.432  33.112  34.955  1.00  0.00     0.074 A 
ATOM     60  C   UNL A   1      38.384  34.104  34.826  1.00  0.00     0.031 C 
ATOM     61  C   UNL A   1      40.261  33.010  36.022  1.00  0.00     0.037 A 
BRANCH  48  62
ATOM     62  C   UNL A   1      44.306  28.350  35.685  1.00  0.00     0.058 A 
ATOM     63  C   UNL A   1      44.041  27.355  36.639  1.00  0.00     0.135 A 
ATOM     64  C   UNL A   1      45.650  28.673  35.431  1.00  0.00     0.135 A 
ATOM     65  F   UNL A   1      42.776  27.003  36.917  1.00  0.00    -0.206 F 
ATOM     66  C   UNL A   1      45.067  26.721  37.333  1.00  0.00     0.059 A 
ATOM     67  C   UNL A   1      46.692  28.030  36.090  1.00  0.00     0.059 A 
ATOM     68  F   UNL A   1      45.959  29.603  34.512  1.00  0.00    -0.206 F 
ATOM     69  C   UNL A   1      46.390  27.066  37.052  1.00  0.00     0.060 A 
BRANCH  69  70
ATOM     70  S   UNL A   1      47.708  26.215  37.943  1.00  0.00     0.124 S 
ATOM     71  O   UNL A   1      48.378  25.491  36.869  1.00  0.00    -0.237 OA
ATOM     72  O   UNL A   1      48.452  27.329  38.522  1.00  0.00    -0.237 OA
ATOM     73  O   UNL A   1      46.986  25.388  38.906  1.00  0.00    -0.744 OA
ENDBRANCH  69  70
ENDBRANCH  48  62
BRANCH  49  74
ATOM     74  C   UNL A   1      36.820  33.074  31.028  1.00  0.00     0.058 A 
ATOM     75  C   UNL A   1      35.485  32.882  31.414  1.00  0.00     0.135 A 
ATOM     76  C   UNL A   1      37.068  33.920  29.935  1.00  0.00     0.135 A 
ATOM     77  F   UNL A   1      35.190  32.078  32.446  1.00  0.00    -0.206 F 
ATOM     78  C   UNL A   1      34.434  33.477  30.723  1.00  0.00     0.059 A 
ATOM     79  C   UNL A   1      36.036  34.549  29.246  1.00  0.00     0.059 A 
ATOM     80  F   UNL A   1      38.329  34.146  29.537  1.00  0.00    -0.206 F 
ATOM     81  C   UNL A   1      34.720  34.305  29.638  1.00  0.00     0.060 A 
BRANCH  81  82
ATOM     82  S   UNL A   1      33.338  35.048  28.743  1.00  0.00     0.124 S 
ATOM     83  O   UNL A   1      34.014  36.088  27.975  1.00  0.00    -0.237 OA
ATOM     84  O   UNL A   1      32.831  33.918  27.974  1.00  0.00    -0.237 OA
ATOM     85  O   UNL A   1      32.461  35.524  29.809  1.00  0.00    -0.744 OA
ENDBRANCH  81  82
ENDBRANCH  49  74
BRANCH  61  86
ATOM     86  C   UNL A   1      40.102  34.003  37.141  1.00  0.00     0.058 A 
ATOM     87  C   UNL A   1      39.213  33.745  38.197  1.00  0.00     0.135 A 
ATOM     88  C   UNL A   1      40.735  35.254  37.108  1.00  0.00     0.135 A 
ATOM     89  F   UNL A   1      38.578  32.565  38.274  1.00  0.00    -0.206 F 
ATOM     90  C   UNL A   1      38.930  34.706  39.161  1.00  0.00     0.059 A 
ATOM     91  C   UNL A   1      40.488  36.221  38.079  1.00  0.00     0.059 A 
ATOM     92  F   UNL A   1      41.604  35.546  36.127  1.00  0.00    -0.206 F 
ATOM     93  C   UNL A   1      39.567  35.946  39.088  1.00  0.00     0.060 A 
BRANCH  93  94
ATOM     94  S   UNL A   1      39.164  37.191  40.332  1.00  0.00     0.124 S 
ATOM     95  O   UNL A   1      38.354  36.424  41.272  1.00  0.00    -0.237 OA
ATOM     96  O   UNL A   1      40.486  37.586  40.808  1.00  0.00    -0.237 OA
ATOM     97  O   UNL A   1      38.447  38.211  39.572  1.00  0.00    -0.744 OA
ENDBRANCH  93  94
ENDBRANCH  61  86
ENDBRANCH  35  36
ENDBRANCH  27  30
ENDBRANCH  25  26
ENDBRANCH  24  25
ENDBRANCH   1  24
TORSDOF 18
ENDMDL
