MODEL 1
REMARK VINA RESULT:     -13.1      0.000      0.000
REMARK SMILES Cc1cc(C)n(C)c(=O)c1C(=O)N1CCC2(CC1)C[NH2+][C@@H](C(=O)NCCCNC(=O)c1ccc(-c3c4nc(c(-c5c(F)cc(S(=O)(=O)[O-])cc5F)c5ccc([nH]5)c(-c5c(F)cc(S(=O)(=O)[O-])cc5F)c5nc(c(-c6c(F)cc(S(=O)(=O)[O-])cc6F)c6ccc3[nH]6)C=C5)C=C4)cc1)C2
REMARK SMILES IDX 27 1 26 2 25 3 24 4 22 5 23 6 21 8 11 9 12 10 13 11 14 12
REMARK SMILES IDX 18 13 15 14 17 15 16 16 19 17 97 18 20 19 10 22 1 23 2 24
REMARK SMILES IDX 3 25 4 26 8 27 5 28 6 29 9 30 7 31 28 32 29 33 30 35 31 36
REMARK SMILES IDX 32 37 96 38 33 39 95 40 34 41 35 42 36 43 89 44 37 45 94 46
REMARK SMILES IDX 88 47 90 48 38 49 93 50 87 51 86 52 39 54 73 55 52 56 72 57
REMARK SMILES IDX 53 58 56 59 71 60 91 61 54 62 55 63 70 65 92 66 57 67 40 68
REMARK SMILES IDX 41 69 50 70 42 71 43 72 49 73 51 74 44 75 45 76 46 77 47 78
REMARK SMILES IDX 48 79 74 80 75 81 84 82 76 83 77 84 83 85 85 86 78 87 79 88
REMARK SMILES IDX 80 89 81 90 82 91 58 92 59 93 68 94 60 95 61 96 67 97 69 98
REMARK SMILES IDX 62 99 63 100 64 101 65 102 66 103
REMARK H PARENT 24 7 20 20 20 21 28 34 90 53 56 64
REMARK Flexibility Score: inf
ROOT
ATOM      1  C   UNL A   1      39.565  20.118  25.921  1.00  0.00     0.118 C 
ENDROOT
BRANCH   1   2
ATOM      2  C   UNL A   1      38.502  19.567  24.986  1.00  0.00     0.042 C 
BRANCH   2   3
ATOM      3  C   UNL A   1      37.160  20.274  25.104  1.00  0.00     0.118 C 
BRANCH   3   4
ATOM      4  N   UNL A   1      36.046  19.412  24.747  1.00  0.00    -0.351 N 
ATOM      5  C   UNL A   1      34.703  19.608  24.886  1.00  0.00     0.278 C 
ATOM      6  O   UNL A   1      33.947  18.729  24.458  1.00  0.00    -0.268 OA
ATOM      7  H   UNL A   1      36.300  18.553  24.342  1.00  0.00     0.163 HD
BRANCH   5   8
ATOM      8  C   UNL A   1      34.132  20.854  25.573  1.00  0.00     0.273 C 
ATOM      9  C   UNL A   1      32.378  27.004  24.114  1.00  0.00     0.259 C 
ATOM     10  O   UNL A   1      32.974  27.877  24.753  1.00  0.00    -0.269 OA
ATOM     11  N   UNL A   1      32.899  25.715  24.038  1.00  0.00    -0.338 N 
ATOM     12  C   UNL A   1      33.950  25.361  24.978  1.00  0.00     0.120 C 
ATOM     13  C   UNL A   1      32.583  24.657  23.083  1.00  0.00     0.120 C 
ATOM     14  C   UNL A   1      33.421  24.253  25.874  1.00  0.00     0.034 C 
ATOM     15  C   UNL A   1      32.260  23.311  23.767  1.00  0.00     0.034 C 
ATOM     16  C   UNL A   1      33.039  22.985  25.081  1.00  0.00     0.029 C 
ATOM     17  C   UNL A   1      32.205  22.077  26.023  1.00  0.00     0.268 C 
ATOM     18  C   UNL A   1      34.296  22.139  24.769  1.00  0.00     0.088 C 
ATOM     19  N   UNL A   1      32.687  20.724  25.814  1.00  0.00    -0.336 N 
ATOM     20  H   UNL A   1      32.227  20.302  25.007  1.00  0.00     0.346 HD
ATOM     21  H   UNL A   1      32.489  20.123  26.615  1.00  0.00     0.346 HD
BRANCH   9  22
ATOM     22  C   UNL A   1      31.018  27.352  23.573  1.00  0.00     0.108 A 
ATOM     23  C   UNL A   1      29.721  25.800  25.143  1.00  0.00     0.045 C 
ATOM     24  C   UNL A   1      29.873  26.844  24.082  1.00  0.00    -0.031 A 
ATOM     25  C   UNL A   1      28.590  27.402  23.713  1.00  0.00     0.026 A 
ATOM     26  C   UNL A   1      28.484  28.562  23.052  1.00  0.00     0.018 A 
ATOM     27  C   UNL A   1      30.906  28.579  22.689  1.00  0.00     0.263 A 
ATOM     28  C   UNL A   1      27.114  29.153  22.862  1.00  0.00     0.064 C 
ATOM     29  N   UNL A   1      29.634  29.176  22.571  1.00  0.00    -0.315 N 
ATOM     30  O   UNL A   1      31.902  29.033  22.127  1.00  0.00    -0.268 OA
ATOM     31  C   UNL A   1      29.549  30.454  21.876  1.00  0.00     0.153 C 
ENDBRANCH   9  22
ENDBRANCH   5   8
ENDBRANCH   3   4
ENDBRANCH   2   3
ENDBRANCH   1   2
BRANCH   1  32
ATOM     32  N   UNL A   1      40.663  19.184  26.122  1.00  0.00    -0.352 N 
ATOM     33  C   UNL A   1      42.005  19.423  26.283  1.00  0.00     0.251 C 
ATOM     34  H   UNL A   1      40.403  18.234  26.145  1.00  0.00     0.163 HD
ATOM     35  O   UNL A   1      42.797  18.489  26.221  1.00  0.00    -0.269 OA
BRANCH  33  36
ATOM     36  C   UNL A   1      42.492  20.800  26.513  1.00  0.00     0.039 A 
ATOM     37  C   UNL A   1      42.592  21.270  27.825  1.00  0.00     0.014 A 
ATOM     38  C   UNL A   1      42.826  21.634  25.442  1.00  0.00     0.014 A 
ATOM     39  C   UNL A   1      43.077  22.557  28.063  1.00  0.00     0.010 A 
ATOM     40  C   UNL A   1      43.389  22.881  25.683  1.00  0.00     0.010 A 
ATOM     41  C   UNL A   1      43.506  23.363  26.996  1.00  0.00    -0.014 A 
BRANCH  41  42
ATOM     42  C   UNL A   1      44.045  24.725  27.226  1.00  0.00     0.031 A 
ATOM     43  C   UNL A   1      43.118  25.837  27.632  1.00  0.00     0.074 A 
ATOM     44  C   UNL A   1      45.354  24.970  27.023  1.00  0.00     0.049 A 
ATOM     45  N   UNL A   1      43.382  27.105  27.821  1.00  0.00    -0.248 NA
ATOM     46  C   UNL A   1      41.704  25.483  27.831  1.00  0.00     0.031 C 
ATOM     47  C   UNL A   1      46.343  23.977  26.602  1.00  0.00     0.029 A 
ATOM     48  N   UNL A   1      46.076  26.130  27.140  1.00  0.00    -0.354 N 
ATOM     49  C   UNL A   1      42.169  27.696  28.154  1.00  0.00     0.074 A 
ATOM     50  C   UNL A   1      41.159  26.665  28.078  1.00  0.00     0.031 C 
ATOM     51  C   UNL A   1      47.548  24.563  26.524  1.00  0.00     0.029 A 
ATOM     52  C   UNL A   1      47.411  25.981  26.847  1.00  0.00     0.049 A 
ATOM     53  H   UNL A   1      45.676  26.989  27.408  1.00  0.00     0.167 HD
ATOM     54  C   UNL A   1      41.924  28.978  28.516  1.00  0.00     0.037 A 
ATOM     55  C   UNL A   1      48.410  26.885  26.835  1.00  0.00     0.037 A 
ATOM     56  C   UNL A   1      42.939  29.996  28.600  1.00  0.00     0.049 A 
ATOM     57  C   UNL A   1      48.110  28.312  27.205  1.00  0.00     0.074 A 
ATOM     58  C   UNL A   1      42.804  31.315  28.994  1.00  0.00     0.029 A 
ATOM     59  N   UNL A   1      44.277  29.810  28.278  1.00  0.00    -0.354 N 
ATOM     60  N   UNL A   1      46.966  28.847  27.561  1.00  0.00    -0.248 NA
ATOM     61  C   UNL A   1      49.234  29.256  27.172  1.00  0.00     0.031 C 
ATOM     62  C   UNL A   1      44.047  31.940  28.861  1.00  0.00     0.029 A 
ATOM     63  C   UNL A   1      44.972  30.998  28.438  1.00  0.00     0.049 A 
ATOM     64  H   UNL A   1      44.674  28.960  27.981  1.00  0.00     0.167 HD
ATOM     65  C   UNL A   1      47.235  30.188  27.812  1.00  0.00     0.074 A 
ATOM     66  C   UNL A   1      48.654  30.377  27.584  1.00  0.00     0.031 C 
ATOM     67  C   UNL A   1      46.384  31.174  28.196  1.00  0.00     0.037 A 
BRANCH  54  68
ATOM     68  C   UNL A   1      40.504  29.347  28.850  1.00  0.00     0.058 A 
ATOM     69  C   UNL A   1      39.532  29.517  27.848  1.00  0.00     0.135 A 
ATOM     70  C   UNL A   1      40.101  29.512  30.184  1.00  0.00     0.135 A 
ATOM     71  F   UNL A   1      39.866  29.389  26.554  1.00  0.00    -0.206 F 
ATOM     72  C   UNL A   1      38.224  29.872  28.156  1.00  0.00     0.059 A 
ATOM     73  C   UNL A   1      38.788  29.835  30.518  1.00  0.00     0.059 A 
ATOM     74  F   UNL A   1      40.986  29.362  31.181  1.00  0.00    -0.206 F 
ATOM     75  C   UNL A   1      37.861  30.029  29.495  1.00  0.00     0.060 A 
BRANCH  75  76
ATOM     76  S   UNL A   1      36.159  30.497  29.873  1.00  0.00     0.124 S 
ATOM     77  O   UNL A   1      35.437  29.890  28.759  1.00  0.00    -0.237 OA
ATOM     78  O   UNL A   1      35.949  29.877  31.177  1.00  0.00    -0.237 OA
ATOM     79  O   UNL A   1      36.198  31.956  29.872  1.00  0.00    -0.744 OA
ENDBRANCH  75  76
ENDBRANCH  54  68
BRANCH  55  80
ATOM     80  C   UNL A   1      49.790  26.446  26.496  1.00  0.00     0.058 A 
ATOM     81  C   UNL A   1      50.680  26.041  27.500  1.00  0.00     0.135 A 
ATOM     82  C   UNL A   1      50.225  26.363  25.163  1.00  0.00     0.135 A 
ATOM     83  F   UNL A   1      50.315  26.112  28.790  1.00  0.00    -0.206 F 
ATOM     84  C   UNL A   1      51.950  25.561  27.198  1.00  0.00     0.059 A 
ATOM     85  C   UNL A   1      51.481  25.862  24.834  1.00  0.00     0.059 A 
ATOM     86  F   UNL A   1      49.406  26.726  24.165  1.00  0.00    -0.206 F 
ATOM     87  C   UNL A   1      52.337  25.461  25.860  1.00  0.00     0.060 A 
BRANCH  87  88
ATOM     88  S   UNL A   1      53.950  24.744  25.483  1.00  0.00     0.124 S 
ATOM     89  O   UNL A   1      54.424  25.621  24.420  1.00  0.00    -0.237 OA
ATOM     90  O   UNL A   1      54.640  24.862  26.764  1.00  0.00    -0.237 OA
ATOM     91  O   UNL A   1      53.627  23.379  25.078  1.00  0.00    -0.744 OA
ENDBRANCH  87  88
ENDBRANCH  55  80
BRANCH  67  92
ATOM     92  C   UNL A   1      46.960  32.549  28.399  1.00  0.00     0.058 A 
ATOM     93  C   UNL A   1      47.545  32.927  29.617  1.00  0.00     0.135 A 
ATOM     94  C   UNL A   1      46.987  33.475  27.343  1.00  0.00     0.135 A 
ATOM     95  F   UNL A   1      47.542  32.083  30.660  1.00  0.00    -0.206 F 
ATOM     96  C   UNL A   1      48.117  34.184  29.789  1.00  0.00     0.059 A 
ATOM     97  C   UNL A   1      47.580  34.725  27.483  1.00  0.00     0.059 A 
ATOM     98  F   UNL A   1      46.452  33.159  26.152  1.00  0.00    -0.206 F 
ATOM     99  C   UNL A   1      48.134  35.075  28.713  1.00  0.00     0.060 A 
BRANCH  99 100
ATOM    100  S   UNL A   1      48.909  36.689  28.944  1.00  0.00     0.124 S 
ATOM    101  O   UNL A   1      49.676  36.475  30.168  1.00  0.00    -0.237 OA
ATOM    102  O   UNL A   1      49.693  36.834  27.722  1.00  0.00    -0.237 OA
ATOM    103  O   UNL A   1      47.774  37.598  29.067  1.00  0.00    -0.744 OA
ENDBRANCH  99 100
ENDBRANCH  67  92
ENDBRANCH  41  42
ENDBRANCH  33  36
ENDBRANCH   1  32
TORSDOF 14
ENDMDL
MODEL 2
REMARK VINA RESULT:     -13.0      6.339     12.101
REMARK SMILES Cc1cc(C)n(C)c(=O)c1C(=O)N1CCC2(CC1)C[NH2+][C@@H](C(=O)NCCCNC(=O)c1ccc(-c3c4nc(c(-c5c(F)cc(S(=O)(=O)[O-])cc5F)c5ccc([nH]5)c(-c5c(F)cc(S(=O)(=O)[O-])cc5F)c5nc(c(-c6c(F)cc(S(=O)(=O)[O-])cc6F)c6ccc3[nH]6)C=C5)C=C4)cc1)C2
REMARK SMILES IDX 27 1 26 2 25 3 24 4 22 5 23 6 21 8 11 9 12 10 13 11 14 12
REMARK SMILES IDX 18 13 15 14 17 15 16 16 19 17 97 18 20 19 10 22 1 23 2 24
REMARK SMILES IDX 3 25 4 26 8 27 5 28 6 29 9 30 7 31 28 32 29 33 30 35 31 36
REMARK SMILES IDX 32 37 96 38 33 39 95 40 34 41 35 42 36 43 89 44 37 45 94 46
REMARK SMILES IDX 88 47 90 48 38 49 93 50 87 51 86 52 39 54 73 55 52 56 72 57
REMARK SMILES IDX 53 58 56 59 71 60 91 61 54 62 55 63 70 65 92 66 57 67 40 68
REMARK SMILES IDX 41 69 50 70 42 71 43 72 49 73 51 74 44 75 45 76 46 77 47 78
REMARK SMILES IDX 48 79 74 80 75 81 84 82 76 83 77 84 83 85 85 86 78 87 79 88
REMARK SMILES IDX 80 89 81 90 82 91 58 92 59 93 68 94 60 95 61 96 67 97 69 98
REMARK SMILES IDX 62 99 63 100 64 101 65 102 66 103
REMARK H PARENT 24 7 20 20 20 21 28 34 90 53 56 64
REMARK Flexibility Score: inf
ROOT
ATOM      1  C   UNL A   1      32.862  32.813  27.267  1.00  0.00     0.118 C 
ENDROOT
BRANCH   1   2
ATOM      2  C   UNL A   1      31.573  32.093  26.905  1.00  0.00     0.042 C 
BRANCH   2   3
ATOM      3  C   UNL A   1      31.772  30.934  25.940  1.00  0.00     0.118 C 
BRANCH   3   4
ATOM      4  N   UNL A   1      30.673  30.801  24.999  1.00  0.00    -0.351 N 
ATOM      5  C   UNL A   1      30.494  29.919  23.974  1.00  0.00     0.278 C 
ATOM      6  O   UNL A   1      29.437  29.983  23.339  1.00  0.00    -0.268 OA
ATOM      7  H   UNL A   1      29.943  31.449  25.121  1.00  0.00     0.163 HD
BRANCH   5   8
ATOM      8  C   UNL A   1      31.569  28.895  23.589  1.00  0.00     0.273 C 
ATOM      9  C   UNL A   1      33.510  22.841  25.205  1.00  0.00     0.259 C 
ATOM     10  O   UNL A   1      34.679  22.760  25.597  1.00  0.00    -0.269 OA
ATOM     11  N   UNL A   1      32.860  24.072  25.195  1.00  0.00    -0.338 N 
ATOM     12  C   UNL A   1      33.680  25.265  25.340  1.00  0.00     0.120 C 
ATOM     13  C   UNL A   1      31.428  24.347  25.127  1.00  0.00     0.120 C 
ATOM     14  C   UNL A   1      33.559  26.071  24.058  1.00  0.00     0.034 C 
ATOM     15  C   UNL A   1      31.069  25.380  24.036  1.00  0.00     0.034 C 
ATOM     16  C   UNL A   1      32.108  26.518  23.776  1.00  0.00     0.029 C 
ATOM     17  C   UNL A   1      32.047  27.014  22.308  1.00  0.00     0.268 C 
ATOM     18  C   UNL A   1      31.754  27.774  24.606  1.00  0.00     0.088 C 
ATOM     19  N   UNL A   1      31.247  28.225  22.320  1.00  0.00    -0.336 N 
ATOM     20  H   UNL A   1      30.254  27.996  22.280  1.00  0.00     0.346 HD
ATOM     21  H   UNL A   1      31.447  28.820  21.516  1.00  0.00     0.346 HD
BRANCH   9  22
ATOM     22  C   UNL A   1      32.898  21.606  24.603  1.00  0.00     0.108 A 
ATOM     23  C   UNL A   1      32.729  22.546  22.227  1.00  0.00     0.045 C 
ATOM     24  C   UNL A   1      32.617  21.494  23.285  1.00  0.00    -0.031 A 
ATOM     25  C   UNL A   1      32.281  20.210  22.709  1.00  0.00     0.026 A 
ATOM     26  C   UNL A   1      32.454  19.064  23.379  1.00  0.00     0.018 A 
ATOM     27  C   UNL A   1      32.945  20.329  25.418  1.00  0.00     0.263 A 
ATOM     28  C   UNL A   1      32.243  17.768  22.646  1.00  0.00     0.064 C 
ATOM     29  N   UNL A   1      32.821  19.111  24.719  1.00  0.00    -0.315 N 
ATOM     30  O   UNL A   1      33.110  20.376  26.637  1.00  0.00    -0.268 OA
ATOM     31  C   UNL A   1      33.046  17.878  25.463  1.00  0.00     0.153 C 
ENDBRANCH   9  22
ENDBRANCH   5   8
ENDBRANCH   3   4
ENDBRANCH   2   3
ENDBRANCH   1   2
BRANCH   1  32
ATOM     32  N   UNL A   1      32.632  34.195  27.659  1.00  0.00    -0.352 N 
ATOM     33  C   UNL A   1      33.159  34.915  28.702  1.00  0.00     0.251 C 
ATOM     34  H   UNL A   1      32.001  34.690  27.088  1.00  0.00     0.163 HD
ATOM     35  O   UNL A   1      32.673  36.003  28.993  1.00  0.00    -0.269 OA
BRANCH  33  36
ATOM     36  C   UNL A   1      34.293  34.373  29.481  1.00  0.00     0.039 A 
ATOM     37  C   UNL A   1      34.030  33.685  30.668  1.00  0.00     0.014 A 
ATOM     38  C   UNL A   1      35.612  34.563  29.058  1.00  0.00     0.014 A 
ATOM     39  C   UNL A   1      35.086  33.143  31.402  1.00  0.00     0.010 A 
ATOM     40  C   UNL A   1      36.655  33.949  29.742  1.00  0.00     0.010 A 
ATOM     41  C   UNL A   1      36.405  33.246  30.930  1.00  0.00    -0.014 A 
BRANCH  41  42
ATOM     42  C   UNL A   1      37.541  32.659  31.680  1.00  0.00     0.031 A 
ATOM     43  C   UNL A   1      38.276  31.474  31.118  1.00  0.00     0.074 A 
ATOM     44  C   UNL A   1      37.878  33.160  32.884  1.00  0.00     0.049 A 
ATOM     45  N   UNL A   1      39.252  30.780  31.646  1.00  0.00    -0.248 NA
ATOM     46  C   UNL A   1      37.842  30.990  29.797  1.00  0.00     0.031 C 
ATOM     47  C   UNL A   1      37.221  34.289  33.543  1.00  0.00     0.029 A 
ATOM     48  N   UNL A   1      38.855  32.781  33.770  1.00  0.00    -0.354 N 
ATOM     49  C   UNL A   1      39.542  29.779  30.727  1.00  0.00     0.074 A 
ATOM     50  C   UNL A   1      38.599  29.914  29.639  1.00  0.00     0.031 C 
ATOM     51  C   UNL A   1      37.831  34.530  34.714  1.00  0.00     0.029 A 
ATOM     52  C   UNL A   1      38.894  33.548  34.910  1.00  0.00     0.049 A 
ATOM     53  H   UNL A   1      39.471  32.031  33.605  1.00  0.00     0.167 HD
ATOM     54  C   UNL A   1      40.525  28.848  30.772  1.00  0.00     0.037 A 
ATOM     55  C   UNL A   1      39.692  33.466  35.993  1.00  0.00     0.037 A 
ATOM     56  C   UNL A   1      41.467  28.728  31.854  1.00  0.00     0.049 A 
ATOM     57  C   UNL A   1      40.752  32.400  36.040  1.00  0.00     0.074 A 
ATOM     58  C   UNL A   1      42.525  27.845  31.980  1.00  0.00     0.029 A 
ATOM     59  N   UNL A   1      41.463  29.512  33.000  1.00  0.00    -0.354 N 
ATOM     60  N   UNL A   1      41.045  31.488  35.143  1.00  0.00    -0.248 NA
ATOM     61  C   UNL A   1      41.592  32.353  37.245  1.00  0.00     0.031 C 
ATOM     62  C   UNL A   1      43.127  28.059  33.224  1.00  0.00     0.029 A 
ATOM     63  C   UNL A   1      42.481  29.115  33.851  1.00  0.00     0.049 A 
ATOM     64  H   UNL A   1      40.830  30.244  33.182  1.00  0.00     0.167 HD
ATOM     65  C   UNL A   1      42.113  30.768  35.666  1.00  0.00     0.074 A 
ATOM     66  C   UNL A   1      42.426  31.363  36.951  1.00  0.00     0.031 C 
ATOM     67  C   UNL A   1      42.774  29.710  35.133  1.00  0.00     0.037 A 
BRANCH  54  68
ATOM     68  C   UNL A   1      40.627  27.888  29.618  1.00  0.00     0.058 A 
ATOM     69  C   UNL A   1      39.751  26.796  29.487  1.00  0.00     0.135 A 
ATOM     70  C   UNL A   1      41.595  28.070  28.618  1.00  0.00     0.135 A 
ATOM     71  F   UNL A   1      38.816  26.563  30.423  1.00  0.00    -0.206 F 
ATOM     72  C   UNL A   1      39.855  25.902  28.428  1.00  0.00     0.059 A 
ATOM     73  C   UNL A   1      41.698  27.206  27.531  1.00  0.00     0.059 A 
ATOM     74  F   UNL A   1      42.458  29.095  28.691  1.00  0.00    -0.206 F 
ATOM     75  C   UNL A   1      40.833  26.115  27.454  1.00  0.00     0.060 A 
BRANCH  75  76
ATOM     76  S   UNL A   1      40.956  24.938  26.091  1.00  0.00     0.124 S 
ATOM     77  O   UNL A   1      39.564  24.522  25.940  1.00  0.00    -0.237 OA
ATOM     78  O   UNL A   1      41.490  25.765  25.014  1.00  0.00    -0.237 OA
ATOM     79  O   UNL A   1      41.862  23.916  26.604  1.00  0.00    -0.744 OA
ENDBRANCH  75  76
ENDBRANCH  54  68
BRANCH  55  80
ATOM     80  C   UNL A   1      39.532  34.450  37.095  1.00  0.00     0.058 A 
ATOM     81  C   UNL A   1      38.829  34.113  38.261  1.00  0.00     0.135 A 
ATOM     82  C   UNL A   1      40.130  35.720  37.036  1.00  0.00     0.135 A 
ATOM     83  F   UNL A   1      38.232  32.916  38.362  1.00  0.00    -0.206 F 
ATOM     84  C   UNL A   1      38.730  34.995  39.332  1.00  0.00     0.059 A 
ATOM     85  C   UNL A   1      40.066  36.609  38.104  1.00  0.00     0.059 A 
ATOM     86  F   UNL A   1      40.825  36.085  35.948  1.00  0.00    -0.206 F 
ATOM     87  C   UNL A   1      39.364  36.236  39.251  1.00  0.00     0.060 A 
BRANCH  87  88
ATOM     88  S   UNL A   1      39.307  37.327  40.688  1.00  0.00     0.124 S 
ATOM     89  O   UNL A   1      38.456  38.409  40.207  1.00  0.00    -0.237 OA
ATOM     90  O   UNL A   1      38.721  36.456  41.704  1.00  0.00    -0.237 OA
ATOM     91  O   UNL A   1      40.707  37.674  40.906  1.00  0.00    -0.744 OA
ENDBRANCH  87  88
ENDBRANCH  55  80
BRANCH  67  92
ATOM     92  C   UNL A   1      43.907  29.124  35.930  1.00  0.00     0.058 A 
ATOM     93  C   UNL A   1      45.196  29.678  35.891  1.00  0.00     0.135 A 
ATOM     94  C   UNL A   1      43.687  28.038  36.794  1.00  0.00     0.135 A 
ATOM     95  F   UNL A   1      45.463  30.713  35.079  1.00  0.00    -0.206 F 
ATOM     96  C   UNL A   1      46.232  29.162  36.663  1.00  0.00     0.059 A 
ATOM     97  C   UNL A   1      44.699  27.526  37.598  1.00  0.00     0.059 A 
ATOM     98  F   UNL A   1      42.469  27.478  36.879  1.00  0.00    -0.206 F 
ATOM     99  C   UNL A   1      45.973  28.088  37.518  1.00  0.00     0.060 A 
BRANCH  99 100
ATOM    100  S   UNL A   1      47.320  27.454  38.537  1.00  0.00     0.124 S 
ATOM    101  O   UNL A   1      48.041  26.615  37.585  1.00  0.00    -0.237 OA
ATOM    102  O   UNL A   1      48.002  28.677  38.947  1.00  0.00    -0.237 OA
ATOM    103  O   UNL A   1      46.631  26.738  39.607  1.00  0.00    -0.744 OA
ENDBRANCH  99 100
ENDBRANCH  67  92
ENDBRANCH  41  42
ENDBRANCH  33  36
ENDBRANCH   1  32
TORSDOF 14
ENDMDL
MODEL 3
REMARK VINA RESULT:     -13.0      5.000     11.242
REMARK SMILES Cc1cc(C)n(C)c(=O)c1C(=O)N1CCC2(CC1)C[NH2+][C@@H](C(=O)NCCCNC(=O)c1ccc(-c3c4nc(c(-c5c(F)cc(S(=O)(=O)[O-])cc5F)c5ccc([nH]5)c(-c5c(F)cc(S(=O)(=O)[O-])cc5F)c5nc(c(-c6c(F)cc(S(=O)(=O)[O-])cc6F)c6ccc3[nH]6)C=C5)C=C4)cc1)C2
REMARK SMILES IDX 27 1 26 2 25 3 24 4 22 5 23 6 21 8 11 9 12 10 13 11 14 12
REMARK SMILES IDX 18 13 15 14 17 15 16 16 19 17 97 18 20 19 10 22 1 23 2 24
REMARK SMILES IDX 3 25 4 26 8 27 5 28 6 29 9 30 7 31 28 32 29 33 30 35 31 36
REMARK SMILES IDX 32 37 96 38 33 39 95 40 34 41 35 42 36 43 89 44 37 45 94 46
REMARK SMILES IDX 88 47 90 48 38 49 93 50 87 51 86 52 39 54 73 55 52 56 72 57
REMARK SMILES IDX 53 58 56 59 71 60 91 61 54 62 55 63 70 65 92 66 57 67 40 68
REMARK SMILES IDX 41 69 50 70 42 71 43 72 49 73 51 74 44 75 45 76 46 77 47 78
REMARK SMILES IDX 48 79 74 80 75 81 84 82 76 83 77 84 83 85 85 86 78 87 79 88
REMARK SMILES IDX 80 89 81 90 82 91 58 92 59 93 68 94 60 95 61 96 67 97 69 98
REMARK SMILES IDX 62 99 63 100 64 101 65 102 66 103
REMARK H PARENT 24 7 20 20 20 21 28 34 90 53 56 64
REMARK Flexibility Score: inf
ROOT
ATOM      1  C   UNL A   1      34.654  32.691  28.150  1.00  0.00     0.118 C 
ENDROOT
BRANCH   1   2
ATOM      2  C   UNL A   1      33.705  33.878  28.146  1.00  0.00     0.042 C 
BRANCH   2   3
ATOM      3  C   UNL A   1      34.383  35.203  28.460  1.00  0.00     0.118 C 
BRANCH   3   4
ATOM      4  N   UNL A   1      33.635  35.996  29.420  1.00  0.00    -0.351 N 
ATOM      5  C   UNL A   1      33.394  35.777  30.745  1.00  0.00     0.278 C 
ATOM      6  O   UNL A   1      32.757  36.636  31.363  1.00  0.00    -0.268 OA
ATOM      7  H   UNL A   1      33.239  36.820  29.058  1.00  0.00     0.163 HD
BRANCH   5   8
ATOM      8  C   UNL A   1      33.863  34.500  31.453  1.00  0.00     0.273 C 
ATOM      9  C   UNL A   1      39.155  32.159  34.542  1.00  0.00     0.259 C 
ATOM     10  O   UNL A   1      39.628  31.128  34.050  1.00  0.00    -0.269 OA
ATOM     11  N   UNL A   1      38.297  32.960  33.795  1.00  0.00    -0.338 N 
ATOM     12  C   UNL A   1      37.732  32.389  32.582  1.00  0.00     0.120 C 
ATOM     13  C   UNL A   1      37.921  34.353  34.020  1.00  0.00     0.120 C 
ATOM     14  C   UNL A   1      36.226  32.300  32.767  1.00  0.00     0.034 C 
ATOM     15  C   UNL A   1      36.392  34.572  33.984  1.00  0.00     0.034 C 
ATOM     16  C   UNL A   1      35.576  33.681  32.994  1.00  0.00     0.029 C 
ATOM     17  C   UNL A   1      34.132  33.441  33.507  1.00  0.00     0.268 C 
ATOM     18  C   UNL A   1      35.373  34.415  31.647  1.00  0.00     0.088 C 
ATOM     19  N   UNL A   1      33.288  34.389  32.803  1.00  0.00    -0.336 N 
ATOM     20  H   UNL A   1      33.300  35.294  33.272  1.00  0.00     0.346 HD
ATOM     21  H   UNL A   1      32.315  34.082  32.775  1.00  0.00     0.346 HD
BRANCH   9  22
ATOM     22  C   UNL A   1      39.419  32.409  36.002  1.00  0.00     0.108 A 
ATOM     23  C   UNL A   1      41.407  33.979  35.628  1.00  0.00     0.045 C 
ATOM     24  C   UNL A   1      40.381  33.252  36.439  1.00  0.00    -0.031 A 
ATOM     25  C   UNL A   1      40.425  33.665  37.826  1.00  0.00     0.026 A 
ATOM     26  C   UNL A   1      39.414  33.426  38.670  1.00  0.00     0.018 A 
ATOM     27  C   UNL A   1      38.345  31.999  36.991  1.00  0.00     0.263 A 
ATOM     28  C   UNL A   1      39.470  34.039  40.043  1.00  0.00     0.064 C 
ATOM     29  N   UNL A   1      38.355  32.629  38.252  1.00  0.00    -0.315 N 
ATOM     30  O   UNL A   1      37.495  31.167  36.676  1.00  0.00    -0.268 OA
ATOM     31  C   UNL A   1      37.226  32.381  39.141  1.00  0.00     0.153 C 
ENDBRANCH   9  22
ENDBRANCH   5   8
ENDBRANCH   3   4
ENDBRANCH   2   3
ENDBRANCH   1   2
BRANCH   1  32
ATOM     32  N   UNL A   1      33.951  31.420  28.063  1.00  0.00    -0.352 N 
ATOM     33  C   UNL A   1      34.447  30.142  27.993  1.00  0.00     0.251 C 
ATOM     34  H   UNL A   1      32.969  31.488  28.051  1.00  0.00     0.163 HD
ATOM     35  O   UNL A   1      33.695  29.217  27.705  1.00  0.00    -0.269 OA
BRANCH  33  36
ATOM     36  C   UNL A   1      35.881  29.886  28.246  1.00  0.00     0.039 A 
ATOM     37  C   UNL A   1      36.279  29.486  29.524  1.00  0.00     0.014 A 
ATOM     38  C   UNL A   1      36.833  30.062  27.238  1.00  0.00     0.014 A 
ATOM     39  C   UNL A   1      37.625  29.213  29.775  1.00  0.00     0.010 A 
ATOM     40  C   UNL A   1      38.157  29.706  27.464  1.00  0.00     0.010 A 
ATOM     41  C   UNL A   1      38.570  29.293  28.739  1.00  0.00    -0.014 A 
BRANCH  41  42
ATOM     42  C   UNL A   1      40.001  28.986  28.976  1.00  0.00     0.031 A 
ATOM     43  C   UNL A   1      40.908  30.040  29.549  1.00  0.00     0.074 A 
ATOM     44  C   UNL A   1      40.493  27.780  28.632  1.00  0.00     0.049 A 
ATOM     45  N   UNL A   1      42.196  29.989  29.773  1.00  0.00    -0.248 NA
ATOM     46  C   UNL A   1      40.289  31.330  29.896  1.00  0.00     0.031 C 
ATOM     47  C   UNL A   1      39.716  26.688  28.044  1.00  0.00     0.029 A 
ATOM     48  N   UNL A   1      41.764  27.272  28.725  1.00  0.00    -0.354 N 
ATOM     49  C   UNL A   1      42.540  31.237  30.280  1.00  0.00     0.074 A 
ATOM     50  C   UNL A   1      41.340  32.045  30.270  1.00  0.00     0.031 C 
ATOM     51  C   UNL A   1      40.519  25.630  27.855  1.00  0.00     0.029 A 
ATOM     52  C   UNL A   1      41.876  25.980  28.268  1.00  0.00     0.049 A 
ATOM     53  H   UNL A   1      42.524  27.783  29.084  1.00  0.00     0.167 HD
ATOM     54  C   UNL A   1      43.741  31.663  30.737  1.00  0.00     0.037 A 
ATOM     55  C   UNL A   1      42.951  25.172  28.185  1.00  0.00     0.037 A 
ATOM     56  C   UNL A   1      44.928  30.847  30.754  1.00  0.00     0.049 A 
ATOM     57  C   UNL A   1      44.284  25.677  28.664  1.00  0.00     0.074 A 
ATOM     58  C   UNL A   1      46.186  31.169  31.232  1.00  0.00     0.029 A 
ATOM     59  N   UNL A   1      45.006  29.550  30.265  1.00  0.00    -0.354 N 
ATOM     60  N   UNL A   1      44.585  26.844  29.183  1.00  0.00    -0.248 NA
ATOM     61  C   UNL A   1      45.423  24.756  28.549  1.00  0.00     0.031 C 
ATOM     62  C   UNL A   1      47.036  30.087  30.985  1.00  0.00     0.029 A 
ATOM     63  C   UNL A   1      46.297  29.068  30.405  1.00  0.00     0.049 A 
ATOM     64  H   UNL A   1      44.254  29.046  29.878  1.00  0.00     0.167 HD
ATOM     65  C   UNL A   1      45.944  26.794  29.471  1.00  0.00     0.074 A 
ATOM     66  C   UNL A   1      46.402  25.473  29.086  1.00  0.00     0.031 C 
ATOM     67  C   UNL A   1      46.741  27.754  30.006  1.00  0.00     0.037 A 
BRANCH  54  68
ATOM     68  C   UNL A   1      43.828  33.072  31.256  1.00  0.00     0.058 A 
ATOM     69  C   UNL A   1      43.736  33.359  32.629  1.00  0.00     0.135 A 
ATOM     70  C   UNL A   1      44.025  34.149  30.377  1.00  0.00     0.135 A 
ATOM     71  F   UNL A   1      43.529  32.370  33.515  1.00  0.00    -0.206 F 
ATOM     72  C   UNL A   1      43.801  34.664  33.107  1.00  0.00     0.059 A 
ATOM     73  C   UNL A   1      44.126  35.460  30.836  1.00  0.00     0.059 A 
ATOM     74  F   UNL A   1      44.120  33.935  29.056  1.00  0.00    -0.206 F 
ATOM     75  C   UNL A   1      43.996  35.708  32.202  1.00  0.00     0.060 A 
BRANCH  75  76
ATOM     76  S   UNL A   1      44.071  37.394  32.841  1.00  0.00     0.124 S 
ATOM     77  O   UNL A   1      43.891  38.177  31.622  1.00  0.00    -0.237 OA
ATOM     78  O   UNL A   1      42.956  37.420  33.781  1.00  0.00    -0.237 OA
ATOM     79  O   UNL A   1      45.399  37.472  33.444  1.00  0.00    -0.744 OA
ENDBRANCH  75  76
ENDBRANCH  54  68
BRANCH  55  80
ATOM     80  C   UNL A   1      42.788  23.790  27.661  1.00  0.00     0.058 A 
ATOM     81  C   UNL A   1      42.613  22.708  28.535  1.00  0.00     0.135 A 
ATOM     82  C   UNL A   1      42.743  23.530  26.281  1.00  0.00     0.135 A 
ATOM     83  F   UNL A   1      42.659  22.903  29.862  1.00  0.00    -0.206 F 
ATOM     84  C   UNL A   1      42.389  21.419  28.063  1.00  0.00     0.059 A 
ATOM     85  C   UNL A   1      42.495  22.254  25.785  1.00  0.00     0.059 A 
ATOM     86  F   UNL A   1      42.892  24.534  25.403  1.00  0.00    -0.206 F 
ATOM     87  C   UNL A   1      42.317  21.204  26.685  1.00  0.00     0.060 A 
BRANCH  87  88
ATOM     88  S   UNL A   1      41.928  19.543  26.094  1.00  0.00     0.124 S 
ATOM     89  O   UNL A   1      40.499  19.650  25.824  1.00  0.00    -0.237 OA
ATOM     90  O   UNL A   1      42.793  19.430  24.923  1.00  0.00    -0.237 OA
ATOM     91  O   UNL A   1      42.296  18.689  27.218  1.00  0.00    -0.744 OA
ENDBRANCH  87  88
ENDBRANCH  55  80
BRANCH  67  92
ATOM     92  C   UNL A   1      48.193  27.416  30.212  1.00  0.00     0.058 A 
ATOM     93  C   UNL A   1      49.160  27.703  29.237  1.00  0.00     0.135 A 
ATOM     94  C   UNL A   1      48.631  26.860  31.426  1.00  0.00     0.135 A 
ATOM     95  F   UNL A   1      48.795  28.230  28.057  1.00  0.00    -0.206 F 
ATOM     96  C   UNL A   1      50.508  27.431  29.448  1.00  0.00     0.059 A 
ATOM     97  C   UNL A   1      49.976  26.609  31.671  1.00  0.00     0.059 A 
ATOM     98  F   UNL A   1      47.748  26.578  32.398  1.00  0.00    -0.206 F 
ATOM     99  C   UNL A   1      50.907  26.888  30.672  1.00  0.00     0.060 A 
BRANCH  99 100
ATOM    100  S   UNL A   1      52.664  26.572  30.941  1.00  0.00     0.124 S 
ATOM    101  O   UNL A   1      53.082  27.792  31.625  1.00  0.00    -0.237 OA
ATOM    102  O   UNL A   1      52.640  25.363  31.758  1.00  0.00    -0.237 OA
ATOM    103  O   UNL A   1      53.190  26.400  29.590  1.00  0.00    -0.744 OA
ENDBRANCH  99 100
ENDBRANCH  67  92
ENDBRANCH  41  42
ENDBRANCH  33  36
ENDBRANCH   1  32
TORSDOF 14
ENDMDL
