MODEL 1
REMARK VINA RESULT:     -11.5      0.000      0.000
REMARK SMILES O=C(NCCCNC(=O)c1ccc(-c2c3nc(c(-c4c(F)cc(S(=O)(=O)[O-])cc4F)c4ccc([nH]4)c(-c4c(F)cc(S(=O)(=O)[O-])cc4F)c4nc(c(-c5c(F)cc(S(=O)(=O)[O-])cc5F)c5ccc2[nH]5)C=C4)C=C3)cc1)/C(=C/c1ccsc1)c1ccccc1
REMARK SMILES IDX 6 1 5 2 4 3 3 4 1 5 2 6 76 8 77 9 83 10 84 11 88 12 85 13
REMARK SMILES IDX 87 14 86 15 78 16 79 17 82 18 80 19 81 20 7 21 8 22 9 24
REMARK SMILES IDX 10 25 11 26 75 27 12 28 74 29 13 30 14 31 15 32 68 33 16 34
REMARK SMILES IDX 73 35 67 36 69 37 17 38 72 39 66 40 65 41 18 43 52 44 31 45
REMARK SMILES IDX 51 46 32 47 35 48 50 49 70 50 33 51 34 52 49 54 71 55 36 56
REMARK SMILES IDX 19 57 20 58 29 59 21 60 22 61 28 62 30 63 23 64 24 65 25 66
REMARK SMILES IDX 26 67 27 68 53 69 54 70 63 71 55 72 56 73 62 74 64 75 57 76
REMARK SMILES IDX 58 77 59 78 60 79 61 80 37 81 38 82 47 83 39 84 40 85 46 86
REMARK SMILES IDX 48 87 41 88 42 89 43 90 44 91 45 92
REMARK H PARENT 3 7 7 23 69 42 35 53
REMARK Flexibility Score: inf
ROOT
ATOM      1  C   UNL A   1      33.440  28.279  27.218  1.00  0.00     0.118 C 
ENDROOT
BRANCH   1   2
ATOM      2  C   UNL A   1      33.870  28.008  25.791  1.00  0.00     0.042 C 
BRANCH   2   3
ATOM      3  C   UNL A   1      32.914  27.127  25.013  1.00  0.00     0.118 C 
BRANCH   3   4
ATOM      4  N   UNL A   1      33.271  26.957  23.613  1.00  0.00    -0.352 N 
ATOM      5  O   UNL A   1      33.794  26.062  21.662  1.00  0.00    -0.269 OA
ATOM      6  C   UNL A   1      33.591  25.864  22.865  1.00  0.00     0.251 C 
ATOM      7  H   UNL A   1      33.283  27.800  23.104  1.00  0.00     0.163 HD
BRANCH   6   8
ATOM      8  C   UNL A   1      33.716  24.476  23.442  1.00  0.00     0.047 C 
ATOM      9  C   UNL A   1      32.600  23.708  23.386  1.00  0.00     0.023 C 
BRANCH   8  10
ATOM     10  C   UNL A   1      34.965  23.927  23.998  1.00  0.00    -0.013 A 
ATOM     11  C   UNL A   1      35.356  24.261  25.307  1.00  0.00     0.009 A 
ATOM     12  C   UNL A   1      35.743  23.025  23.256  1.00  0.00     0.009 A 
ATOM     13  C   UNL A   1      36.489  23.682  25.873  1.00  0.00     0.001 A 
ATOM     14  C   UNL A   1      36.862  22.428  23.838  1.00  0.00     0.001 A 
ATOM     15  C   UNL A   1      37.232  22.755  25.144  1.00  0.00     0.000 A 
ENDBRANCH   8  10
BRANCH   9  16
ATOM     16  C   UNL A   1      32.486  22.345  23.822  1.00  0.00    -0.014 A 
ATOM     17  C   UNL A   1      32.519  21.888  25.175  1.00  0.00     0.020 A 
ATOM     18  C   UNL A   1      32.381  21.297  22.932  1.00  0.00     0.073 A 
ATOM     19  C   UNL A   1      32.557  20.515  25.258  1.00  0.00     0.065 A 
ATOM     20  S   UNL A   1      32.440  19.776  23.721  1.00  0.00    -0.152 S 
ENDBRANCH   9  16
ENDBRANCH   6   8
ENDBRANCH   3   4
ENDBRANCH   2   3
ENDBRANCH   1   2
BRANCH   1  21
ATOM     21  N   UNL A   1      33.421  29.699  27.547  1.00  0.00    -0.352 N 
ATOM     22  C   UNL A   1      34.381  30.510  28.110  1.00  0.00     0.251 C 
ATOM     23  H   UNL A   1      32.577  30.157  27.329  1.00  0.00     0.163 HD
ATOM     24  O   UNL A   1      34.074  31.641  28.467  1.00  0.00    -0.269 OA
BRANCH  22  25
ATOM     25  C   UNL A   1      35.763  30.017  28.313  1.00  0.00     0.039 A 
ATOM     26  C   UNL A   1      36.685  30.118  27.267  1.00  0.00     0.014 A 
ATOM     27  C   UNL A   1      36.156  29.448  29.524  1.00  0.00     0.014 A 
ATOM     28  C   UNL A   1      38.012  29.727  27.470  1.00  0.00     0.010 A 
ATOM     29  C   UNL A   1      37.499  29.191  29.768  1.00  0.00     0.010 A 
ATOM     30  C   UNL A   1      38.442  29.306  28.739  1.00  0.00    -0.014 A 
BRANCH  30  31
ATOM     31  C   UNL A   1      39.862  28.956  29.010  1.00  0.00     0.031 A 
ATOM     32  C   UNL A   1      40.797  29.993  29.580  1.00  0.00     0.074 A 
ATOM     33  C   UNL A   1      40.328  27.736  28.674  1.00  0.00     0.049 A 
ATOM     34  N   UNL A   1      42.082  29.908  29.811  1.00  0.00    -0.248 NA
ATOM     35  C   UNL A   1      40.222  31.311  29.897  1.00  0.00     0.031 C 
ATOM     36  C   UNL A   1      39.539  26.670  28.052  1.00  0.00     0.029 A 
ATOM     37  N   UNL A   1      41.580  27.190  28.797  1.00  0.00    -0.354 N 
ATOM     38  C   UNL A   1      42.467  31.162  30.274  1.00  0.00     0.074 A 
ATOM     39  C   UNL A   1      41.298  32.009  30.228  1.00  0.00     0.031 C 
ATOM     40  C   UNL A   1      40.316  25.589  27.878  1.00  0.00     0.029 A 
ATOM     41  C   UNL A   1      41.669  25.898  28.332  1.00  0.00     0.049 A 
ATOM     42  H   UNL A   1      42.344  27.676  29.182  1.00  0.00     0.167 HD
ATOM     43  C   UNL A   1      43.678  31.565  30.727  1.00  0.00     0.037 A 
ATOM     44  C   UNL A   1      42.721  25.059  28.270  1.00  0.00     0.037 A 
ATOM     45  C   UNL A   1      44.829  30.704  30.806  1.00  0.00     0.049 A 
ATOM     46  C   UNL A   1      44.054  25.521  28.795  1.00  0.00     0.074 A 
ATOM     47  C   UNL A   1      46.082  30.988  31.319  1.00  0.00     0.029 A 
ATOM     48  N   UNL A   1      44.868  29.391  30.358  1.00  0.00    -0.354 N 
ATOM     49  N   UNL A   1      44.380  26.686  29.304  1.00  0.00    -0.248 NA
ATOM     50  C   UNL A   1      45.159  24.554  28.748  1.00  0.00     0.031 C 
ATOM     51  C   UNL A   1      46.895  29.866  31.130  1.00  0.00     0.029 A 
ATOM     52  C   UNL A   1      46.132  28.862  30.557  1.00  0.00     0.049 A 
ATOM     53  H   UNL A   1      44.110  28.909  29.956  1.00  0.00     0.167 HD
ATOM     54  C   UNL A   1      45.720  26.583  29.662  1.00  0.00     0.074 A 
ATOM     55  C   UNL A   1      46.138  25.237  29.326  1.00  0.00     0.031 C 
ATOM     56  C   UNL A   1      46.530  27.516  30.221  1.00  0.00     0.037 A 
BRANCH  43  57
ATOM     57  C   UNL A   1      43.819  32.995  31.178  1.00  0.00     0.058 A 
ATOM     58  C   UNL A   1      43.578  33.382  32.506  1.00  0.00     0.135 A 
ATOM     59  C   UNL A   1      44.229  33.989  30.273  1.00  0.00     0.135 A 
ATOM     60  F   UNL A   1      43.169  32.478  33.411  1.00  0.00    -0.206 F 
ATOM     61  C   UNL A   1      43.706  34.705  32.915  1.00  0.00     0.059 A 
ATOM     62  C   UNL A   1      44.396  35.314  30.669  1.00  0.00     0.059 A 
ATOM     63  F   UNL A   1      44.472  33.678  28.991  1.00  0.00    -0.206 F 
ATOM     64  C   UNL A   1      44.116  35.664  31.988  1.00  0.00     0.060 A 
BRANCH  64  65
ATOM     65  S   UNL A   1      44.284  37.376  32.539  1.00  0.00     0.124 S 
ATOM     66  O   UNL A   1      45.650  37.382  33.055  1.00  0.00    -0.237 OA
ATOM     67  O   UNL A   1      44.071  38.121  31.303  1.00  0.00    -0.237 OA
ATOM     68  O   UNL A   1      43.234  37.515  33.542  1.00  0.00    -0.744 OA
ENDBRANCH  64  65
ENDBRANCH  43  57
BRANCH  44  69
ATOM     69  C   UNL A   1      42.549  23.690  27.711  1.00  0.00     0.058 A 
ATOM     70  C   UNL A   1      42.592  23.462  26.328  1.00  0.00     0.135 A 
ATOM     71  C   UNL A   1      42.361  22.580  28.550  1.00  0.00     0.135 A 
ATOM     72  F   UNL A   1      42.765  24.490  25.484  1.00  0.00    -0.206 F 
ATOM     73  C   UNL A   1      42.439  22.186  25.793  1.00  0.00     0.059 A 
ATOM     74  C   UNL A   1      42.233  21.291  28.040  1.00  0.00     0.059 A 
ATOM     75  F   UNL A   1      42.329  22.740  29.882  1.00  0.00    -0.206 F 
ATOM     76  C   UNL A   1      42.264  21.105  26.659  1.00  0.00     0.060 A 
BRANCH  76  77
ATOM     77  S   UNL A   1      42.120  19.448  25.956  1.00  0.00     0.124 S 
ATOM     78  O   UNL A   1      40.684  19.345  25.737  1.00  0.00    -0.237 OA
ATOM     79  O   UNL A   1      42.945  19.553  24.757  1.00  0.00    -0.237 OA
ATOM     80  O   UNL A   1      42.662  18.590  27.007  1.00  0.00    -0.744 OA
ENDBRANCH  76  77
ENDBRANCH  44  69
BRANCH  56  81
ATOM     81  C   UNL A   1      47.943  27.107  30.538  1.00  0.00     0.058 A 
ATOM     82  C   UNL A   1      49.003  27.354  29.653  1.00  0.00     0.135 A 
ATOM     83  C   UNL A   1      48.245  26.507  31.773  1.00  0.00     0.135 A 
ATOM     84  F   UNL A   1      48.770  27.921  28.459  1.00  0.00    -0.206 F 
ATOM     85  C   UNL A   1      50.309  26.995  29.968  1.00  0.00     0.059 A 
ATOM     86  C   UNL A   1      49.548  26.169  32.122  1.00  0.00     0.059 A 
ATOM     87  F   UNL A   1      47.269  26.260  32.662  1.00  0.00    -0.206 F 
ATOM     88  C   UNL A   1      50.572  26.405  31.206  1.00  0.00     0.060 A 
BRANCH  88  89
ATOM     89  S   UNL A   1      52.276  25.970  31.613  1.00  0.00     0.124 S 
ATOM     90  O   UNL A   1      52.599  26.964  32.630  1.00  0.00    -0.237 OA
ATOM     91  O   UNL A   1      52.143  24.596  32.087  1.00  0.00    -0.237 OA
ATOM     92  O   UNL A   1      52.978  26.122  30.341  1.00  0.00    -0.744 OA
ENDBRANCH  88  89
ENDBRANCH  56  81
ENDBRANCH  30  31
ENDBRANCH  22  25
ENDBRANCH   1  21
TORSDOF 15
ENDMDL
MODEL 2
REMARK VINA RESULT:     -11.1      3.193      9.393
REMARK SMILES O=C(NCCCNC(=O)c1ccc(-c2c3nc(c(-c4c(F)cc(S(=O)(=O)[O-])cc4F)c4ccc([nH]4)c(-c4c(F)cc(S(=O)(=O)[O-])cc4F)c4nc(c(-c5c(F)cc(S(=O)(=O)[O-])cc5F)c5ccc2[nH]5)C=C4)C=C3)cc1)/C(=C/c1ccsc1)c1ccccc1
REMARK SMILES IDX 6 1 5 2 4 3 3 4 1 5 2 6 76 8 77 9 83 10 84 11 88 12 85 13
REMARK SMILES IDX 87 14 86 15 78 16 79 17 82 18 80 19 81 20 7 21 8 22 9 24
REMARK SMILES IDX 10 25 11 26 75 27 12 28 74 29 13 30 14 31 15 32 68 33 16 34
REMARK SMILES IDX 73 35 67 36 69 37 17 38 72 39 66 40 65 41 18 43 52 44 31 45
REMARK SMILES IDX 51 46 32 47 35 48 50 49 70 50 33 51 34 52 49 54 71 55 36 56
REMARK SMILES IDX 19 57 20 58 29 59 21 60 22 61 28 62 30 63 23 64 24 65 25 66
REMARK SMILES IDX 26 67 27 68 53 69 54 70 63 71 55 72 56 73 62 74 64 75 57 76
REMARK SMILES IDX 58 77 59 78 60 79 61 80 37 81 38 82 47 83 39 84 40 85 46 86
REMARK SMILES IDX 48 87 41 88 42 89 43 90 44 91 45 92
REMARK H PARENT 3 7 7 23 69 42 35 53
REMARK Flexibility Score: inf
ROOT
ATOM      1  C   UNL A   1      36.799  23.741  25.029  1.00  0.00     0.118 C 
ENDROOT
BRANCH   1   2
ATOM      2  C   UNL A   1      35.660  23.664  26.023  1.00  0.00     0.042 C 
BRANCH   2   3
ATOM      3  C   UNL A   1      34.326  23.290  25.408  1.00  0.00     0.118 C 
BRANCH   3   4
ATOM      4  N   UNL A   1      33.235  23.205  26.366  1.00  0.00    -0.352 N 
ATOM      5  O   UNL A   1      31.357  23.589  27.465  1.00  0.00    -0.269 OA
ATOM      6  C   UNL A   1      32.133  23.978  26.586  1.00  0.00     0.251 C 
ATOM      7  H   UNL A   1      33.305  22.437  26.978  1.00  0.00     0.163 HD
BRANCH   6   8
ATOM      8  C   UNL A   1      31.855  25.252  25.828  1.00  0.00     0.047 C 
ATOM      9  C   UNL A   1      31.067  25.129  24.732  1.00  0.00     0.023 C 
BRANCH   8  10
ATOM     10  C   UNL A   1      32.344  26.578  26.243  1.00  0.00    -0.013 A 
ATOM     11  C   UNL A   1      31.518  27.424  27.005  1.00  0.00     0.009 A 
ATOM     12  C   UNL A   1      33.650  26.987  25.935  1.00  0.00     0.009 A 
ATOM     13  C   UNL A   1      32.000  28.644  27.474  1.00  0.00     0.001 A 
ATOM     14  C   UNL A   1      34.136  28.198  26.430  1.00  0.00     0.001 A 
ATOM     15  C   UNL A   1      33.312  29.022  27.199  1.00  0.00     0.000 A 
ENDBRANCH   8  10
BRANCH   9  16
ATOM     16  C   UNL A   1      30.622  26.198  23.883  1.00  0.00    -0.014 A 
ATOM     17  C   UNL A   1      31.381  26.821  22.845  1.00  0.00     0.020 A 
ATOM     18  C   UNL A   1      29.384  26.785  24.031  1.00  0.00     0.073 A 
ATOM     19  C   UNL A   1      30.744  27.925  22.327  1.00  0.00     0.065 A 
ATOM     20  S   UNL A   1      29.190  28.146  23.006  1.00  0.00    -0.152 S 
ENDBRANCH   9  16
ENDBRANCH   6   8
ENDBRANCH   3   4
ENDBRANCH   2   3
ENDBRANCH   1   2
BRANCH   1  21
ATOM     21  N   UNL A   1      37.873  22.799  25.319  1.00  0.00    -0.352 N 
ATOM     22  C   UNL A   1      39.063  22.963  25.993  1.00  0.00     0.251 C 
ATOM     23  H   UNL A   1      37.721  21.890  24.974  1.00  0.00     0.163 HD
ATOM     24  O   UNL A   1      39.901  22.069  25.953  1.00  0.00    -0.269 OA
BRANCH  22  25
ATOM     25  C   UNL A   1      39.346  24.214  26.734  1.00  0.00     0.039 A 
ATOM     26  C   UNL A   1      38.855  24.363  28.034  1.00  0.00     0.014 A 
ATOM     27  C   UNL A   1      40.086  25.244  26.155  1.00  0.00     0.014 A 
ATOM     28  C   UNL A   1      39.179  25.506  28.772  1.00  0.00     0.010 A 
ATOM     29  C   UNL A   1      40.521  26.309  26.933  1.00  0.00     0.010 A 
ATOM     30  C   UNL A   1      40.057  26.467  28.245  1.00  0.00    -0.014 A 
BRANCH  30  31
ATOM     31  C   UNL A   1      40.484  27.655  29.030  1.00  0.00     0.031 A 
ATOM     32  C   UNL A   1      41.809  27.644  29.752  1.00  0.00     0.074 A 
ATOM     33  C   UNL A   1      39.653  28.708  29.159  1.00  0.00     0.049 A 
ATOM     34  N   UNL A   1      42.322  28.545  30.549  1.00  0.00    -0.248 NA
ATOM     35  C   UNL A   1      42.651  26.447  29.587  1.00  0.00     0.031 C 
ATOM     36  C   UNL A   1      38.317  28.811  28.566  1.00  0.00     0.029 A 
ATOM     37  N   UNL A   1      39.802  29.891  29.838  1.00  0.00    -0.354 N 
ATOM     38  C   UNL A   1      43.527  28.013  30.996  1.00  0.00     0.074 A 
ATOM     39  C   UNL A   1      43.639  26.686  30.436  1.00  0.00     0.031 C 
ATOM     40  C   UNL A   1      37.783  30.001  28.881  1.00  0.00     0.029 A 
ATOM     41  C   UNL A   1      38.716  30.730  29.735  1.00  0.00     0.049 A 
ATOM     42  H   UNL A   1      40.610  30.119  30.352  1.00  0.00     0.167 HD
ATOM     43  C   UNL A   1      44.473  28.589  31.776  1.00  0.00     0.037 A 
ATOM     44  C   UNL A   1      38.493  31.945  30.271  1.00  0.00     0.037 A 
ATOM     45  C   UNL A   1      44.372  29.927  32.299  1.00  0.00     0.049 A 
ATOM     46  C   UNL A   1      39.564  32.575  31.121  1.00  0.00     0.074 A 
ATOM     47  C   UNL A   1      45.304  30.635  33.035  1.00  0.00     0.029 A 
ATOM     48  N   UNL A   1      43.272  30.757  32.141  1.00  0.00    -0.354 N 
ATOM     49  N   UNL A   1      40.734  32.088  31.466  1.00  0.00    -0.248 NA
ATOM     50  C   UNL A   1      39.293  33.920  31.645  1.00  0.00     0.031 C 
ATOM     51  C   UNL A   1      44.746  31.872  33.371  1.00  0.00     0.029 A 
ATOM     52  C   UNL A   1      43.491  31.960  32.791  1.00  0.00     0.049 A 
ATOM     53  H   UNL A   1      42.455  30.525  31.643  1.00  0.00     0.167 HD
ATOM     54  C   UNL A   1      41.348  33.079  32.226  1.00  0.00     0.074 A 
ATOM     55  C   UNL A   1      40.427  34.196  32.276  1.00  0.00     0.031 C 
ATOM     56  C   UNL A   1      42.564  33.066  32.826  1.00  0.00     0.037 A 
BRANCH  43  57
ATOM     57  C   UNL A   1      45.699  27.780  32.106  1.00  0.00     0.058 A 
ATOM     58  C   UNL A   1      45.787  27.008  33.276  1.00  0.00     0.135 A 
ATOM     59  C   UNL A   1      46.792  27.752  31.223  1.00  0.00     0.135 A 
ATOM     60  F   UNL A   1      44.780  27.008  34.164  1.00  0.00    -0.206 F 
ATOM     61  C   UNL A   1      46.925  26.266  33.577  1.00  0.00     0.059 A 
ATOM     62  C   UNL A   1      47.927  26.990  31.487  1.00  0.00     0.059 A 
ATOM     63  F   UNL A   1      46.765  28.470  30.090  1.00  0.00    -0.206 F 
ATOM     64  C   UNL A   1      47.989  26.263  32.675  1.00  0.00     0.060 A 
BRANCH  64  65
ATOM     65  S   UNL A   1      49.455  25.288  33.078  1.00  0.00     0.124 S 
ATOM     66  O   UNL A   1      50.203  26.222  33.914  1.00  0.00    -0.237 OA
ATOM     67  O   UNL A   1      48.882  24.138  33.769  1.00  0.00    -0.237 OA
ATOM     68  O   UNL A   1      50.044  25.004  31.773  1.00  0.00    -0.744 OA
ENDBRANCH  64  65
ENDBRANCH  43  57
BRANCH  44  69
ATOM     69  C   UNL A   1      37.213  32.654  30.000  1.00  0.00     0.058 A 
ATOM     70  C   UNL A   1      36.060  32.379  30.751  1.00  0.00     0.135 A 
ATOM     71  C   UNL A   1      37.122  33.638  29.002  1.00  0.00     0.135 A 
ATOM     72  F   UNL A   1      36.093  31.445  31.713  1.00  0.00    -0.206 F 
ATOM     73  C   UNL A   1      34.858  33.039  30.512  1.00  0.00     0.059 A 
ATOM     74  C   UNL A   1      35.939  34.331  28.764  1.00  0.00     0.059 A 
ATOM     75  F   UNL A   1      38.200  33.952  28.268  1.00  0.00    -0.206 F 
ATOM     76  C   UNL A   1      34.810  34.018  29.518  1.00  0.00     0.060 A 
BRANCH  76  77
ATOM     77  S   UNL A   1      33.260  34.907  29.253  1.00  0.00     0.124 S 
ATOM     78  O   UNL A   1      32.593  34.051  28.280  1.00  0.00    -0.237 OA
ATOM     79  O   UNL A   1      32.684  34.921  30.594  1.00  0.00    -0.237 OA
ATOM     80  O   UNL A   1      33.699  36.207  28.754  1.00  0.00    -0.744 OA
ENDBRANCH  76  77
ENDBRANCH  44  69
BRANCH  56  81
ATOM     81  C   UNL A   1      42.989  34.308  33.560  1.00  0.00     0.058 A 
ATOM     82  C   UNL A   1      42.842  34.435  34.950  1.00  0.00     0.135 A 
ATOM     83  C   UNL A   1      43.601  35.365  32.865  1.00  0.00     0.135 A 
ATOM     84  F   UNL A   1      42.260  33.458  35.661  1.00  0.00    -0.206 F 
ATOM     85  C   UNL A   1      43.261  35.579  35.622  1.00  0.00     0.059 A 
ATOM     86  C   UNL A   1      44.058  36.504  33.521  1.00  0.00     0.059 A 
ATOM     87  F   UNL A   1      43.778  35.289  31.536  1.00  0.00    -0.206 F 
ATOM     88  C   UNL A   1      43.871  36.607  34.899  1.00  0.00     0.060 A 
BRANCH  88  89
ATOM     89  S   UNL A   1      44.435  38.072  35.788  1.00  0.00     0.124 S 
ATOM     90  O   UNL A   1      45.874  37.840  35.853  1.00  0.00    -0.237 OA
ATOM     91  O   UNL A   1      44.006  39.155  34.909  1.00  0.00    -0.237 OA
ATOM     92  O   UNL A   1      43.729  37.989  37.063  1.00  0.00    -0.744 OA
ENDBRANCH  88  89
ENDBRANCH  56  81
ENDBRANCH  30  31
ENDBRANCH  22  25
ENDBRANCH   1  21
TORSDOF 15
ENDMDL
MODEL 3
REMARK VINA RESULT:     -11.1      3.386      6.674
REMARK SMILES O=C(NCCCNC(=O)c1ccc(-c2c3nc(c(-c4c(F)cc(S(=O)(=O)[O-])cc4F)c4ccc([nH]4)c(-c4c(F)cc(S(=O)(=O)[O-])cc4F)c4nc(c(-c5c(F)cc(S(=O)(=O)[O-])cc5F)c5ccc2[nH]5)C=C4)C=C3)cc1)/C(=C/c1ccsc1)c1ccccc1
REMARK SMILES IDX 6 1 5 2 4 3 3 4 1 5 2 6 76 8 77 9 83 10 84 11 88 12 85 13
REMARK SMILES IDX 87 14 86 15 78 16 79 17 82 18 80 19 81 20 7 21 8 22 9 24
REMARK SMILES IDX 10 25 11 26 75 27 12 28 74 29 13 30 14 31 15 32 68 33 16 34
REMARK SMILES IDX 73 35 67 36 69 37 17 38 72 39 66 40 65 41 18 43 52 44 31 45
REMARK SMILES IDX 51 46 32 47 35 48 50 49 70 50 33 51 34 52 49 54 71 55 36 56
REMARK SMILES IDX 19 57 20 58 29 59 21 60 22 61 28 62 30 63 23 64 24 65 25 66
REMARK SMILES IDX 26 67 27 68 53 69 54 70 63 71 55 72 56 73 62 74 64 75 57 76
REMARK SMILES IDX 58 77 59 78 60 79 61 80 37 81 38 82 47 83 39 84 40 85 46 86
REMARK SMILES IDX 48 87 41 88 42 89 43 90 44 91 45 92
REMARK H PARENT 3 7 7 23 69 42 35 53
REMARK Flexibility Score: inf
ROOT
ATOM      1  C   UNL A   1      34.801  32.690  29.230  1.00  0.00     0.118 C 
ENDROOT
BRANCH   1   2
ATOM      2  C   UNL A   1      34.816  32.596  30.741  1.00  0.00     0.042 C 
BRANCH   2   3
ATOM      3  C   UNL A   1      35.348  33.834  31.434  1.00  0.00     0.118 C 
BRANCH   3   4
ATOM      4  N   UNL A   1      36.647  34.274  30.946  1.00  0.00    -0.352 N 
ATOM      5  O   UNL A   1      38.817  34.637  30.758  1.00  0.00    -0.269 OA
ATOM      6  C   UNL A   1      37.903  34.211  31.472  1.00  0.00     0.251 C 
ATOM      7  H   UNL A   1      36.611  34.702  30.061  1.00  0.00     0.163 HD
BRANCH   6   8
ATOM      8  C   UNL A   1      38.196  33.671  32.849  1.00  0.00     0.047 C 
ATOM      9  C   UNL A   1      37.943  34.513  33.881  1.00  0.00     0.023 C 
BRANCH   8  10
ATOM     10  C   UNL A   1      38.679  32.304  33.110  1.00  0.00    -0.013 A 
ATOM     11  C   UNL A   1      37.810  31.210  32.947  1.00  0.00     0.009 A 
ATOM     12  C   UNL A   1      40.016  32.074  33.466  1.00  0.00     0.009 A 
ATOM     13  C   UNL A   1      38.279  29.908  33.109  1.00  0.00     0.001 A 
ATOM     14  C   UNL A   1      40.486  30.766  33.600  1.00  0.00     0.001 A 
ATOM     15  C   UNL A   1      39.619  29.688  33.420  1.00  0.00     0.000 A 
ENDBRANCH   8  10
BRANCH   9  16
ATOM     16  C   UNL A   1      38.092  34.212  35.277  1.00  0.00    -0.014 A 
ATOM     17  C   UNL A   1      37.166  33.483  36.085  1.00  0.00     0.020 A 
ATOM     18  C   UNL A   1      39.167  34.662  36.014  1.00  0.00     0.073 A 
ATOM     19  C   UNL A   1      37.509  33.507  37.417  1.00  0.00     0.065 A 
ATOM     20  S   UNL A   1      38.997  34.307  37.682  1.00  0.00    -0.152 S 
ENDBRANCH   9  16
ENDBRANCH   6   8
ENDBRANCH   3   4
ENDBRANCH   2   3
ENDBRANCH   1   2
BRANCH   1  21
ATOM     21  N   UNL A   1      34.055  31.607  28.600  1.00  0.00    -0.352 N 
ATOM     22  C   UNL A   1      34.473  30.400  28.088  1.00  0.00     0.251 C 
ATOM     23  H   UNL A   1      33.086  31.769  28.528  1.00  0.00     0.163 HD
ATOM     24  O   UNL A   1      33.687  29.724  27.433  1.00  0.00    -0.269 OA
BRANCH  22  25
ATOM     25  C   UNL A   1      35.862  29.930  28.295  1.00  0.00     0.039 A 
ATOM     26  C   UNL A   1      36.792  30.072  27.261  1.00  0.00     0.014 A 
ATOM     27  C   UNL A   1      36.255  29.345  29.498  1.00  0.00     0.014 A 
ATOM     28  C   UNL A   1      38.124  29.703  27.469  1.00  0.00     0.010 A 
ATOM     29  C   UNL A   1      37.600  29.110  29.750  1.00  0.00     0.010 A 
ATOM     30  C   UNL A   1      38.551  29.265  28.734  1.00  0.00    -0.014 A 
BRANCH  30  31
ATOM     31  C   UNL A   1      39.974  28.938  29.013  1.00  0.00     0.031 A 
ATOM     32  C   UNL A   1      40.888  29.988  29.593  1.00  0.00     0.074 A 
ATOM     33  C   UNL A   1      40.463  27.728  28.674  1.00  0.00     0.049 A 
ATOM     34  N   UNL A   1      42.173  29.924  29.832  1.00  0.00    -0.248 NA
ATOM     35  C   UNL A   1      40.288  31.296  29.911  1.00  0.00     0.031 C 
ATOM     36  C   UNL A   1      39.697  26.650  28.043  1.00  0.00     0.029 A 
ATOM     37  N   UNL A   1      41.723  27.202  28.803  1.00  0.00    -0.354 N 
ATOM     38  C   UNL A   1      42.534  31.183  30.302  1.00  0.00     0.074 A 
ATOM     39  C   UNL A   1      41.350  32.010  30.251  1.00  0.00     0.031 C 
ATOM     40  C   UNL A   1      40.493  25.584  27.870  1.00  0.00     0.029 A 
ATOM     41  C   UNL A   1      41.838  25.914  28.333  1.00  0.00     0.049 A 
ATOM     42  H   UNL A   1      42.477  27.700  29.195  1.00  0.00     0.167 HD
ATOM     43  C   UNL A   1      43.735  31.604  30.764  1.00  0.00     0.037 A 
ATOM     44  C   UNL A   1      42.904  25.093  28.275  1.00  0.00     0.037 A 
ATOM     45  C   UNL A   1      44.900  30.763  30.846  1.00  0.00     0.049 A 
ATOM     46  C   UNL A   1      44.225  25.575  28.811  1.00  0.00     0.074 A 
ATOM     47  C   UNL A   1      46.144  31.066  31.369  1.00  0.00     0.029 A 
ATOM     48  N   UNL A   1      44.964  29.453  30.393  1.00  0.00    -0.354 N 
ATOM     49  N   UNL A   1      44.528  26.744  29.326  1.00  0.00    -0.248 NA
ATOM     50  C   UNL A   1      45.347  24.628  28.767  1.00  0.00     0.031 C 
ATOM     51  C   UNL A   1      46.978  29.959  31.181  1.00  0.00     0.029 A 
ATOM     52  C   UNL A   1      46.235  28.944  30.599  1.00  0.00     0.049 A 
ATOM     53  H   UNL A   1      44.217  28.959  29.985  1.00  0.00     0.167 HD
ATOM     54  C   UNL A   1      45.868  26.662  29.692  1.00  0.00     0.074 A 
ATOM     55  C   UNL A   1      46.310  25.325  29.354  1.00  0.00     0.031 C 
ATOM     56  C   UNL A   1      46.659  27.607  30.260  1.00  0.00     0.037 A 
BRANCH  43  57
ATOM     57  C   UNL A   1      43.848  33.035  31.221  1.00  0.00     0.058 A 
ATOM     58  C   UNL A   1      43.676  33.400  32.566  1.00  0.00     0.135 A 
ATOM     59  C   UNL A   1      44.163  34.052  30.305  1.00  0.00     0.135 A 
ATOM     60  F   UNL A   1      43.358  32.473  33.485  1.00  0.00    -0.206 F 
ATOM     61  C   UNL A   1      43.778  34.724  32.982  1.00  0.00     0.059 A 
ATOM     62  C   UNL A   1      44.303  35.379  30.704  1.00  0.00     0.059 A 
ATOM     63  F   UNL A   1      44.338  33.762  29.007  1.00  0.00    -0.206 F 
ATOM     64  C   UNL A   1      44.093  35.706  32.042  1.00  0.00     0.060 A 
BRANCH  64  65
ATOM     65  S   UNL A   1      44.229  37.418  32.601  1.00  0.00     0.124 S 
ATOM     66  O   UNL A   1      44.093  38.145  31.341  1.00  0.00    -0.237 OA
ATOM     67  O   UNL A   1      43.104  37.534  33.523  1.00  0.00    -0.237 OA
ATOM     68  O   UNL A   1      45.551  37.471  33.216  1.00  0.00    -0.744 OA
ENDBRANCH  64  65
ENDBRANCH  43  57
BRANCH  44  69
ATOM     69  C   UNL A   1      42.758  23.724  27.709  1.00  0.00     0.058 A 
ATOM     70  C   UNL A   1      42.498  22.622  28.537  1.00  0.00     0.135 A 
ATOM     71  C   UNL A   1      42.854  23.494  26.328  1.00  0.00     0.135 A 
ATOM     72  F   UNL A   1      42.403  22.788  29.865  1.00  0.00    -0.206 F 
ATOM     73  C   UNL A   1      42.354  21.338  28.020  1.00  0.00     0.059 A 
ATOM     74  C   UNL A   1      42.685  22.224  25.784  1.00  0.00     0.059 A 
ATOM     75  F   UNL A   1      43.083  24.516  25.489  1.00  0.00    -0.206 F 
ATOM     76  C   UNL A   1      42.445  21.150  26.640  1.00  0.00     0.060 A 
BRANCH  76  77
ATOM     77  S   UNL A   1      42.203  19.488  25.975  1.00  0.00     0.124 S 
ATOM     78  O   UNL A   1      42.709  18.660  27.061  1.00  0.00    -0.237 OA
ATOM     79  O   UNL A   1      40.760  19.453  25.762  1.00  0.00    -0.237 OA
ATOM     80  O   UNL A   1      43.009  19.494  24.756  1.00  0.00    -0.744 OA
ENDBRANCH  76  77
ENDBRANCH  44  69
BRANCH  56  81
ATOM     81  C   UNL A   1      48.076  27.221  30.585  1.00  0.00     0.058 A 
ATOM     82  C   UNL A   1      48.400  26.490  31.738  1.00  0.00     0.135 A 
ATOM     83  C   UNL A   1      49.117  27.543  29.698  1.00  0.00     0.135 A 
ATOM     84  F   UNL A   1      47.444  26.161  32.621  1.00  0.00    -0.206 F 
ATOM     85  C   UNL A   1      49.710  26.117  32.016  1.00  0.00     0.059 A 
ATOM     86  C   UNL A   1      50.430  27.151  29.939  1.00  0.00     0.059 A 
ATOM     87  F   UNL A   1      48.861  28.229  28.572  1.00  0.00    -0.206 F 
ATOM     88  C   UNL A   1      50.719  26.449  31.109  1.00  0.00     0.060 A 
BRANCH  88  89
ATOM     89  S   UNL A   1      52.410  25.933  31.468  1.00  0.00     0.124 S 
ATOM     90  O   UNL A   1      52.200  24.596  32.013  1.00  0.00    -0.237 OA
ATOM     91  O   UNL A   1      53.040  25.991  30.153  1.00  0.00    -0.237 OA
ATOM     92  O   UNL A   1      52.875  26.934  32.425  1.00  0.00    -0.744 OA
ENDBRANCH  88  89
ENDBRANCH  56  81
ENDBRANCH  30  31
ENDBRANCH  22  25
ENDBRANCH   1  21
TORSDOF 15
ENDMDL
