MODEL 1
REMARK VINA RESULT:     -12.0      0.000      0.000
REMARK SMILES CC(C)(O)C#Cc1ccc(C(=O)N[C@@H](CCC(N)=O)C(=O)NCCCNC(=O)c2ccc(-c3c4nc(c(-c5c(F)cc(S(=O)(=O)[O-])cc5F)c5ccc([nH]5)c(-c5c(F)cc(S(=O)(=O)[O-])cc5F)c5nc(c(-c6c(F)cc(S(=O)(=O)[O-])cc6F)c6ccc3[nH]6)C=C5)C=C4)cc2)s1
REMARK SMILES IDX 23 1 22 2 20 3 21 4 14 6 13 7 11 8 12 9 10 11 7 12 8 13
REMARK SMILES IDX 95 14 9 15 6 16 5 17 2 18 1 19 3 20 4 21 15 23 16 24 17 25
REMARK SMILES IDX 18 26 19 27 24 30 25 31 26 32 27 33 28 35 29 36 30 37 94 38
REMARK SMILES IDX 31 39 93 40 32 41 33 42 34 43 87 44 35 45 92 46 86 47 88 48
REMARK SMILES IDX 36 49 91 50 85 51 84 52 37 54 71 55 50 56 70 57 51 58 54 59
REMARK SMILES IDX 69 60 89 61 52 62 53 63 68 65 90 66 55 67 38 68 39 69 48 70
REMARK SMILES IDX 40 71 41 72 47 73 49 74 42 75 43 76 44 77 45 78 46 79 72 80
REMARK SMILES IDX 73 81 82 82 74 83 75 84 81 85 83 86 76 87 77 88 78 89 79 90
REMARK SMILES IDX 80 91 56 92 57 93 66 94 58 95 59 96 65 97 67 98 60 99 61 100
REMARK SMILES IDX 62 101 63 102 64 103
REMARK H PARENT 22 5 13 10 4 22 18 28 18 29 26 34 88 53 54 64
REMARK Flexibility Score: inf
ROOT
ATOM      1  C   UNL A   1      31.994  29.256  27.194  1.00  0.00     0.117 C 
ENDROOT
BRANCH   1   2
ATOM      2  N   UNL A   1      32.983  28.412  26.564  1.00  0.00    -0.354 N 
ATOM      3  C   UNL A   1      32.947  27.690  25.412  1.00  0.00     0.242 C 
ATOM      4  O   UNL A   1      34.016  27.216  25.017  1.00  0.00    -0.273 OA
ATOM      5  H   UNL A   1      33.835  28.348  27.056  1.00  0.00     0.163 HD
BRANCH   3   6
ATOM      6  C   UNL A   1      31.659  27.500  24.590  1.00  0.00     0.172 C 
BRANCH   6   7
ATOM      7  N   UNL A   1      30.553  26.893  25.360  1.00  0.00    -0.340 N 
ATOM      8  C   UNL A   1      30.254  25.564  25.578  1.00  0.00     0.262 C 
ATOM      9  O   UNL A   1      29.429  25.322  26.462  1.00  0.00    -0.268 OA
ATOM     10  H   UNL A   1      29.936  27.535  25.781  1.00  0.00     0.164 HD
BRANCH   8  11
ATOM     11  C   UNL A   1      30.945  24.523  24.849  1.00  0.00     0.093 A 
ATOM     12  C   UNL A   1      32.000  22.390  24.395  1.00  0.00     0.078 A 
ATOM     13  C   UNL A   1      31.379  22.878  23.267  1.00  0.00     0.030 A 
ATOM     14  S   UNL A   1      32.237  23.632  25.536  1.00  0.00    -0.121 S 
ATOM     15  C   UNL A   1      30.782  24.152  23.525  1.00  0.00     0.027 A 
BRANCH  12  16
ATOM     16  C   UNL A   1      32.477  21.075  24.607  1.00  0.00    -0.053 C 
ATOM     17  C   UNL A   1      32.757  19.821  24.826  1.00  0.00    -0.063 C 
BRANCH  17  18
ATOM     18  C   UNL A   1      33.083  18.359  25.081  1.00  0.00     0.120 C 
ATOM     19  C   UNL A   1      34.538  18.081  24.710  1.00  0.00     0.056 C 
ATOM     20  C   UNL A   1      32.129  17.471  24.283  1.00  0.00     0.056 C 
BRANCH  18  21
ATOM     21  O   UNL A   1      32.909  18.098  26.472  1.00  0.00    -0.378 OA
ATOM     22  H   UNL A   1      33.726  17.724  26.836  1.00  0.00     0.212 HD
ENDBRANCH  18  21
ENDBRANCH  17  18
ENDBRANCH  12  16
ENDBRANCH   8  11
ENDBRANCH   6   7
BRANCH   6  23
ATOM     23  C   UNL A   1      31.185  28.669  23.697  1.00  0.00     0.045 C 
BRANCH  23  24
ATOM     24  C   UNL A   1      29.968  28.496  22.790  1.00  0.00     0.102 C 
BRANCH  24  25
ATOM     25  C   UNL A   1      29.289  29.800  22.430  1.00  0.00     0.217 C 
ATOM     26  N   UNL A   1      29.995  30.598  21.581  1.00  0.00    -0.370 N 
ATOM     27  O   UNL A   1      28.209  30.159  22.875  1.00  0.00    -0.275 OA
ATOM     28  H   UNL A   1      30.864  30.297  21.230  1.00  0.00     0.159 HD
ATOM     29  H   UNL A   1      29.636  31.476  21.319  1.00  0.00     0.159 HD
ENDBRANCH  24  25
ENDBRANCH  23  24
ENDBRANCH   6  23
ENDBRANCH   3   6
ENDBRANCH   1   2
BRANCH   1  30
ATOM     30  C   UNL A   1      32.227  30.741  26.952  1.00  0.00     0.042 C 
BRANCH  30  31
ATOM     31  C   UNL A   1      33.632  31.176  27.336  1.00  0.00     0.118 C 
BRANCH  31  32
ATOM     32  N   UNL A   1      33.652  31.927  28.589  1.00  0.00    -0.352 N 
ATOM     33  C   UNL A   1      34.683  32.044  29.502  1.00  0.00     0.251 C 
ATOM     34  H   UNL A   1      32.824  32.411  28.812  1.00  0.00     0.163 HD
ATOM     35  O   UNL A   1      34.502  32.534  30.594  1.00  0.00    -0.269 OA
BRANCH  33  36
ATOM     36  C   UNL A   1      35.995  31.495  29.109  1.00  0.00     0.039 A 
ATOM     37  C   UNL A   1      37.131  32.281  29.286  1.00  0.00     0.014 A 
ATOM     38  C   UNL A   1      36.088  30.152  28.746  1.00  0.00     0.014 A 
ATOM     39  C   UNL A   1      38.379  31.670  29.218  1.00  0.00     0.010 A 
ATOM     40  C   UNL A   1      37.328  29.533  28.766  1.00  0.00     0.010 A 
ATOM     41  C   UNL A   1      38.483  30.280  29.017  1.00  0.00    -0.014 A 
BRANCH  41  42
ATOM     42  C   UNL A   1      39.782  29.634  29.267  1.00  0.00     0.031 A 
ATOM     43  C   UNL A   1      40.125  29.436  30.708  1.00  0.00     0.074 A 
ATOM     44  C   UNL A   1      40.571  29.039  28.347  1.00  0.00     0.049 A 
ATOM     45  N   UNL A   1      41.063  30.012  31.387  1.00  0.00    -0.248 NA
ATOM     46  C   UNL A   1      39.260  28.562  31.517  1.00  0.00     0.031 C 
ATOM     47  C   UNL A   1      40.267  28.796  26.935  1.00  0.00     0.029 A 
ATOM     48  N   UNL A   1      41.785  28.423  28.511  1.00  0.00    -0.354 N 
ATOM     49  C   UNL A   1      41.063  29.398  32.638  1.00  0.00     0.074 A 
ATOM     50  C   UNL A   1      39.834  28.653  32.721  1.00  0.00     0.031 C 
ATOM     51  C   UNL A   1      41.139  27.894  26.438  1.00  0.00     0.029 A 
ATOM     52  C   UNL A   1      42.169  27.642  27.430  1.00  0.00     0.049 A 
ATOM     53  H   UNL A   1      42.335  28.524  29.323  1.00  0.00     0.167 HD
ATOM     54  C   UNL A   1      42.196  29.337  33.394  1.00  0.00     0.037 A 
ATOM     55  C   UNL A   1      43.254  26.842  27.318  1.00  0.00     0.037 A 
ATOM     56  C   UNL A   1      43.223  30.199  32.867  1.00  0.00     0.049 A 
ATOM     57  C   UNL A   1      44.300  27.333  28.246  1.00  0.00     0.074 A 
ATOM     58  C   UNL A   1      43.526  31.540  32.862  1.00  0.00     0.029 A 
ATOM     59  N   UNL A   1      44.011  29.599  31.926  1.00  0.00    -0.354 N 
ATOM     60  N   UNL A   1      44.886  28.493  28.125  1.00  0.00    -0.248 NA
ATOM     61  C   UNL A   1      44.547  26.639  29.505  1.00  0.00     0.031 C 
ATOM     62  C   UNL A   1      44.414  31.747  31.762  1.00  0.00     0.029 A 
ATOM     63  C   UNL A   1      44.635  30.524  31.134  1.00  0.00     0.049 A 
ATOM     64  H   UNL A   1      44.117  28.624  31.829  1.00  0.00     0.167 HD
ATOM     65  C   UNL A   1      45.205  28.851  29.416  1.00  0.00     0.074 A 
ATOM     66  C   UNL A   1      45.155  27.616  30.183  1.00  0.00     0.031 C 
ATOM     67  C   UNL A   1      45.123  30.150  29.822  1.00  0.00     0.037 A 
BRANCH  54  68
ATOM     68  C   UNL A   1      42.586  28.186  34.307  1.00  0.00     0.058 A 
ATOM     69  C   UNL A   1      42.736  28.432  35.691  1.00  0.00     0.135 A 
ATOM     70  C   UNL A   1      43.133  26.968  33.848  1.00  0.00     0.135 A 
ATOM     71  F   UNL A   1      42.250  29.556  36.242  1.00  0.00    -0.206 F 
ATOM     72  C   UNL A   1      43.452  27.579  36.533  1.00  0.00     0.059 A 
ATOM     73  C   UNL A   1      43.806  26.079  34.682  1.00  0.00     0.059 A 
ATOM     74  F   UNL A   1      43.136  26.632  32.553  1.00  0.00    -0.206 F 
ATOM     75  C   UNL A   1      44.004  26.413  36.012  1.00  0.00     0.060 A 
BRANCH  75  76
ATOM     76  S   UNL A   1      45.031  25.367  37.061  1.00  0.00     0.124 S 
ATOM     77  O   UNL A   1      46.307  26.072  37.011  1.00  0.00    -0.237 OA
ATOM     78  O   UNL A   1      44.319  25.417  38.334  1.00  0.00    -0.237 OA
ATOM     79  O   UNL A   1      44.992  24.075  36.381  1.00  0.00    -0.744 OA
ENDBRANCH  75  76
ENDBRANCH  54  68
BRANCH  55  80
ATOM     80  C   UNL A   1      43.402  25.590  26.538  1.00  0.00     0.058 A 
ATOM     81  C   UNL A   1      44.334  25.487  25.491  1.00  0.00     0.135 A 
ATOM     82  C   UNL A   1      42.822  24.383  26.979  1.00  0.00     0.135 A 
ATOM     83  F   UNL A   1      44.946  26.584  25.020  1.00  0.00    -0.206 F 
ATOM     84  C   UNL A   1      44.713  24.256  24.952  1.00  0.00     0.059 A 
ATOM     85  C   UNL A   1      43.172  23.145  26.447  1.00  0.00     0.059 A 
ATOM     86  F   UNL A   1      41.962  24.368  28.009  1.00  0.00    -0.206 F 
ATOM     87  C   UNL A   1      44.142  23.087  25.454  1.00  0.00     0.060 A 
BRANCH  87  88
ATOM     88  S   UNL A   1      44.778  21.488  24.901  1.00  0.00     0.124 S 
ATOM     89  O   UNL A   1      46.153  21.526  25.384  1.00  0.00    -0.237 OA
ATOM     90  O   UNL A   1      43.888  20.552  25.581  1.00  0.00    -0.237 OA
ATOM     91  O   UNL A   1      44.622  21.546  23.449  1.00  0.00    -0.744 OA
ENDBRANCH  87  88
ENDBRANCH  55  80
BRANCH  67  92
ATOM     92  C   UNL A   1      45.383  31.219  28.806  1.00  0.00     0.058 A 
ATOM     93  C   UNL A   1      46.652  31.684  28.425  1.00  0.00     0.135 A 
ATOM     94  C   UNL A   1      44.270  31.780  28.157  1.00  0.00     0.135 A 
ATOM     95  F   UNL A   1      47.768  31.139  28.932  1.00  0.00    -0.206 F 
ATOM     96  C   UNL A   1      46.803  32.702  27.480  1.00  0.00     0.059 A 
ATOM     97  C   UNL A   1      44.399  32.771  27.190  1.00  0.00     0.059 A 
ATOM     98  F   UNL A   1      43.032  31.344  28.445  1.00  0.00    -0.206 F 
ATOM     99  C   UNL A   1      45.670  33.243  26.872  1.00  0.00     0.060 A 
BRANCH  99 100
ATOM    100  S   UNL A   1      45.866  34.528  25.620  1.00  0.00     0.124 S 
ATOM    101  O   UNL A   1      45.459  35.727  26.344  1.00  0.00    -0.237 OA
ATOM    102  O   UNL A   1      47.285  34.436  25.289  1.00  0.00    -0.237 OA
ATOM    103  O   UNL A   1      44.959  34.106  24.554  1.00  0.00    -0.744 OA
ENDBRANCH  99 100
ENDBRANCH  67  92
ENDBRANCH  41  42
ENDBRANCH  33  36
ENDBRANCH  31  32
ENDBRANCH  30  31
ENDBRANCH   1  30
TORSDOF 21
ENDMDL
MODEL 2
REMARK VINA RESULT:     -11.7      1.617      4.388
REMARK SMILES CC(C)(O)C#Cc1ccc(C(=O)N[C@@H](CCC(N)=O)C(=O)NCCCNC(=O)c2ccc(-c3c4nc(c(-c5c(F)cc(S(=O)(=O)[O-])cc5F)c5ccc([nH]5)c(-c5c(F)cc(S(=O)(=O)[O-])cc5F)c5nc(c(-c6c(F)cc(S(=O)(=O)[O-])cc6F)c6ccc3[nH]6)C=C5)C=C4)cc2)s1
REMARK SMILES IDX 23 1 22 2 20 3 21 4 14 6 13 7 11 8 12 9 10 11 7 12 8 13
REMARK SMILES IDX 95 14 9 15 6 16 5 17 2 18 1 19 3 20 4 21 15 23 16 24 17 25
REMARK SMILES IDX 18 26 19 27 24 30 25 31 26 32 27 33 28 35 29 36 30 37 94 38
REMARK SMILES IDX 31 39 93 40 32 41 33 42 34 43 87 44 35 45 92 46 86 47 88 48
REMARK SMILES IDX 36 49 91 50 85 51 84 52 37 54 71 55 50 56 70 57 51 58 54 59
REMARK SMILES IDX 69 60 89 61 52 62 53 63 68 65 90 66 55 67 38 68 39 69 48 70
REMARK SMILES IDX 40 71 41 72 47 73 49 74 42 75 43 76 44 77 45 78 46 79 72 80
REMARK SMILES IDX 73 81 82 82 74 83 75 84 81 85 83 86 76 87 77 88 78 89 79 90
REMARK SMILES IDX 80 91 56 92 57 93 66 94 58 95 59 96 65 97 67 98 60 99 61 100
REMARK SMILES IDX 62 101 63 102 64 103
REMARK H PARENT 22 5 13 10 4 22 18 28 18 29 26 34 88 53 54 64
REMARK Flexibility Score: inf
ROOT
ATOM      1  C   UNL A   1      32.576  27.394  26.140  1.00  0.00     0.117 C 
ENDROOT
BRANCH   1   2
ATOM      2  N   UNL A   1      33.757  26.565  26.088  1.00  0.00    -0.354 N 
ATOM      3  C   UNL A   1      33.956  25.313  25.595  1.00  0.00     0.242 C 
ATOM      4  O   UNL A   1      35.125  24.928  25.508  1.00  0.00    -0.273 OA
ATOM      5  H   UNL A   1      34.561  26.980  26.478  1.00  0.00     0.163 HD
BRANCH   3   6
ATOM      6  C   UNL A   1      32.802  24.416  25.112  1.00  0.00     0.172 C 
BRANCH   6   7
ATOM      7  N   UNL A   1      33.057  23.783  23.801  1.00  0.00    -0.340 N 
ATOM      8  C   UNL A   1      33.226  24.362  22.559  1.00  0.00     0.262 C 
ATOM      9  O   UNL A   1      33.677  23.637  21.670  1.00  0.00    -0.268 OA
ATOM     10  H   UNL A   1      33.115  22.800  23.815  1.00  0.00     0.164 HD
BRANCH   8  11
ATOM     11  C   UNL A   1      32.955  25.768  22.358  1.00  0.00     0.093 A 
ATOM     12  C   UNL A   1      31.791  27.891  22.454  1.00  0.00     0.078 A 
ATOM     13  C   UNL A   1      33.154  28.079  22.508  1.00  0.00     0.030 A 
ATOM     14  S   UNL A   1      31.421  26.340  21.856  1.00  0.00    -0.121 S 
ATOM     15  C   UNL A   1      33.844  26.829  22.420  1.00  0.00     0.027 A 
BRANCH  12  16
ATOM     16  C   UNL A   1      30.784  28.838  22.757  1.00  0.00    -0.053 C 
ATOM     17  C   UNL A   1      29.913  29.796  22.906  1.00  0.00    -0.063 C 
BRANCH  17  18
ATOM     18  C   UNL A   1      28.898  30.914  23.079  1.00  0.00     0.120 C 
ATOM     19  C   UNL A   1      27.536  30.324  23.440  1.00  0.00     0.056 C 
ATOM     20  C   UNL A   1      28.821  31.743  21.798  1.00  0.00     0.056 C 
BRANCH  18  21
ATOM     21  O   UNL A   1      29.331  31.750  24.150  1.00  0.00    -0.378 OA
ATOM     22  H   UNL A   1      29.021  31.383  24.992  1.00  0.00     0.212 HD
ENDBRANCH  18  21
ENDBRANCH  17  18
ENDBRANCH  12  16
ENDBRANCH   8  11
ENDBRANCH   6   7
BRANCH   6  23
ATOM     23  C   UNL A   1      32.167  23.437  26.126  1.00  0.00     0.045 C 
BRANCH  23  24
ATOM     24  C   UNL A   1      31.854  22.001  25.711  1.00  0.00     0.102 C 
BRANCH  24  25
ATOM     25  C   UNL A   1      33.057  21.084  25.740  1.00  0.00     0.217 C 
ATOM     26  N   UNL A   1      33.271  20.455  26.929  1.00  0.00    -0.370 N 
ATOM     27  O   UNL A   1      33.823  20.924  24.800  1.00  0.00    -0.275 OA
ATOM     28  H   UNL A   1      32.647  20.593  27.678  1.00  0.00     0.159 HD
ATOM     29  H   UNL A   1      34.049  19.863  27.039  1.00  0.00     0.159 HD
ENDBRANCH  24  25
ENDBRANCH  23  24
ENDBRANCH   6  23
ENDBRANCH   3   6
ENDBRANCH   1   2
BRANCH   1  30
ATOM     30  C   UNL A   1      32.708  28.575  27.092  1.00  0.00     0.042 C 
BRANCH  30  31
ATOM     31  C   UNL A   1      34.112  29.160  27.095  1.00  0.00     0.118 C 
BRANCH  31  32
ATOM     32  N   UNL A   1      34.100  30.617  26.982  1.00  0.00    -0.352 N 
ATOM     33  C   UNL A   1      34.902  31.533  27.636  1.00  0.00     0.251 C 
ATOM     34  H   UNL A   1      33.435  30.993  26.361  1.00  0.00     0.163 HD
ATOM     35  O   UNL A   1      34.657  32.718  27.601  1.00  0.00    -0.269 OA
BRANCH  33  36
ATOM     36  C   UNL A   1      36.032  31.000  28.421  1.00  0.00     0.039 A 
ATOM     37  C   UNL A   1      36.140  29.621  28.587  1.00  0.00     0.014 A 
ATOM     38  C   UNL A   1      37.052  31.864  28.817  1.00  0.00     0.014 A 
ATOM     39  C   UNL A   1      37.346  29.100  29.045  1.00  0.00     0.010 A 
ATOM     40  C   UNL A   1      38.278  31.334  29.188  1.00  0.00     0.010 A 
ATOM     41  C   UNL A   1      38.442  29.949  29.291  1.00  0.00    -0.014 A 
BRANCH  41  42
ATOM     42  C   UNL A   1      39.772  29.341  29.461  1.00  0.00     0.031 A 
ATOM     43  C   UNL A   1      40.199  29.135  30.879  1.00  0.00     0.074 A 
ATOM     44  C   UNL A   1      40.529  28.784  28.492  1.00  0.00     0.049 A 
ATOM     45  N   UNL A   1      41.154  29.731  31.515  1.00  0.00    -0.248 NA
ATOM     46  C   UNL A   1      39.406  28.223  31.720  1.00  0.00     0.031 C 
ATOM     47  C   UNL A   1      40.156  28.550  27.095  1.00  0.00     0.029 A 
ATOM     48  N   UNL A   1      41.768  28.203  28.582  1.00  0.00    -0.354 N 
ATOM     49  C   UNL A   1      41.240  29.100  32.756  1.00  0.00     0.074 A 
ATOM     50  C   UNL A   1      40.041  28.316  32.892  1.00  0.00     0.031 C 
ATOM     51  C   UNL A   1      41.028  27.683  26.538  1.00  0.00     0.029 A 
ATOM     52  C   UNL A   1      42.117  27.449  27.470  1.00  0.00     0.049 A 
ATOM     53  H   UNL A   1      42.357  28.311  29.364  1.00  0.00     0.167 HD
ATOM     54  C   UNL A   1      42.413  29.065  33.448  1.00  0.00     0.037 A 
ATOM     55  C   UNL A   1      43.218  26.685  27.288  1.00  0.00     0.037 A 
ATOM     56  C   UNL A   1      43.384  29.965  32.880  1.00  0.00     0.049 A 
ATOM     57  C   UNL A   1      44.297  27.196  28.165  1.00  0.00     0.074 A 
ATOM     58  C   UNL A   1      43.645  31.315  32.879  1.00  0.00     0.029 A 
ATOM     59  N   UNL A   1      44.138  29.402  31.889  1.00  0.00    -0.354 N 
ATOM     60  N   UNL A   1      44.840  28.376  28.030  1.00  0.00    -0.248 NA
ATOM     61  C   UNL A   1      44.633  26.494  29.399  1.00  0.00     0.031 C 
ATOM     62  C   UNL A   1      44.466  31.565  31.737  1.00  0.00     0.029 A 
ATOM     63  C   UNL A   1      44.689  30.358  31.079  1.00  0.00     0.049 A 
ATOM     64  H   UNL A   1      44.269  28.433  31.773  1.00  0.00     0.167 HD
ATOM     65  C   UNL A   1      45.217  28.727  29.309  1.00  0.00     0.074 A 
ATOM     66  C   UNL A   1      45.246  27.480  30.059  1.00  0.00     0.031 C 
ATOM     67  C   UNL A   1      45.117  30.017  29.738  1.00  0.00     0.037 A 
BRANCH  54  68
ATOM     68  C   UNL A   1      42.887  27.914  34.322  1.00  0.00     0.058 A 
ATOM     69  C   UNL A   1      43.139  28.156  35.692  1.00  0.00     0.135 A 
ATOM     70  C   UNL A   1      43.414  26.707  33.814  1.00  0.00     0.135 A 
ATOM     71  F   UNL A   1      42.682  29.270  36.285  1.00  0.00    -0.206 F 
ATOM     72  C   UNL A   1      43.929  27.307  36.472  1.00  0.00     0.059 A 
ATOM     73  C   UNL A   1      44.160  25.822  34.589  1.00  0.00     0.059 A 
ATOM     74  F   UNL A   1      43.323  26.377  32.521  1.00  0.00    -0.206 F 
ATOM     75  C   UNL A   1      44.454  26.152  35.902  1.00  0.00     0.060 A 
BRANCH  75  76
ATOM     76  S   UNL A   1      45.572  25.115  36.864  1.00  0.00     0.124 S 
ATOM     77  O   UNL A   1      46.546  26.095  37.331  1.00  0.00    -0.237 OA
ATOM     78  O   UNL A   1      44.681  24.562  37.878  1.00  0.00    -0.237 OA
ATOM     79  O   UNL A   1      46.061  24.153  35.879  1.00  0.00    -0.744 OA
ENDBRANCH  75  76
ENDBRANCH  54  68
BRANCH  55  80
ATOM     80  C   UNL A   1      43.362  25.449  26.482  1.00  0.00     0.058 A 
ATOM     81  C   UNL A   1      44.280  25.371  25.422  1.00  0.00     0.135 A 
ATOM     82  C   UNL A   1      42.793  24.231  26.908  1.00  0.00     0.135 A 
ATOM     83  F   UNL A   1      44.881  26.480  24.963  1.00  0.00    -0.206 F 
ATOM     84  C   UNL A   1      44.658  24.152  24.855  1.00  0.00     0.059 A 
ATOM     85  C   UNL A   1      43.142  23.005  26.347  1.00  0.00     0.059 A 
ATOM     86  F   UNL A   1      41.947  24.192  27.949  1.00  0.00    -0.206 F 
ATOM     87  C   UNL A   1      44.100  22.971  25.342  1.00  0.00     0.060 A 
BRANCH  87  88
ATOM     88  S   UNL A   1      44.736  21.386  24.749  1.00  0.00     0.124 S 
ATOM     89  O   UNL A   1      44.724  21.578  23.304  1.00  0.00    -0.237 OA
ATOM     90  O   UNL A   1      46.053  21.331  25.375  1.00  0.00    -0.237 OA
ATOM     91  O   UNL A   1      43.767  20.420  25.261  1.00  0.00    -0.744 OA
ENDBRANCH  87  88
ENDBRANCH  55  80
BRANCH  67  92
ATOM     92  C   UNL A   1      45.289  31.107  28.725  1.00  0.00     0.058 A 
ATOM     93  C   UNL A   1      44.273  31.611  27.897  1.00  0.00     0.135 A 
ATOM     94  C   UNL A   1      46.559  31.696  28.618  1.00  0.00     0.135 A 
ATOM     95  F   UNL A   1      43.013  31.164  28.000  1.00  0.00    -0.206 F 
ATOM     96  C   UNL A   1      44.526  32.618  26.963  1.00  0.00     0.059 A 
ATOM     97  C   UNL A   1      46.825  32.723  27.718  1.00  0.00     0.059 A 
ATOM     98  F   UNL A   1      47.561  31.289  29.415  1.00  0.00    -0.206 F 
ATOM     99  C   UNL A   1      45.807  33.164  26.877  1.00  0.00     0.060 A 
BRANCH  99 100
ATOM    100  S   UNL A   1      46.125  34.495  25.700  1.00  0.00     0.124 S 
ATOM    101  O   UNL A   1      47.551  34.339  25.437  1.00  0.00    -0.237 OA
ATOM    102  O   UNL A   1      45.234  34.162  24.593  1.00  0.00    -0.237 OA
ATOM    103  O   UNL A   1      45.756  35.700  26.442  1.00  0.00    -0.744 OA
ENDBRANCH  99 100
ENDBRANCH  67  92
ENDBRANCH  41  42
ENDBRANCH  33  36
ENDBRANCH  31  32
ENDBRANCH  30  31
ENDBRANCH   1  30
TORSDOF 21
ENDMDL
MODEL 3
REMARK VINA RESULT:     -11.3      1.889      3.288
REMARK SMILES CC(C)(O)C#Cc1ccc(C(=O)N[C@@H](CCC(N)=O)C(=O)NCCCNC(=O)c2ccc(-c3c4nc(c(-c5c(F)cc(S(=O)(=O)[O-])cc5F)c5ccc([nH]5)c(-c5c(F)cc(S(=O)(=O)[O-])cc5F)c5nc(c(-c6c(F)cc(S(=O)(=O)[O-])cc6F)c6ccc3[nH]6)C=C5)C=C4)cc2)s1
REMARK SMILES IDX 23 1 22 2 20 3 21 4 14 6 13 7 11 8 12 9 10 11 7 12 8 13
REMARK SMILES IDX 95 14 9 15 6 16 5 17 2 18 1 19 3 20 4 21 15 23 16 24 17 25
REMARK SMILES IDX 18 26 19 27 24 30 25 31 26 32 27 33 28 35 29 36 30 37 94 38
REMARK SMILES IDX 31 39 93 40 32 41 33 42 34 43 87 44 35 45 92 46 86 47 88 48
REMARK SMILES IDX 36 49 91 50 85 51 84 52 37 54 71 55 50 56 70 57 51 58 54 59
REMARK SMILES IDX 69 60 89 61 52 62 53 63 68 65 90 66 55 67 38 68 39 69 48 70
REMARK SMILES IDX 40 71 41 72 47 73 49 74 42 75 43 76 44 77 45 78 46 79 72 80
REMARK SMILES IDX 73 81 82 82 74 83 75 84 81 85 83 86 76 87 77 88 78 89 79 90
REMARK SMILES IDX 80 91 56 92 57 93 66 94 58 95 59 96 65 97 67 98 60 99 61 100
REMARK SMILES IDX 62 101 63 102 64 103
REMARK H PARENT 22 5 13 10 4 22 18 28 18 29 26 34 88 53 54 64
REMARK Flexibility Score: inf
ROOT
ATOM      1  C   UNL A   1      32.375  27.507  26.150  1.00  0.00     0.117 C 
ENDROOT
BRANCH   1   2
ATOM      2  N   UNL A   1      33.303  27.075  25.131  1.00  0.00    -0.354 N 
ATOM      3  C   UNL A   1      33.298  25.988  24.313  1.00  0.00     0.242 C 
ATOM      4  O   UNL A   1      34.123  25.979  23.395  1.00  0.00    -0.273 OA
ATOM      5  H   UNL A   1      34.075  27.674  25.005  1.00  0.00     0.163 HD
BRANCH   3   6
ATOM      6  C   UNL A   1      32.291  24.835  24.468  1.00  0.00     0.172 C 
BRANCH   6   7
ATOM      7  N   UNL A   1      32.206  23.963  23.278  1.00  0.00    -0.340 N 
ATOM      8  C   UNL A   1      32.916  22.820  22.967  1.00  0.00     0.262 C 
ATOM      9  O   UNL A   1      32.481  22.138  22.037  1.00  0.00    -0.268 OA
ATOM     10  H   UNL A   1      31.542  24.239  22.604  1.00  0.00     0.164 HD
BRANCH   8  11
ATOM     11  C   UNL A   1      34.060  22.425  23.758  1.00  0.00     0.093 A 
ATOM     12  C   UNL A   1      36.100  22.618  25.050  1.00  0.00     0.078 A 
ATOM     13  C   UNL A   1      35.315  21.592  25.528  1.00  0.00     0.030 A 
ATOM     14  S   UNL A   1      35.627  23.054  23.474  1.00  0.00    -0.121 S 
ATOM     15  C   UNL A   1      34.124  21.456  24.746  1.00  0.00     0.027 A 
BRANCH  12  16
ATOM     16  C   UNL A   1      37.210  23.214  25.693  1.00  0.00    -0.053 C 
ATOM     17  C   UNL A   1      38.315  23.623  26.250  1.00  0.00    -0.063 C 
BRANCH  17  18
ATOM     18  C   UNL A   1      39.604  24.100  26.900  1.00  0.00     0.120 C 
ATOM     19  C   UNL A   1      40.373  22.905  27.460  1.00  0.00     0.056 C 
ATOM     20  C   UNL A   1      39.285  25.116  27.995  1.00  0.00     0.056 C 
BRANCH  18  21
ATOM     21  O   UNL A   1      40.404  24.728  25.899  1.00  0.00    -0.378 OA
ATOM     22  H   UNL A   1      40.876  25.480  26.288  1.00  0.00     0.212 HD
ENDBRANCH  18  21
ENDBRANCH  17  18
ENDBRANCH  12  16
ENDBRANCH   8  11
ENDBRANCH   6   7
BRANCH   6  23
ATOM     23  C   UNL A   1      32.302  24.031  25.788  1.00  0.00     0.045 C 
BRANCH  23  24
ATOM     24  C   UNL A   1      31.251  22.950  26.036  1.00  0.00     0.102 C 
BRANCH  24  25
ATOM     25  C   UNL A   1      30.039  23.445  26.796  1.00  0.00     0.217 C 
ATOM     26  N   UNL A   1      29.256  22.464  27.327  1.00  0.00    -0.370 N 
ATOM     27  O   UNL A   1      29.734  24.623  26.914  1.00  0.00    -0.275 OA
ATOM     28  H   UNL A   1      29.513  21.520  27.225  1.00  0.00     0.159 HD
ATOM     29  H   UNL A   1      28.434  22.701  27.813  1.00  0.00     0.159 HD
ENDBRANCH  24  25
ENDBRANCH  23  24
ENDBRANCH   6  23
ENDBRANCH   3   6
ENDBRANCH   1   2
BRANCH   1  30
ATOM     30  C   UNL A   1      33.043  28.253  27.297  1.00  0.00     0.042 C 
BRANCH  30  31
ATOM     31  C   UNL A   1      34.298  28.989  26.854  1.00  0.00     0.118 C 
BRANCH  31  32
ATOM     32  N   UNL A   1      34.102  30.437  26.817  1.00  0.00    -0.352 N 
ATOM     33  C   UNL A   1      34.731  31.406  27.576  1.00  0.00     0.251 C 
ATOM     34  H   UNL A   1      33.437  30.763  26.169  1.00  0.00     0.163 HD
ATOM     35  O   UNL A   1      34.335  32.550  27.585  1.00  0.00    -0.269 OA
BRANCH  33  36
ATOM     36  C   UNL A   1      35.866  30.973  28.414  1.00  0.00     0.039 A 
ATOM     37  C   UNL A   1      36.023  29.615  28.681  1.00  0.00     0.014 A 
ATOM     38  C   UNL A   1      36.846  31.902  28.762  1.00  0.00     0.014 A 
ATOM     39  C   UNL A   1      37.239  29.174  29.192  1.00  0.00     0.010 A 
ATOM     40  C   UNL A   1      38.084  31.447  29.188  1.00  0.00     0.010 A 
ATOM     41  C   UNL A   1      38.298  30.081  29.392  1.00  0.00    -0.014 A 
BRANCH  41  42
ATOM     42  C   UNL A   1      39.647  29.537  29.626  1.00  0.00     0.031 A 
ATOM     43  C   UNL A   1      39.995  29.296  31.059  1.00  0.00     0.074 A 
ATOM     44  C   UNL A   1      40.493  29.062  28.687  1.00  0.00     0.049 A 
ATOM     45  N   UNL A   1      40.873  29.915  31.778  1.00  0.00    -0.248 NA
ATOM     46  C   UNL A   1      39.202  28.310  31.812  1.00  0.00     0.031 C 
ATOM     47  C   UNL A   1      40.222  28.866  27.261  1.00  0.00     0.029 A 
ATOM     48  N   UNL A   1      41.754  28.545  28.835  1.00  0.00    -0.354 N 
ATOM     49  C   UNL A   1      40.916  29.239  32.997  1.00  0.00     0.074 A 
ATOM     50  C   UNL A   1      39.756  28.387  33.026  1.00  0.00     0.031 C 
ATOM     51  C   UNL A   1      41.174  28.070  26.729  1.00  0.00     0.029 A 
ATOM     52  C   UNL A   1      42.213  27.857  27.721  1.00  0.00     0.049 A 
ATOM     53  H   UNL A   1      42.286  28.651  29.657  1.00  0.00     0.167 HD
ATOM     54  C   UNL A   1      42.044  29.238  33.762  1.00  0.00     0.037 A 
ATOM     55  C   UNL A   1      43.365  27.160  27.582  1.00  0.00     0.037 A 
ATOM     56  C   UNL A   1      42.996  30.212  33.293  1.00  0.00     0.049 A 
ATOM     57  C   UNL A   1      44.356  27.692  28.546  1.00  0.00     0.074 A 
ATOM     58  C   UNL A   1      43.182  31.573  33.360  1.00  0.00     0.029 A 
ATOM     59  N   UNL A   1      43.841  29.731  32.332  1.00  0.00    -0.354 N 
ATOM     60  N   UNL A   1      44.841  28.903  28.491  1.00  0.00    -0.248 NA
ATOM     61  C   UNL A   1      44.653  26.958  29.772  1.00  0.00     0.031 C 
ATOM     62  C   UNL A   1      44.057  31.912  32.283  1.00  0.00     0.029 A 
ATOM     63  C   UNL A   1      44.388  30.747  31.596  1.00  0.00     0.049 A 
ATOM     64  H   UNL A   1      44.033  28.776  32.188  1.00  0.00     0.167 HD
ATOM     65  C   UNL A   1      45.116  29.221  29.803  1.00  0.00     0.074 A 
ATOM     66  C   UNL A   1      45.168  27.948  30.506  1.00  0.00     0.031 C 
ATOM     67  C   UNL A   1      44.918  30.485  30.274  1.00  0.00     0.037 A 
BRANCH  54  68
ATOM     68  C   UNL A   1      42.526  28.080  34.621  1.00  0.00     0.058 A 
ATOM     69  C   UNL A   1      42.735  28.294  36.003  1.00  0.00     0.135 A 
ATOM     70  C   UNL A   1      43.098  26.899  34.099  1.00  0.00     0.135 A 
ATOM     71  F   UNL A   1      42.232  29.381  36.610  1.00  0.00    -0.206 F 
ATOM     72  C   UNL A   1      43.526  27.448  36.783  1.00  0.00     0.059 A 
ATOM     73  C   UNL A   1      43.847  26.016  34.873  1.00  0.00     0.059 A 
ATOM     74  F   UNL A   1      43.050  26.599  32.797  1.00  0.00    -0.206 F 
ATOM     75  C   UNL A   1      44.097  26.322  36.201  1.00  0.00     0.060 A 
BRANCH  75  76
ATOM     76  S   UNL A   1      45.217  25.291  37.167  1.00  0.00     0.124 S 
ATOM     77  O   UNL A   1      46.358  26.182  37.336  1.00  0.00    -0.237 OA
ATOM     78  O   UNL A   1      44.430  25.023  38.366  1.00  0.00    -0.237 OA
ATOM     79  O   UNL A   1      45.436  24.136  36.300  1.00  0.00    -0.744 OA
ENDBRANCH  75  76
ENDBRANCH  54  68
BRANCH  55  80
ATOM     80  C   UNL A   1      43.628  25.968  26.741  1.00  0.00     0.058 A 
ATOM     81  C   UNL A   1      44.277  26.078  25.500  1.00  0.00     0.135 A 
ATOM     82  C   UNL A   1      43.487  24.665  27.261  1.00  0.00     0.135 A 
ATOM     83  F   UNL A   1      44.468  27.282  24.940  1.00  0.00    -0.206 F 
ATOM     84  C   UNL A   1      44.810  24.969  24.840  1.00  0.00     0.059 A 
ATOM     85  C   UNL A   1      43.996  23.542  26.613  1.00  0.00     0.059 A 
ATOM     86  F   UNL A   1      42.930  24.458  28.464  1.00  0.00    -0.206 F 
ATOM     87  C   UNL A   1      44.684  23.706  25.417  1.00  0.00     0.060 A 
BRANCH  87  88
ATOM     88  S   UNL A   1      45.545  22.304  24.667  1.00  0.00     0.124 S 
ATOM     89  O   UNL A   1      44.438  21.532  24.115  1.00  0.00    -0.237 OA
ATOM     90  O   UNL A   1      46.413  22.962  23.695  1.00  0.00    -0.237 OA
ATOM     91  O   UNL A   1      46.236  21.688  25.797  1.00  0.00    -0.744 OA
ENDBRANCH  87  88
ENDBRANCH  55  80
BRANCH  67  92
ATOM     92  C   UNL A   1      45.092  31.623  29.316  1.00  0.00     0.058 A 
ATOM     93  C   UNL A   1      46.316  32.230  28.992  1.00  0.00     0.135 A 
ATOM     94  C   UNL A   1      43.944  32.102  28.664  1.00  0.00     0.135 A 
ATOM     95  F   UNL A   1      47.469  31.774  29.503  1.00  0.00    -0.206 F 
ATOM     96  C   UNL A   1      46.386  33.303  28.101  1.00  0.00     0.059 A 
ATOM     97  C   UNL A   1      43.994  33.148  27.748  1.00  0.00     0.059 A 
ATOM     98  F   UNL A   1      42.749  31.532  28.897  1.00  0.00    -0.206 F 
ATOM     99  C   UNL A   1      45.218  33.758  27.488  1.00  0.00     0.060 A 
BRANCH  99 100
ATOM    100  S   UNL A   1      45.312  35.117  26.303  1.00  0.00     0.124 S 
ATOM    101  O   UNL A   1      43.928  35.571  26.246  1.00  0.00    -0.237 OA
ATOM    102  O   UNL A   1      46.255  36.031  26.941  1.00  0.00    -0.237 OA
ATOM    103  O   UNL A   1      45.808  34.475  25.087  1.00  0.00    -0.744 OA
ENDBRANCH  99 100
ENDBRANCH  67  92
ENDBRANCH  41  42
ENDBRANCH  33  36
ENDBRANCH  31  32
ENDBRANCH  30  31
ENDBRANCH   1  30
TORSDOF 21
ENDMDL
