MODEL 1
REMARK VINA RESULT:     -11.9      0.000      0.000
REMARK SMILES [NH3+][C@H](C(=O)NCCCNC(=O)c1ccc(-c2c3nc(c(-c4c(F)cc(S(=O)(=O)[O-])cc4F)c4ccc([nH]4)c(-c4c(F)cc(S(=O)(=O)[O-])cc4F)c4nc(c(-c5c(F)cc(S(=O)(=O)[O-])cc5F)c5ccc2[nH]5)C=C4)C=C3)cc1)c1cccc(OCc2ccc(F)cc2)c1
REMARK SMILES IDX 6 1 5 2 3 3 4 4 2 6 1 7 78 11 79 12 92 13 80 14 82 15 81 16
REMARK SMILES IDX 83 17 84 18 85 19 86 20 91 21 87 22 90 23 88 24 89 25 7 26
REMARK SMILES IDX 8 27 9 28 10 29 11 31 12 32 13 33 77 34 14 35 76 36 15 37
REMARK SMILES IDX 16 38 17 39 70 40 18 41 75 42 69 43 71 44 19 45 74 46 68 47
REMARK SMILES IDX 67 48 20 50 54 51 33 52 53 53 34 54 37 55 52 56 72 57 35 58
REMARK SMILES IDX 36 59 51 61 73 62 38 63 21 64 22 65 31 66 23 67 24 68 30 69
REMARK SMILES IDX 32 70 25 71 26 72 27 73 28 74 29 75 55 76 56 77 65 78 57 79
REMARK SMILES IDX 58 80 64 81 66 82 59 83 60 84 61 85 62 86 63 87 39 88 40 89
REMARK SMILES IDX 49 90 41 91 42 92 48 93 50 94 43 95 44 96 45 97 46 98 47 99
REMARK H PARENT 5 5 1 8 1 9 1 10 9 30 71 49 37 60
REMARK Flexibility Score: inf
ROOT
ATOM      1  C   UNL A   1      33.576  30.183  26.892  1.00  0.00     0.118 C 
ENDROOT
BRANCH   1   2
ATOM      2  N   UNL A   1      32.458  29.453  27.476  1.00  0.00    -0.351 N 
ATOM      3  C   UNL A   1      32.018  28.172  27.304  1.00  0.00     0.283 C 
ATOM      4  O   UNL A   1      31.025  27.826  27.957  1.00  0.00    -0.268 OA
ATOM      5  H   UNL A   1      31.920  29.981  28.110  1.00  0.00     0.163 HD
BRANCH   3   6
ATOM      6  C   UNL A   1      32.778  27.150  26.410  1.00  0.00     0.302 C 
BRANCH   6   7
ATOM      7  N   UNL A   1      32.148  25.817  26.612  1.00  0.00    -0.343 N 
ATOM      8  H   UNL A   1      32.757  25.238  27.191  1.00  0.00     0.345 HD
ATOM      9  H   UNL A   1      32.011  25.365  25.707  1.00  0.00     0.345 HD
ATOM     10  H   UNL A   1      31.248  25.933  27.075  1.00  0.00     0.345 HD
ENDBRANCH   6   7
BRANCH   6  11
ATOM     11  C   UNL A   1      32.776  27.567  24.945  1.00  0.00     0.023 A 
ATOM     12  C   UNL A   1      33.959  27.809  24.223  1.00  0.00     0.011 A 
ATOM     13  C   UNL A   1      31.551  27.653  24.259  1.00  0.00     0.057 A 
ATOM     14  C   UNL A   1      33.921  28.163  22.872  1.00  0.00     0.004 A 
ATOM     15  C   UNL A   1      31.522  27.937  22.890  1.00  0.00     0.120 A 
ATOM     16  C   UNL A   1      32.702  28.238  22.211  1.00  0.00     0.046 A 
BRANCH  15  17
ATOM     17  O   UNL A   1      30.427  27.833  22.080  1.00  0.00    -0.489 OA
BRANCH  17  18
ATOM     18  C   UNL A   1      29.202  28.415  22.532  1.00  0.00     0.265 C 
BRANCH  18  19
ATOM     19  C   UNL A   1      29.090  29.933  22.528  1.00  0.00    -0.011 A 
ATOM     20  C   UNL A   1      29.268  30.595  23.749  1.00  0.00     0.010 A 
ATOM     21  C   UNL A   1      28.744  30.709  21.404  1.00  0.00     0.010 A 
ATOM     22  C   UNL A   1      29.087  31.972  23.838  1.00  0.00     0.039 A 
ATOM     23  C   UNL A   1      28.518  32.082  21.506  1.00  0.00     0.039 A 
ATOM     24  C   UNL A   1      28.691  32.703  22.727  1.00  0.00     0.123 A 
ATOM     25  F   UNL A   1      28.430  34.012  22.839  1.00  0.00    -0.207 F 
ENDBRANCH  18  19
ENDBRANCH  17  18
ENDBRANCH  15  17
ENDBRANCH   6  11
ENDBRANCH   3   6
ENDBRANCH   1   2
BRANCH   1  26
ATOM     26  C   UNL A   1      34.868  30.006  27.696  1.00  0.00     0.042 C 
BRANCH  26  27
ATOM     27  C   UNL A   1      35.306  31.236  28.503  1.00  0.00     0.118 C 
BRANCH  27  28
ATOM     28  N   UNL A   1      35.306  31.003  29.940  1.00  0.00    -0.352 N 
ATOM     29  C   UNL A   1      36.279  30.512  30.783  1.00  0.00     0.251 C 
ATOM     30  H   UNL A   1      34.462  31.238  30.389  1.00  0.00     0.163 HD
ATOM     31  O   UNL A   1      35.973  30.283  31.953  1.00  0.00    -0.269 OA
BRANCH  29  32
ATOM     32  C   UNL A   1      37.666  30.216  30.331  1.00  0.00     0.039 A 
ATOM     33  C   UNL A   1      38.588  29.752  31.278  1.00  0.00     0.014 A 
ATOM     34  C   UNL A   1      38.106  30.458  29.031  1.00  0.00     0.014 A 
ATOM     35  C   UNL A   1      39.912  29.454  30.909  1.00  0.00     0.010 A 
ATOM     36  C   UNL A   1      39.416  30.110  28.654  1.00  0.00     0.010 A 
ATOM     37  C   UNL A   1      40.337  29.581  29.578  1.00  0.00    -0.014 A 
BRANCH  37  38
ATOM     38  C   UNL A   1      41.710  29.147  29.143  1.00  0.00     0.031 A 
ATOM     39  C   UNL A   1      42.844  30.142  29.066  1.00  0.00     0.074 A 
ATOM     40  C   UNL A   1      41.950  27.875  28.749  1.00  0.00     0.049 A 
ATOM     41  N   UNL A   1      44.074  29.969  28.644  1.00  0.00    -0.248 NA
ATOM     42  C   UNL A   1      42.551  31.516  29.497  1.00  0.00     0.031 C 
ATOM     43  C   UNL A   1      40.965  26.793  28.714  1.00  0.00     0.029 A 
ATOM     44  N   UNL A   1      43.102  27.276  28.282  1.00  0.00    -0.354 N 
ATOM     45  C   UNL A   1      44.689  31.213  28.736  1.00  0.00     0.074 A 
ATOM     46  C   UNL A   1      43.679  32.142  29.197  1.00  0.00     0.031 C 
ATOM     47  C   UNL A   1      41.548  25.672  28.259  1.00  0.00     0.029 A 
ATOM     48  C   UNL A   1      42.946  25.952  27.934  1.00  0.00     0.049 A 
ATOM     49  H   UNL A   1      43.960  27.753  28.204  1.00  0.00     0.167 HD
ATOM     50  C   UNL A   1      45.978  31.557  28.491  1.00  0.00     0.037 A 
ATOM     51  C   UNL A   1      43.809  25.058  27.404  1.00  0.00     0.037 A 
ATOM     52  C   UNL A   1      47.003  30.644  28.058  1.00  0.00     0.049 A 
ATOM     53  C   UNL A   1      45.237  25.455  27.129  1.00  0.00     0.074 A 
ATOM     54  C   UNL A   1      48.349  30.898  27.856  1.00  0.00     0.029 A 
ATOM     55  N   UNL A   1      46.802  29.308  27.749  1.00  0.00    -0.354 N 
ATOM     56  N   UNL A   1      45.815  26.618  27.307  1.00  0.00    -0.248 NA
ATOM     57  C   UNL A   1      46.133  24.419  26.591  1.00  0.00     0.031 C 
ATOM     58  C   UNL A   1      48.951  29.733  27.372  1.00  0.00     0.029 A 
ATOM     59  C   UNL A   1      47.993  28.733  27.331  1.00  0.00     0.049 A 
ATOM     60  H   UNL A   1      45.940  28.836  27.815  1.00  0.00     0.167 HD
ATOM     61  C   UNL A   1      47.144  26.446  26.930  1.00  0.00     0.074 A 
ATOM     62  C   UNL A   1      47.289  25.067  26.517  1.00  0.00     0.031 C 
ATOM     63  C   UNL A   1      48.150  27.355  26.932  1.00  0.00     0.037 A 
BRANCH  50  64
ATOM     64  C   UNL A   1      46.353  33.003  28.685  1.00  0.00     0.058 A 
ATOM     65  C   UNL A   1      46.804  33.490  29.924  1.00  0.00     0.135 A 
ATOM     66  C   UNL A   1      46.263  33.913  27.619  1.00  0.00     0.135 A 
ATOM     67  F   UNL A   1      46.904  32.666  30.978  1.00  0.00    -0.206 F 
ATOM     68  C   UNL A   1      47.092  34.837  30.114  1.00  0.00     0.059 A 
ATOM     69  C   UNL A   1      46.581  35.259  27.778  1.00  0.00     0.059 A 
ATOM     70  F   UNL A   1      45.853  33.502  26.409  1.00  0.00    -0.206 F 
ATOM     71  C   UNL A   1      46.967  35.716  29.037  1.00  0.00     0.060 A 
BRANCH  71  72
ATOM     72  S   UNL A   1      47.301  37.467  29.316  1.00  0.00     0.124 S 
ATOM     73  O   UNL A   1      45.949  38.016  29.357  1.00  0.00    -0.237 OA
ATOM     74  O   UNL A   1      48.019  37.453  30.583  1.00  0.00    -0.237 OA
ATOM     75  O   UNL A   1      48.097  37.850  28.150  1.00  0.00    -0.744 OA
ENDBRANCH  71  72
ENDBRANCH  50  64
BRANCH  51  76
ATOM     76  C   UNL A   1      43.342  23.676  27.100  1.00  0.00     0.058 A 
ATOM     77  C   UNL A   1      43.019  23.285  25.791  1.00  0.00     0.135 A 
ATOM     78  C   UNL A   1      43.231  22.708  28.113  1.00  0.00     0.135 A 
ATOM     79  F   UNL A   1      43.091  24.175  24.790  1.00  0.00    -0.206 F 
ATOM     80  C   UNL A   1      42.605  21.989  25.496  1.00  0.00     0.059 A 
ATOM     81  C   UNL A   1      42.844  21.400  27.839  1.00  0.00     0.059 A 
ATOM     82  F   UNL A   1      43.536  23.026  29.380  1.00  0.00    -0.206 F 
ATOM     83  C   UNL A   1      42.532  21.051  26.526  1.00  0.00     0.060 A 
BRANCH  83  84
ATOM     84  S   UNL A   1      42.079  19.350  26.117  1.00  0.00     0.124 S 
ATOM     85  O   UNL A   1      40.646  19.473  25.878  1.00  0.00    -0.237 OA
ATOM     86  O   UNL A   1      42.904  19.090  24.941  1.00  0.00    -0.237 OA
ATOM     87  O   UNL A   1      42.459  18.605  27.314  1.00  0.00    -0.744 OA
ENDBRANCH  83  84
ENDBRANCH  51  76
BRANCH  63  88
ATOM     88  C   UNL A   1      49.527  26.905  26.518  1.00  0.00     0.058 A 
ATOM     89  C   UNL A   1      50.453  26.402  27.444  1.00  0.00     0.135 A 
ATOM     90  C   UNL A   1      49.883  26.875  25.159  1.00  0.00     0.135 A 
ATOM     91  F   UNL A   1      50.172  26.415  28.757  1.00  0.00    -0.206 F 
ATOM     92  C   UNL A   1      51.681  25.882  27.038  1.00  0.00     0.059 A 
ATOM     93  C   UNL A   1      51.092  26.337  24.728  1.00  0.00     0.059 A 
ATOM     94  F   UNL A   1      49.032  27.339  24.228  1.00  0.00    -0.206 F 
ATOM     95  C   UNL A   1      51.986  25.843  25.676  1.00  0.00     0.060 A 
BRANCH  95  96
ATOM     96  S   UNL A   1      53.544  25.090  25.157  1.00  0.00     0.124 S 
ATOM     97  O   UNL A   1      54.464  25.581  26.178  1.00  0.00    -0.237 OA
ATOM     98  O   UNL A   1      53.236  23.664  25.215  1.00  0.00    -0.237 OA
ATOM     99  O   UNL A   1      53.752  25.626  23.815  1.00  0.00    -0.744 OA
ENDBRANCH  95  96
ENDBRANCH  63  88
ENDBRANCH  37  38
ENDBRANCH  29  32
ENDBRANCH  27  28
ENDBRANCH  26  27
ENDBRANCH   1  26
TORSDOF 18
ENDMDL
MODEL 2
REMARK VINA RESULT:     -11.8      3.163      5.060
REMARK SMILES [NH3+][C@H](C(=O)NCCCNC(=O)c1ccc(-c2c3nc(c(-c4c(F)cc(S(=O)(=O)[O-])cc4F)c4ccc([nH]4)c(-c4c(F)cc(S(=O)(=O)[O-])cc4F)c4nc(c(-c5c(F)cc(S(=O)(=O)[O-])cc5F)c5ccc2[nH]5)C=C4)C=C3)cc1)c1cccc(OCc2ccc(F)cc2)c1
REMARK SMILES IDX 6 1 5 2 3 3 4 4 2 6 1 7 78 11 79 12 92 13 80 14 82 15 81 16
REMARK SMILES IDX 83 17 84 18 85 19 86 20 91 21 87 22 90 23 88 24 89 25 7 26
REMARK SMILES IDX 8 27 9 28 10 29 11 31 12 32 13 33 77 34 14 35 76 36 15 37
REMARK SMILES IDX 16 38 17 39 70 40 18 41 75 42 69 43 71 44 19 45 74 46 68 47
REMARK SMILES IDX 67 48 20 50 54 51 33 52 53 53 34 54 37 55 52 56 72 57 35 58
REMARK SMILES IDX 36 59 51 61 73 62 38 63 21 64 22 65 31 66 23 67 24 68 30 69
REMARK SMILES IDX 32 70 25 71 26 72 27 73 28 74 29 75 55 76 56 77 65 78 57 79
REMARK SMILES IDX 58 80 64 81 66 82 59 83 60 84 61 85 62 86 63 87 39 88 40 89
REMARK SMILES IDX 49 90 41 91 42 92 48 93 50 94 43 95 44 96 45 97 46 98 47 99
REMARK H PARENT 5 5 1 8 1 9 1 10 9 30 71 49 37 60
REMARK Flexibility Score: inf
ROOT
ATOM      1  C   UNL A   1      32.828  28.141  24.742  1.00  0.00     0.118 C 
ENDROOT
BRANCH   1   2
ATOM      2  N   UNL A   1      31.730  28.392  23.816  1.00  0.00    -0.351 N 
ATOM      3  C   UNL A   1      30.647  27.638  23.465  1.00  0.00     0.283 C 
ATOM      4  O   UNL A   1      29.863  28.129  22.641  1.00  0.00    -0.268 OA
ATOM      5  H   UNL A   1      31.778  29.263  23.361  1.00  0.00     0.163 HD
BRANCH   3   6
ATOM      6  C   UNL A   1      30.342  26.266  24.133  1.00  0.00     0.302 C 
BRANCH   6   7
ATOM      7  N   UNL A   1      28.918  25.936  23.856  1.00  0.00    -0.343 N 
ATOM      8  H   UNL A   1      28.778  25.855  22.848  1.00  0.00     0.345 HD
ATOM      9  H   UNL A   1      28.319  26.676  24.223  1.00  0.00     0.345 HD
ATOM     10  H   UNL A   1      28.680  25.052  24.305  1.00  0.00     0.345 HD
ENDBRANCH   6   7
BRANCH   6  11
ATOM     11  C   UNL A   1      31.286  25.176  23.645  1.00  0.00     0.023 A 
ATOM     12  C   UNL A   1      31.854  25.184  22.357  1.00  0.00     0.011 A 
ATOM     13  C   UNL A   1      31.665  24.150  24.530  1.00  0.00     0.057 A 
ATOM     14  C   UNL A   1      32.739  24.182  21.952  1.00  0.00     0.004 A 
ATOM     15  C   UNL A   1      32.606  23.190  24.144  1.00  0.00     0.120 A 
ATOM     16  C   UNL A   1      33.104  23.181  22.843  1.00  0.00     0.046 A 
BRANCH  15  17
ATOM     17  O   UNL A   1      33.208  22.289  24.976  1.00  0.00    -0.489 OA
BRANCH  17  18
ATOM     18  C   UNL A   1      34.337  21.568  24.478  1.00  0.00     0.265 C 
BRANCH  18  19
ATOM     19  C   UNL A   1      35.722  22.021  24.917  1.00  0.00    -0.011 A 
ATOM     20  C   UNL A   1      36.761  21.084  24.837  1.00  0.00     0.010 A 
ATOM     21  C   UNL A   1      36.017  23.282  25.469  1.00  0.00     0.010 A 
ATOM     22  C   UNL A   1      38.032  21.398  25.310  1.00  0.00     0.039 A 
ATOM     23  C   UNL A   1      37.280  23.578  25.983  1.00  0.00     0.039 A 
ATOM     24  C   UNL A   1      38.279  22.629  25.900  1.00  0.00     0.123 A 
ATOM     25  F   UNL A   1      39.478  22.892  26.434  1.00  0.00    -0.207 F 
ENDBRANCH  18  19
ENDBRANCH  17  18
ENDBRANCH  15  17
ENDBRANCH   6  11
ENDBRANCH   3   6
ENDBRANCH   1   2
BRANCH   1  26
ATOM     26  C   UNL A   1      32.398  28.288  26.205  1.00  0.00     0.042 C 
BRANCH  26  27
ATOM     27  C   UNL A   1      33.538  28.578  27.192  1.00  0.00     0.118 C 
BRANCH  27  28
ATOM     28  N   UNL A   1      33.534  29.951  27.677  1.00  0.00    -0.352 N 
ATOM     29  C   UNL A   1      34.502  30.693  28.319  1.00  0.00     0.251 C 
ATOM     30  H   UNL A   1      32.692  30.436  27.518  1.00  0.00     0.163 HD
ATOM     31  O   UNL A   1      34.192  31.803  28.750  1.00  0.00    -0.269 OA
BRANCH  29  32
ATOM     32  C   UNL A   1      35.886  30.194  28.544  1.00  0.00     0.039 A 
ATOM     33  C   UNL A   1      36.770  30.175  27.456  1.00  0.00     0.014 A 
ATOM     34  C   UNL A   1      36.313  29.672  29.763  1.00  0.00     0.014 A 
ATOM     35  C   UNL A   1      38.089  29.716  27.609  1.00  0.00     0.010 A 
ATOM     36  C   UNL A   1      37.649  29.261  29.925  1.00  0.00     0.010 A 
ATOM     37  C   UNL A   1      38.569  29.296  28.859  1.00  0.00    -0.014 A 
BRANCH  37  38
ATOM     38  C   UNL A   1      40.011  28.924  29.067  1.00  0.00     0.031 A 
ATOM     39  C   UNL A   1      41.006  29.945  29.567  1.00  0.00     0.074 A 
ATOM     40  C   UNL A   1      40.468  27.689  28.752  1.00  0.00     0.049 A 
ATOM     41  N   UNL A   1      42.302  29.828  29.736  1.00  0.00    -0.248 NA
ATOM     42  C   UNL A   1      40.480  31.277  29.896  1.00  0.00     0.031 C 
ATOM     43  C   UNL A   1      39.661  26.593  28.214  1.00  0.00     0.029 A 
ATOM     44  N   UNL A   1      41.736  27.151  28.822  1.00  0.00    -0.354 N 
ATOM     45  C   UNL A   1      42.745  31.074  30.167  1.00  0.00     0.074 A 
ATOM     46  C   UNL A   1      41.589  31.946  30.173  1.00  0.00     0.031 C 
ATOM     47  C   UNL A   1      40.444  25.521  28.009  1.00  0.00     0.029 A 
ATOM     48  C   UNL A   1      41.821  25.853  28.366  1.00  0.00     0.049 A 
ATOM     49  H   UNL A   1      42.512  27.649  29.167  1.00  0.00     0.167 HD
ATOM     50  C   UNL A   1      43.987  31.462  30.550  1.00  0.00     0.037 A 
ATOM     51  C   UNL A   1      42.876  25.018  28.233  1.00  0.00     0.037 A 
ATOM     52  C   UNL A   1      45.143  30.605  30.575  1.00  0.00     0.049 A 
ATOM     53  C   UNL A   1      44.252  25.463  28.656  1.00  0.00     0.074 A 
ATOM     54  C   UNL A   1      46.421  30.901  31.017  1.00  0.00     0.029 A 
ATOM     55  N   UNL A   1      45.171  29.291  30.132  1.00  0.00    -0.354 N 
ATOM     56  N   UNL A   1      44.629  26.622  29.142  1.00  0.00    -0.248 NA
ATOM     57  C   UNL A   1      45.347  24.489  28.522  1.00  0.00     0.031 C 
ATOM     58  C   UNL A   1      47.236  29.787  30.791  1.00  0.00     0.029 A 
ATOM     59  C   UNL A   1      46.451  28.774  30.265  1.00  0.00     0.049 A 
ATOM     60  H   UNL A   1      44.397  28.799  29.776  1.00  0.00     0.167 HD
ATOM     61  C   UNL A   1      45.992  26.505  29.395  1.00  0.00     0.074 A 
ATOM     62  C   UNL A   1      46.378  25.164  29.015  1.00  0.00     0.031 C 
ATOM     63  C   UNL A   1      46.842  27.433  29.903  1.00  0.00     0.037 A 
BRANCH  50  64
ATOM     64  C   UNL A   1      44.159  32.897  30.974  1.00  0.00     0.058 A 
ATOM     65  C   UNL A   1      43.990  33.299  32.310  1.00  0.00     0.135 A 
ATOM     66  C   UNL A   1      44.502  33.884  30.034  1.00  0.00     0.135 A 
ATOM     67  F   UNL A   1      43.657  32.400  33.249  1.00  0.00    -0.206 F 
ATOM     68  C   UNL A   1      44.092  34.634  32.686  1.00  0.00     0.059 A 
ATOM     69  C   UNL A   1      44.645  35.220  30.396  1.00  0.00     0.059 A 
ATOM     70  F   UNL A   1      44.692  33.556  28.746  1.00  0.00    -0.206 F 
ATOM     71  C   UNL A   1      44.409  35.589  31.719  1.00  0.00     0.060 A 
BRANCH  71  72
ATOM     72  S   UNL A   1      44.491  37.321  32.218  1.00  0.00     0.124 S 
ATOM     73  O   UNL A   1      45.875  37.427  32.671  1.00  0.00    -0.237 OA
ATOM     74  O   UNL A   1      44.173  38.020  30.981  1.00  0.00    -0.237 OA
ATOM     75  O   UNL A   1      43.479  37.419  33.270  1.00  0.00    -0.744 OA
ENDBRANCH  71  72
ENDBRANCH  50  64
BRANCH  51  76
ATOM     76  C   UNL A   1      42.667  23.653  27.673  1.00  0.00     0.058 A 
ATOM     77  C   UNL A   1      42.717  23.415  26.291  1.00  0.00     0.135 A 
ATOM     78  C   UNL A   1      42.435  22.552  28.514  1.00  0.00     0.135 A 
ATOM     79  F   UNL A   1      42.919  24.435  25.443  1.00  0.00    -0.206 F 
ATOM     80  C   UNL A   1      42.548  22.139  25.762  1.00  0.00     0.059 A 
ATOM     81  C   UNL A   1      42.287  21.263  28.011  1.00  0.00     0.059 A 
ATOM     82  F   UNL A   1      42.385  22.722  29.844  1.00  0.00    -0.206 F 
ATOM     83  C   UNL A   1      42.344  21.067  26.633  1.00  0.00     0.060 A 
BRANCH  83  84
ATOM     84  S   UNL A   1      42.213  19.403  25.941  1.00  0.00     0.124 S 
ATOM     85  O   UNL A   1      40.790  19.319  25.636  1.00  0.00    -0.237 OA
ATOM     86  O   UNL A   1      43.110  19.480  24.792  1.00  0.00    -0.237 OA
ATOM     87  O   UNL A   1      42.678  18.549  27.030  1.00  0.00    -0.744 OA
ENDBRANCH  83  84
ENDBRANCH  51  76
BRANCH  63  88
ATOM     88  C   UNL A   1      48.279  27.043  30.130  1.00  0.00     0.058 A 
ATOM     89  C   UNL A   1      49.289  27.362  29.210  1.00  0.00     0.135 A 
ATOM     90  C   UNL A   1      48.665  26.436  31.338  1.00  0.00     0.135 A 
ATOM     91  F   UNL A   1      48.979  27.932  28.035  1.00  0.00    -0.206 F 
ATOM     92  C   UNL A   1      50.631  27.099  29.481  1.00  0.00     0.059 A 
ATOM     93  C   UNL A   1      50.000  26.187  31.641  1.00  0.00     0.059 A 
ATOM     94  F   UNL A   1      47.740  26.114  32.257  1.00  0.00    -0.206 F 
ATOM     95  C   UNL A   1      50.978  26.522  30.705  1.00  0.00     0.060 A 
BRANCH  95  96
ATOM     96  S   UNL A   1      52.726  26.264  31.078  1.00  0.00     0.124 S 
ATOM     97  O   UNL A   1      53.056  27.484  31.808  1.00  0.00    -0.237 OA
ATOM     98  O   UNL A   1      52.698  25.039  31.872  1.00  0.00    -0.237 OA
ATOM     99  O   UNL A   1      53.341  26.135  29.760  1.00  0.00    -0.744 OA
ENDBRANCH  95  96
ENDBRANCH  63  88
ENDBRANCH  37  38
ENDBRANCH  29  32
ENDBRANCH  27  28
ENDBRANCH  26  27
ENDBRANCH   1  26
TORSDOF 18
ENDMDL
MODEL 3
REMARK VINA RESULT:     -11.8      7.219     12.528
REMARK SMILES [NH3+][C@H](C(=O)NCCCNC(=O)c1ccc(-c2c3nc(c(-c4c(F)cc(S(=O)(=O)[O-])cc4F)c4ccc([nH]4)c(-c4c(F)cc(S(=O)(=O)[O-])cc4F)c4nc(c(-c5c(F)cc(S(=O)(=O)[O-])cc5F)c5ccc2[nH]5)C=C4)C=C3)cc1)c1cccc(OCc2ccc(F)cc2)c1
REMARK SMILES IDX 6 1 5 2 3 3 4 4 2 6 1 7 78 11 79 12 92 13 80 14 82 15 81 16
REMARK SMILES IDX 83 17 84 18 85 19 86 20 91 21 87 22 90 23 88 24 89 25 7 26
REMARK SMILES IDX 8 27 9 28 10 29 11 31 12 32 13 33 77 34 14 35 76 36 15 37
REMARK SMILES IDX 16 38 17 39 70 40 18 41 75 42 69 43 71 44 19 45 74 46 68 47
REMARK SMILES IDX 67 48 20 50 54 51 33 52 53 53 34 54 37 55 52 56 72 57 35 58
REMARK SMILES IDX 36 59 51 61 73 62 38 63 21 64 22 65 31 66 23 67 24 68 30 69
REMARK SMILES IDX 32 70 25 71 26 72 27 73 28 74 29 75 55 76 56 77 65 78 57 79
REMARK SMILES IDX 58 80 64 81 66 82 59 83 60 84 61 85 62 86 63 87 39 88 40 89
REMARK SMILES IDX 49 90 41 91 42 92 48 93 50 94 43 95 44 96 45 97 46 98 47 99
REMARK H PARENT 5 5 1 8 1 9 1 10 9 30 71 49 37 60
REMARK Flexibility Score: inf
ROOT
ATOM      1  C   UNL A   1      40.444  22.165  27.273  1.00  0.00     0.118 C 
ENDROOT
BRANCH   1   2
ATOM      2  N   UNL A   1      39.727  21.347  26.302  1.00  0.00    -0.351 N 
ATOM      3  C   UNL A   1      38.513  21.507  25.698  1.00  0.00     0.283 C 
ATOM      4  O   UNL A   1      38.166  20.632  24.893  1.00  0.00    -0.268 OA
ATOM      5  H   UNL A   1      40.206  20.530  26.032  1.00  0.00     0.163 HD
BRANCH   3   6
ATOM      6  C   UNL A   1      37.637  22.773  25.924  1.00  0.00     0.302 C 
BRANCH   6   7
ATOM      7  N   UNL A   1      38.418  23.951  25.457  1.00  0.00    -0.343 N 
ATOM      8  H   UNL A   1      39.148  24.165  26.137  1.00  0.00     0.345 HD
ATOM      9  H   UNL A   1      37.797  24.755  25.362  1.00  0.00     0.345 HD
ATOM     10  H   UNL A   1      38.844  23.741  24.555  1.00  0.00     0.345 HD
ENDBRANCH   6   7
BRANCH   6  11
ATOM     11  C   UNL A   1      36.292  22.665  25.219  1.00  0.00     0.023 A 
ATOM     12  C   UNL A   1      36.090  23.100  23.896  1.00  0.00     0.011 A 
ATOM     13  C   UNL A   1      35.217  22.048  25.885  1.00  0.00     0.057 A 
ATOM     14  C   UNL A   1      34.850  22.960  23.270  1.00  0.00     0.004 A 
ATOM     15  C   UNL A   1      33.997  21.846  25.230  1.00  0.00     0.120 A 
ATOM     16  C   UNL A   1      33.802  22.344  23.943  1.00  0.00     0.046 A 
BRANCH  15  17
ATOM     17  O   UNL A   1      32.968  21.075  25.689  1.00  0.00    -0.489 OA
BRANCH  17  18
ATOM     18  C   UNL A   1      32.459  20.054  24.828  1.00  0.00     0.265 C 
BRANCH  18  19
ATOM     19  C   UNL A   1      33.148  18.697  24.846  1.00  0.00    -0.011 A 
ATOM     20  C   UNL A   1      32.537  17.675  25.584  1.00  0.00     0.010 A 
ATOM     21  C   UNL A   1      34.389  18.419  24.241  1.00  0.00     0.010 A 
ATOM     22  C   UNL A   1      33.158  16.437  25.723  1.00  0.00     0.039 A 
ATOM     23  C   UNL A   1      35.030  17.192  24.420  1.00  0.00     0.039 A 
ATOM     24  C   UNL A   1      34.407  16.210  25.163  1.00  0.00     0.123 A 
ATOM     25  F   UNL A   1      35.040  15.049  25.376  1.00  0.00    -0.207 F 
ENDBRANCH  18  19
ENDBRANCH  17  18
ENDBRANCH  15  17
ENDBRANCH   6  11
ENDBRANCH   3   6
ENDBRANCH   1   2
BRANCH   1  26
ATOM     26  C   UNL A   1      41.959  21.954  27.204  1.00  0.00     0.042 C 
BRANCH  26  27
ATOM     27  C   UNL A   1      42.786  23.232  27.001  1.00  0.00     0.118 C 
BRANCH  27  28
ATOM     28  N   UNL A   1      42.250  24.096  25.959  1.00  0.00    -0.352 N 
ATOM     29  C   UNL A   1      41.607  25.313  26.026  1.00  0.00     0.251 C 
ATOM     30  H   UNL A   1      42.368  23.750  25.044  1.00  0.00     0.163 HD
ATOM     31  O   UNL A   1      41.127  25.774  24.991  1.00  0.00    -0.269 OA
BRANCH  29  32
ATOM     32  C   UNL A   1      41.438  26.069  27.296  1.00  0.00     0.039 A 
ATOM     33  C   UNL A   1      42.419  27.007  27.646  1.00  0.00     0.014 A 
ATOM     34  C   UNL A   1      40.396  25.827  28.189  1.00  0.00     0.014 A 
ATOM     35  C   UNL A   1      42.313  27.752  28.833  1.00  0.00     0.010 A 
ATOM     36  C   UNL A   1      40.266  26.610  29.351  1.00  0.00     0.010 A 
ATOM     37  C   UNL A   1      41.207  27.602  29.684  1.00  0.00    -0.014 A 
BRANCH  37  38
ATOM     38  C   UNL A   1      41.015  28.480  30.890  1.00  0.00     0.031 A 
ATOM     39  C   UNL A   1      39.940  29.542  30.906  1.00  0.00     0.074 A 
ATOM     40  C   UNL A   1      41.835  28.387  31.963  1.00  0.00     0.049 A 
ATOM     41  N   UNL A   1      39.673  30.439  31.824  1.00  0.00    -0.248 NA
ATOM     42  C   UNL A   1      39.068  29.620  29.726  1.00  0.00     0.031 C 
ATOM     43  C   UNL A   1      42.953  27.453  32.102  1.00  0.00     0.029 A 
ATOM     44  N   UNL A   1      41.867  29.105  33.140  1.00  0.00    -0.354 N 
ATOM     45  C   UNL A   1      38.623  31.201  31.322  1.00  0.00     0.074 A 
ATOM     46  C   UNL A   1      38.344  30.696  29.994  1.00  0.00     0.031 C 
ATOM     47  C   UNL A   1      43.554  27.649  33.287  1.00  0.00     0.029 A 
ATOM     48  C   UNL A   1      42.891  28.746  33.989  1.00  0.00     0.049 A 
ATOM     49  H   UNL A   1      41.216  29.812  33.355  1.00  0.00     0.167 HD
ATOM     50  C   UNL A   1      37.929  32.207  31.910  1.00  0.00     0.037 A 
ATOM     51  C   UNL A   1      43.274  29.238  35.188  1.00  0.00     0.037 A 
ATOM     52  C   UNL A   1      38.174  32.705  33.239  1.00  0.00     0.049 A 
ATOM     53  C   UNL A   1      42.500  30.361  35.828  1.00  0.00     0.074 A 
ATOM     54  C   UNL A   1      37.470  33.673  33.935  1.00  0.00     0.029 A 
ATOM     55  N   UNL A   1      39.202  32.289  34.069  1.00  0.00    -0.354 N 
ATOM     56  N   UNL A   1      41.455  31.006  35.368  1.00  0.00    -0.248 NA
ATOM     57  C   UNL A   1      42.947  30.820  37.153  1.00  0.00     0.031 C 
ATOM     58  C   UNL A   1      38.105  33.883  35.163  1.00  0.00     0.029 A 
ATOM     59  C   UNL A   1      39.168  33.001  35.259  1.00  0.00     0.049 A 
ATOM     60  H   UNL A   1      39.861  31.591  33.847  1.00  0.00     0.167 HD
ATOM     61  C   UNL A   1      41.106  31.924  36.355  1.00  0.00     0.074 A 
ATOM     62  C   UNL A   1      42.046  31.751  37.441  1.00  0.00     0.031 C 
ATOM     63  C   UNL A   1      40.092  32.824  36.354  1.00  0.00     0.037 A 
BRANCH  50  64
ATOM     64  C   UNL A   1      36.828  32.846  31.105  1.00  0.00     0.058 A 
ATOM     65  C   UNL A   1      37.102  33.758  30.072  1.00  0.00     0.135 A 
ATOM     66  C   UNL A   1      35.482  32.540  31.367  1.00  0.00     0.135 A 
ATOM     67  F   UNL A   1      38.369  34.091  29.782  1.00  0.00    -0.206 F 
ATOM     68  C   UNL A   1      36.081  34.391  29.371  1.00  0.00     0.059 A 
ATOM     69  C   UNL A   1      34.445  33.134  30.653  1.00  0.00     0.059 A 
ATOM     70  F   UNL A   1      35.162  31.664  32.332  1.00  0.00    -0.206 F 
ATOM     71  C   UNL A   1      34.755  34.079  29.677  1.00  0.00     0.060 A 
BRANCH  71  72
ATOM     72  S   UNL A   1      33.444  34.945  28.788  1.00  0.00     0.124 S 
ATOM     73  O   UNL A   1      33.163  34.010  27.704  1.00  0.00    -0.237 OA
ATOM     74  O   UNL A   1      32.406  35.071  29.803  1.00  0.00    -0.237 OA
ATOM     75  O   UNL A   1      34.079  36.199  28.385  1.00  0.00    -0.744 OA
ENDBRANCH  71  72
ENDBRANCH  50  64
BRANCH  51  76
ATOM     76  C   UNL A   1      44.462  28.658  35.876  1.00  0.00     0.058 A 
ATOM     77  C   UNL A   1      45.753  29.158  35.650  1.00  0.00     0.135 A 
ATOM     78  C   UNL A   1      44.325  27.602  36.793  1.00  0.00     0.135 A 
ATOM     79  F   UNL A   1      45.941  30.155  34.771  1.00  0.00    -0.206 F 
ATOM     80  C   UNL A   1      46.865  28.638  36.307  1.00  0.00     0.059 A 
ATOM     81  C   UNL A   1      45.417  27.082  37.481  1.00  0.00     0.059 A 
ATOM     82  F   UNL A   1      43.112  27.092  37.052  1.00  0.00    -0.206 F 
ATOM     83  C   UNL A   1      46.684  27.606  37.230  1.00  0.00     0.060 A 
BRANCH  83  84
ATOM     84  S   UNL A   1      48.121  26.998  38.141  1.00  0.00     0.124 S 
ATOM     85  O   UNL A   1      47.920  25.555  38.084  1.00  0.00    -0.237 OA
ATOM     86  O   UNL A   1      49.228  27.522  37.348  1.00  0.00    -0.237 OA
ATOM     87  O   UNL A   1      47.964  27.607  39.459  1.00  0.00    -0.744 OA
ENDBRANCH  83  84
ENDBRANCH  51  76
BRANCH  63  88
ATOM     88  C   UNL A   1      39.892  33.682  37.576  1.00  0.00     0.058 A 
ATOM     89  C   UNL A   1      40.547  34.913  37.735  1.00  0.00     0.135 A 
ATOM     90  C   UNL A   1      38.947  33.316  38.550  1.00  0.00     0.135 A 
ATOM     91  F   UNL A   1      41.468  35.309  36.841  1.00  0.00    -0.206 F 
ATOM     92  C   UNL A   1      40.270  35.752  38.813  1.00  0.00     0.059 A 
ATOM     93  C   UNL A   1      38.636  34.149  39.621  1.00  0.00     0.059 A 
ATOM     94  F   UNL A   1      38.286  32.152  38.445  1.00  0.00    -0.206 F 
ATOM     95  C   UNL A   1      39.304  35.367  39.744  1.00  0.00     0.060 A 
BRANCH  95  96
ATOM     96  S   UNL A   1      38.894  36.501  41.089  1.00  0.00     0.124 S 
ATOM     97  O   UNL A   1      38.401  37.663  40.356  1.00  0.00    -0.237 OA
ATOM     98  O   UNL A   1      37.889  35.749  41.836  1.00  0.00    -0.237 OA
ATOM     99  O   UNL A   1      40.167  36.688  41.778  1.00  0.00    -0.744 OA
ENDBRANCH  95  96
ENDBRANCH  63  88
ENDBRANCH  37  38
ENDBRANCH  29  32
ENDBRANCH  27  28
ENDBRANCH  26  27
ENDBRANCH   1  26
TORSDOF 18
ENDMDL
