MODEL 1
REMARK VINA RESULT:     -10.4      0.000      0.000
REMARK SMILES C[C@@H](C(=O)NCCCNC(=O)c1ccc(-c2c3nc(c(-c4c(F)cc(S(=O)(=O)[O-])cc4F)c4ccc([nH]4)c(-c4c(F)cc(S(=O)(=O)[O-])cc4F)c4nc(c(-c5c(F)cc(S(=O)(=O)[O-])cc5F)c5ccc2[nH]5)C=C4)C=C3)cc1)[C@@H](C)C(=O)c1cccc(Cl)c1
REMARK SMILES IDX 7 1 6 2 5 3 3 4 4 5 2 7 1 8 78 9 79 10 80 11 81 12 82 13
REMARK SMILES IDX 83 14 88 15 84 16 86 17 85 18 87 19 8 20 9 21 10 22 11 24
REMARK SMILES IDX 12 25 13 26 77 27 14 28 76 29 15 30 16 31 17 32 70 33 18 34
REMARK SMILES IDX 75 35 69 36 71 37 19 38 74 39 68 40 67 41 20 43 54 44 33 45
REMARK SMILES IDX 53 46 34 47 37 48 52 49 72 50 35 51 36 52 51 54 73 55 38 56
REMARK SMILES IDX 21 57 22 58 31 59 23 60 24 61 30 62 32 63 25 64 26 65 27 66
REMARK SMILES IDX 28 67 29 68 55 69 56 70 65 71 57 72 58 73 64 74 66 75 59 76
REMARK SMILES IDX 60 77 61 78 62 79 63 80 39 81 40 82 49 83 41 84 42 85 48 86
REMARK SMILES IDX 50 87 43 88 44 89 45 90 46 91 47 92
REMARK H PARENT 5 6 9 23 71 42 37 53
REMARK Flexibility Score: inf
ROOT
ATOM      1  C   UNL A   1      34.415  33.450  28.232  1.00  0.00     0.042 C 
ENDROOT
BRANCH   1   2
ATOM      2  C   UNL A   1      35.256  34.602  28.774  1.00  0.00     0.117 C 
BRANCH   2   3
ATOM      3  N   UNL A   1      34.502  35.841  28.833  1.00  0.00    -0.356 N 
ATOM      4  C   UNL A   1      33.523  36.243  29.688  1.00  0.00     0.223 C 
ATOM      5  O   UNL A   1      32.966  37.313  29.452  1.00  0.00    -0.275 OA
ATOM      6  H   UNL A   1      34.738  36.499  28.140  1.00  0.00     0.163 HD
BRANCH   4   7
ATOM      7  C   UNL A   1      33.162  35.384  30.898  1.00  0.00     0.086 C 
ATOM      8  C   UNL A   1      31.978  36.026  31.629  1.00  0.00     0.019 C 
BRANCH   7   9
ATOM      9  C   UNL A   1      34.382  35.205  31.829  1.00  0.00     0.070 C 
ATOM     10  C   UNL A   1      34.446  36.262  32.936  1.00  0.00     0.017 C 
BRANCH   9  11
ATOM     11  C   UNL A   1      34.599  33.823  32.474  1.00  0.00     0.166 C 
ATOM     12  O   UNL A   1      33.627  33.154  32.837  1.00  0.00    -0.294 OA
BRANCH  11  13
ATOM     13  C   UNL A   1      35.929  33.138  32.488  1.00  0.00     0.019 A 
ATOM     14  C   UNL A   1      37.042  33.904  32.103  1.00  0.00     0.012 A 
ATOM     15  C   UNL A   1      36.122  31.796  32.821  1.00  0.00     0.032 A 
ATOM     16  C   UNL A   1      38.324  33.351  32.078  1.00  0.00     0.002 A 
ATOM     17  C   UNL A   1      37.408  31.249  32.800  1.00  0.00     0.041 A 
ATOM     18  C   UNL A   1      38.509  32.018  32.435  1.00  0.00     0.020 A 
ATOM     19  Cl  UNL A   1      37.629  29.594  33.222  1.00  0.00    -0.084 Cl
ENDBRANCH  11  13
ENDBRANCH   9  11
ENDBRANCH   7   9
ENDBRANCH   4   7
ENDBRANCH   2   3
ENDBRANCH   1   2
BRANCH   1  20
ATOM     20  C   UNL A   1      34.470  32.184  29.080  1.00  0.00     0.118 C 
BRANCH  20  21
ATOM     21  N   UNL A   1      33.980  31.012  28.371  1.00  0.00    -0.352 N 
ATOM     22  C   UNL A   1      34.670  29.939  27.863  1.00  0.00     0.251 C 
ATOM     23  H   UNL A   1      33.005  30.983  28.234  1.00  0.00     0.163 HD
ATOM     24  O   UNL A   1      34.089  29.143  27.125  1.00  0.00    -0.269 OA
BRANCH  22  25
ATOM     25  C   UNL A   1      36.103  29.747  28.176  1.00  0.00     0.039 A 
ATOM     26  C   UNL A   1      36.463  29.300  29.449  1.00  0.00     0.014 A 
ATOM     27  C   UNL A   1      37.092  30.017  27.227  1.00  0.00     0.014 A 
ATOM     28  C   UNL A   1      37.807  29.059  29.748  1.00  0.00     0.010 A 
ATOM     29  C   UNL A   1      38.421  29.698  27.498  1.00  0.00     0.010 A 
ATOM     30  C   UNL A   1      38.795  29.218  28.762  1.00  0.00    -0.014 A 
BRANCH  30  31
ATOM     31  C   UNL A   1      40.218  28.879  29.030  1.00  0.00     0.031 A 
ATOM     32  C   UNL A   1      41.157  29.924  29.570  1.00  0.00     0.074 A 
ATOM     33  C   UNL A   1      40.679  27.651  28.721  1.00  0.00     0.049 A 
ATOM     34  N   UNL A   1      42.445  29.840  29.793  1.00  0.00    -0.248 NA
ATOM     35  C   UNL A   1      40.580  31.242  29.875  1.00  0.00     0.031 C 
ATOM     36  C   UNL A   1      39.880  26.567  28.145  1.00  0.00     0.029 A 
ATOM     37  N   UNL A   1      41.937  27.110  28.830  1.00  0.00    -0.354 N 
ATOM     38  C   UNL A   1      42.832  31.095  30.249  1.00  0.00     0.074 A 
ATOM     39  C   UNL A   1      41.656  31.937  30.218  1.00  0.00     0.031 C 
ATOM     40  C   UNL A   1      40.660  25.490  27.967  1.00  0.00     0.029 A 
ATOM     41  C   UNL A   1      42.025  25.817  28.371  1.00  0.00     0.049 A 
ATOM     42  H   UNL A   1      42.704  27.603  29.201  1.00  0.00     0.167 HD
ATOM     43  C   UNL A   1      44.052  31.502  30.675  1.00  0.00     0.037 A 
ATOM     44  C   UNL A   1      43.085  24.990  28.270  1.00  0.00     0.037 A 
ATOM     45  C   UNL A   1      45.216  30.654  30.715  1.00  0.00     0.049 A 
ATOM     46  C   UNL A   1      44.433  25.467  28.737  1.00  0.00     0.074 A 
ATOM     47  C   UNL A   1      46.483  30.954  31.184  1.00  0.00     0.029 A 
ATOM     48  N   UNL A   1      45.258  29.343  30.263  1.00  0.00    -0.354 N 
ATOM     49  N   UNL A   1      44.767  26.635  29.234  1.00  0.00    -0.248 NA
ATOM     50  C   UNL A   1      45.547  24.515  28.638  1.00  0.00     0.031 C 
ATOM     51  C   UNL A   1      47.305  29.845  30.964  1.00  0.00     0.029 A 
ATOM     52  C   UNL A   1      46.537  28.830  30.416  1.00  0.00     0.049 A 
ATOM     53  H   UNL A   1      44.494  28.850  29.888  1.00  0.00     0.167 HD
ATOM     54  C   UNL A   1      46.123  26.550  29.531  1.00  0.00     0.074 A 
ATOM     55  C   UNL A   1      46.544  25.211  29.170  1.00  0.00     0.031 C 
ATOM     56  C   UNL A   1      46.943  27.493  30.057  1.00  0.00     0.037 A 
BRANCH  43  57
ATOM     57  C   UNL A   1      44.193  32.933  31.127  1.00  0.00     0.058 A 
ATOM     58  C   UNL A   1      43.875  33.330  32.437  1.00  0.00     0.135 A 
ATOM     59  C   UNL A   1      44.679  33.915  30.248  1.00  0.00     0.135 A 
ATOM     60  F   UNL A   1      43.396  32.436  33.317  1.00  0.00    -0.206 F 
ATOM     61  C   UNL A   1      43.997  34.653  32.847  1.00  0.00     0.059 A 
ATOM     62  C   UNL A   1      44.840  35.239  30.647  1.00  0.00     0.059 A 
ATOM     63  F   UNL A   1      45.001  33.594  28.986  1.00  0.00    -0.206 F 
ATOM     64  C   UNL A   1      44.479  35.602  31.944  1.00  0.00     0.060 A 
BRANCH  64  65
ATOM     65  S   UNL A   1      44.624  37.316  32.491  1.00  0.00     0.124 S 
ATOM     66  O   UNL A   1      44.109  37.230  33.854  1.00  0.00    -0.237 OA
ATOM     67  O   UNL A   1      46.058  37.561  32.370  1.00  0.00    -0.237 OA
ATOM     68  O   UNL A   1      43.784  38.047  31.548  1.00  0.00    -0.744 OA
ENDBRANCH  64  65
ENDBRANCH  43  57
BRANCH  44  69
ATOM     69  C   UNL A   1      42.906  23.624  27.708  1.00  0.00     0.058 A 
ATOM     70  C   UNL A   1      42.604  22.533  28.535  1.00  0.00     0.135 A 
ATOM     71  C   UNL A   1      43.013  23.386  26.328  1.00  0.00     0.135 A 
ATOM     72  F   UNL A   1      42.497  22.706  29.861  1.00  0.00    -0.206 F 
ATOM     73  C   UNL A   1      42.426  21.253  28.019  1.00  0.00     0.059 A 
ATOM     74  C   UNL A   1      42.813  22.122  25.785  1.00  0.00     0.059 A 
ATOM     75  F   UNL A   1      43.285  24.398  25.489  1.00  0.00    -0.206 F 
ATOM     76  C   UNL A   1      42.527  21.058  26.640  1.00  0.00     0.060 A 
BRANCH  76  77
ATOM     77  S   UNL A   1      42.238  19.405  25.975  1.00  0.00     0.124 S 
ATOM     78  O   UNL A   1      42.703  18.561  27.069  1.00  0.00    -0.237 OA
ATOM     79  O   UNL A   1      40.797  19.417  25.745  1.00  0.00    -0.237 OA
ATOM     80  O   UNL A   1      43.058  19.381  24.767  1.00  0.00    -0.744 OA
ENDBRANCH  76  77
ENDBRANCH  44  69
BRANCH  56  81
ATOM     81  C   UNL A   1      48.376  27.107  30.312  1.00  0.00     0.058 A 
ATOM     82  C   UNL A   1      49.389  27.357  29.374  1.00  0.00     0.135 A 
ATOM     83  C   UNL A   1      48.747  26.534  31.540  1.00  0.00     0.135 A 
ATOM     84  F   UNL A   1      49.089  27.896  28.181  1.00  0.00    -0.206 F 
ATOM     85  C   UNL A   1      50.718  27.036  29.637  1.00  0.00     0.059 A 
ATOM     86  C   UNL A   1      50.073  26.233  31.836  1.00  0.00     0.059 A 
ATOM     87  F   UNL A   1      47.819  26.281  32.477  1.00  0.00    -0.206 F 
ATOM     88  C   UNL A   1      51.050  26.479  30.873  1.00  0.00     0.060 A 
BRANCH  88  89
ATOM     89  S   UNL A   1      52.783  26.107  31.217  1.00  0.00     0.124 S 
ATOM     90  O   UNL A   1      53.354  26.102  29.874  1.00  0.00    -0.237 OA
ATOM     91  O   UNL A   1      53.178  27.224  32.069  1.00  0.00    -0.237 OA
ATOM     92  O   UNL A   1      52.729  24.809  31.881  1.00  0.00    -0.744 OA
ENDBRANCH  88  89
ENDBRANCH  56  81
ENDBRANCH  30  31
ENDBRANCH  22  25
ENDBRANCH  20  21
ENDBRANCH   1  20
TORSDOF 16
ENDMDL
MODEL 2
REMARK VINA RESULT:     -10.3      5.339      7.945
REMARK SMILES C[C@@H](C(=O)NCCCNC(=O)c1ccc(-c2c3nc(c(-c4c(F)cc(S(=O)(=O)[O-])cc4F)c4ccc([nH]4)c(-c4c(F)cc(S(=O)(=O)[O-])cc4F)c4nc(c(-c5c(F)cc(S(=O)(=O)[O-])cc5F)c5ccc2[nH]5)C=C4)C=C3)cc1)[C@@H](C)C(=O)c1cccc(Cl)c1
REMARK SMILES IDX 7 1 6 2 5 3 3 4 4 5 2 7 1 8 78 9 79 10 80 11 81 12 82 13
REMARK SMILES IDX 83 14 88 15 84 16 86 17 85 18 87 19 8 20 9 21 10 22 11 24
REMARK SMILES IDX 12 25 13 26 77 27 14 28 76 29 15 30 16 31 17 32 70 33 18 34
REMARK SMILES IDX 75 35 69 36 71 37 19 38 74 39 68 40 67 41 20 43 54 44 33 45
REMARK SMILES IDX 53 46 34 47 37 48 52 49 72 50 35 51 36 52 51 54 73 55 38 56
REMARK SMILES IDX 21 57 22 58 31 59 23 60 24 61 30 62 32 63 25 64 26 65 27 66
REMARK SMILES IDX 28 67 29 68 55 69 56 70 65 71 57 72 58 73 64 74 66 75 59 76
REMARK SMILES IDX 60 77 61 78 62 79 63 80 39 81 40 82 49 83 41 84 42 85 48 86
REMARK SMILES IDX 50 87 43 88 44 89 45 90 46 91 47 92
REMARK H PARENT 5 6 9 23 71 42 37 53
REMARK Flexibility Score: inf
ROOT
ATOM      1  C   UNL A   1      31.440  32.411  26.919  1.00  0.00     0.042 C 
ENDROOT
BRANCH   1   2
ATOM      2  C   UNL A   1      31.641  31.148  26.088  1.00  0.00     0.117 C 
BRANCH   2   3
ATOM      3  N   UNL A   1      32.492  30.185  26.764  1.00  0.00    -0.356 N 
ATOM      4  C   UNL A   1      32.479  28.825  26.751  1.00  0.00     0.223 C 
ATOM      5  O   UNL A   1      33.253  28.241  27.505  1.00  0.00    -0.275 OA
ATOM      6  H   UNL A   1      33.195  30.584  27.326  1.00  0.00     0.163 HD
BRANCH   4   7
ATOM      7  C   UNL A   1      31.537  28.078  25.808  1.00  0.00     0.086 C 
ATOM      8  C   UNL A   1      31.205  26.711  26.416  1.00  0.00     0.019 C 
BRANCH   7   9
ATOM      9  C   UNL A   1      32.161  27.944  24.400  1.00  0.00     0.070 C 
ATOM     10  C   UNL A   1      33.073  26.720  24.268  1.00  0.00     0.017 C 
BRANCH   9  11
ATOM     11  C   UNL A   1      31.212  27.967  23.187  1.00  0.00     0.166 C 
ATOM     12  O   UNL A   1      31.413  27.208  22.234  1.00  0.00    -0.294 OA
BRANCH  11  13
ATOM     13  C   UNL A   1      29.915  28.713  23.190  1.00  0.00     0.019 A 
ATOM     14  C   UNL A   1      28.740  27.942  23.197  1.00  0.00     0.012 A 
ATOM     15  C   UNL A   1      29.804  30.103  23.150  1.00  0.00     0.032 A 
ATOM     16  C   UNL A   1      27.481  28.548  23.193  1.00  0.00     0.002 A 
ATOM     17  C   UNL A   1      28.542  30.704  23.153  1.00  0.00     0.041 A 
ATOM     18  C   UNL A   1      27.382  29.936  23.179  1.00  0.00     0.020 A 
ATOM     19  Cl  UNL A   1      28.424  32.422  23.113  1.00  0.00    -0.084 Cl
ENDBRANCH  11  13
ENDBRANCH   9  11
ENDBRANCH   7   9
ENDBRANCH   4   7
ENDBRANCH   2   3
ENDBRANCH   1   2
BRANCH   1  20
ATOM     20  C   UNL A   1      32.732  33.013  27.462  1.00  0.00     0.118 C 
BRANCH  20  21
ATOM     21  N   UNL A   1      32.592  34.419  27.811  1.00  0.00    -0.352 N 
ATOM     22  C   UNL A   1      33.202  35.142  28.806  1.00  0.00     0.251 C 
ATOM     23  H   UNL A   1      31.966  34.929  27.247  1.00  0.00     0.163 HD
ATOM     24  O   UNL A   1      32.800  36.278  29.057  1.00  0.00    -0.269 OA
BRANCH  22  25
ATOM     25  C   UNL A   1      34.313  34.560  29.589  1.00  0.00     0.039 A 
ATOM     26  C   UNL A   1      34.040  34.010  30.844  1.00  0.00     0.014 A 
ATOM     27  C   UNL A   1      35.623  34.566  29.102  1.00  0.00     0.014 A 
ATOM     28  C   UNL A   1      35.066  33.405  31.577  1.00  0.00     0.010 A 
ATOM     29  C   UNL A   1      36.625  33.890  29.794  1.00  0.00     0.010 A 
ATOM     30  C   UNL A   1      36.360  33.305  31.041  1.00  0.00    -0.014 A 
BRANCH  30  31
ATOM     31  C   UNL A   1      37.443  32.585  31.763  1.00  0.00     0.031 A 
ATOM     32  C   UNL A   1      37.951  33.104  33.081  1.00  0.00     0.074 A 
ATOM     33  C   UNL A   1      38.017  31.505  31.195  1.00  0.00     0.049 A 
ATOM     34  N   UNL A   1      38.937  32.660  33.818  1.00  0.00    -0.248 NA
ATOM     35  C   UNL A   1      37.279  34.292  33.630  1.00  0.00     0.031 C 
ATOM     36  C   UNL A   1      37.648  30.934  29.898  1.00  0.00     0.029 A 
ATOM     37  N   UNL A   1      39.044  30.703  31.628  1.00  0.00    -0.354 N 
ATOM     38  C   UNL A   1      39.013  33.521  34.907  1.00  0.00     0.074 A 
ATOM     39  C   UNL A   1      38.010  34.544  34.706  1.00  0.00     0.031 C 
ATOM     40  C   UNL A   1      38.424  29.868  29.648  1.00  0.00     0.029 A 
ATOM     41  C   UNL A   1      39.377  29.704  30.743  1.00  0.00     0.049 A 
ATOM     42  H   UNL A   1      39.500  30.831  32.491  1.00  0.00     0.167 HD
ATOM     43  C   UNL A   1      39.829  33.452  35.987  1.00  0.00     0.037 A 
ATOM     44  C   UNL A   1      40.349  28.772  30.794  1.00  0.00     0.037 A 
ATOM     45  C   UNL A   1      40.816  32.422  36.185  1.00  0.00     0.049 A 
ATOM     46  C   UNL A   1      41.252  28.721  31.997  1.00  0.00     0.074 A 
ATOM     47  C   UNL A   1      41.652  32.230  37.272  1.00  0.00     0.029 A 
ATOM     48  N   UNL A   1      41.107  31.414  35.276  1.00  0.00    -0.354 N 
ATOM     49  N   UNL A   1      41.262  29.500  33.053  1.00  0.00    -0.248 NA
ATOM     50  C   UNL A   1      42.271  27.663  32.020  1.00  0.00     0.031 C 
ATOM     51  C   UNL A   1      42.487  31.142  36.995  1.00  0.00     0.029 A 
ATOM     52  C   UNL A   1      42.130  30.616  35.764  1.00  0.00     0.049 A 
ATOM     53  H   UNL A   1      40.655  31.287  34.411  1.00  0.00     0.167 HD
ATOM     54  C   UNL A   1      42.269  29.010  33.878  1.00  0.00     0.074 A 
ATOM     55  C   UNL A   1      42.836  27.860  33.204  1.00  0.00     0.031 C 
ATOM     56  C   UNL A   1      42.683  29.469  35.085  1.00  0.00     0.037 A 
BRANCH  43  57
ATOM     57  C   UNL A   1      39.693  34.525  37.035  1.00  0.00     0.058 A 
ATOM     58  C   UNL A   1      38.937  34.328  38.203  1.00  0.00     0.135 A 
ATOM     59  C   UNL A   1      40.350  35.758  36.885  1.00  0.00     0.135 A 
ATOM     60  F   UNL A   1      38.278  33.174  38.395  1.00  0.00    -0.206 F 
ATOM     61  C   UNL A   1      38.806  35.325  39.163  1.00  0.00     0.059 A 
ATOM     62  C   UNL A   1      40.260  36.758  37.849  1.00  0.00     0.059 A 
ATOM     63  F   UNL A   1      41.089  36.001  35.792  1.00  0.00    -0.206 F 
ATOM     64  C   UNL A   1      39.470  36.538  38.977  1.00  0.00     0.060 A 
BRANCH  64  65
ATOM     65  S   UNL A   1      39.283  37.823  40.230  1.00  0.00     0.124 S 
ATOM     66  O   UNL A   1      40.615  38.421  40.234  1.00  0.00    -0.237 OA
ATOM     67  O   UNL A   1      38.219  38.651  39.671  1.00  0.00    -0.237 OA
ATOM     68  O   UNL A   1      38.927  37.078  41.433  1.00  0.00    -0.744 OA
ENDBRANCH  64  65
ENDBRANCH  43  57
BRANCH  44  69
ATOM     69  C   UNL A   1      40.508  27.807  29.673  1.00  0.00     0.058 A 
ATOM     70  C   UNL A   1      39.660  26.698  29.544  1.00  0.00     0.135 A 
ATOM     71  C   UNL A   1      41.500  27.987  28.695  1.00  0.00     0.135 A 
ATOM     72  F   UNL A   1      38.701  26.477  30.456  1.00  0.00    -0.206 F 
ATOM     73  C   UNL A   1      39.795  25.794  28.494  1.00  0.00     0.059 A 
ATOM     74  C   UNL A   1      41.637  27.114  27.621  1.00  0.00     0.059 A 
ATOM     75  F   UNL A   1      42.328  29.041  28.762  1.00  0.00    -0.206 F 
ATOM     76  C   UNL A   1      40.784  26.014  27.534  1.00  0.00     0.060 A 
BRANCH  76  77
ATOM     77  S   UNL A   1      40.913  24.868  26.145  1.00  0.00     0.124 S 
ATOM     78  O   UNL A   1      41.466  25.727  25.104  1.00  0.00    -0.237 OA
ATOM     79  O   UNL A   1      41.812  23.847  26.675  1.00  0.00    -0.237 OA
ATOM     80  O   UNL A   1      39.535  24.433  25.938  1.00  0.00    -0.744 OA
ENDBRANCH  76  77
ENDBRANCH  44  69
BRANCH  56  81
ATOM     81  C   UNL A   1      43.782  28.711  35.780  1.00  0.00     0.058 A 
ATOM     82  C   UNL A   1      45.133  29.057  35.627  1.00  0.00     0.135 A 
ATOM     83  C   UNL A   1      43.470  27.661  36.660  1.00  0.00     0.135 A 
ATOM     84  F   UNL A   1      45.488  30.048  34.793  1.00  0.00    -0.206 F 
ATOM     85  C   UNL A   1      46.139  28.377  36.308  1.00  0.00     0.059 A 
ATOM     86  C   UNL A   1      44.457  26.987  37.374  1.00  0.00     0.059 A 
ATOM     87  F   UNL A   1      42.193  27.294  36.850  1.00  0.00    -0.206 F 
ATOM     88  C   UNL A   1      45.790  27.347  37.183  1.00  0.00     0.060 A 
BRANCH  88  89
ATOM     89  S   UNL A   1      47.102  26.502  38.092  1.00  0.00     0.124 S 
ATOM     90  O   UNL A   1      48.296  27.129  37.535  1.00  0.00    -0.237 OA
ATOM     91  O   UNL A   1      46.793  26.846  39.476  1.00  0.00    -0.237 OA
ATOM     92  O   UNL A   1      46.909  25.098  37.743  1.00  0.00    -0.744 OA
ENDBRANCH  88  89
ENDBRANCH  56  81
ENDBRANCH  30  31
ENDBRANCH  22  25
ENDBRANCH  20  21
ENDBRANCH   1  20
TORSDOF 16
ENDMDL
MODEL 3
REMARK VINA RESULT:     -10.3      2.547      3.284
REMARK SMILES C[C@@H](C(=O)NCCCNC(=O)c1ccc(-c2c3nc(c(-c4c(F)cc(S(=O)(=O)[O-])cc4F)c4ccc([nH]4)c(-c4c(F)cc(S(=O)(=O)[O-])cc4F)c4nc(c(-c5c(F)cc(S(=O)(=O)[O-])cc5F)c5ccc2[nH]5)C=C4)C=C3)cc1)[C@@H](C)C(=O)c1cccc(Cl)c1
REMARK SMILES IDX 7 1 6 2 5 3 3 4 4 5 2 7 1 8 78 9 79 10 80 11 81 12 82 13
REMARK SMILES IDX 83 14 88 15 84 16 86 17 85 18 87 19 8 20 9 21 10 22 11 24
REMARK SMILES IDX 12 25 13 26 77 27 14 28 76 29 15 30 16 31 17 32 70 33 18 34
REMARK SMILES IDX 75 35 69 36 71 37 19 38 74 39 68 40 67 41 20 43 54 44 33 45
REMARK SMILES IDX 53 46 34 47 37 48 52 49 72 50 35 51 36 52 51 54 73 55 38 56
REMARK SMILES IDX 21 57 22 58 31 59 23 60 24 61 30 62 32 63 25 64 26 65 27 66
REMARK SMILES IDX 28 67 29 68 55 69 56 70 65 71 57 72 58 73 64 74 66 75 59 76
REMARK SMILES IDX 60 77 61 78 62 79 63 80 39 81 40 82 49 83 41 84 42 85 48 86
REMARK SMILES IDX 50 87 43 88 44 89 45 90 46 91 47 92
REMARK H PARENT 5 6 9 23 71 42 37 53
REMARK Flexibility Score: inf
ROOT
ATOM      1  C   UNL A   1      34.315  31.404  27.521  1.00  0.00     0.042 C 
ENDROOT
BRANCH   1   2
ATOM      2  C   UNL A   1      33.724  32.481  28.426  1.00  0.00     0.117 C 
BRANCH   2   3
ATOM      3  N   UNL A   1      34.189  33.807  28.062  1.00  0.00    -0.356 N 
ATOM      4  C   UNL A   1      34.078  34.996  28.713  1.00  0.00     0.223 C 
ATOM      5  O   UNL A   1      34.471  36.003  28.129  1.00  0.00    -0.275 OA
ATOM      6  H   UNL A   1      34.663  33.853  27.200  1.00  0.00     0.163 HD
BRANCH   4   7
ATOM      7  C   UNL A   1      33.498  35.044  30.125  1.00  0.00     0.086 C 
ATOM      8  C   UNL A   1      32.620  36.293  30.260  1.00  0.00     0.019 C 
BRANCH   7   9
ATOM      9  C   UNL A   1      34.624  35.018  31.184  1.00  0.00     0.070 C 
ATOM     10  C   UNL A   1      34.230  35.716  32.489  1.00  0.00     0.017 C 
BRANCH   9  11
ATOM     11  C   UNL A   1      35.247  33.655  31.539  1.00  0.00     0.166 C 
ATOM     12  O   UNL A   1      34.519  32.712  31.865  1.00  0.00    -0.294 OA
BRANCH  11  13
ATOM     13  C   UNL A   1      36.689  33.338  31.298  1.00  0.00     0.019 A 
ATOM     14  C   UNL A   1      37.181  33.566  30.002  1.00  0.00     0.012 A 
ATOM     15  C   UNL A   1      37.551  32.805  32.258  1.00  0.00     0.032 A 
ATOM     16  C   UNL A   1      38.513  33.295  29.679  1.00  0.00     0.002 A 
ATOM     17  C   UNL A   1      38.884  32.541  31.931  1.00  0.00     0.041 A 
ATOM     18  C   UNL A   1      39.370  32.786  30.650  1.00  0.00     0.020 A 
ATOM     19  Cl  UNL A   1      39.935  31.892  33.130  1.00  0.00    -0.084 Cl
ENDBRANCH  11  13
ENDBRANCH   9  11
ENDBRANCH   7   9
ENDBRANCH   4   7
ENDBRANCH   2   3
ENDBRANCH   1   2
BRANCH   1  20
ATOM     20  C   UNL A   1      35.485  30.643  28.137  1.00  0.00     0.118 C 
BRANCH  20  21
ATOM     21  N   UNL A   1      35.404  30.567  29.588  1.00  0.00    -0.352 N 
ATOM     22  C   UNL A   1      36.273  30.003  30.488  1.00  0.00     0.251 C 
ATOM     23  H   UNL A   1      34.605  30.985  29.984  1.00  0.00     0.163 HD
ATOM     24  O   UNL A   1      35.925  29.875  31.662  1.00  0.00    -0.269 OA
BRANCH  22  25
ATOM     25  C   UNL A   1      37.606  29.529  30.056  1.00  0.00     0.039 A 
ATOM     26  C   UNL A   1      37.969  29.666  28.713  1.00  0.00     0.014 A 
ATOM     27  C   UNL A   1      38.493  28.939  30.960  1.00  0.00     0.014 A 
ATOM     28  C   UNL A   1      39.244  29.276  28.294  1.00  0.00     0.010 A 
ATOM     29  C   UNL A   1      39.790  28.629  30.559  1.00  0.00     0.010 A 
ATOM     30  C   UNL A   1      40.181  28.790  29.222  1.00  0.00    -0.014 A 
BRANCH  30  31
ATOM     31  C   UNL A   1      41.571  28.456  28.814  1.00  0.00     0.031 A 
ATOM     32  C   UNL A   1      42.619  29.534  28.736  1.00  0.00     0.074 A 
ATOM     33  C   UNL A   1      41.872  27.194  28.445  1.00  0.00     0.049 A 
ATOM     34  N   UNL A   1      43.860  29.451  28.328  1.00  0.00    -0.248 NA
ATOM     35  C   UNL A   1      42.211  30.887  29.147  1.00  0.00     0.031 C 
ATOM     36  C   UNL A   1      40.932  26.071  28.429  1.00  0.00     0.029 A 
ATOM     37  N   UNL A   1      43.048  26.646  27.997  1.00  0.00    -0.354 N 
ATOM     38  C   UNL A   1      44.375  30.739  28.419  1.00  0.00     0.074 A 
ATOM     39  C   UNL A   1      43.297  31.593  28.868  1.00  0.00     0.031 C 
ATOM     40  C   UNL A   1      41.570  24.968  28.009  1.00  0.00     0.029 A 
ATOM     41  C   UNL A   1      42.951  25.311  27.682  1.00  0.00     0.049 A 
ATOM     42  H   UNL A   1      43.883  27.161  27.909  1.00  0.00     0.167 HD
ATOM     43  C   UNL A   1      45.637  31.167  28.173  1.00  0.00     0.037 A 
ATOM     44  C   UNL A   1      43.863  24.460  27.171  1.00  0.00     0.037 A 
ATOM     45  C   UNL A   1      46.708  30.307  27.739  1.00  0.00     0.049 A 
ATOM     46  C   UNL A   1      45.255  24.959  26.892  1.00  0.00     0.074 A 
ATOM     47  C   UNL A   1      48.036  30.631  27.518  1.00  0.00     0.029 A 
ATOM     48  N   UNL A   1      46.575  28.955  27.453  1.00  0.00    -0.354 N 
ATOM     49  N   UNL A   1      45.746  26.166  27.053  1.00  0.00    -0.248 NA
ATOM     50  C   UNL A   1      46.221  23.982  26.370  1.00  0.00     0.031 C 
ATOM     51  C   UNL A   1      48.692  29.491  27.044  1.00  0.00     0.029 A 
ATOM     52  C   UNL A   1      47.790  28.439  27.029  1.00  0.00     0.049 A 
ATOM     53  H   UNL A   1      45.741  28.440  27.537  1.00  0.00     0.167 HD
ATOM     54  C   UNL A   1      47.082  26.087  26.677  1.00  0.00     0.074 A 
ATOM     55  C   UNL A   1      47.326  24.711  26.294  1.00  0.00     0.031 C 
ATOM     56  C   UNL A   1      48.022  27.065  26.655  1.00  0.00     0.037 A 
BRANCH  43  57
ATOM     57  C   UNL A   1      45.927  32.633  28.360  1.00  0.00     0.058 A 
ATOM     58  C   UNL A   1      46.327  33.156  29.601  1.00  0.00     0.135 A 
ATOM     59  C   UNL A   1      45.832  33.524  27.278  1.00  0.00     0.135 A 
ATOM     60  F   UNL A   1      46.423  32.354  30.674  1.00  0.00    -0.206 F 
ATOM     61  C   UNL A   1      46.584  34.512  29.772  1.00  0.00     0.059 A 
ATOM     62  C   UNL A   1      46.117  34.880  27.419  1.00  0.00     0.059 A 
ATOM     63  F   UNL A   1      45.458  33.081  26.068  1.00  0.00    -0.206 F 
ATOM     64  C   UNL A   1      46.475  35.367  28.675  1.00  0.00     0.060 A 
BRANCH  64  65
ATOM     65  S   UNL A   1      46.805  37.125  28.917  1.00  0.00     0.124 S 
ATOM     66  O   UNL A   1      46.326  37.325  30.281  1.00  0.00    -0.237 OA
ATOM     67  O   UNL A   1      48.252  37.197  28.737  1.00  0.00    -0.237 OA
ATOM     68  O   UNL A   1      46.014  37.768  27.873  1.00  0.00    -0.744 OA
ENDBRANCH  64  65
ENDBRANCH  43  57
BRANCH  44  69
ATOM     69  C   UNL A   1      43.486  23.047  26.899  1.00  0.00     0.058 A 
ATOM     70  C   UNL A   1      43.417  22.553  25.588  1.00  0.00     0.135 A 
ATOM     71  C   UNL A   1      43.206  22.154  27.947  1.00  0.00     0.135 A 
ATOM     72  F   UNL A   1      43.668  23.367  24.551  1.00  0.00    -0.206 F 
ATOM     73  C   UNL A   1      43.074  21.231  25.323  1.00  0.00     0.059 A 
ATOM     74  C   UNL A   1      42.888  20.822  27.709  1.00  0.00     0.059 A 
ATOM     75  F   UNL A   1      43.273  22.571  29.221  1.00  0.00    -0.206 F 
ATOM     76  C   UNL A   1      42.816  20.371  26.392  1.00  0.00     0.060 A 
BRANCH  76  77
ATOM     77  S   UNL A   1      42.428  18.643  26.039  1.00  0.00     0.124 S 
ATOM     78  O   UNL A   1      41.001  18.715  25.746  1.00  0.00    -0.237 OA
ATOM     79  O   UNL A   1      43.300  18.360  24.904  1.00  0.00    -0.237 OA
ATOM     80  O   UNL A   1      42.783  17.959  27.279  1.00  0.00    -0.744 OA
ENDBRANCH  76  77
ENDBRANCH  44  69
BRANCH  56  81
ATOM     81  C   UNL A   1      49.416  26.682  26.235  1.00  0.00     0.058 A 
ATOM     82  C   UNL A   1      49.857  26.824  24.911  1.00  0.00     0.135 A 
ATOM     83  C   UNL A   1      50.342  26.225  27.189  1.00  0.00     0.135 A 
ATOM     84  F   UNL A   1      49.012  27.249  23.958  1.00  0.00    -0.206 F 
ATOM     85  C   UNL A   1      51.161  26.508  24.542  1.00  0.00     0.059 A 
ATOM     86  C   UNL A   1      51.659  25.933  26.848  1.00  0.00     0.059 A 
ATOM     87  F   UNL A   1      49.975  26.079  28.472  1.00  0.00    -0.206 F 
ATOM     88  C   UNL A   1      52.056  26.068  25.519  1.00  0.00     0.060 A 
BRANCH  88  89
ATOM     89  S   UNL A   1      53.757  25.704  25.034  1.00  0.00     0.124 S 
ATOM     90  O   UNL A   1      54.506  26.647  25.857  1.00  0.00    -0.237 OA
ATOM     91  O   UNL A   1      53.891  24.297  25.400  1.00  0.00    -0.237 OA
ATOM     92  O   UNL A   1      53.768  25.975  23.600  1.00  0.00    -0.744 OA
ENDBRANCH  88  89
ENDBRANCH  56  81
ENDBRANCH  30  31
ENDBRANCH  22  25
ENDBRANCH  20  21
ENDBRANCH   1  20
TORSDOF 16
ENDMDL
