MODEL 1
REMARK VINA RESULT:     -13.0      0.000      0.000
REMARK SMILES COc1ccc([N+](=O)[O-])cc1C(=O)N[C@@H](Cc1c[nH]c2ccccc12)C(=O)NCCCNC(=O)c1ccc(-c2c3nc(c(-c4c(F)cc(S(=O)(=O)[O-])cc4F)c4ccc([nH]4)c(-c4c(F)cc(S(=O)(=O)[O-])cc4F)c4nc(c(-c5c(F)cc(S(=O)(=O)[O-])cc5F)c5ccc2[nH]5)C=C4)C=C3)cc1
REMARK SMILES IDX 30 1 29 2 28 3 26 4 27 5 15 7 14 8 12 9 13 10 11 12 3 13
REMARK SMILES IDX 4 14 5 15 10 16 6 17 2 18 1 19 7 20 8 21 9 22 16 23 17 24
REMARK SMILES IDX 18 25 25 26 19 27 20 28 24 29 21 31 23 32 22 33 31 34 32 35
REMARK SMILES IDX 33 36 34 38 35 39 36 40 100 41 37 42 99 43 38 44 39 45 40 46
REMARK SMILES IDX 93 47 41 48 98 49 92 50 94 51 42 52 97 53 91 54 90 55 43 57
REMARK SMILES IDX 77 58 56 59 76 60 57 61 60 62 75 63 95 64 58 65 59 66 74 68
REMARK SMILES IDX 96 69 61 70 44 71 45 72 54 73 46 74 47 75 53 76 55 77 48 78
REMARK SMILES IDX 49 79 50 80 51 81 52 82 78 83 79 84 88 85 80 86 81 87 87 88
REMARK SMILES IDX 89 89 82 90 83 91 84 92 85 93 86 94 62 95 63 96 72 97 64 98
REMARK SMILES IDX 65 99 71 100 73 101 66 102 67 103 68 104 69 105 70 106
REMARK H PARENT 28 6 14 11 19 30 32 37 94 56 60 67
REMARK Flexibility Score: inf
ROOT
ATOM      1  C   UNL A   1      37.317  23.098  25.410  1.00  0.00     0.042 C 
ENDROOT
BRANCH   1   2
ATOM      2  C   UNL A   1      36.291  23.702  24.440  1.00  0.00     0.117 C 
BRANCH   2   3
ATOM      3  N   UNL A   1      35.228  24.436  25.099  1.00  0.00    -0.354 N 
ATOM      4  C   UNL A   1      33.870  24.392  24.966  1.00  0.00     0.242 C 
ATOM      5  O   UNL A   1      33.279  24.509  26.051  1.00  0.00    -0.273 OA
ATOM      6  H   UNL A   1      35.544  25.088  25.765  1.00  0.00     0.163 HD
BRANCH   4   7
ATOM      7  C   UNL A   1      33.042  24.390  23.626  1.00  0.00     0.176 C 
BRANCH   7   8
ATOM      8  N   UNL A   1      33.580  25.453  22.749  1.00  0.00    -0.340 N 
ATOM      9  C   UNL A   1      33.340  26.781  22.527  1.00  0.00     0.255 C 
ATOM     10  O   UNL A   1      33.990  27.315  21.622  1.00  0.00    -0.269 OA
ATOM     11  H   UNL A   1      34.302  25.115  22.172  1.00  0.00     0.164 HD
BRANCH   9  12
ATOM     12  C   UNL A   1      32.387  27.662  23.254  1.00  0.00     0.088 A 
ATOM     13  C   UNL A   1      32.694  28.404  24.399  1.00  0.00     0.132 A 
ATOM     14  C   UNL A   1      31.796  29.356  24.915  1.00  0.00     0.054 A 
ATOM     15  C   UNL A   1      30.620  29.660  24.237  1.00  0.00     0.089 A 
ATOM     16  C   UNL A   1      31.182  27.968  22.578  1.00  0.00     0.103 A 
ATOM     17  C   UNL A   1      30.325  28.975  23.054  1.00  0.00     0.270 A 
BRANCH  13  18
ATOM     18  O   UNL A   1      33.882  28.292  25.058  1.00  0.00    -0.496 OA
ATOM     19  C   UNL A   1      33.661  27.948  26.428  1.00  0.00     0.278 C 
ENDBRANCH  13  18
BRANCH  17  20
ATOM     20  N   UNL A   1      29.139  29.369  22.279  1.00  0.00     0.062 N 
ATOM     21  O   UNL A   1      28.033  28.981  22.685  1.00  0.00    -0.258 OA
ATOM     22  O   UNL A   1      29.310  30.065  21.271  1.00  0.00    -0.258 OA
ENDBRANCH  17  20
ENDBRANCH   9  12
ENDBRANCH   7   8
BRANCH   7  23
ATOM     23  C   UNL A   1      32.765  23.023  22.889  1.00  0.00     0.072 C 
BRANCH  23  24
ATOM     24  C   UNL A   1      32.208  21.957  23.786  1.00  0.00    -0.020 A 
ATOM     25  C   UNL A   1      31.332  22.080  24.837  1.00  0.00     0.087 A 
ATOM     26  C   UNL A   1      32.367  20.544  23.838  1.00  0.00     0.003 A 
ATOM     27  N   UNL A   1      31.978  21.385  25.828  1.00  0.00    -0.361 N 
ATOM     28  C   UNL A   1      32.499  20.283  25.203  1.00  0.00     0.046 A 
ATOM     29  C   UNL A   1      32.361  19.447  22.963  1.00  0.00     0.010 A 
ATOM     30  H   UNL A   1      32.051  21.625  26.780  1.00  0.00     0.166 HD
ATOM     31  C   UNL A   1      32.919  19.079  25.742  1.00  0.00     0.026 A 
ATOM     32  C   UNL A   1      32.518  18.168  23.525  1.00  0.00     0.001 A 
ATOM     33  C   UNL A   1      32.866  17.998  24.870  1.00  0.00     0.002 A 
ENDBRANCH  23  24
ENDBRANCH   7  23
ENDBRANCH   4   7
ENDBRANCH   2   3
ENDBRANCH   1   2
BRANCH   1  34
ATOM     34  C   UNL A   1      38.126  24.103  26.221  1.00  0.00     0.118 C 
BRANCH  34  35
ATOM     35  N   UNL A   1      39.559  23.858  26.120  1.00  0.00    -0.352 N 
ATOM     36  C   UNL A   1      40.650  24.561  26.576  1.00  0.00     0.251 C 
ATOM     37  H   UNL A   1      39.790  23.034  25.633  1.00  0.00     0.163 HD
ATOM     38  O   UNL A   1      41.753  24.284  26.104  1.00  0.00    -0.269 OA
BRANCH  36  39
ATOM     39  C   UNL A   1      40.549  25.633  27.599  1.00  0.00     0.039 A 
ATOM     40  C   UNL A   1      41.500  26.665  27.590  1.00  0.00     0.014 A 
ATOM     41  C   UNL A   1      39.617  25.585  28.636  1.00  0.00     0.014 A 
ATOM     42  C   UNL A   1      41.486  27.656  28.582  1.00  0.00     0.010 A 
ATOM     43  C   UNL A   1      39.553  26.615  29.578  1.00  0.00     0.010 A 
ATOM     44  C   UNL A   1      40.495  27.654  29.575  1.00  0.00    -0.014 A 
BRANCH  44  45
ATOM     45  C   UNL A   1      40.440  28.703  30.632  1.00  0.00     0.031 A 
ATOM     46  C   UNL A   1      41.343  28.613  31.838  1.00  0.00     0.074 A 
ATOM     47  C   UNL A   1      39.527  29.693  30.553  1.00  0.00     0.049 A 
ATOM     48  N   UNL A   1      41.353  29.344  32.922  1.00  0.00    -0.248 NA
ATOM     49  C   UNL A   1      42.345  27.535  31.835  1.00  0.00     0.031 C 
ATOM     50  C   UNL A   1      38.568  29.873  29.461  1.00  0.00     0.029 A 
ATOM     51  N   UNL A   1      39.243  30.723  31.414  1.00  0.00    -0.354 N 
ATOM     52  C   UNL A   1      42.336  28.797  33.743  1.00  0.00     0.074 A 
ATOM     53  C   UNL A   1      42.870  27.647  33.047  1.00  0.00     0.031 C 
ATOM     54  C   UNL A   1      37.813  30.955  29.712  1.00  0.00     0.029 A 
ATOM     55  C   UNL A   1      38.204  31.523  30.998  1.00  0.00     0.049 A 
ATOM     56  H   UNL A   1      39.738  30.876  32.252  1.00  0.00     0.167 HD
ATOM     57  C   UNL A   1      42.767  29.225  34.955  1.00  0.00     0.037 A 
ATOM     58  C   UNL A   1      37.622  32.585  31.588  1.00  0.00     0.037 A 
ATOM     59  C   UNL A   1      42.267  30.399  35.621  1.00  0.00     0.049 A 
ATOM     60  C   UNL A   1      38.132  33.055  32.924  1.00  0.00     0.074 A 
ATOM     61  C   UNL A   1      42.688  30.957  36.815  1.00  0.00     0.029 A 
ATOM     62  N   UNL A   1      41.238  31.200  35.147  1.00  0.00    -0.354 N 
ATOM     63  N   UNL A   1      39.095  32.553  33.660  1.00  0.00    -0.248 NA
ATOM     64  C   UNL A   1      37.481  34.236  33.507  1.00  0.00     0.031 C 
ATOM     65  C   UNL A   1      41.893  32.078  37.079  1.00  0.00     0.029 A 
ATOM     66  C   UNL A   1      41.001  32.239  36.031  1.00  0.00     0.049 A 
ATOM     67  H   UNL A   1      40.749  31.052  34.305  1.00  0.00     0.167 HD
ATOM     68  C   UNL A   1      39.175  33.366  34.785  1.00  0.00     0.074 A 
ATOM     69  C   UNL A   1      38.175  34.402  34.625  1.00  0.00     0.031 C 
ATOM     70  C   UNL A   1      40.003  33.264  35.853  1.00  0.00     0.037 A 
BRANCH  57  71
ATOM     71  C   UNL A   1      43.842  28.421  35.637  1.00  0.00     0.058 A 
ATOM     72  C   UNL A   1      43.533  27.397  36.546  1.00  0.00     0.135 A 
ATOM     73  C   UNL A   1      45.198  28.655  35.355  1.00  0.00     0.135 A 
ATOM     74  F   UNL A   1      42.254  27.138  36.862  1.00  0.00    -0.206 F 
ATOM     75  C   UNL A   1      44.527  26.659  37.179  1.00  0.00     0.059 A 
ATOM     76  C   UNL A   1      46.211  27.911  35.956  1.00  0.00     0.059 A 
ATOM     77  F   UNL A   1      45.554  29.619  34.491  1.00  0.00    -0.206 F 
ATOM     78  C   UNL A   1      45.864  26.926  36.882  1.00  0.00     0.060 A 
BRANCH  78  79
ATOM     79  S   UNL A   1      47.150  25.967  37.711  1.00  0.00     0.124 S 
ATOM     80  O   UNL A   1      47.003  26.427  39.095  1.00  0.00    -0.237 OA
ATOM     81  O   UNL A   1      46.718  24.588  37.462  1.00  0.00    -0.237 OA
ATOM     82  O   UNL A   1      48.367  26.369  37.041  1.00  0.00    -0.744 OA
ENDBRANCH  78  79
ENDBRANCH  57  71
BRANCH  58  83
ATOM     83  C   UNL A   1      36.502  33.289  30.909  1.00  0.00     0.058 A 
ATOM     84  C   UNL A   1      35.188  33.176  31.385  1.00  0.00     0.135 A 
ATOM     85  C   UNL A   1      36.725  34.106  29.789  1.00  0.00     0.135 A 
ATOM     86  F   UNL A   1      34.926  32.402  32.449  1.00  0.00    -0.206 F 
ATOM     87  C   UNL A   1      34.131  33.840  30.773  1.00  0.00     0.059 A 
ATOM     88  C   UNL A   1      35.687  34.798  29.172  1.00  0.00     0.059 A 
ATOM     89  F   UNL A   1      37.967  34.260  29.306  1.00  0.00    -0.206 F 
ATOM     90  C   UNL A   1      34.392  34.652  29.666  1.00  0.00     0.060 A 
BRANCH  90  91
ATOM     91  S   UNL A   1      33.022  35.559  28.916  1.00  0.00     0.124 S 
ATOM     92  O   UNL A   1      33.727  36.619  28.204  1.00  0.00    -0.237 OA
ATOM     93  O   UNL A   1      32.395  34.537  28.082  1.00  0.00    -0.237 OA
ATOM     94  O   UNL A   1      32.233  35.986  30.067  1.00  0.00    -0.744 OA
ENDBRANCH  90  91
ENDBRANCH  58  83
BRANCH  70  95
ATOM     95  C   UNL A   1      39.879  34.309  36.925  1.00  0.00     0.058 A 
ATOM     96  C   UNL A   1      40.556  35.535  36.835  1.00  0.00     0.135 A 
ATOM     97  C   UNL A   1      39.030  34.106  38.024  1.00  0.00     0.135 A 
ATOM     98  F   UNL A   1      41.386  35.775  35.808  1.00  0.00    -0.206 F 
ATOM     99  C   UNL A   1      40.406  36.519  37.806  1.00  0.00     0.059 A 
ATOM    100  C   UNL A   1      38.847  35.085  38.996  1.00  0.00     0.059 A 
ATOM    101  F   UNL A   1      38.354  32.953  38.152  1.00  0.00    -0.206 F 
ATOM    102  C   UNL A   1      39.548  36.285  38.883  1.00  0.00     0.060 A 
BRANCH 102 103
ATOM    103  S   UNL A   1      39.327  37.587  40.115  1.00  0.00     0.124 S 
ATOM    104  O   UNL A   1      39.014  36.809  41.309  1.00  0.00    -0.237 OA
ATOM    105  O   UNL A   1      40.629  38.247  40.112  1.00  0.00    -0.237 OA
ATOM    106  O   UNL A   1      38.228  38.381  39.576  1.00  0.00    -0.744 OA
ENDBRANCH 102 103
ENDBRANCH  70  95
ENDBRANCH  44  45
ENDBRANCH  36  39
ENDBRANCH  34  35
ENDBRANCH   1  34
TORSDOF 19
ENDMDL
MODEL 2
REMARK VINA RESULT:     -12.9      6.347     12.024
REMARK SMILES COc1ccc([N+](=O)[O-])cc1C(=O)N[C@@H](Cc1c[nH]c2ccccc12)C(=O)NCCCNC(=O)c1ccc(-c2c3nc(c(-c4c(F)cc(S(=O)(=O)[O-])cc4F)c4ccc([nH]4)c(-c4c(F)cc(S(=O)(=O)[O-])cc4F)c4nc(c(-c5c(F)cc(S(=O)(=O)[O-])cc5F)c5ccc2[nH]5)C=C4)C=C3)cc1
REMARK SMILES IDX 30 1 29 2 28 3 26 4 27 5 15 7 14 8 12 9 13 10 11 12 3 13
REMARK SMILES IDX 4 14 5 15 10 16 6 17 2 18 1 19 7 20 8 21 9 22 16 23 17 24
REMARK SMILES IDX 18 25 25 26 19 27 20 28 24 29 21 31 23 32 22 33 31 34 32 35
REMARK SMILES IDX 33 36 34 38 35 39 36 40 100 41 37 42 99 43 38 44 39 45 40 46
REMARK SMILES IDX 93 47 41 48 98 49 92 50 94 51 42 52 97 53 91 54 90 55 43 57
REMARK SMILES IDX 77 58 56 59 76 60 57 61 60 62 75 63 95 64 58 65 59 66 74 68
REMARK SMILES IDX 96 69 61 70 44 71 45 72 54 73 46 74 47 75 53 76 55 77 48 78
REMARK SMILES IDX 49 79 50 80 51 81 52 82 78 83 79 84 88 85 80 86 81 87 87 88
REMARK SMILES IDX 89 89 82 90 83 91 84 92 85 93 86 94 62 95 63 96 72 97 64 98
REMARK SMILES IDX 65 99 71 100 73 101 66 102 67 103 68 104 69 105 70 106
REMARK H PARENT 28 6 14 11 19 30 32 37 94 56 60 67
REMARK Flexibility Score: inf
ROOT
ATOM      1  C   UNL A   1      33.841  28.751  27.573  1.00  0.00     0.042 C 
ENDROOT
BRANCH   1   2
ATOM      2  C   UNL A   1      33.018  28.898  26.284  1.00  0.00     0.117 C 
BRANCH   2   3
ATOM      3  N   UNL A   1      33.805  28.769  25.072  1.00  0.00    -0.354 N 
ATOM      4  C   UNL A   1      33.531  28.199  23.862  1.00  0.00     0.242 C 
ATOM      5  O   UNL A   1      33.990  28.851  22.911  1.00  0.00    -0.273 OA
ATOM      6  H   UNL A   1      34.704  29.165  25.133  1.00  0.00     0.163 HD
BRANCH   4   7
ATOM      7  C   UNL A   1      32.886  26.787  23.597  1.00  0.00     0.176 C 
BRANCH   7   8
ATOM      8  N   UNL A   1      32.778  26.078  24.891  1.00  0.00    -0.340 N 
ATOM      9  C   UNL A   1      33.351  24.985  25.482  1.00  0.00     0.255 C 
ATOM     10  O   UNL A   1      32.920  24.672  26.596  1.00  0.00    -0.269 OA
ATOM     11  H   UNL A   1      32.118  26.505  25.484  1.00  0.00     0.164 HD
BRANCH   9  12
ATOM     12  C   UNL A   1      34.442  24.131  24.939  1.00  0.00     0.088 A 
ATOM     13  C   UNL A   1      34.508  23.652  23.627  1.00  0.00     0.132 A 
ATOM     14  C   UNL A   1      35.661  23.011  23.141  1.00  0.00     0.054 A 
ATOM     15  C   UNL A   1      36.810  22.931  23.923  1.00  0.00     0.089 A 
ATOM     16  C   UNL A   1      35.610  24.034  25.733  1.00  0.00     0.103 A 
ATOM     17  C   UNL A   1      36.786  23.463  25.216  1.00  0.00     0.270 A 
BRANCH  13  18
ATOM     18  O   UNL A   1      33.494  23.808  22.730  1.00  0.00    -0.496 OA
ATOM     19  C   UNL A   1      32.713  22.613  22.647  1.00  0.00     0.278 C 
ENDBRANCH  13  18
BRANCH  17  20
ATOM     20  N   UNL A   1      38.027  23.478  26.004  1.00  0.00     0.062 N 
ATOM     21  O   UNL A   1      38.704  22.438  26.028  1.00  0.00    -0.258 OA
ATOM     22  O   UNL A   1      38.326  24.522  26.596  1.00  0.00    -0.258 OA
ENDBRANCH  17  20
ENDBRANCH   9  12
ENDBRANCH   7   8
BRANCH   7  23
ATOM     23  C   UNL A   1      31.597  26.682  22.693  1.00  0.00     0.072 C 
BRANCH  23  24
ATOM     24  C   UNL A   1      30.355  27.203  23.353  1.00  0.00    -0.020 A 
ATOM     25  C   UNL A   1      29.473  26.549  24.179  1.00  0.00     0.087 A 
ATOM     26  C   UNL A   1      29.719  28.476  23.369  1.00  0.00     0.003 A 
ATOM     27  N   UNL A   1      28.266  26.846  23.598  1.00  0.00    -0.361 N 
ATOM     28  C   UNL A   1      28.364  28.163  23.234  1.00  0.00     0.046 A 
ATOM     29  C   UNL A   1      30.061  29.826  23.534  1.00  0.00     0.010 A 
ATOM     30  H   UNL A   1      27.497  26.244  23.470  1.00  0.00     0.166 HD
ATOM     31  C   UNL A   1      27.364  29.077  22.952  1.00  0.00     0.026 A 
ATOM     32  C   UNL A   1      29.016  30.767  23.522  1.00  0.00     0.001 A 
ATOM     33  C   UNL A   1      27.712  30.407  23.161  1.00  0.00     0.002 A 
ENDBRANCH  23  24
ENDBRANCH   7  23
ENDBRANCH   4   7
ENDBRANCH   2   3
ENDBRANCH   1   2
BRANCH   1  34
ATOM     34  C   UNL A   1      35.135  29.553  27.623  1.00  0.00     0.118 C 
BRANCH  34  35
ATOM     35  N   UNL A   1      35.218  30.380  28.820  1.00  0.00    -0.352 N 
ATOM     36  C   UNL A   1      36.230  30.588  29.729  1.00  0.00     0.251 C 
ATOM     37  H   UNL A   1      34.395  30.883  29.015  1.00  0.00     0.163 HD
ATOM     38  O   UNL A   1      35.938  31.109  30.805  1.00  0.00    -0.269 OA
BRANCH  36  39
ATOM     39  C   UNL A   1      37.641  30.207  29.468  1.00  0.00     0.039 A 
ATOM     40  C   UNL A   1      38.065  30.063  28.138  1.00  0.00     0.014 A 
ATOM     41  C   UNL A   1      38.523  29.872  30.496  1.00  0.00     0.014 A 
ATOM     42  C   UNL A   1      39.367  29.632  27.848  1.00  0.00     0.010 A 
ATOM     43  C   UNL A   1      39.844  29.520  30.209  1.00  0.00     0.010 A 
ATOM     44  C   UNL A   1      40.280  29.379  28.883  1.00  0.00    -0.014 A 
BRANCH  44  45
ATOM     45  C   UNL A   1      41.677  28.938  28.609  1.00  0.00     0.031 A 
ATOM     46  C   UNL A   1      42.805  29.939  28.627  1.00  0.00     0.074 A 
ATOM     47  C   UNL A   1      41.925  27.658  28.265  1.00  0.00     0.049 A 
ATOM     48  N   UNL A   1      44.059  29.783  28.285  1.00  0.00    -0.248 NA
ATOM     49  C   UNL A   1      42.471  31.307  29.055  1.00  0.00     0.031 C 
ATOM     50  C   UNL A   1      40.918  26.597  28.171  1.00  0.00     0.029 A 
ATOM     51  N   UNL A   1      43.095  27.033  27.914  1.00  0.00    -0.354 N 
ATOM     52  C   UNL A   1      44.652  31.034  28.425  1.00  0.00     0.074 A 
ATOM     53  C   UNL A   1      43.611  31.948  28.842  1.00  0.00     0.031 C 
ATOM     54  C   UNL A   1      41.516  25.454  27.801  1.00  0.00     0.029 A 
ATOM     55  C   UNL A   1      42.939  25.704  27.593  1.00  0.00     0.049 A 
ATOM     56  H   UNL A   1      43.965  27.492  27.893  1.00  0.00     0.167 HD
ATOM     57  C   UNL A   1      45.949  31.385  28.243  1.00  0.00     0.037 A 
ATOM     58  C   UNL A   1      43.835  24.792  27.167  1.00  0.00     0.037 A 
ATOM     59  C   UNL A   1      46.991  30.462  27.876  1.00  0.00     0.049 A 
ATOM     60  C   UNL A   1      45.273  25.200  26.993  1.00  0.00     0.074 A 
ATOM     61  C   UNL A   1      48.347  30.704  27.738  1.00  0.00     0.029 A 
ATOM     62  N   UNL A   1      46.795  29.118  27.595  1.00  0.00    -0.354 N 
ATOM     63  N   UNL A   1      45.823  26.376  27.178  1.00  0.00    -0.248 NA
ATOM     64  C   UNL A   1      46.212  24.158  26.556  1.00  0.00     0.031 C 
ATOM     65  C   UNL A   1      48.966  29.513  27.342  1.00  0.00     0.029 A 
ATOM     66  C   UNL A   1      48.001  28.521  27.270  1.00  0.00     0.049 A 
ATOM     67  H   UNL A   1      45.926  28.656  27.623  1.00  0.00     0.167 HD
ATOM     68  C   UNL A   1      47.174  26.212  26.895  1.00  0.00     0.074 A 
ATOM     69  C   UNL A   1      47.361  24.819  26.543  1.00  0.00     0.031 C 
ATOM     70  C   UNL A   1      48.170  27.131  26.926  1.00  0.00     0.037 A 
BRANCH  57  71
ATOM     71  C   UNL A   1      46.316  32.832  28.446  1.00  0.00     0.058 A 
ATOM     72  C   UNL A   1      46.266  33.759  27.394  1.00  0.00     0.135 A 
ATOM     73  C   UNL A   1      46.691  33.303  29.714  1.00  0.00     0.135 A 
ATOM     74  F   UNL A   1      45.925  33.361  26.157  1.00  0.00    -0.206 F 
ATOM     75  C   UNL A   1      46.610  35.094  27.582  1.00  0.00     0.059 A 
ATOM     76  C   UNL A   1      47.014  34.641  29.933  1.00  0.00     0.059 A 
ATOM     77  F   UNL A   1      46.752  32.461  30.759  1.00  0.00    -0.206 F 
ATOM     78  C   UNL A   1      46.987  35.525  28.854  1.00  0.00     0.060 A 
BRANCH  78  79
ATOM     79  S   UNL A   1      47.437  37.257  29.090  1.00  0.00     0.124 S 
ATOM     80  O   UNL A   1      47.551  37.715  27.702  1.00  0.00    -0.237 OA
ATOM     81  O   UNL A   1      46.282  37.781  29.827  1.00  0.00    -0.237 OA
ATOM     82  O   UNL A   1      48.675  37.195  29.835  1.00  0.00    -0.744 OA
ENDBRANCH  78  79
ENDBRANCH  57  71
BRANCH  58  83
ATOM     83  C   UNL A   1      43.400  23.397  26.896  1.00  0.00     0.058 A 
ATOM     84  C   UNL A   1      43.300  22.918  25.582  1.00  0.00     0.135 A 
ATOM     85  C   UNL A   1      43.100  22.508  27.941  1.00  0.00     0.135 A 
ATOM     86  F   UNL A   1      43.570  23.732  24.550  1.00  0.00    -0.206 F 
ATOM     87  C   UNL A   1      42.910  21.611  25.309  1.00  0.00     0.059 A 
ATOM     88  C   UNL A   1      42.730  21.189  27.694  1.00  0.00     0.059 A 
ATOM     89  F   UNL A   1      43.198  22.912  29.216  1.00  0.00    -0.206 F 
ATOM     90  C   UNL A   1      42.629  20.752  26.374  1.00  0.00     0.060 A 
BRANCH  90  91
ATOM     91  S   UNL A   1      42.184  19.040  26.012  1.00  0.00     0.124 S 
ATOM     92  O   UNL A   1      42.614  18.362  27.230  1.00  0.00    -0.237 OA
ATOM     93  O   UNL A   1      40.742  19.132  25.808  1.00  0.00    -0.237 OA
ATOM     94  O   UNL A   1      42.960  18.739  24.812  1.00  0.00    -0.744 OA
ENDBRANCH  90  91
ENDBRANCH  58  83
BRANCH  70  95
ATOM     95  C   UNL A   1      49.556  26.660  26.589  1.00  0.00     0.058 A 
ATOM     96  C   UNL A   1      50.387  26.078  27.558  1.00  0.00     0.135 A 
ATOM     97  C   UNL A   1      50.035  26.738  25.272  1.00  0.00     0.135 A 
ATOM     98  F   UNL A   1      49.978  25.987  28.833  1.00  0.00    -0.206 F 
ATOM     99  C   UNL A   1      51.654  25.602  27.235  1.00  0.00     0.059 A 
ATOM    100  C   UNL A   1      51.289  26.248  24.921  1.00  0.00     0.059 A 
ATOM    101  F   UNL A   1      49.274  27.278  24.307  1.00  0.00    -0.206 F 
ATOM    102  C   UNL A   1      52.095  25.690  25.913  1.00  0.00     0.060 A 
BRANCH 102 103
ATOM    103  S   UNL A   1      53.723  25.029  25.498  1.00  0.00     0.124 S 
ATOM    104  O   UNL A   1      54.484  25.344  26.703  1.00  0.00    -0.237 OA
ATOM    105  O   UNL A   1      53.442  23.614  25.278  1.00  0.00    -0.237 OA
ATOM    106  O   UNL A   1      54.099  25.780  24.304  1.00  0.00    -0.744 OA
ENDBRANCH 102 103
ENDBRANCH  70  95
ENDBRANCH  44  45
ENDBRANCH  36  39
ENDBRANCH  34  35
ENDBRANCH   1  34
TORSDOF 19
ENDMDL
MODEL 3
REMARK VINA RESULT:     -12.8      6.405     11.772
REMARK SMILES COc1ccc([N+](=O)[O-])cc1C(=O)N[C@@H](Cc1c[nH]c2ccccc12)C(=O)NCCCNC(=O)c1ccc(-c2c3nc(c(-c4c(F)cc(S(=O)(=O)[O-])cc4F)c4ccc([nH]4)c(-c4c(F)cc(S(=O)(=O)[O-])cc4F)c4nc(c(-c5c(F)cc(S(=O)(=O)[O-])cc5F)c5ccc2[nH]5)C=C4)C=C3)cc1
REMARK SMILES IDX 30 1 29 2 28 3 26 4 27 5 15 7 14 8 12 9 13 10 11 12 3 13
REMARK SMILES IDX 4 14 5 15 10 16 6 17 2 18 1 19 7 20 8 21 9 22 16 23 17 24
REMARK SMILES IDX 18 25 25 26 19 27 20 28 24 29 21 31 23 32 22 33 31 34 32 35
REMARK SMILES IDX 33 36 34 38 35 39 36 40 100 41 37 42 99 43 38 44 39 45 40 46
REMARK SMILES IDX 93 47 41 48 98 49 92 50 94 51 42 52 97 53 91 54 90 55 43 57
REMARK SMILES IDX 77 58 56 59 76 60 57 61 60 62 75 63 95 64 58 65 59 66 74 68
REMARK SMILES IDX 96 69 61 70 44 71 45 72 54 73 46 74 47 75 53 76 55 77 48 78
REMARK SMILES IDX 49 79 50 80 51 81 52 82 78 83 79 84 88 85 80 86 81 87 87 88
REMARK SMILES IDX 89 89 82 90 83 91 84 92 85 93 86 94 62 95 63 96 72 97 64 98
REMARK SMILES IDX 65 99 71 100 73 101 66 102 67 103 68 104 69 105 70 106
REMARK H PARENT 28 6 14 11 19 30 32 37 94 56 60 67
REMARK Flexibility Score: inf
ROOT
ATOM      1  C   UNL A   1      34.587  29.114  27.320  1.00  0.00     0.042 C 
ENDROOT
BRANCH   1   2
ATOM      2  C   UNL A   1      33.609  29.029  26.139  1.00  0.00     0.117 C 
BRANCH   2   3
ATOM      3  N   UNL A   1      32.262  28.651  26.524  1.00  0.00    -0.354 N 
ATOM      4  C   UNL A   1      31.702  27.441  26.817  1.00  0.00     0.242 C 
ATOM      5  O   UNL A   1      30.891  27.503  27.753  1.00  0.00    -0.273 OA
ATOM      6  H   UNL A   1      31.635  29.408  26.585  1.00  0.00     0.163 HD
BRANCH   4   7
ATOM      7  C   UNL A   1      31.849  26.100  26.003  1.00  0.00     0.176 C 
BRANCH   7   8
ATOM      8  N   UNL A   1      30.952  25.092  26.609  1.00  0.00    -0.340 N 
ATOM      9  C   UNL A   1      30.889  23.727  26.683  1.00  0.00     0.255 C 
ATOM     10  O   UNL A   1      29.901  23.251  27.252  1.00  0.00    -0.269 OA
ATOM     11  H   UNL A   1      30.201  25.514  27.084  1.00  0.00     0.164 HD
BRANCH   9  12
ATOM     12  C   UNL A   1      31.879  22.746  26.162  1.00  0.00     0.088 A 
ATOM     13  C   UNL A   1      32.804  22.047  26.944  1.00  0.00     0.132 A 
ATOM     14  C   UNL A   1      33.575  21.002  26.404  1.00  0.00     0.054 A 
ATOM     15  C   UNL A   1      33.360  20.564  25.101  1.00  0.00     0.089 A 
ATOM     16  C   UNL A   1      31.676  22.304  24.833  1.00  0.00     0.103 A 
ATOM     17  C   UNL A   1      32.393  21.207  24.322  1.00  0.00     0.270 A 
BRANCH  13  18
ATOM     18  O   UNL A   1      32.989  22.296  28.272  1.00  0.00    -0.496 OA
ATOM     19  C   UNL A   1      34.245  22.946  28.486  1.00  0.00     0.278 C 
ENDBRANCH  13  18
BRANCH  17  20
ATOM     20  N   UNL A   1      32.088  20.679  22.984  1.00  0.00     0.062 N 
ATOM     21  O   UNL A   1      31.860  21.499  22.082  1.00  0.00    -0.258 OA
ATOM     22  O   UNL A   1      32.078  19.451  22.834  1.00  0.00    -0.258 OA
ENDBRANCH  17  20
ENDBRANCH   9  12
ENDBRANCH   7   8
BRANCH   7  23
ATOM     23  C   UNL A   1      31.802  26.142  24.427  1.00  0.00     0.072 C 
BRANCH  23  24
ATOM     24  C   UNL A   1      33.071  25.682  23.774  1.00  0.00    -0.020 A 
ATOM     25  C   UNL A   1      33.542  25.947  22.511  1.00  0.00     0.087 A 
ATOM     26  C   UNL A   1      34.164  24.885  24.218  1.00  0.00     0.003 A 
ATOM     27  N   UNL A   1      33.852  24.691  22.054  1.00  0.00    -0.361 N 
ATOM     28  C   UNL A   1      34.428  24.059  23.124  1.00  0.00     0.046 A 
ATOM     29  C   UNL A   1      35.002  24.772  25.337  1.00  0.00     0.010 A 
ATOM     30  H   UNL A   1      33.695  24.324  21.154  1.00  0.00     0.166 HD
ATOM     31  C   UNL A   1      35.245  22.941  23.154  1.00  0.00     0.026 A 
ATOM     32  C   UNL A   1      36.029  23.811  25.283  1.00  0.00     0.001 A 
ATOM     33  C   UNL A   1      36.097  22.870  24.250  1.00  0.00     0.002 A 
ENDBRANCH  23  24
ENDBRANCH   7  23
ENDBRANCH   4   7
ENDBRANCH   2   3
ENDBRANCH   1   2
BRANCH   1  34
ATOM     34  C   UNL A   1      35.181  30.492  27.586  1.00  0.00     0.118 C 
BRANCH  34  35
ATOM     35  N   UNL A   1      35.258  30.786  29.012  1.00  0.00    -0.352 N 
ATOM     36  C   UNL A   1      36.200  30.478  29.967  1.00  0.00     0.251 C 
ATOM     37  H   UNL A   1      34.493  31.302  29.355  1.00  0.00     0.163 HD
ATOM     38  O   UNL A   1      35.880  30.597  31.149  1.00  0.00    -0.269 OA
BRANCH  36  39
ATOM     39  C   UNL A   1      37.567  30.007  29.631  1.00  0.00     0.039 A 
ATOM     40  C   UNL A   1      38.419  29.611  30.673  1.00  0.00     0.014 A 
ATOM     41  C   UNL A   1      38.072  30.058  28.330  1.00  0.00     0.014 A 
ATOM     42  C   UNL A   1      39.742  29.230  30.406  1.00  0.00     0.010 A 
ATOM     43  C   UNL A   1      39.364  29.603  28.055  1.00  0.00     0.010 A 
ATOM     44  C   UNL A   1      40.221  29.199  29.088  1.00  0.00    -0.014 A 
BRANCH  44  45
ATOM     45  C   UNL A   1      41.616  28.782  28.769  1.00  0.00     0.031 A 
ATOM     46  C   UNL A   1      42.727  29.802  28.748  1.00  0.00     0.074 A 
ATOM     47  C   UNL A   1      41.874  27.505  28.419  1.00  0.00     0.049 A 
ATOM     48  N   UNL A   1      43.971  29.665  28.366  1.00  0.00    -0.248 NA
ATOM     49  C   UNL A   1      42.384  31.164  29.186  1.00  0.00     0.031 C 
ATOM     50  C   UNL A   1      40.883  26.427  28.359  1.00  0.00     0.029 A 
ATOM     51  N   UNL A   1      43.042  26.899  28.030  1.00  0.00    -0.354 N 
ATOM     52  C   UNL A   1      44.548  30.926  28.485  1.00  0.00     0.074 A 
ATOM     53  C   UNL A   1      43.506  31.823  28.935  1.00  0.00     0.031 C 
ATOM     54  C   UNL A   1      41.487  25.293  27.972  1.00  0.00     0.029 A 
ATOM     55  C   UNL A   1      42.898  25.567  27.716  1.00  0.00     0.049 A 
ATOM     56  H   UNL A   1      43.903  27.373  27.980  1.00  0.00     0.167 HD
ATOM     57  C   UNL A   1      45.832  31.299  28.259  1.00  0.00     0.037 A 
ATOM     58  C   UNL A   1      43.795  24.669  27.262  1.00  0.00     0.037 A 
ATOM     59  C   UNL A   1      46.876  30.393  27.859  1.00  0.00     0.049 A 
ATOM     60  C   UNL A   1      45.219  25.101  27.041  1.00  0.00     0.074 A 
ATOM     61  C   UNL A   1      48.223  30.658  27.676  1.00  0.00     0.029 A 
ATOM     62  N   UNL A   1      46.695  29.045  27.587  1.00  0.00    -0.354 N 
ATOM     63  N   UNL A   1      45.755  26.287  27.205  1.00  0.00    -0.248 NA
ATOM     64  C   UNL A   1      46.161  24.074  26.574  1.00  0.00     0.031 C 
ATOM     65  C   UNL A   1      48.849  29.476  27.262  1.00  0.00     0.029 A 
ATOM     66  C   UNL A   1      47.899  28.468  27.223  1.00  0.00     0.049 A 
ATOM     67  H   UNL A   1      45.834  28.569  27.644  1.00  0.00     0.167 HD
ATOM     68  C   UNL A   1      47.099  26.145  26.879  1.00  0.00     0.074 A 
ATOM     69  C   UNL A   1      47.298  24.755  26.522  1.00  0.00     0.031 C 
ATOM     70  C   UNL A   1      48.079  27.081  26.875  1.00  0.00     0.037 A 
BRANCH  57  71
ATOM     71  C   UNL A   1      46.181  32.752  28.448  1.00  0.00     0.058 A 
ATOM     72  C   UNL A   1      46.029  33.687  27.413  1.00  0.00     0.135 A 
ATOM     73  C   UNL A   1      46.643  33.221  29.689  1.00  0.00     0.135 A 
ATOM     74  F   UNL A   1      45.602  33.292  26.203  1.00  0.00    -0.206 F 
ATOM     75  C   UNL A   1      46.356  35.028  27.588  1.00  0.00     0.059 A 
ATOM     76  C   UNL A   1      46.952  34.564  29.896  1.00  0.00     0.059 A 
ATOM     77  F   UNL A   1      46.804  32.372  30.717  1.00  0.00    -0.206 F 
ATOM     78  C   UNL A   1      46.822  35.456  28.832  1.00  0.00     0.060 A 
BRANCH  78  79
ATOM     79  S   UNL A   1      47.249  37.197  29.050  1.00  0.00     0.124 S 
ATOM     80  O   UNL A   1      46.648  37.792  27.853  1.00  0.00    -0.237 OA
ATOM     81  O   UNL A   1      46.582  37.525  30.314  1.00  0.00    -0.237 OA
ATOM     82  O   UNL A   1      48.695  37.195  29.092  1.00  0.00    -0.744 OA
ENDBRANCH  78  79
ENDBRANCH  57  71
BRANCH  58  83
ATOM     83  C   UNL A   1      43.374  23.267  27.007  1.00  0.00     0.058 A 
ATOM     84  C   UNL A   1      43.251  22.781  25.698  1.00  0.00     0.135 A 
ATOM     85  C   UNL A   1      43.113  22.378  28.063  1.00  0.00     0.135 A 
ATOM     86  F   UNL A   1      43.484  23.594  24.657  1.00  0.00    -0.206 F 
ATOM     87  C   UNL A   1      42.874  21.467  25.440  1.00  0.00     0.059 A 
ATOM     88  C   UNL A   1      42.756  21.053  27.830  1.00  0.00     0.059 A 
ATOM     89  F   UNL A   1      43.234  22.790  29.334  1.00  0.00    -0.206 F 
ATOM     90  C   UNL A   1      42.631  20.609  26.515  1.00  0.00     0.060 A 
BRANCH  90  91
ATOM     91  S   UNL A   1      42.204  18.888  26.171  1.00  0.00     0.124 S 
ATOM     92  O   UNL A   1      42.478  18.255  27.455  1.00  0.00    -0.237 OA
ATOM     93  O   UNL A   1      40.796  18.989  25.796  1.00  0.00    -0.237 OA
ATOM     94  O   UNL A   1      43.109  18.530  25.082  1.00  0.00    -0.744 OA
ENDBRANCH  90  91
ENDBRANCH  58  83
BRANCH  70  95
ATOM     95  C   UNL A   1      49.461  26.632  26.493  1.00  0.00     0.058 A 
ATOM     96  C   UNL A   1      50.324  26.042  27.429  1.00  0.00     0.135 A 
ATOM     97  C   UNL A   1      49.904  26.739  25.166  1.00  0.00     0.135 A 
ATOM     98  F   UNL A   1      49.951  25.924  28.713  1.00  0.00    -0.206 F 
ATOM     99  C   UNL A   1      51.587  25.588  27.065  1.00  0.00     0.059 A 
ATOM    100  C   UNL A   1      51.154  26.270  24.774  1.00  0.00     0.059 A 
ATOM    101  F   UNL A   1      49.112  27.288  24.231  1.00  0.00    -0.206 F 
ATOM    102  C   UNL A   1      51.993  25.705  25.734  1.00  0.00     0.060 A 
BRANCH 102 103
ATOM    103  S   UNL A   1      53.617  25.071  25.263  1.00  0.00     0.124 S 
ATOM    104  O   UNL A   1      53.359  23.636  25.184  1.00  0.00    -0.237 OA
ATOM    105  O   UNL A   1      53.860  25.742  23.990  1.00  0.00    -0.237 OA
ATOM    106  O   UNL A   1      54.478  25.495  26.362  1.00  0.00    -0.744 OA
ENDBRANCH 102 103
ENDBRANCH  70  95
ENDBRANCH  44  45
ENDBRANCH  36  39
ENDBRANCH  34  35
ENDBRANCH   1  34
TORSDOF 19
ENDMDL
