MODEL 1
REMARK VINA RESULT:     -11.4      0.000      0.000
REMARK SMILES O=C(CN(CC(=O)NCc1ccccc1)c1ccccc1)NCCCNC(=O)c1ccc(-c2c3nc(c(-c4c(F)cc(S(=O)(=O)[O-])cc4F)c4ccc([nH]4)c(-c4c(F)cc(S(=O)(=O)[O-])cc4F)c4nc(c(-c5c(F)cc(S(=O)(=O)[O-])cc5F)c5ccc2[nH]5)C=C4)C=C3)cc1
REMARK SMILES IDX 23 1 22 2 1 3 2 4 3 6 4 7 5 8 6 9 7 10 8 11 9 13 10 14 11 15
REMARK SMILES IDX 15 16 12 17 14 18 13 19 16 20 17 21 21 22 18 23 20 24 19 25
REMARK SMILES IDX 24 26 25 27 26 28 27 29 28 31 29 32 30 33 94 34 31 35 93 36
REMARK SMILES IDX 32 37 33 38 34 39 87 40 35 41 92 42 86 43 88 44 36 45 91 46
REMARK SMILES IDX 85 47 84 48 37 50 71 51 50 52 70 53 51 54 54 55 69 56 89 57
REMARK SMILES IDX 52 58 53 59 68 61 90 62 55 63 38 64 39 65 48 66 40 67 41 68
REMARK SMILES IDX 47 69 49 70 42 71 43 72 44 73 45 74 46 75 72 76 73 77 82 78
REMARK SMILES IDX 74 79 75 80 81 81 83 82 76 83 77 84 78 85 79 86 80 87 56 88
REMARK SMILES IDX 57 89 66 90 58 91 59 92 65 93 67 94 60 95 61 96 62 97 63 98
REMARK SMILES IDX 64 99
REMARK H PARENT 22 5 8 12 26 30 88 49 54 60
REMARK Flexibility Score: inf
ROOT
ATOM      1  C   UNL A   1      39.841  21.563  25.832  1.00  0.00     0.117 C 
ENDROOT
BRANCH   1   2
ATOM      2  N   UNL A   1      38.454  21.378  25.457  1.00  0.00    -0.354 N 
ATOM      3  O   UNL A   1      37.894  23.588  25.662  1.00  0.00    -0.273 OA
ATOM      4  C   UNL A   1      37.603  22.449  25.300  1.00  0.00     0.239 C 
ATOM      5  H   UNL A   1      38.111  20.466  25.312  1.00  0.00     0.163 HD
BRANCH   4   6
ATOM      6  C   UNL A   1      36.245  22.142  24.667  1.00  0.00     0.217 C 
BRANCH   6   7
ATOM      7  N   UNL A   1      35.051  22.792  25.266  1.00  0.00    -0.353 N 
BRANCH   7   8
ATOM      8  C   UNL A   1      34.461  22.149  26.465  1.00  0.00     0.217 C 
BRANCH   8   9
ATOM      9  C   UNL A   1      33.212  21.277  26.264  1.00  0.00     0.239 C 
ATOM     10  O   UNL A   1      33.320  20.080  25.963  1.00  0.00    -0.273 OA
ATOM     11  N   UNL A   1      31.947  21.740  26.450  1.00  0.00    -0.350 N 
ATOM     12  H   UNL A   1      31.236  21.087  26.255  1.00  0.00     0.163 HD
BRANCH  11  13
ATOM     13  C   UNL A   1      31.478  23.033  26.886  1.00  0.00     0.151 C 
BRANCH  13  14
ATOM     14  C   UNL A   1      30.964  23.919  25.777  1.00  0.00    -0.029 A 
ATOM     15  C   UNL A   1      30.553  25.243  25.990  1.00  0.00     0.005 A 
ATOM     16  C   UNL A   1      30.962  23.427  24.460  1.00  0.00     0.005 A 
ATOM     17  C   UNL A   1      30.117  26.037  24.925  1.00  0.00     0.000 A 
ATOM     18  C   UNL A   1      30.515  24.216  23.399  1.00  0.00     0.000 A 
ATOM     19  C   UNL A   1      30.092  25.521  23.631  1.00  0.00     0.000 A 
ENDBRANCH  13  14
ENDBRANCH  11  13
ENDBRANCH   8   9
ENDBRANCH   7   8
BRANCH   7  20
ATOM     20  C   UNL A   1      34.578  24.007  24.771  1.00  0.00     0.038 A 
ATOM     21  C   UNL A   1      34.301  24.216  23.410  1.00  0.00     0.026 A 
ATOM     22  C   UNL A   1      34.353  25.121  25.599  1.00  0.00     0.026 A 
ATOM     23  C   UNL A   1      33.852  25.446  22.906  1.00  0.00     0.002 A 
ATOM     24  C   UNL A   1      33.937  26.365  25.104  1.00  0.00     0.002 A 
ATOM     25  C   UNL A   1      33.685  26.530  23.753  1.00  0.00     0.000 A 
ENDBRANCH   7  20
ENDBRANCH   6   7
ENDBRANCH   4   6
ENDBRANCH   1   2
BRANCH   1  26
ATOM     26  C   UNL A   1      40.027  22.088  27.248  1.00  0.00     0.042 C 
BRANCH  26  27
ATOM     27  C   UNL A   1      41.200  23.047  27.407  1.00  0.00     0.118 C 
BRANCH  27  28
ATOM     28  N   UNL A   1      41.374  23.935  26.263  1.00  0.00    -0.352 N 
ATOM     29  C   UNL A   1      41.348  25.305  26.190  1.00  0.00     0.251 C 
ATOM     30  H   UNL A   1      41.537  23.478  25.407  1.00  0.00     0.163 HD
ATOM     31  O   UNL A   1      41.372  25.850  25.086  1.00  0.00    -0.269 OA
BRANCH  29  32
ATOM     32  C   UNL A   1      41.266  26.129  27.417  1.00  0.00     0.039 A 
ATOM     33  C   UNL A   1      42.306  27.019  27.699  1.00  0.00     0.014 A 
ATOM     34  C   UNL A   1      40.181  26.025  28.291  1.00  0.00     0.014 A 
ATOM     35  C   UNL A   1      42.219  27.858  28.814  1.00  0.00     0.010 A 
ATOM     36  C   UNL A   1      40.058  26.917  29.354  1.00  0.00     0.010 A 
ATOM     37  C   UNL A   1      41.073  27.848  29.625  1.00  0.00    -0.014 A 
BRANCH  37  38
ATOM     38  C   UNL A   1      40.906  28.819  30.739  1.00  0.00     0.031 A 
ATOM     39  C   UNL A   1      41.750  28.709  31.980  1.00  0.00     0.074 A 
ATOM     40  C   UNL A   1      39.943  29.759  30.661  1.00  0.00     0.049 A 
ATOM     41  N   UNL A   1      41.697  29.416  33.080  1.00  0.00    -0.248 NA
ATOM     42  C   UNL A   1      42.772  27.651  31.999  1.00  0.00     0.031 C 
ATOM     43  C   UNL A   1      39.027  29.939  29.532  1.00  0.00     0.029 A 
ATOM     44  N   UNL A   1      39.563  30.733  31.551  1.00  0.00    -0.354 N 
ATOM     45  C   UNL A   1      42.666  28.884  33.923  1.00  0.00     0.074 A 
ATOM     46  C   UNL A   1      43.255  27.760  33.228  1.00  0.00     0.031 C 
ATOM     47  C   UNL A   1      38.209  30.972  29.787  1.00  0.00     0.029 A 
ATOM     48  C   UNL A   1      38.507  31.500  31.113  1.00  0.00     0.049 A 
ATOM     49  H   UNL A   1      40.004  30.870  32.420  1.00  0.00     0.167 HD
ATOM     50  C   UNL A   1      43.044  29.306  35.154  1.00  0.00     0.037 A 
ATOM     51  C   UNL A   1      37.844  32.505  31.717  1.00  0.00     0.037 A 
ATOM     52  C   UNL A   1      42.462  30.436  35.833  1.00  0.00     0.049 A 
ATOM     53  C   UNL A   1      38.271  32.946  33.091  1.00  0.00     0.074 A 
ATOM     54  C   UNL A   1      42.814  30.977  37.058  1.00  0.00     0.029 A 
ATOM     55  N   UNL A   1      41.405  31.196  35.351  1.00  0.00    -0.354 N 
ATOM     56  N   UNL A   1      39.234  32.472  33.846  1.00  0.00    -0.248 NA
ATOM     57  C   UNL A   1      37.527  34.061  33.694  1.00  0.00     0.031 C 
ATOM     58  C   UNL A   1      41.934  32.026  37.342  1.00  0.00     0.029 A 
ATOM     59  C   UNL A   1      41.075  32.182  36.267  1.00  0.00     0.049 A 
ATOM     60  H   UNL A   1      40.956  31.054  34.487  1.00  0.00     0.167 HD
ATOM     61  C   UNL A   1      39.231  33.250  34.999  1.00  0.00     0.074 A 
ATOM     62  C   UNL A   1      38.180  34.233  34.835  1.00  0.00     0.031 C 
ATOM     63  C   UNL A   1      40.030  33.161  36.091  1.00  0.00     0.037 A 
BRANCH  50  64
ATOM     64  C   UNL A   1      44.139  28.543  35.851  1.00  0.00     0.058 A 
ATOM     65  C   UNL A   1      43.859  27.476  36.720  1.00  0.00     0.135 A 
ATOM     66  C   UNL A   1      45.489  28.853  35.613  1.00  0.00     0.135 A 
ATOM     67  F   UNL A   1      42.588  27.143  36.996  1.00  0.00    -0.206 F 
ATOM     68  C   UNL A   1      44.875  26.764  37.351  1.00  0.00     0.059 A 
ATOM     69  C   UNL A   1      46.521  28.133  36.207  1.00  0.00     0.059 A 
ATOM     70  F   UNL A   1      45.815  29.862  34.791  1.00  0.00    -0.206 F 
ATOM     71  C   UNL A   1      46.204  27.099  37.087  1.00  0.00     0.060 A 
BRANCH  71  72
ATOM     72  S   UNL A   1      47.509  26.161  37.908  1.00  0.00     0.124 S 
ATOM     73  O   UNL A   1      46.775  24.989  38.374  1.00  0.00    -0.237 OA
ATOM     74  O   UNL A   1      48.454  25.925  36.822  1.00  0.00    -0.237 OA
ATOM     75  O   UNL A   1      47.973  27.066  38.954  1.00  0.00    -0.744 OA
ENDBRANCH  71  72
ENDBRANCH  50  64
BRANCH  51  76
ATOM     76  C   UNL A   1      36.712  33.176  31.018  1.00  0.00     0.058 A 
ATOM     77  C   UNL A   1      35.384  32.943  31.403  1.00  0.00     0.135 A 
ATOM     78  C   UNL A   1      36.937  34.071  29.959  1.00  0.00     0.135 A 
ATOM     79  F   UNL A   1      35.117  32.090  32.404  1.00  0.00    -0.206 F 
ATOM     80  C   UNL A   1      34.318  33.556  30.754  1.00  0.00     0.059 A 
ATOM     81  C   UNL A   1      35.890  34.721  29.315  1.00  0.00     0.059 A 
ATOM     82  F   UNL A   1      38.190  34.343  29.562  1.00  0.00    -0.206 F 
ATOM     83  C   UNL A   1      34.582  34.448  29.713  1.00  0.00     0.060 A 
BRANCH  83  84
ATOM     84  S   UNL A   1      33.191  35.274  28.908  1.00  0.00     0.124 S 
ATOM     85  O   UNL A   1      33.862  36.361  28.204  1.00  0.00    -0.237 OA
ATOM     86  O   UNL A   1      32.646  34.210  28.072  1.00  0.00    -0.237 OA
ATOM     87  O   UNL A   1      32.346  35.676  30.029  1.00  0.00    -0.744 OA
ENDBRANCH  83  84
ENDBRANCH  51  76
BRANCH  63  88
ATOM     88  C   UNL A   1      39.830  34.177  37.185  1.00  0.00     0.058 A 
ATOM     89  C   UNL A   1      39.108  33.880  38.350  1.00  0.00     0.135 A 
ATOM     90  C   UNL A   1      40.417  35.449  37.084  1.00  0.00     0.135 A 
ATOM     91  F   UNL A   1      38.520  32.682  38.496  1.00  0.00    -0.206 F 
ATOM     92  C   UNL A   1      38.953  34.817  39.367  1.00  0.00     0.059 A 
ATOM     93  C   UNL A   1      40.302  36.391  38.102  1.00  0.00     0.059 A 
ATOM     94  F   UNL A   1      41.127  35.783  35.994  1.00  0.00    -0.206 F 
ATOM     95  C   UNL A   1      39.558  36.069  39.236  1.00  0.00     0.060 A 
BRANCH  95  96
ATOM     96  S   UNL A   1      39.379  37.262  40.579  1.00  0.00     0.124 S 
ATOM     97  O   UNL A   1      40.771  37.509  40.941  1.00  0.00    -0.237 OA
ATOM     98  O   UNL A   1      38.688  38.368  39.925  1.00  0.00    -0.237 OA
ATOM     99  O   UNL A   1      38.592  36.539  41.574  1.00  0.00    -0.744 OA
ENDBRANCH  95  96
ENDBRANCH  63  88
ENDBRANCH  37  38
ENDBRANCH  29  32
ENDBRANCH  27  28
ENDBRANCH  26  27
ENDBRANCH   1  26
TORSDOF 19
ENDMDL
MODEL 2
REMARK VINA RESULT:     -11.4      4.850     10.394
REMARK SMILES O=C(CN(CC(=O)NCc1ccccc1)c1ccccc1)NCCCNC(=O)c1ccc(-c2c3nc(c(-c4c(F)cc(S(=O)(=O)[O-])cc4F)c4ccc([nH]4)c(-c4c(F)cc(S(=O)(=O)[O-])cc4F)c4nc(c(-c5c(F)cc(S(=O)(=O)[O-])cc5F)c5ccc2[nH]5)C=C4)C=C3)cc1
REMARK SMILES IDX 23 1 22 2 1 3 2 4 3 6 4 7 5 8 6 9 7 10 8 11 9 13 10 14 11 15
REMARK SMILES IDX 15 16 12 17 14 18 13 19 16 20 17 21 21 22 18 23 20 24 19 25
REMARK SMILES IDX 24 26 25 27 26 28 27 29 28 31 29 32 30 33 94 34 31 35 93 36
REMARK SMILES IDX 32 37 33 38 34 39 87 40 35 41 92 42 86 43 88 44 36 45 91 46
REMARK SMILES IDX 85 47 84 48 37 50 71 51 50 52 70 53 51 54 54 55 69 56 89 57
REMARK SMILES IDX 52 58 53 59 68 61 90 62 55 63 38 64 39 65 48 66 40 67 41 68
REMARK SMILES IDX 47 69 49 70 42 71 43 72 44 73 45 74 46 75 72 76 73 77 82 78
REMARK SMILES IDX 74 79 75 80 81 81 83 82 76 83 77 84 78 85 79 86 80 87 56 88
REMARK SMILES IDX 57 89 66 90 58 91 59 92 65 93 67 94 60 95 61 96 62 97 63 98
REMARK SMILES IDX 64 99
REMARK H PARENT 22 5 8 12 26 30 88 49 54 60
REMARK Flexibility Score: inf
ROOT
ATOM      1  C   UNL A   1      33.188  27.849  24.021  1.00  0.00     0.117 C 
ENDROOT
BRANCH   1   2
ATOM      2  N   UNL A   1      33.018  26.410  24.018  1.00  0.00    -0.354 N 
ATOM      3  O   UNL A   1      34.005  26.097  21.976  1.00  0.00    -0.273 OA
ATOM      4  C   UNL A   1      33.548  25.627  23.017  1.00  0.00     0.239 C 
ATOM      5  H   UNL A   1      32.512  25.983  24.747  1.00  0.00     0.163 HD
BRANCH   4   6
ATOM      6  C   UNL A   1      33.514  24.116  23.256  1.00  0.00     0.217 C 
BRANCH   6   7
ATOM      7  N   UNL A   1      33.881  23.633  24.612  1.00  0.00    -0.353 N 
BRANCH   7   8
ATOM      8  C   UNL A   1      32.780  23.459  25.590  1.00  0.00     0.217 C 
BRANCH   8   9
ATOM      9  C   UNL A   1      32.800  22.198  26.469  1.00  0.00     0.239 C 
ATOM     10  O   UNL A   1      32.925  22.288  27.698  1.00  0.00    -0.273 OA
ATOM     11  N   UNL A   1      32.632  20.944  25.971  1.00  0.00    -0.350 N 
ATOM     12  H   UNL A   1      32.700  20.224  26.637  1.00  0.00     0.163 HD
BRANCH  11  13
ATOM     13  C   UNL A   1      32.373  20.500  24.623  1.00  0.00     0.151 C 
BRANCH  13  14
ATOM     14  C   UNL A   1      33.067  19.214  24.243  1.00  0.00    -0.029 A 
ATOM     15  C   UNL A   1      34.371  18.903  24.658  1.00  0.00     0.005 A 
ATOM     16  C   UNL A   1      32.359  18.253  23.503  1.00  0.00     0.005 A 
ATOM     17  C   UNL A   1      34.960  17.684  24.310  1.00  0.00     0.000 A 
ATOM     18  C   UNL A   1      32.952  17.040  23.146  1.00  0.00     0.000 A 
ATOM     19  C   UNL A   1      34.252  16.756  23.549  1.00  0.00     0.000 A 
ENDBRANCH  13  14
ENDBRANCH  11  13
ENDBRANCH   8   9
ENDBRANCH   7   8
BRANCH   7  20
ATOM     20  C   UNL A   1      35.195  23.269  24.906  1.00  0.00     0.038 A 
ATOM     21  C   UNL A   1      36.021  24.024  25.753  1.00  0.00     0.026 A 
ATOM     22  C   UNL A   1      35.796  22.119  24.365  1.00  0.00     0.026 A 
ATOM     23  C   UNL A   1      37.352  23.675  26.028  1.00  0.00     0.002 A 
ATOM     24  C   UNL A   1      37.135  21.776  24.603  1.00  0.00     0.002 A 
ATOM     25  C   UNL A   1      37.917  22.556  25.438  1.00  0.00     0.000 A 
ENDBRANCH   7  20
ENDBRANCH   6   7
ENDBRANCH   4   6
ENDBRANCH   1   2
BRANCH   1  26
ATOM     26  C   UNL A   1      32.740  28.515  25.313  1.00  0.00     0.042 C 
BRANCH  26  27
ATOM     27  C   UNL A   1      33.867  28.766  26.307  1.00  0.00     0.118 C 
BRANCH  27  28
ATOM     28  N   UNL A   1      33.718  30.018  27.039  1.00  0.00    -0.352 N 
ATOM     29  C   UNL A   1      34.556  30.624  27.942  1.00  0.00     0.251 C 
ATOM     30  H   UNL A   1      32.883  30.506  26.858  1.00  0.00     0.163 HD
ATOM     31  O   UNL A   1      34.162  31.615  28.557  1.00  0.00    -0.269 OA
BRANCH  29  32
ATOM     32  C   UNL A   1      35.910  30.087  28.199  1.00  0.00     0.039 A 
ATOM     33  C   UNL A   1      36.863  30.150  27.178  1.00  0.00     0.014 A 
ATOM     34  C   UNL A   1      36.245  29.517  29.429  1.00  0.00     0.014 A 
ATOM     35  C   UNL A   1      38.169  29.713  27.418  1.00  0.00     0.010 A 
ATOM     36  C   UNL A   1      37.565  29.157  29.693  1.00  0.00     0.010 A 
ATOM     37  C   UNL A   1      38.544  29.257  28.693  1.00  0.00    -0.014 A 
BRANCH  37  38
ATOM     38  C   UNL A   1      39.956  28.907  29.003  1.00  0.00     0.031 A 
ATOM     39  C   UNL A   1      40.884  29.933  29.596  1.00  0.00     0.074 A 
ATOM     40  C   UNL A   1      40.421  27.682  28.686  1.00  0.00     0.049 A 
ATOM     41  N   UNL A   1      42.161  29.834  29.865  1.00  0.00    -0.248 NA
ATOM     42  C   UNL A   1      40.309  31.252  29.905  1.00  0.00     0.031 C 
ATOM     43  C   UNL A   1      39.634  26.615  28.063  1.00  0.00     0.029 A 
ATOM     44  N   UNL A   1      41.669  27.129  28.829  1.00  0.00    -0.354 N 
ATOM     45  C   UNL A   1      42.544  31.074  30.362  1.00  0.00     0.074 A 
ATOM     46  C   UNL A   1      41.376  31.927  30.307  1.00  0.00     0.031 C 
ATOM     47  C   UNL A   1      40.410  25.532  27.900  1.00  0.00     0.029 A 
ATOM     48  C   UNL A   1      41.759  25.838  28.360  1.00  0.00     0.049 A 
ATOM     49  H   UNL A   1      42.429  27.611  29.229  1.00  0.00     0.167 HD
ATOM     50  C   UNL A   1      43.752  31.461  30.840  1.00  0.00     0.037 A 
ATOM     51  C   UNL A   1      42.812  25.000  28.295  1.00  0.00     0.037 A 
ATOM     52  C   UNL A   1      44.905  30.600  30.905  1.00  0.00     0.049 A 
ATOM     53  C   UNL A   1      44.147  25.457  28.816  1.00  0.00     0.074 A 
ATOM     54  C   UNL A   1      46.158  30.881  31.423  1.00  0.00     0.029 A 
ATOM     55  N   UNL A   1      44.953  29.296  30.434  1.00  0.00    -0.354 N 
ATOM     56  N   UNL A   1      44.474  26.614  29.344  1.00  0.00    -0.248 NA
ATOM     57  C   UNL A   1      45.256  24.496  28.741  1.00  0.00     0.031 C 
ATOM     58  C   UNL A   1      46.978  29.767  31.214  1.00  0.00     0.029 A 
ATOM     59  C   UNL A   1      46.221  28.769  30.624  1.00  0.00     0.049 A 
ATOM     60  H   UNL A   1      44.198  28.815  30.024  1.00  0.00     0.167 HD
ATOM     61  C   UNL A   1      45.818  26.508  29.691  1.00  0.00     0.074 A 
ATOM     62  C   UNL A   1      46.238  25.170  29.325  1.00  0.00     0.031 C 
ATOM     63  C   UNL A   1      46.627  27.433  30.263  1.00  0.00     0.037 A 
BRANCH  50  64
ATOM     64  C   UNL A   1      43.891  32.877  31.330  1.00  0.00     0.058 A 
ATOM     65  C   UNL A   1      44.317  33.915  30.484  1.00  0.00     0.135 A 
ATOM     66  C   UNL A   1      43.551  33.212  32.651  1.00  0.00     0.135 A 
ATOM     67  F   UNL A   1      44.668  33.651  29.215  1.00  0.00    -0.206 F 
ATOM     68  C   UNL A   1      44.430  35.225  30.937  1.00  0.00     0.059 A 
ATOM     69  C   UNL A   1      43.625  34.523  33.117  1.00  0.00     0.059 A 
ATOM     70  F   UNL A   1      43.137  32.263  33.504  1.00  0.00    -0.206 F 
ATOM     71  C   UNL A   1      44.081  35.520  32.256  1.00  0.00     0.060 A 
BRANCH  71  72
ATOM     72  S   UNL A   1      44.227  37.227  32.824  1.00  0.00     0.124 S 
ATOM     73  O   UNL A   1      43.327  37.229  33.972  1.00  0.00    -0.237 OA
ATOM     74  O   UNL A   1      45.649  37.330  33.134  1.00  0.00    -0.237 OA
ATOM     75  O   UNL A   1      43.780  38.008  31.675  1.00  0.00    -0.744 OA
ENDBRANCH  71  72
ENDBRANCH  50  64
BRANCH  51  76
ATOM     76  C   UNL A   1      42.642  23.634  27.726  1.00  0.00     0.058 A 
ATOM     77  C   UNL A   1      42.750  23.408  26.346  1.00  0.00     0.135 A 
ATOM     78  C   UNL A   1      42.380  22.528  28.550  1.00  0.00     0.135 A 
ATOM     79  F   UNL A   1      42.992  24.434  25.515  1.00  0.00    -0.206 F 
ATOM     80  C   UNL A   1      42.586  22.139  25.800  1.00  0.00     0.059 A 
ATOM     81  C   UNL A   1      42.242  21.245  28.031  1.00  0.00     0.059 A 
ATOM     82  F   UNL A   1      42.284  22.687  29.880  1.00  0.00    -0.206 F 
ATOM     83  C   UNL A   1      42.337  21.062  26.653  1.00  0.00     0.060 A 
BRANCH  83  84
ATOM     84  S   UNL A   1      42.172  19.412  25.937  1.00  0.00     0.124 S 
ATOM     85  O   UNL A   1      40.737  19.345  25.681  1.00  0.00    -0.237 OA
ATOM     86  O   UNL A   1      43.028  19.504  24.758  1.00  0.00    -0.237 OA
ATOM     87  O   UNL A   1      42.666  18.536  26.995  1.00  0.00    -0.744 OA
ENDBRANCH  83  84
ENDBRANCH  51  76
BRANCH  63  88
ATOM     88  C   UNL A   1      48.043  27.024  30.571  1.00  0.00     0.058 A 
ATOM     89  C   UNL A   1      49.085  27.206  29.649  1.00  0.00     0.135 A 
ATOM     90  C   UNL A   1      48.368  26.489  31.828  1.00  0.00     0.135 A 
ATOM     91  F   UNL A   1      48.831  27.707  28.429  1.00  0.00    -0.206 F 
ATOM     92  C   UNL A   1      50.396  26.850  29.954  1.00  0.00     0.059 A 
ATOM     93  C   UNL A   1      49.676  26.156  32.166  1.00  0.00     0.059 A 
ATOM     94  F   UNL A   1      47.411  26.302  32.752  1.00  0.00    -0.206 F 
ATOM     95  C   UNL A   1      50.682  26.329  31.218  1.00  0.00     0.060 A 
BRANCH  95  96
ATOM     96  S   UNL A   1      52.392  25.907  31.612  1.00  0.00     0.124 S 
ATOM     97  O   UNL A   1      52.262  24.516  32.035  1.00  0.00    -0.237 OA
ATOM     98  O   UNL A   1      53.068  26.120  30.336  1.00  0.00    -0.237 OA
ATOM     99  O   UNL A   1      52.742  26.852  32.667  1.00  0.00    -0.744 OA
ENDBRANCH  95  96
ENDBRANCH  63  88
ENDBRANCH  37  38
ENDBRANCH  29  32
ENDBRANCH  27  28
ENDBRANCH  26  27
ENDBRANCH   1  26
TORSDOF 19
ENDMDL
MODEL 3
REMARK VINA RESULT:     -11.3      6.526     11.966
REMARK SMILES O=C(CN(CC(=O)NCc1ccccc1)c1ccccc1)NCCCNC(=O)c1ccc(-c2c3nc(c(-c4c(F)cc(S(=O)(=O)[O-])cc4F)c4ccc([nH]4)c(-c4c(F)cc(S(=O)(=O)[O-])cc4F)c4nc(c(-c5c(F)cc(S(=O)(=O)[O-])cc5F)c5ccc2[nH]5)C=C4)C=C3)cc1
REMARK SMILES IDX 23 1 22 2 1 3 2 4 3 6 4 7 5 8 6 9 7 10 8 11 9 13 10 14 11 15
REMARK SMILES IDX 15 16 12 17 14 18 13 19 16 20 17 21 21 22 18 23 20 24 19 25
REMARK SMILES IDX 24 26 25 27 26 28 27 29 28 31 29 32 30 33 94 34 31 35 93 36
REMARK SMILES IDX 32 37 33 38 34 39 87 40 35 41 92 42 86 43 88 44 36 45 91 46
REMARK SMILES IDX 85 47 84 48 37 50 71 51 50 52 70 53 51 54 54 55 69 56 89 57
REMARK SMILES IDX 52 58 53 59 68 61 90 62 55 63 38 64 39 65 48 66 40 67 41 68
REMARK SMILES IDX 47 69 49 70 42 71 43 72 44 73 45 74 46 75 72 76 73 77 82 78
REMARK SMILES IDX 74 79 75 80 81 81 83 82 76 83 77 84 78 85 79 86 80 87 56 88
REMARK SMILES IDX 57 89 66 90 58 91 59 92 65 93 67 94 60 95 61 96 62 97 63 98
REMARK SMILES IDX 64 99
REMARK H PARENT 22 5 8 12 26 30 88 49 54 60
REMARK Flexibility Score: inf
ROOT
ATOM      1  C   UNL A   1      34.924  31.287  27.620  1.00  0.00     0.117 C 
ENDROOT
BRANCH   1   2
ATOM      2  N   UNL A   1      34.003  30.168  27.647  1.00  0.00    -0.354 N 
ATOM      3  O   UNL A   1      32.226  31.354  26.824  1.00  0.00    -0.273 OA
ATOM      4  C   UNL A   1      32.729  30.275  27.135  1.00  0.00     0.239 C 
ATOM      5  H   UNL A   1      34.295  29.313  28.039  1.00  0.00     0.163 HD
BRANCH   4   6
ATOM      6  C   UNL A   1      31.948  28.967  26.998  1.00  0.00     0.217 C 
BRANCH   6   7
ATOM      7  N   UNL A   1      32.231  28.126  25.808  1.00  0.00    -0.353 N 
BRANCH   7   8
ATOM      8  C   UNL A   1      32.200  28.794  24.484  1.00  0.00     0.217 C 
BRANCH   8   9
ATOM      9  C   UNL A   1      31.016  28.482  23.556  1.00  0.00     0.239 C 
ATOM     10  O   UNL A   1      29.952  29.110  23.657  1.00  0.00    -0.273 OA
ATOM     11  N   UNL A   1      31.078  27.560  22.558  1.00  0.00    -0.350 N 
ATOM     12  H   UNL A   1      30.239  27.435  22.060  1.00  0.00     0.163 HD
BRANCH  11  13
ATOM     13  C   UNL A   1      32.175  26.736  22.114  1.00  0.00     0.151 C 
BRANCH  13  14
ATOM     14  C   UNL A   1      32.058  25.279  22.496  1.00  0.00    -0.029 A 
ATOM     15  C   UNL A   1      30.904  24.737  23.080  1.00  0.00     0.005 A 
ATOM     16  C   UNL A   1      33.119  24.410  22.190  1.00  0.00     0.005 A 
ATOM     17  C   UNL A   1      30.829  23.374  23.384  1.00  0.00     0.000 A 
ATOM     18  C   UNL A   1      33.048  23.051  22.505  1.00  0.00     0.000 A 
ATOM     19  C   UNL A   1      31.904  22.534  23.103  1.00  0.00     0.000 A 
ENDBRANCH  13  14
ENDBRANCH  11  13
ENDBRANCH   8   9
ENDBRANCH   7   8
BRANCH   7  20
ATOM     20  C   UNL A   1      32.605  26.790  25.952  1.00  0.00     0.038 A 
ATOM     21  C   UNL A   1      33.861  26.305  25.554  1.00  0.00     0.026 A 
ATOM     22  C   UNL A   1      31.744  25.823  26.499  1.00  0.00     0.026 A 
ATOM     23  C   UNL A   1      34.228  24.956  25.673  1.00  0.00     0.002 A 
ATOM     24  C   UNL A   1      32.084  24.466  26.592  1.00  0.00     0.002 A 
ATOM     25  C   UNL A   1      33.331  24.029  26.179  1.00  0.00     0.000 A 
ENDBRANCH   7  20
ENDBRANCH   6   7
ENDBRANCH   4   6
ENDBRANCH   1   2
BRANCH   1  26
ATOM     26  C   UNL A   1      34.741  32.257  28.778  1.00  0.00     0.042 C 
BRANCH  26  27
ATOM     27  C   UNL A   1      35.926  32.316  29.734  1.00  0.00     0.118 C 
BRANCH  27  28
ATOM     28  N   UNL A   1      35.772  31.444  30.892  1.00  0.00    -0.352 N 
ATOM     29  C   UNL A   1      36.605  30.472  31.390  1.00  0.00     0.251 C 
ATOM     30  H   UNL A   1      34.938  31.571  31.398  1.00  0.00     0.163 HD
ATOM     31  O   UNL A   1      36.207  29.748  32.303  1.00  0.00    -0.269 OA
BRANCH  29  32
ATOM     32  C   UNL A   1      37.959  30.273  30.827  1.00  0.00     0.039 A 
ATOM     33  C   UNL A   1      39.053  30.268  31.696  1.00  0.00     0.014 A 
ATOM     34  C   UNL A   1      38.157  30.101  29.456  1.00  0.00     0.014 A 
ATOM     35  C   UNL A   1      40.335  30.012  31.199  1.00  0.00     0.010 A 
ATOM     36  C   UNL A   1      39.421  29.765  28.973  1.00  0.00     0.010 A 
ATOM     37  C   UNL A   1      40.524  29.711  29.840  1.00  0.00    -0.014 A 
BRANCH  37  38
ATOM     38  C   UNL A   1      41.857  29.313  29.315  1.00  0.00     0.031 A 
ATOM     39  C   UNL A   1      42.962  30.327  29.188  1.00  0.00     0.074 A 
ATOM     40  C   UNL A   1      42.050  28.049  28.886  1.00  0.00     0.049 A 
ATOM     41  N   UNL A   1      44.162  30.182  28.686  1.00  0.00    -0.248 NA
ATOM     42  C   UNL A   1      42.674  31.688  29.665  1.00  0.00     0.031 C 
ATOM     43  C   UNL A   1      41.043  26.985  28.911  1.00  0.00     0.029 A 
ATOM     44  N   UNL A   1      43.152  27.445  28.333  1.00  0.00    -0.354 N 
ATOM     45  C   UNL A   1      44.766  31.430  28.776  1.00  0.00     0.074 A 
ATOM     46  C   UNL A   1      43.782  32.334  29.331  1.00  0.00     0.031 C 
ATOM     47  C   UNL A   1      41.580  25.857  28.419  1.00  0.00     0.029 A 
ATOM     48  C   UNL A   1      42.951  26.125  28.000  1.00  0.00     0.049 A 
ATOM     49  H   UNL A   1      44.006  27.914  28.188  1.00  0.00     0.167 HD
ATOM     50  C   UNL A   1      46.031  31.786  28.446  1.00  0.00     0.037 A 
ATOM     51  C   UNL A   1      43.773  25.234  27.412  1.00  0.00     0.037 A 
ATOM     52  C   UNL A   1      47.010  30.876  27.908  1.00  0.00     0.049 A 
ATOM     53  C   UNL A   1      45.168  25.657  27.039  1.00  0.00     0.074 A 
ATOM     54  C   UNL A   1      48.335  31.126  27.594  1.00  0.00     0.029 A 
ATOM     55  N   UNL A   1      46.773  29.544  27.598  1.00  0.00    -0.354 N 
ATOM     56  N   UNL A   1      45.743  26.827  27.192  1.00  0.00    -0.248 NA
ATOM     57  C   UNL A   1      46.029  24.640  26.419  1.00  0.00     0.031 C 
ATOM     58  C   UNL A   1      48.882  29.963  27.042  1.00  0.00     0.029 A 
ATOM     59  C   UNL A   1      47.919  28.969  27.071  1.00  0.00     0.049 A 
ATOM     60  H   UNL A   1      45.917  29.076  27.733  1.00  0.00     0.167 HD
ATOM     61  C   UNL A   1      47.042  26.677  26.716  1.00  0.00     0.074 A 
ATOM     62  C   UNL A   1      47.171  25.300  26.283  1.00  0.00     0.031 C 
ATOM     63  C   UNL A   1      48.038  27.595  26.649  1.00  0.00     0.037 A 
BRANCH  50  64
ATOM     64  C   UNL A   1      46.433  33.222  28.656  1.00  0.00     0.058 A 
ATOM     65  C   UNL A   1      46.992  33.664  29.866  1.00  0.00     0.135 A 
ATOM     66  C   UNL A   1      46.301  34.159  27.617  1.00  0.00     0.135 A 
ATOM     67  F   UNL A   1      47.130  32.816  30.897  1.00  0.00    -0.206 F 
ATOM     68  C   UNL A   1      47.377  34.989  30.050  1.00  0.00     0.059 A 
ATOM     69  C   UNL A   1      46.710  35.482  27.769  1.00  0.00     0.059 A 
ATOM     70  F   UNL A   1      45.775  33.793  26.439  1.00  0.00    -0.206 F 
ATOM     71  C   UNL A   1      47.232  35.891  28.994  1.00  0.00     0.060 A 
BRANCH  71  72
ATOM     72  S   UNL A   1      47.743  37.603  29.249  1.00  0.00     0.124 S 
ATOM     73  O   UNL A   1      46.974  38.292  28.218  1.00  0.00    -0.237 OA
ATOM     74  O   UNL A   1      47.323  37.852  30.624  1.00  0.00    -0.237 OA
ATOM     75  O   UNL A   1      49.186  37.564  29.034  1.00  0.00    -0.744 OA
ENDBRANCH  71  72
ENDBRANCH  50  64
BRANCH  51  76
ATOM     76  C   UNL A   1      43.300  23.846  27.151  1.00  0.00     0.058 A 
ATOM     77  C   UNL A   1      42.892  23.450  25.869  1.00  0.00     0.135 A 
ATOM     78  C   UNL A   1      43.259  22.886  28.175  1.00  0.00     0.135 A 
ATOM     79  F   UNL A   1      42.907  24.333  24.858  1.00  0.00    -0.206 F 
ATOM     80  C   UNL A   1      42.443  22.160  25.613  1.00  0.00     0.059 A 
ATOM     81  C   UNL A   1      42.842  21.581  27.937  1.00  0.00     0.059 A 
ATOM     82  F   UNL A   1      43.654  23.208  29.416  1.00  0.00    -0.206 F 
ATOM     83  C   UNL A   1      42.425  21.229  26.654  1.00  0.00     0.060 A 
BRANCH  83  84
ATOM     84  S   UNL A   1      41.882  19.544  26.299  1.00  0.00     0.124 S 
ATOM     85  O   UNL A   1      42.307  18.838  27.503  1.00  0.00    -0.237 OA
ATOM     86  O   UNL A   1      40.442  19.715  26.132  1.00  0.00    -0.237 OA
ATOM     87  O   UNL A   1      42.611  19.207  25.080  1.00  0.00    -0.744 OA
ENDBRANCH  83  84
ENDBRANCH  51  76
BRANCH  63  88
ATOM     88  C   UNL A   1      49.373  27.136  26.124  1.00  0.00     0.058 A 
ATOM     89  C   UNL A   1      50.357  26.601  26.967  1.00  0.00     0.135 A 
ATOM     90  C   UNL A   1      49.648  27.188  24.748  1.00  0.00     0.135 A 
ATOM     91  F   UNL A   1      50.151  26.534  28.293  1.00  0.00    -0.206 F 
ATOM     92  C   UNL A   1      51.577  26.154  26.468  1.00  0.00     0.059 A 
ATOM     93  C   UNL A   1      50.848  26.718  24.222  1.00  0.00     0.059 A 
ATOM     94  F   UNL A   1      48.736  27.682  23.893  1.00  0.00    -0.206 F 
ATOM     95  C   UNL A   1      51.812  26.213  25.093  1.00  0.00     0.060 A 
BRANCH  95  96
ATOM     96  S   UNL A   1      53.384  25.597  24.456  1.00  0.00     0.124 S 
ATOM     97  O   UNL A   1      53.361  24.209  24.908  1.00  0.00    -0.237 OA
ATOM     98  O   UNL A   1      53.239  25.797  23.018  1.00  0.00    -0.237 OA
ATOM     99  O   UNL A   1      54.374  26.451  25.106  1.00  0.00    -0.744 OA
ENDBRANCH  95  96
ENDBRANCH  63  88
ENDBRANCH  37  38
ENDBRANCH  29  32
ENDBRANCH  27  28
ENDBRANCH  26  27
ENDBRANCH   1  26
TORSDOF 19
ENDMDL
