MODEL 1
REMARK VINA RESULT:     -12.5      0.000      0.000
REMARK SMILES Cn1ccc(C(=O)NCc2ccc(C(=O)NCCCNC(=O)c3ccc(-c4c5nc(c(-c6c(F)cc(S(=O)(=O)[O-])cc6F)c6ccc([nH]6)c(-c6c(F)cc(S(=O)(=O)[O-])cc6F)c6nc(c(-c7c(F)cc(S(=O)(=O)[O-])cc7F)c7ccc4[nH]7)C=C6)C=C5)cc3)cc2)cc1=O
REMARK SMILES IDX 18 1 17 2 16 3 14 4 15 5 13 7 10 8 11 9 90 10 12 11 89 12
REMARK SMILES IDX 9 13 8 14 6 15 7 16 5 18 1 19 2 20 3 21 92 22 4 23 91 24
REMARK SMILES IDX 93 25 19 26 20 27 21 28 22 30 23 31 24 32 88 33 25 34 87 35
REMARK SMILES IDX 26 36 27 37 28 38 81 39 29 40 86 41 80 42 82 43 30 44 85 45
REMARK SMILES IDX 79 46 78 47 31 49 65 50 44 51 64 52 45 53 48 54 63 55 83 56
REMARK SMILES IDX 46 57 47 58 62 60 84 61 49 62 32 63 33 64 42 65 34 66 35 67
REMARK SMILES IDX 41 68 43 69 36 70 37 71 38 72 39 73 40 74 66 75 67 76 76 77
REMARK SMILES IDX 68 78 69 79 75 80 77 81 70 82 71 83 72 84 73 85 74 86 50 87
REMARK SMILES IDX 51 88 60 89 52 90 53 91 59 92 61 93 54 94 55 95 56 96 57 97
REMARK SMILES IDX 58 98
REMARK H PARENT 16 6 8 17 20 29 82 48 48 59
REMARK Flexibility Score: inf
ROOT
ATOM      1  C   UNL A   1      34.907  29.966  27.600  1.00  0.00     0.042 C 
ENDROOT
BRANCH   1   2
ATOM      2  C   UNL A   1      33.570  30.256  26.919  1.00  0.00     0.118 C 
BRANCH   2   3
ATOM      3  N   UNL A   1      32.483  29.490  27.508  1.00  0.00    -0.352 N 
ATOM      4  C   UNL A   1      31.925  28.281  27.171  1.00  0.00     0.251 C 
ATOM      5  O   UNL A   1      31.098  27.797  27.944  1.00  0.00    -0.269 OA
ATOM      6  H   UNL A   1      32.072  29.916  28.294  1.00  0.00     0.163 HD
BRANCH   4   7
ATOM      7  C   UNL A   1      32.287  27.523  25.940  1.00  0.00     0.039 A 
ATOM      8  C   UNL A   1      32.896  26.192  23.506  1.00  0.00    -0.029 A 
ATOM      9  C   UNL A   1      31.797  27.056  23.592  1.00  0.00     0.006 A 
ATOM     10  C   UNL A   1      33.705  26.043  24.643  1.00  0.00     0.006 A 
ATOM     11  C   UNL A   1      31.495  27.708  24.797  1.00  0.00     0.014 A 
ATOM     12  C   UNL A   1      33.412  26.709  25.836  1.00  0.00     0.014 A 
BRANCH   8  13
ATOM     13  C   UNL A   1      33.255  25.521  22.198  1.00  0.00     0.152 C 
BRANCH  13  14
ATOM     14  N   UNL A   1      32.704  24.182  22.118  1.00  0.00    -0.348 N 
ATOM     15  C   UNL A   1      33.132  22.955  22.499  1.00  0.00     0.251 C 
ATOM     16  O   UNL A   1      32.468  21.992  22.104  1.00  0.00    -0.269 OA
ATOM     17  H   UNL A   1      31.817  24.160  21.690  1.00  0.00     0.164 HD
BRANCH  15  18
ATOM     18  C   UNL A   1      34.271  22.721  23.443  1.00  0.00     0.046 A 
ATOM     19  C   UNL A   1      37.814  22.019  25.684  1.00  0.00     0.153 C 
ATOM     20  N   UNL A   1      36.587  22.291  24.951  1.00  0.00    -0.319 N 
ATOM     21  C   UNL A   1      36.684  22.877  23.705  1.00  0.00     0.089 A 
ATOM     22  C   UNL A   1      35.360  21.973  25.521  1.00  0.00     0.251 A 
ATOM     23  C   UNL A   1      35.596  23.093  22.963  1.00  0.00     0.032 A 
ATOM     24  C   UNL A   1      34.151  22.265  24.698  1.00  0.00     0.085 A 
ATOM     25  O   UNL A   1      35.211  21.461  26.628  1.00  0.00    -0.269 OA
ENDBRANCH  15  18
ENDBRANCH  13  14
ENDBRANCH   8  13
ENDBRANCH   4   7
ENDBRANCH   2   3
ENDBRANCH   1   2
BRANCH   1  26
ATOM     26  C   UNL A   1      35.546  31.185  28.255  1.00  0.00     0.118 C 
BRANCH  26  27
ATOM     27  N   UNL A   1      35.468  31.131  29.708  1.00  0.00    -0.352 N 
ATOM     28  C   UNL A   1      36.338  30.585  30.616  1.00  0.00     0.251 C 
ATOM     29  H   UNL A   1      34.667  31.551  30.098  1.00  0.00     0.163 HD
ATOM     30  O   UNL A   1      35.975  30.453  31.787  1.00  0.00    -0.269 OA
BRANCH  28  31
ATOM     31  C   UNL A   1      37.693  30.148  30.211  1.00  0.00     0.039 A 
ATOM     32  C   UNL A   1      38.057  30.237  28.863  1.00  0.00     0.014 A 
ATOM     33  C   UNL A   1      38.587  29.603  31.137  1.00  0.00     0.014 A 
ATOM     34  C   UNL A   1      39.327  29.824  28.454  1.00  0.00     0.010 A 
ATOM     35  C   UNL A   1      39.876  29.257  30.741  1.00  0.00     0.010 A 
ATOM     36  C   UNL A   1      40.257  29.351  29.393  1.00  0.00    -0.014 A 
BRANCH  36  37
ATOM     37  C   UNL A   1      41.625  28.939  28.988  1.00  0.00     0.031 A 
ATOM     38  C   UNL A   1      42.748  29.940  28.995  1.00  0.00     0.074 A 
ATOM     39  C   UNL A   1      41.841  27.683  28.552  1.00  0.00     0.049 A 
ATOM     40  N   UNL A   1      43.991  29.793  28.613  1.00  0.00    -0.248 NA
ATOM     41  C   UNL A   1      42.423  31.295  29.468  1.00  0.00     0.031 C 
ATOM     42  C   UNL A   1      40.827  26.632  28.467  1.00  0.00     0.029 A 
ATOM     43  N   UNL A   1      42.984  27.081  28.092  1.00  0.00    -0.354 N 
ATOM     44  C   UNL A   1      44.589  31.037  28.777  1.00  0.00     0.074 A 
ATOM     45  C   UNL A   1      43.559  31.939  29.248  1.00  0.00     0.031 C 
ATOM     46  C   UNL A   1      41.399  25.505  28.014  1.00  0.00     0.029 A 
ATOM     47  C   UNL A   1      42.809  25.764  27.739  1.00  0.00     0.049 A 
ATOM     48  H   UNL A   1      43.849  27.546  28.023  1.00  0.00     0.167 HD
ATOM     49  C   UNL A   1      45.881  31.392  28.572  1.00  0.00     0.037 A 
ATOM     50  C   UNL A   1      43.685  24.866  27.246  1.00  0.00     0.037 A 
ATOM     51  C   UNL A   1      46.904  30.483  28.125  1.00  0.00     0.049 A 
ATOM     52  C   UNL A   1      45.112  25.281  27.019  1.00  0.00     0.074 A 
ATOM     53  C   UNL A   1      48.255  30.724  27.949  1.00  0.00     0.029 A 
ATOM     54  N   UNL A   1      46.687  29.156  27.778  1.00  0.00    -0.354 N 
ATOM     55  N   UNL A   1      45.675  26.446  27.234  1.00  0.00    -0.248 NA
ATOM     56  C   UNL A   1      46.022  24.260  26.484  1.00  0.00     0.031 C 
ATOM     57  C   UNL A   1      48.846  29.555  27.454  1.00  0.00     0.029 A 
ATOM     58  C   UNL A   1      47.873  28.572  27.365  1.00  0.00     0.049 A 
ATOM     59  H   UNL A   1      45.817  28.697  27.818  1.00  0.00     0.167 HD
ATOM     60  C   UNL A   1      47.013  26.292  26.889  1.00  0.00     0.074 A 
ATOM     61  C   UNL A   1      47.173  24.919  26.452  1.00  0.00     0.031 C 
ATOM     62  C   UNL A   1      48.016  27.203  26.933  1.00  0.00     0.037 A 
BRANCH  49  63
ATOM     63  C   UNL A   1      46.245  32.832  28.816  1.00  0.00     0.058 A 
ATOM     64  C   UNL A   1      46.651  33.290  30.081  1.00  0.00     0.135 A 
ATOM     65  C   UNL A   1      46.170  33.773  27.776  1.00  0.00     0.135 A 
ATOM     66  F   UNL A   1      46.730  32.436  31.115  1.00  0.00    -0.206 F 
ATOM     67  C   UNL A   1      46.912  34.635  30.320  1.00  0.00     0.059 A 
ATOM     68  C   UNL A   1      46.457  35.119  27.986  1.00  0.00     0.059 A 
ATOM     69  F   UNL A   1      45.796  33.392  26.545  1.00  0.00    -0.206 F 
ATOM     70  C   UNL A   1      46.801  35.544  29.268  1.00  0.00     0.060 A 
BRANCH  70  71
ATOM     71  S   UNL A   1      47.092  37.295  29.602  1.00  0.00     0.124 S 
ATOM     72  O   UNL A   1      45.752  37.849  29.429  1.00  0.00    -0.237 OA
ATOM     73  O   UNL A   1      47.596  37.274  30.971  1.00  0.00    -0.237 OA
ATOM     74  O   UNL A   1      48.066  37.677  28.585  1.00  0.00    -0.744 OA
ENDBRANCH  70  71
ENDBRANCH  49  63
BRANCH  50  75
ATOM     75  C   UNL A   1      43.239  23.472  26.989  1.00  0.00     0.058 A 
ATOM     76  C   UNL A   1      42.955  23.045  25.685  1.00  0.00     0.135 A 
ATOM     77  C   UNL A   1      43.142  22.529  28.023  1.00  0.00     0.135 A 
ATOM     78  F   UNL A   1      43.027  23.914  24.664  1.00  0.00    -0.206 F 
ATOM     79  C   UNL A   1      42.593  21.730  25.410  1.00  0.00     0.059 A 
ATOM     80  C   UNL A   1      42.803  21.203  27.772  1.00  0.00     0.059 A 
ATOM     81  F   UNL A   1      43.419  22.886  29.287  1.00  0.00    -0.206 F 
ATOM     82  C   UNL A   1      42.529  20.813  26.461  1.00  0.00     0.060 A 
BRANCH  82  83
ATOM     83  S   UNL A   1      42.143  19.091  26.081  1.00  0.00     0.124 S 
ATOM     84  O   UNL A   1      42.989  18.850  24.918  1.00  0.00    -0.237 OA
ATOM     85  O   UNL A   1      42.536  18.410  27.310  1.00  0.00    -0.237 OA
ATOM     86  O   UNL A   1      40.706  19.119  25.821  1.00  0.00    -0.744 OA
ENDBRANCH  82  83
ENDBRANCH  50  75
BRANCH  62  87
ATOM     87  C   UNL A   1      49.389  26.738  26.530  1.00  0.00     0.058 A 
ATOM     88  C   UNL A   1      50.268  26.147  27.449  1.00  0.00     0.135 A 
ATOM     89  C   UNL A   1      49.808  26.842  25.194  1.00  0.00     0.135 A 
ATOM     90  F   UNL A   1      49.919  26.033  28.741  1.00  0.00    -0.206 F 
ATOM     91  C   UNL A   1      51.524  25.690  27.062  1.00  0.00     0.059 A 
ATOM     92  C   UNL A   1      51.048  26.368  24.778  1.00  0.00     0.059 A 
ATOM     93  F   UNL A   1      49.001  27.392  24.272  1.00  0.00    -0.206 F 
ATOM     94  C   UNL A   1      51.904  25.803  25.723  1.00  0.00     0.060 A 
BRANCH  94  95
ATOM     95  S   UNL A   1      53.520  25.171  25.225  1.00  0.00     0.124 S 
ATOM     96  O   UNL A   1      54.381  25.703  26.275  1.00  0.00    -0.237 OA
ATOM     97  O   UNL A   1      53.312  23.726  25.247  1.00  0.00    -0.237 OA
ATOM     98  O   UNL A   1      53.716  25.748  23.898  1.00  0.00    -0.744 OA
ENDBRANCH  94  95
ENDBRANCH  62  87
ENDBRANCH  36  37
ENDBRANCH  28  31
ENDBRANCH  26  27
ENDBRANCH   1  26
TORSDOF 16
ENDMDL
MODEL 2
REMARK VINA RESULT:     -12.4      4.139      6.923
REMARK SMILES Cn1ccc(C(=O)NCc2ccc(C(=O)NCCCNC(=O)c3ccc(-c4c5nc(c(-c6c(F)cc(S(=O)(=O)[O-])cc6F)c6ccc([nH]6)c(-c6c(F)cc(S(=O)(=O)[O-])cc6F)c6nc(c(-c7c(F)cc(S(=O)(=O)[O-])cc7F)c7ccc4[nH]7)C=C6)C=C5)cc3)cc2)cc1=O
REMARK SMILES IDX 18 1 17 2 16 3 14 4 15 5 13 7 10 8 11 9 90 10 12 11 89 12
REMARK SMILES IDX 9 13 8 14 6 15 7 16 5 18 1 19 2 20 3 21 92 22 4 23 91 24
REMARK SMILES IDX 93 25 19 26 20 27 21 28 22 30 23 31 24 32 88 33 25 34 87 35
REMARK SMILES IDX 26 36 27 37 28 38 81 39 29 40 86 41 80 42 82 43 30 44 85 45
REMARK SMILES IDX 79 46 78 47 31 49 65 50 44 51 64 52 45 53 48 54 63 55 83 56
REMARK SMILES IDX 46 57 47 58 62 60 84 61 49 62 32 63 33 64 42 65 34 66 35 67
REMARK SMILES IDX 41 68 43 69 36 70 37 71 38 72 39 73 40 74 66 75 67 76 76 77
REMARK SMILES IDX 68 78 69 79 75 80 77 81 70 82 71 83 72 84 73 85 74 86 50 87
REMARK SMILES IDX 51 88 60 89 52 90 53 91 59 92 61 93 54 94 55 95 56 96 57 97
REMARK SMILES IDX 58 98
REMARK H PARENT 16 6 8 17 20 29 82 48 48 59
REMARK Flexibility Score: inf
ROOT
ATOM      1  C   UNL A   1      34.649  32.539  30.434  1.00  0.00     0.042 C 
ENDROOT
BRANCH   1   2
ATOM      2  C   UNL A   1      36.028  32.656  31.082  1.00  0.00     0.118 C 
BRANCH   2   3
ATOM      3  N   UNL A   1      35.937  32.873  32.517  1.00  0.00    -0.352 N 
ATOM      4  C   UNL A   1      36.648  32.355  33.571  1.00  0.00     0.251 C 
ATOM      5  O   UNL A   1      36.448  32.834  34.688  1.00  0.00    -0.269 OA
ATOM      6  H   UNL A   1      35.235  33.511  32.782  1.00  0.00     0.163 HD
BRANCH   4   7
ATOM      7  C   UNL A   1      37.660  31.271  33.425  1.00  0.00     0.039 A 
ATOM      8  C   UNL A   1      39.673  29.273  33.273  1.00  0.00    -0.029 A 
ATOM      9  C   UNL A   1      39.949  30.522  33.842  1.00  0.00     0.006 A 
ATOM     10  C   UNL A   1      38.366  29.029  32.825  1.00  0.00     0.006 A 
ATOM     11  C   UNL A   1      38.954  31.510  33.911  1.00  0.00     0.014 A 
ATOM     12  C   UNL A   1      37.373  30.008  32.913  1.00  0.00     0.014 A 
BRANCH   8  13
ATOM     13  C   UNL A   1      40.726  28.187  33.236  1.00  0.00     0.152 C 
BRANCH  13  14
ATOM     14  N   UNL A   1      42.042  28.711  33.549  1.00  0.00    -0.348 N 
ATOM     15  C   UNL A   1      43.180  28.179  34.055  1.00  0.00     0.251 C 
ATOM     16  O   UNL A   1      44.073  28.975  34.361  1.00  0.00    -0.269 OA
ATOM     17  H   UNL A   1      42.128  29.671  33.348  1.00  0.00     0.164 HD
BRANCH  15  18
ATOM     18  C   UNL A   1      43.446  26.708  34.151  1.00  0.00     0.046 A 
ATOM     19  C   UNL A   1      44.217  22.607  34.958  1.00  0.00     0.153 C 
ATOM     20  N   UNL A   1      43.923  23.997  34.647  1.00  0.00    -0.319 N 
ATOM     21  C   UNL A   1      43.280  24.761  35.599  1.00  0.00     0.089 A 
ATOM     22  C   UNL A   1      44.277  24.514  33.405  1.00  0.00     0.251 A 
ATOM     23  C   UNL A   1      43.041  26.058  35.391  1.00  0.00     0.032 A 
ATOM     24  C   UNL A   1      43.960  25.951  33.170  1.00  0.00     0.085 A 
ATOM     25  O   UNL A   1      44.840  23.881  32.515  1.00  0.00    -0.269 OA
ENDBRANCH  15  18
ENDBRANCH  13  14
ENDBRANCH   8  13
ENDBRANCH   4   7
ENDBRANCH   2   3
ENDBRANCH   1   2
BRANCH   1  26
ATOM     26  C   UNL A   1      34.664  32.692  28.917  1.00  0.00     0.118 C 
BRANCH  26  27
ATOM     27  N   UNL A   1      34.015  31.574  28.246  1.00  0.00    -0.352 N 
ATOM     28  C   UNL A   1      34.548  30.401  27.779  1.00  0.00     0.251 C 
ATOM     29  H   UNL A   1      33.046  31.676  28.109  1.00  0.00     0.163 HD
ATOM     30  O   UNL A   1      33.863  29.684  27.045  1.00  0.00    -0.269 OA
BRANCH  28  31
ATOM     31  C   UNL A   1      35.926  29.991  28.132  1.00  0.00     0.039 A 
ATOM     32  C   UNL A   1      36.949  30.191  27.199  1.00  0.00     0.014 A 
ATOM     33  C   UNL A   1      36.207  29.363  29.348  1.00  0.00     0.014 A 
ATOM     34  C   UNL A   1      38.257  29.805  27.505  1.00  0.00     0.010 A 
ATOM     35  C   UNL A   1      37.521  29.042  29.680  1.00  0.00     0.010 A 
ATOM     36  C   UNL A   1      38.559  29.248  28.758  1.00  0.00    -0.014 A 
BRANCH  36  37
ATOM     37  C   UNL A   1      39.946  28.862  29.119  1.00  0.00     0.031 A 
ATOM     38  C   UNL A   1      40.836  29.835  29.844  1.00  0.00     0.074 A 
ATOM     39  C   UNL A   1      40.427  27.663  28.737  1.00  0.00     0.049 A 
ATOM     40  N   UNL A   1      42.093  29.712  30.185  1.00  0.00    -0.248 NA
ATOM     41  C   UNL A   1      40.240  31.130  30.209  1.00  0.00     0.031 C 
ATOM     42  C   UNL A   1      39.673  26.648  28.000  1.00  0.00     0.029 A 
ATOM     43  N   UNL A   1      41.665  27.099  28.909  1.00  0.00    -0.354 N 
ATOM     44  C   UNL A   1      42.445  30.917  30.783  1.00  0.00     0.074 A 
ATOM     45  C   UNL A   1      41.281  31.775  30.713  1.00  0.00     0.031 C 
ATOM     46  C   UNL A   1      40.454  25.572  27.811  1.00  0.00     0.029 A 
ATOM     47  C   UNL A   1      41.774  25.836  28.376  1.00  0.00     0.049 A 
ATOM     48  H   UNL A   1      42.405  27.554  29.372  1.00  0.00     0.167 HD
ATOM     49  C   UNL A   1      43.623  31.270  31.352  1.00  0.00     0.037 A 
ATOM     50  C   UNL A   1      42.820  24.988  28.344  1.00  0.00     0.037 A 
ATOM     51  C   UNL A   1      44.768  30.403  31.437  1.00  0.00     0.049 A 
ATOM     52  C   UNL A   1      44.120  25.402  28.975  1.00  0.00     0.074 A 
ATOM     53  C   UNL A   1      45.986  30.639  32.051  1.00  0.00     0.029 A 
ATOM     54  N   UNL A   1      44.839  29.131  30.886  1.00  0.00    -0.354 N 
ATOM     55  N   UNL A   1      44.419  26.522  29.588  1.00  0.00    -0.248 NA
ATOM     56  C   UNL A   1      45.224  24.435  28.913  1.00  0.00     0.031 C 
ATOM     57  C   UNL A   1      46.808  29.526  31.833  1.00  0.00     0.029 A 
ATOM     58  C   UNL A   1      46.088  28.578  31.123  1.00  0.00     0.049 A 
ATOM     59  H   UNL A   1      44.110  28.686  30.397  1.00  0.00     0.167 HD
ATOM     60  C   UNL A   1      45.736  26.386  30.010  1.00  0.00     0.074 A 
ATOM     61  C   UNL A   1      46.175  25.072  29.584  1.00  0.00     0.031 C 
ATOM     62  C   UNL A   1      46.509  27.267  30.692  1.00  0.00     0.037 A 
BRANCH  49  63
ATOM     63  C   UNL A   1      43.725  32.665  31.910  1.00  0.00     0.058 A 
ATOM     64  C   UNL A   1      43.394  32.955  33.244  1.00  0.00     0.135 A 
ATOM     65  C   UNL A   1      44.143  33.730  31.096  1.00  0.00     0.135 A 
ATOM     66  F   UNL A   1      42.978  31.978  34.066  1.00  0.00    -0.206 F 
ATOM     67  C   UNL A   1      43.416  34.257  33.734  1.00  0.00     0.059 A 
ATOM     68  C   UNL A   1      44.202  35.037  31.574  1.00  0.00     0.059 A 
ATOM     69  F   UNL A   1      44.479  33.512  29.815  1.00  0.00    -0.206 F 
ATOM     70  C   UNL A   1      43.811  35.293  32.887  1.00  0.00     0.060 A 
BRANCH  70  71
ATOM     71  S   UNL A   1      43.786  36.985  33.518  1.00  0.00     0.124 S 
ATOM     72  O   UNL A   1      44.962  36.988  34.383  1.00  0.00    -0.237 OA
ATOM     73  O   UNL A   1      43.896  37.778  32.298  1.00  0.00    -0.237 OA
ATOM     74  O   UNL A   1      42.501  37.072  34.204  1.00  0.00    -0.744 OA
ENDBRANCH  70  71
ENDBRANCH  49  63
BRANCH  50  75
ATOM     75  C   UNL A   1      42.654  23.643  27.736  1.00  0.00     0.058 A 
ATOM     76  C   UNL A   1      42.874  23.449  26.365  1.00  0.00     0.135 A 
ATOM     77  C   UNL A   1      42.330  22.520  28.513  1.00  0.00     0.135 A 
ATOM     78  F   UNL A   1      43.179  24.494  25.582  1.00  0.00    -0.206 F 
ATOM     79  C   UNL A   1      42.783  22.189  25.783  1.00  0.00     0.059 A 
ATOM     80  C   UNL A   1      42.254  21.246  27.958  1.00  0.00     0.059 A 
ATOM     81  F   UNL A   1      42.126  22.651  29.833  1.00  0.00    -0.206 F 
ATOM     82  C   UNL A   1      42.480  21.091  26.590  1.00  0.00     0.060 A 
BRANCH  82  83
ATOM     83  S   UNL A   1      42.451  19.449  25.838  1.00  0.00     0.124 S 
ATOM     84  O   UNL A   1      41.024  19.256  25.610  1.00  0.00    -0.237 OA
ATOM     85  O   UNL A   1      43.269  19.644  24.646  1.00  0.00    -0.237 OA
ATOM     86  O   UNL A   1      43.047  18.600  26.866  1.00  0.00    -0.744 OA
ENDBRANCH  82  83
ENDBRANCH  50  75
BRANCH  62  87
ATOM     87  C   UNL A   1      47.903  26.830  31.051  1.00  0.00     0.058 A 
ATOM     88  C   UNL A   1      48.194  26.239  32.290  1.00  0.00     0.135 A 
ATOM     89  C   UNL A   1      48.948  26.958  30.123  1.00  0.00     0.135 A 
ATOM     90  F   UNL A   1      47.232  26.100  33.216  1.00  0.00    -0.206 F 
ATOM     91  C   UNL A   1      49.479  25.805  32.603  1.00  0.00     0.059 A 
ATOM     92  C   UNL A   1      50.234  26.509  30.404  1.00  0.00     0.059 A 
ATOM     93  F   UNL A   1      48.720  27.510  28.920  1.00  0.00    -0.206 F 
ATOM     94  C   UNL A   1      50.492  25.944  31.652  1.00  0.00     0.060 A 
BRANCH  94  95
ATOM     95  S   UNL A   1      52.147  25.343  32.055  1.00  0.00     0.124 S 
ATOM     96  O   UNL A   1      51.926  23.903  32.130  1.00  0.00    -0.237 OA
ATOM     97  O   UNL A   1      52.935  25.805  30.916  1.00  0.00    -0.237 OA
ATOM     98  O   UNL A   1      52.446  26.001  33.324  1.00  0.00    -0.744 OA
ENDBRANCH  94  95
ENDBRANCH  62  87
ENDBRANCH  36  37
ENDBRANCH  28  31
ENDBRANCH  26  27
ENDBRANCH   1  26
TORSDOF 16
ENDMDL
MODEL 3
REMARK VINA RESULT:     -12.2      1.132      1.997
REMARK SMILES Cn1ccc(C(=O)NCc2ccc(C(=O)NCCCNC(=O)c3ccc(-c4c5nc(c(-c6c(F)cc(S(=O)(=O)[O-])cc6F)c6ccc([nH]6)c(-c6c(F)cc(S(=O)(=O)[O-])cc6F)c6nc(c(-c7c(F)cc(S(=O)(=O)[O-])cc7F)c7ccc4[nH]7)C=C6)C=C5)cc3)cc2)cc1=O
REMARK SMILES IDX 18 1 17 2 16 3 14 4 15 5 13 7 10 8 11 9 90 10 12 11 89 12
REMARK SMILES IDX 9 13 8 14 6 15 7 16 5 18 1 19 2 20 3 21 92 22 4 23 91 24
REMARK SMILES IDX 93 25 19 26 20 27 21 28 22 30 23 31 24 32 88 33 25 34 87 35
REMARK SMILES IDX 26 36 27 37 28 38 81 39 29 40 86 41 80 42 82 43 30 44 85 45
REMARK SMILES IDX 79 46 78 47 31 49 65 50 44 51 64 52 45 53 48 54 63 55 83 56
REMARK SMILES IDX 46 57 47 58 62 60 84 61 49 62 32 63 33 64 42 65 34 66 35 67
REMARK SMILES IDX 41 68 43 69 36 70 37 71 38 72 39 73 40 74 66 75 67 76 76 77
REMARK SMILES IDX 68 78 69 79 75 80 77 81 70 82 71 83 72 84 73 85 74 86 50 87
REMARK SMILES IDX 51 88 60 89 52 90 53 91 59 92 61 93 54 94 55 95 56 96 57 97
REMARK SMILES IDX 58 98
REMARK H PARENT 16 6 8 17 20 29 82 48 48 59
REMARK Flexibility Score: inf
ROOT
ATOM      1  C   UNL A   1      34.114  29.275  27.453  1.00  0.00     0.042 C 
ENDROOT
BRANCH   1   2
ATOM      2  C   UNL A   1      33.026  29.930  26.604  1.00  0.00     0.118 C 
BRANCH   2   3
ATOM      3  N   UNL A   1      33.322  29.849  25.183  1.00  0.00    -0.352 N 
ATOM      4  C   UNL A   1      33.170  28.835  24.269  1.00  0.00     0.251 C 
ATOM      5  O   UNL A   1      33.374  29.096  23.083  1.00  0.00    -0.269 OA
ATOM      6  H   UNL A   1      33.703  30.675  24.805  1.00  0.00     0.163 HD
BRANCH   4   7
ATOM      7  C   UNL A   1      32.747  27.454  24.638  1.00  0.00     0.039 A 
ATOM      8  C   UNL A   1      32.074  24.814  25.439  1.00  0.00    -0.029 A 
ATOM      9  C   UNL A   1      33.390  25.278  25.546  1.00  0.00     0.006 A 
ATOM     10  C   UNL A   1      31.099  25.706  24.969  1.00  0.00     0.006 A 
ATOM     11  C   UNL A   1      33.722  26.581  25.144  1.00  0.00     0.014 A 
ATOM     12  C   UNL A   1      31.429  27.009  24.588  1.00  0.00     0.014 A 
BRANCH   8  13
ATOM     13  C   UNL A   1      31.700  23.427  25.913  1.00  0.00     0.152 C 
BRANCH  13  14
ATOM     14  N   UNL A   1      31.548  22.507  24.802  1.00  0.00    -0.348 N 
ATOM     15  C   UNL A   1      32.402  21.939  23.917  1.00  0.00     0.251 C 
ATOM     16  O   UNL A   1      31.892  21.331  22.971  1.00  0.00    -0.269 OA
ATOM     17  H   UNL A   1      30.613  22.234  24.658  1.00  0.00     0.164 HD
BRANCH  15  18
ATOM     18  C   UNL A   1      33.890  21.913  24.087  1.00  0.00     0.046 A 
ATOM     19  C   UNL A   1      38.018  21.648  25.063  1.00  0.00     0.153 C 
ATOM     20  N   UNL A   1      36.616  21.724  24.684  1.00  0.00    -0.319 N 
ATOM     21  C   UNL A   1      35.722  20.877  25.308  1.00  0.00     0.089 A 
ATOM     22  C   UNL A   1      36.215  22.624  23.703  1.00  0.00     0.251 A 
ATOM     23  C   UNL A   1      34.414  20.947  25.044  1.00  0.00     0.032 A 
ATOM     24  C   UNL A   1      34.759  22.654  23.386  1.00  0.00     0.085 A 
ATOM     25  O   UNL A   1      36.966  23.392  23.107  1.00  0.00    -0.269 OA
ENDBRANCH  15  18
ENDBRANCH  13  14
ENDBRANCH   8  13
ENDBRANCH   4   7
ENDBRANCH   2   3
ENDBRANCH   1   2
BRANCH   1  26
ATOM     26  C   UNL A   1      35.291  30.193  27.766  1.00  0.00     0.118 C 
BRANCH  26  27
ATOM     27  N   UNL A   1      35.309  30.604  29.163  1.00  0.00    -0.352 N 
ATOM     28  C   UNL A   1      36.298  30.476  30.104  1.00  0.00     0.251 C 
ATOM     29  H   UNL A   1      34.486  31.041  29.479  1.00  0.00     0.163 HD
ATOM     30  O   UNL A   1      36.027  30.692  31.288  1.00  0.00    -0.269 OA
BRANCH  28  31
ATOM     31  C   UNL A   1      37.671  30.076  29.724  1.00  0.00     0.039 A 
ATOM     32  C   UNL A   1      38.565  29.690  30.729  1.00  0.00     0.014 A 
ATOM     33  C   UNL A   1      38.101  30.129  28.395  1.00  0.00     0.014 A 
ATOM     34  C   UNL A   1      39.869  29.315  30.397  1.00  0.00     0.010 A 
ATOM     35  C   UNL A   1      39.379  29.689  28.057  1.00  0.00     0.010 A 
ATOM     36  C   UNL A   1      40.281  29.290  29.055  1.00  0.00    -0.014 A 
BRANCH  36  37
ATOM     37  C   UNL A   1      41.651  28.862  28.674  1.00  0.00     0.031 A 
ATOM     38  C   UNL A   1      42.775  29.862  28.649  1.00  0.00     0.074 A 
ATOM     39  C   UNL A   1      41.870  27.590  28.289  1.00  0.00     0.049 A 
ATOM     40  N   UNL A   1      44.020  29.700  28.281  1.00  0.00    -0.248 NA
ATOM     41  C   UNL A   1      42.448  31.235  29.067  1.00  0.00     0.031 C 
ATOM     42  C   UNL A   1      40.855  26.537  28.239  1.00  0.00     0.029 A 
ATOM     43  N   UNL A   1      43.015  26.970  27.859  1.00  0.00    -0.354 N 
ATOM     44  C   UNL A   1      44.618  30.949  28.400  1.00  0.00     0.074 A 
ATOM     45  C   UNL A   1      43.585  31.869  28.829  1.00  0.00     0.031 C 
ATOM     46  C   UNL A   1      41.429  25.393  27.833  1.00  0.00     0.029 A 
ATOM     47  C   UNL A   1      42.841  25.640  27.557  1.00  0.00     0.049 A 
ATOM     48  H   UNL A   1      43.881  27.432  27.777  1.00  0.00     0.167 HD
ATOM     49  C   UNL A   1      45.911  31.295  28.189  1.00  0.00     0.037 A 
ATOM     50  C   UNL A   1      43.719  24.724  27.105  1.00  0.00     0.037 A 
ATOM     51  C   UNL A   1      46.936  30.369  27.784  1.00  0.00     0.049 A 
ATOM     52  C   UNL A   1      45.148  25.129  26.870  1.00  0.00     0.074 A 
ATOM     53  C   UNL A   1      48.289  30.603  27.607  1.00  0.00     0.029 A 
ATOM     54  N   UNL A   1      46.720  29.030  27.488  1.00  0.00    -0.354 N 
ATOM     55  N   UNL A   1      45.711  26.301  27.043  1.00  0.00    -0.248 NA
ATOM     56  C   UNL A   1      46.061  24.088  26.381  1.00  0.00     0.031 C 
ATOM     57  C   UNL A   1      48.882  29.415  27.161  1.00  0.00     0.029 A 
ATOM     58  C   UNL A   1      47.909  28.430  27.105  1.00  0.00     0.049 A 
ATOM     59  H   UNL A   1      45.850  28.574  27.541  1.00  0.00     0.167 HD
ATOM     60  C   UNL A   1      47.050  26.133  26.712  1.00  0.00     0.074 A 
ATOM     61  C   UNL A   1      47.212  24.744  26.330  1.00  0.00     0.031 C 
ATOM     62  C   UNL A   1      48.054  27.045  26.728  1.00  0.00     0.037 A 
BRANCH  49  63
ATOM     63  C   UNL A   1      46.275  32.744  28.379  1.00  0.00     0.058 A 
ATOM     64  C   UNL A   1      46.104  33.690  27.354  1.00  0.00     0.135 A 
ATOM     65  C   UNL A   1      46.818  33.190  29.594  1.00  0.00     0.135 A 
ATOM     66  F   UNL A   1      45.599  33.317  26.167  1.00  0.00    -0.206 F 
ATOM     67  C   UNL A   1      46.513  35.011  27.507  1.00  0.00     0.059 A 
ATOM     68  C   UNL A   1      47.205  34.515  29.779  1.00  0.00     0.059 A 
ATOM     69  F   UNL A   1      46.997  32.333  30.611  1.00  0.00    -0.206 F 
ATOM     70  C   UNL A   1      47.074  35.411  28.720  1.00  0.00     0.060 A 
BRANCH  70  71
ATOM     71  S   UNL A   1      47.647  37.115  28.889  1.00  0.00     0.124 S 
ATOM     72  O   UNL A   1      47.550  37.311  30.333  1.00  0.00    -0.237 OA
ATOM     73  O   UNL A   1      49.002  37.046  28.350  1.00  0.00    -0.237 OA
ATOM     74  O   UNL A   1      46.694  37.875  28.086  1.00  0.00    -0.744 OA
ENDBRANCH  70  71
ENDBRANCH  49  63
BRANCH  50  75
ATOM     75  C   UNL A   1      43.274  23.321  26.899  1.00  0.00     0.058 A 
ATOM     76  C   UNL A   1      43.109  22.809  25.605  1.00  0.00     0.135 A 
ATOM     77  C   UNL A   1      43.060  22.452  27.980  1.00  0.00     0.135 A 
ATOM     78  F   UNL A   1      43.295  23.605  24.541  1.00  0.00    -0.206 F 
ATOM     79  C   UNL A   1      42.751  21.483  25.386  1.00  0.00     0.059 A 
ATOM     80  C   UNL A   1      42.722  21.116  27.787  1.00  0.00     0.059 A 
ATOM     81  F   UNL A   1      43.222  22.891  29.238  1.00  0.00    -0.206 F 
ATOM     82  C   UNL A   1      42.568  20.641  26.484  1.00  0.00     0.060 A 
BRANCH  82  83
ATOM     83  S   UNL A   1      42.189  18.901  26.184  1.00  0.00     0.124 S 
ATOM     84  O   UNL A   1      40.794  18.972  25.766  1.00  0.00    -0.237 OA
ATOM     85  O   UNL A   1      43.152  18.553  25.145  1.00  0.00    -0.237 OA
ATOM     86  O   UNL A   1      42.428  18.278  27.483  1.00  0.00    -0.744 OA
ENDBRANCH  82  83
ENDBRANCH  50  75
BRANCH  62  87
ATOM     87  C   UNL A   1      49.428  26.565  26.351  1.00  0.00     0.058 A 
ATOM     88  C   UNL A   1      49.967  26.795  25.076  1.00  0.00     0.135 A 
ATOM     89  C   UNL A   1      50.234  25.909  27.295  1.00  0.00     0.135 A 
ATOM     90  F   UNL A   1      49.234  27.410  24.133  1.00  0.00    -0.206 F 
ATOM     91  C   UNL A   1      51.252  26.377  24.744  1.00  0.00     0.059 A 
ATOM     92  C   UNL A   1      51.532  25.505  26.994  1.00  0.00     0.059 A 
ATOM     93  F   UNL A   1      49.770  25.671  28.533  1.00  0.00    -0.206 F 
ATOM     94  C   UNL A   1      52.027  25.734  25.712  1.00  0.00     0.060 A 
BRANCH  94  95
ATOM     95  S   UNL A   1      53.707  25.231  25.281  1.00  0.00     0.124 S 
ATOM     96  O   UNL A   1      54.487  25.889  26.323  1.00  0.00    -0.237 OA
ATOM     97  O   UNL A   1      53.632  23.775  25.371  1.00  0.00    -0.237 OA
ATOM     98  O   UNL A   1      53.884  25.760  23.932  1.00  0.00    -0.744 OA
ENDBRANCH  94  95
ENDBRANCH  62  87
ENDBRANCH  36  37
ENDBRANCH  28  31
ENDBRANCH  26  27
ENDBRANCH   1  26
TORSDOF 16
ENDMDL
