MODEL 1
REMARK VINA RESULT:     -12.5      0.000      0.000
REMARK SMILES COc1cc(OC)cc(-c2cc3nc(C)c(CCC(=O)NCCCNC(=O)c4ccc(-c5c6nc(c(-c7c(F)cc(S(=O)(=O)[O-])cc7F)c7ccc([nH]7)c(-c7c(F)cc(S(=O)(=O)[O-])cc7F)c7nc(c(-c8c(F)cc(S(=O)(=O)[O-])cc8F)c8ccc5[nH]8)C=C7)C=C6)cc4)c(C)n3n2)c1
REMARK SMILES IDX 22 1 21 2 19 3 20 4 18 6 17 7 16 8 10 9 11 10 97 11 12 12
REMARK SMILES IDX 96 13 13 14 94 15 14 16 95 17 15 18 9 19 3 20 4 21 98 22
REMARK SMILES IDX 5 23 8 24 2 25 1 26 6 27 7 28 23 29 24 30 25 31 26 32 27 34
REMARK SMILES IDX 28 35 29 36 93 37 30 38 92 39 31 40 32 41 33 42 86 43 34 44
REMARK SMILES IDX 91 45 85 46 87 47 35 48 90 49 84 50 83 51 36 53 70 54 49 55
REMARK SMILES IDX 69 56 50 57 53 58 68 59 88 60 51 61 52 62 67 64 89 65 54 66
REMARK SMILES IDX 37 67 38 68 47 69 39 70 40 71 46 72 48 73 41 74 42 75 43 76
REMARK SMILES IDX 44 77 45 78 71 79 72 80 81 81 73 82 74 83 80 84 82 85 75 86
REMARK SMILES IDX 76 87 77 88 78 89 79 90 55 91 56 92 65 93 57 94 58 95 64 96
REMARK SMILES IDX 66 97 59 98 60 99 61 100 62 101 63 102
REMARK H PARENT 21 5 25 33 87 52 53 63
REMARK Flexibility Score: inf
ROOT
ATOM      1  C   UNL A   1      38.616  20.302  25.454  1.00  0.00     0.117 C 
ENDROOT
BRANCH   1   2
ATOM      2  N   UNL A   1      37.897  21.510  25.831  1.00  0.00    -0.356 N 
ATOM      3  C   UNL A   1      36.680  21.975  25.432  1.00  0.00     0.220 C 
ATOM      4  O   UNL A   1      36.414  23.158  25.638  1.00  0.00    -0.275 OA
ATOM      5  H   UNL A   1      38.366  22.085  26.479  1.00  0.00     0.163 HD
BRANCH   3   6
ATOM      6  C   UNL A   1      35.658  21.040  24.813  1.00  0.00     0.105 C 
BRANCH   6   7
ATOM      7  C   UNL A   1      34.393  20.850  25.675  1.00  0.00     0.049 C 
BRANCH   7   8
ATOM      8  C   UNL A   1      33.242  21.721  25.216  1.00  0.00    -0.005 A 
ATOM      9  C   UNL A   1      31.280  25.606  24.167  1.00  0.00     0.095 A 
ATOM     10  C   UNL A   1      31.110  24.590  23.200  1.00  0.00     0.080 A 
ATOM     11  N   UNL A   1      31.769  25.100  25.311  1.00  0.00    -0.166 NA
ATOM     12  C   UNL A   1      31.602  23.441  23.770  1.00  0.00     0.156 A 
ATOM     13  N   UNL A   1      32.061  23.795  25.042  1.00  0.00    -0.219 N 
ATOM     14  N   UNL A   1      31.725  22.178  23.278  1.00  0.00    -0.234 NA
ATOM     15  C   UNL A   1      32.870  22.897  25.785  1.00  0.00     0.046 A 
ATOM     16  C   UNL A   1      32.479  21.359  23.953  1.00  0.00     0.045 A 
ATOM     17  C   UNL A   1      33.416  23.377  27.102  1.00  0.00     0.067 C 
ATOM     18  C   UNL A   1      32.499  19.928  23.452  1.00  0.00     0.067 C 
BRANCH   9  19
ATOM     19  C   UNL A   1      30.914  27.018  24.022  1.00  0.00     0.009 A 
ATOM     20  C   UNL A   1      29.551  28.790  23.072  1.00  0.00     0.123 A 
ATOM     21  C   UNL A   1      30.195  29.719  23.886  1.00  0.00     0.092 A 
ATOM     22  C   UNL A   1      29.897  27.436  23.140  1.00  0.00     0.057 A 
ATOM     23  C   UNL A   1      31.195  29.315  24.772  1.00  0.00     0.123 A 
ATOM     24  C   UNL A   1      31.552  27.967  24.837  1.00  0.00     0.057 A 
BRANCH  20  25
ATOM     25  O   UNL A   1      28.489  29.256  22.341  1.00  0.00    -0.497 OA
ATOM     26  C   UNL A   1      27.219  29.008  22.938  1.00  0.00     0.278 C 
ENDBRANCH  20  25
BRANCH  23  27
ATOM     27  O   UNL A   1      31.716  30.323  25.535  1.00  0.00    -0.497 OA
ATOM     28  C   UNL A   1      32.121  29.987  26.856  1.00  0.00     0.278 C 
ENDBRANCH  23  27
ENDBRANCH   9  19
ENDBRANCH   7   8
ENDBRANCH   6   7
ENDBRANCH   3   6
ENDBRANCH   1   2
BRANCH   1  29
ATOM     29  C   UNL A   1      40.072  20.367  25.862  1.00  0.00     0.042 C 
BRANCH  29  30
ATOM     30  C   UNL A   1      40.451  21.658  26.551  1.00  0.00     0.118 C 
BRANCH  30  31
ATOM     31  N   UNL A   1      41.675  22.219  26.032  1.00  0.00    -0.352 N 
ATOM     32  C   UNL A   1      42.008  23.547  25.884  1.00  0.00     0.251 C 
ATOM     33  H   UNL A   1      42.359  21.570  25.748  1.00  0.00     0.163 HD
ATOM     34  O   UNL A   1      42.900  23.825  25.092  1.00  0.00    -0.269 OA
BRANCH  32  35
ATOM     35  C   UNL A   1      41.337  24.601  26.692  1.00  0.00     0.039 A 
ATOM     36  C   UNL A   1      40.645  25.644  26.068  1.00  0.00     0.014 A 
ATOM     37  C   UNL A   1      41.488  24.640  28.078  1.00  0.00     0.014 A 
ATOM     38  C   UNL A   1      40.331  26.777  26.805  1.00  0.00     0.010 A 
ATOM     39  C   UNL A   1      40.853  25.575  28.836  1.00  0.00     0.010 A 
ATOM     40  C   UNL A   1      40.569  26.744  28.175  1.00  0.00    -0.014 A 
BRANCH  40  41
ATOM     41  C   UNL A   1      40.808  27.954  28.934  1.00  0.00     0.031 A 
ATOM     42  C   UNL A   1      41.910  28.783  28.426  1.00  0.00     0.074 A 
ATOM     43  C   UNL A   1      39.927  28.368  29.877  1.00  0.00     0.049 A 
ATOM     44  N   UNL A   1      43.044  29.019  28.990  1.00  0.00    -0.248 NA
ATOM     45  C   UNL A   1      41.802  29.282  27.047  1.00  0.00     0.031 C 
ATOM     46  C   UNL A   1      38.606  27.818  30.226  1.00  0.00     0.029 A 
ATOM     47  N   UNL A   1      40.000  29.465  30.674  1.00  0.00    -0.354 N 
ATOM     48  C   UNL A   1      43.718  29.871  28.125  1.00  0.00     0.074 A 
ATOM     49  C   UNL A   1      43.003  29.832  26.877  1.00  0.00     0.031 C 
ATOM     50  C   UNL A   1      37.928  28.705  30.992  1.00  0.00     0.029 A 
ATOM     51  C   UNL A   1      38.814  29.806  31.316  1.00  0.00     0.049 A 
ATOM     52  H   UNL A   1      40.830  29.981  30.790  1.00  0.00     0.167 HD
ATOM     53  C   UNL A   1      44.682  30.719  28.575  1.00  0.00     0.037 A 
ATOM     54  C   UNL A   1      38.584  30.952  32.009  1.00  0.00     0.037 A 
ATOM     55  C   UNL A   1      45.121  30.353  29.899  1.00  0.00     0.049 A 
ATOM     56  C   UNL A   1      39.924  31.510  32.356  1.00  0.00     0.074 A 
ATOM     57  C   UNL A   1      45.718  29.225  30.430  1.00  0.00     0.029 A 
ATOM     58  N   UNL A   1      44.579  31.027  30.968  1.00  0.00    -0.354 N 
ATOM     59  N   UNL A   1      40.771  30.915  33.156  1.00  0.00    -0.248 NA
ATOM     60  C   UNL A   1      40.516  32.460  31.425  1.00  0.00     0.031 C 
ATOM     61  C   UNL A   1      45.086  29.032  31.693  1.00  0.00     0.029 A 
ATOM     62  C   UNL A   1      44.195  30.089  31.896  1.00  0.00     0.049 A 
ATOM     63  H   UNL A   1      44.483  32.004  31.054  1.00  0.00     0.167 HD
ATOM     64  C   UNL A   1      42.019  31.103  32.572  1.00  0.00     0.074 A 
ATOM     65  C   UNL A   1      41.802  32.116  31.540  1.00  0.00     0.031 C 
ATOM     66  C   UNL A   1      43.047  30.223  32.772  1.00  0.00     0.037 A 
BRANCH  53  67
ATOM     67  C   UNL A   1      44.993  32.051  27.948  1.00  0.00     0.058 A 
ATOM     68  C   UNL A   1      46.211  32.227  27.266  1.00  0.00     0.135 A 
ATOM     69  C   UNL A   1      44.259  33.233  28.203  1.00  0.00     0.135 A 
ATOM     70  F   UNL A   1      46.994  31.174  26.978  1.00  0.00    -0.206 F 
ATOM     71  C   UNL A   1      46.696  33.489  26.919  1.00  0.00     0.059 A 
ATOM     72  C   UNL A   1      44.695  34.493  27.815  1.00  0.00     0.059 A 
ATOM     73  F   UNL A   1      43.134  33.236  28.926  1.00  0.00    -0.206 F 
ATOM     74  C   UNL A   1      45.935  34.616  27.214  1.00  0.00     0.060 A 
BRANCH  74  75
ATOM     75  S   UNL A   1      46.609  36.252  26.880  1.00  0.00     0.124 S 
ATOM     76  O   UNL A   1      47.126  36.626  28.190  1.00  0.00    -0.237 OA
ATOM     77  O   UNL A   1      47.605  35.965  25.854  1.00  0.00    -0.237 OA
ATOM     78  O   UNL A   1      45.445  37.007  26.421  1.00  0.00    -0.744 OA
ENDBRANCH  74  75
ENDBRANCH  53  67
BRANCH  54  79
ATOM     79  C   UNL A   1      37.337  31.770  31.994  1.00  0.00     0.058 A 
ATOM     80  C   UNL A   1      36.661  32.116  33.178  1.00  0.00     0.135 A 
ATOM     81  C   UNL A   1      36.931  32.458  30.831  1.00  0.00     0.135 A 
ATOM     82  F   UNL A   1      36.995  31.531  34.339  1.00  0.00    -0.206 F 
ATOM     83  C   UNL A   1      35.670  33.109  33.213  1.00  0.00     0.059 A 
ATOM     84  C   UNL A   1      35.944  33.444  30.839  1.00  0.00     0.059 A 
ATOM     85  F   UNL A   1      37.547  32.255  29.657  1.00  0.00    -0.206 F 
ATOM     86  C   UNL A   1      35.332  33.782  32.038  1.00  0.00     0.060 A 
BRANCH  86  87
ATOM     87  S   UNL A   1      34.182  35.178  32.105  1.00  0.00     0.124 S 
ATOM     88  O   UNL A   1      34.908  36.131  32.937  1.00  0.00    -0.237 OA
ATOM     89  O   UNL A   1      34.048  35.536  30.696  1.00  0.00    -0.237 OA
ATOM     90  O   UNL A   1      32.984  34.603  32.714  1.00  0.00    -0.744 OA
ENDBRANCH  86  87
ENDBRANCH  54  79
BRANCH  66  91
ATOM     91  C   UNL A   1      42.887  29.154  33.828  1.00  0.00     0.058 A 
ATOM     92  C   UNL A   1      43.043  29.377  35.209  1.00  0.00     0.135 A 
ATOM     93  C   UNL A   1      42.359  27.913  33.443  1.00  0.00     0.135 A 
ATOM     94  F   UNL A   1      43.447  30.567  35.672  1.00  0.00    -0.206 F 
ATOM     95  C   UNL A   1      42.711  28.406  36.160  1.00  0.00     0.059 A 
ATOM     96  C   UNL A   1      41.995  26.940  34.372  1.00  0.00     0.059 A 
ATOM     97  F   UNL A   1      42.127  27.657  32.145  1.00  0.00    -0.206 F 
ATOM     98  C   UNL A   1      42.181  27.190  35.730  1.00  0.00     0.060 A 
BRANCH  98  99
ATOM     99  S   UNL A   1      41.659  25.972  36.959  1.00  0.00     0.124 S 
ATOM    100  O   UNL A   1      40.589  26.676  37.656  1.00  0.00    -0.237 OA
ATOM    101  O   UNL A   1      41.242  24.843  36.133  1.00  0.00    -0.237 OA
ATOM    102  O   UNL A   1      42.869  25.741  37.746  1.00  0.00    -0.744 OA
ENDBRANCH  98  99
ENDBRANCH  66  91
ENDBRANCH  40  41
ENDBRANCH  32  35
ENDBRANCH  30  31
ENDBRANCH  29  30
ENDBRANCH   1  29
TORSDOF 18
ENDMDL
MODEL 2
REMARK VINA RESULT:     -12.4      0.874      2.014
REMARK SMILES COc1cc(OC)cc(-c2cc3nc(C)c(CCC(=O)NCCCNC(=O)c4ccc(-c5c6nc(c(-c7c(F)cc(S(=O)(=O)[O-])cc7F)c7ccc([nH]7)c(-c7c(F)cc(S(=O)(=O)[O-])cc7F)c7nc(c(-c8c(F)cc(S(=O)(=O)[O-])cc8F)c8ccc5[nH]8)C=C7)C=C6)cc4)c(C)n3n2)c1
REMARK SMILES IDX 22 1 21 2 19 3 20 4 18 6 17 7 16 8 10 9 11 10 97 11 12 12
REMARK SMILES IDX 96 13 13 14 94 15 14 16 95 17 15 18 9 19 3 20 4 21 98 22
REMARK SMILES IDX 5 23 8 24 2 25 1 26 6 27 7 28 23 29 24 30 25 31 26 32 27 34
REMARK SMILES IDX 28 35 29 36 93 37 30 38 92 39 31 40 32 41 33 42 86 43 34 44
REMARK SMILES IDX 91 45 85 46 87 47 35 48 90 49 84 50 83 51 36 53 70 54 49 55
REMARK SMILES IDX 69 56 50 57 53 58 68 59 88 60 51 61 52 62 67 64 89 65 54 66
REMARK SMILES IDX 37 67 38 68 47 69 39 70 40 71 46 72 48 73 41 74 42 75 43 76
REMARK SMILES IDX 44 77 45 78 71 79 72 80 81 81 73 82 74 83 80 84 82 85 75 86
REMARK SMILES IDX 76 87 77 88 78 89 79 90 55 91 56 92 65 93 57 94 58 95 64 96
REMARK SMILES IDX 66 97 59 98 60 99 61 100 62 101 63 102
REMARK H PARENT 21 5 25 33 87 52 53 63
REMARK Flexibility Score: inf
ROOT
ATOM      1  C   UNL A   1      38.508  20.380  25.163  1.00  0.00     0.117 C 
ENDROOT
BRANCH   1   2
ATOM      2  N   UNL A   1      37.702  21.590  25.226  1.00  0.00    -0.356 N 
ATOM      3  C   UNL A   1      36.400  21.803  24.886  1.00  0.00     0.220 C 
ATOM      4  O   UNL A   1      36.022  22.963  24.728  1.00  0.00    -0.275 OA
ATOM      5  H   UNL A   1      38.173  22.384  25.570  1.00  0.00     0.163 HD
BRANCH   3   6
ATOM      6  C   UNL A   1      35.429  20.643  24.770  1.00  0.00     0.105 C 
BRANCH   6   7
ATOM      7  C   UNL A   1      34.268  20.707  25.785  1.00  0.00     0.049 C 
BRANCH   7   8
ATOM      8  C   UNL A   1      33.132  21.590  25.312  1.00  0.00    -0.005 A 
ATOM      9  C   UNL A   1      31.207  25.502  24.297  1.00  0.00     0.095 A 
ATOM     10  C   UNL A   1      31.065  24.510  23.302  1.00  0.00     0.080 A 
ATOM     11  N   UNL A   1      31.661  24.968  25.443  1.00  0.00    -0.166 NA
ATOM     12  C   UNL A   1      31.538  23.347  23.859  1.00  0.00     0.156 A 
ATOM     13  N   UNL A   1      31.959  23.670  25.152  1.00  0.00    -0.219 N 
ATOM     14  N   UNL A   1      31.674  22.095  23.341  1.00  0.00    -0.234 NA
ATOM     15  C   UNL A   1      32.745  22.754  25.897  1.00  0.00     0.046 A 
ATOM     16  C   UNL A   1      32.407  21.259  24.020  1.00  0.00     0.045 A 
ATOM     17  C   UNL A   1      33.252  23.201  27.241  1.00  0.00     0.067 C 
ATOM     18  C   UNL A   1      32.440  19.841  23.485  1.00  0.00     0.067 C 
BRANCH   9  19
ATOM     19  C   UNL A   1      30.847  26.918  24.175  1.00  0.00     0.009 A 
ATOM     20  C   UNL A   1      31.084  29.250  24.813  1.00  0.00     0.123 A 
ATOM     21  C   UNL A   1      30.193  29.613  23.805  1.00  0.00     0.092 A 
ATOM     22  C   UNL A   1      31.424  27.906  24.999  1.00  0.00     0.057 A 
ATOM     23  C   UNL A   1      29.624  28.646  22.975  1.00  0.00     0.123 A 
ATOM     24  C   UNL A   1      29.951  27.301  23.163  1.00  0.00     0.057 A 
BRANCH  20  25
ATOM     25  O   UNL A   1      31.697  30.278  25.481  1.00  0.00    -0.497 OA
ATOM     26  C   UNL A   1      32.975  29.941  26.016  1.00  0.00     0.278 C 
ENDBRANCH  20  25
BRANCH  23  27
ATOM     27  O   UNL A   1      28.797  29.145  22.008  1.00  0.00    -0.497 OA
ATOM     28  C   UNL A   1      29.123  30.425  21.481  1.00  0.00     0.278 C 
ENDBRANCH  23  27
ENDBRANCH   9  19
ENDBRANCH   7   8
ENDBRANCH   6   7
ENDBRANCH   3   6
ENDBRANCH   1   2
BRANCH   1  29
ATOM     29  C   UNL A   1      39.725  20.471  26.057  1.00  0.00     0.042 C 
BRANCH  29  30
ATOM     30  C   UNL A   1      40.061  21.883  26.482  1.00  0.00     0.118 C 
BRANCH  30  31
ATOM     31  N   UNL A   1      41.408  22.259  26.124  1.00  0.00    -0.352 N 
ATOM     32  C   UNL A   1      41.926  23.524  25.968  1.00  0.00     0.251 C 
ATOM     33  H   UNL A   1      42.036  21.515  25.974  1.00  0.00     0.163 HD
ATOM     34  O   UNL A   1      42.949  23.642  25.306  1.00  0.00    -0.269 OA
BRANCH  32  35
ATOM     35  C   UNL A   1      41.289  24.701  26.620  1.00  0.00     0.039 A 
ATOM     36  C   UNL A   1      40.828  25.777  25.854  1.00  0.00     0.014 A 
ATOM     37  C   UNL A   1      41.250  24.810  28.010  1.00  0.00     0.014 A 
ATOM     38  C   UNL A   1      40.561  26.983  26.484  1.00  0.00     0.010 A 
ATOM     39  C   UNL A   1      40.641  25.861  28.624  1.00  0.00     0.010 A 
ATOM     40  C   UNL A   1      40.602  27.011  27.874  1.00  0.00    -0.014 A 
BRANCH  40  41
ATOM     41  C   UNL A   1      40.885  28.230  28.603  1.00  0.00     0.031 A 
ATOM     42  C   UNL A   1      42.151  28.878  28.234  1.00  0.00     0.074 A 
ATOM     43  C   UNL A   1      39.936  28.813  29.376  1.00  0.00     0.049 A 
ATOM     44  N   UNL A   1      43.210  29.009  28.956  1.00  0.00    -0.248 NA
ATOM     45  C   UNL A   1      42.317  29.293  26.833  1.00  0.00     0.031 C 
ATOM     46  C   UNL A   1      38.517  28.457  29.540  1.00  0.00     0.029 A 
ATOM     47  N   UNL A   1      40.037  29.943  30.122  1.00  0.00    -0.354 N 
ATOM     48  C   UNL A   1      44.113  29.709  28.168  1.00  0.00     0.074 A 
ATOM     49  C   UNL A   1      43.592  29.675  26.827  1.00  0.00     0.031 C 
ATOM     50  C   UNL A   1      37.858  29.472  30.148  1.00  0.00     0.029 A 
ATOM     51  C   UNL A   1      38.825  30.473  30.554  1.00  0.00     0.049 A 
ATOM     52  H   UNL A   1      40.902  30.358  30.341  1.00  0.00     0.167 HD
ATOM     53  C   UNL A   1      45.104  30.459  28.722  1.00  0.00     0.037 A 
ATOM     54  C   UNL A   1      38.650  31.683  31.147  1.00  0.00     0.037 A 
ATOM     55  C   UNL A   1      45.288  30.130  30.114  1.00  0.00     0.049 A 
ATOM     56  C   UNL A   1      39.986  32.091  31.672  1.00  0.00     0.074 A 
ATOM     57  C   UNL A   1      45.644  28.975  30.785  1.00  0.00     0.029 A 
ATOM     58  N   UNL A   1      44.689  30.938  31.052  1.00  0.00    -0.354 N 
ATOM     59  N   UNL A   1      40.618  31.450  32.622  1.00  0.00    -0.248 NA
ATOM     60  C   UNL A   1      40.832  32.895  30.800  1.00  0.00     0.031 C 
ATOM     61  C   UNL A   1      44.810  28.949  31.942  1.00  0.00     0.029 A 
ATOM     62  C   UNL A   1      44.049  30.120  31.953  1.00  0.00     0.049 A 
ATOM     63  H   UNL A   1      44.712  31.923  31.075  1.00  0.00     0.167 HD
ATOM     64  C   UNL A   1      41.952  31.442  32.231  1.00  0.00     0.074 A 
ATOM     65  C   UNL A   1      42.028  32.401  31.131  1.00  0.00     0.031 C 
ATOM     66  C   UNL A   1      42.812  30.455  32.631  1.00  0.00     0.037 A 
BRANCH  53  67
ATOM     67  C   UNL A   1      45.680  31.696  28.089  1.00  0.00     0.058 A 
ATOM     68  C   UNL A   1      47.060  31.756  27.818  1.00  0.00     0.135 A 
ATOM     69  C   UNL A   1      44.979  32.918  27.966  1.00  0.00     0.135 A 
ATOM     70  F   UNL A   1      47.825  30.657  27.912  1.00  0.00    -0.206 F 
ATOM     71  C   UNL A   1      47.707  32.954  27.512  1.00  0.00     0.059 A 
ATOM     72  C   UNL A   1      45.594  34.110  27.605  1.00  0.00     0.059 A 
ATOM     73  F   UNL A   1      43.685  33.038  28.285  1.00  0.00    -0.206 F 
ATOM     74  C   UNL A   1      46.965  34.128  27.423  1.00  0.00     0.060 A 
BRANCH  74  75
ATOM     75  S   UNL A   1      47.811  35.693  27.150  1.00  0.00     0.124 S 
ATOM     76  O   UNL A   1      49.140  35.399  27.671  1.00  0.00    -0.237 OA
ATOM     77  O   UNL A   1      47.708  35.844  25.702  1.00  0.00    -0.237 OA
ATOM     78  O   UNL A   1      47.021  36.643  27.931  1.00  0.00    -0.744 OA
ENDBRANCH  74  75
ENDBRANCH  53  67
BRANCH  54  79
ATOM     79  C   UNL A   1      37.540  32.647  30.898  1.00  0.00     0.058 A 
ATOM     80  C   UNL A   1      37.420  33.345  29.682  1.00  0.00     0.135 A 
ATOM     81  C   UNL A   1      36.417  32.703  31.751  1.00  0.00     0.135 A 
ATOM     82  F   UNL A   1      38.427  33.330  28.796  1.00  0.00    -0.206 F 
ATOM     83  C   UNL A   1      36.246  34.023  29.320  1.00  0.00     0.059 A 
ATOM     84  C   UNL A   1      35.242  33.376  31.416  1.00  0.00     0.059 A 
ATOM     85  F   UNL A   1      36.395  32.024  32.908  1.00  0.00    -0.206 F 
ATOM     86  C   UNL A   1      35.154  34.016  30.188  1.00  0.00     0.060 A 
BRANCH  86  87
ATOM     87  S   UNL A   1      33.582  34.740  29.657  1.00  0.00     0.124 S 
ATOM     88  O   UNL A   1      32.904  34.959  30.930  1.00  0.00    -0.237 OA
ATOM     89  O   UNL A   1      34.018  35.941  28.951  1.00  0.00    -0.237 OA
ATOM     90  O   UNL A   1      32.998  33.702  28.810  1.00  0.00    -0.744 OA
ENDBRANCH  86  87
ENDBRANCH  54  79
BRANCH  66  91
ATOM     91  C   UNL A   1      42.355  29.488  33.699  1.00  0.00     0.058 A 
ATOM     92  C   UNL A   1      41.714  28.264  33.435  1.00  0.00     0.135 A 
ATOM     93  C   UNL A   1      42.765  29.715  35.021  1.00  0.00     0.135 A 
ATOM     94  F   UNL A   1      41.375  27.920  32.186  1.00  0.00    -0.206 F 
ATOM     95  C   UNL A   1      41.471  27.321  34.440  1.00  0.00     0.059 A 
ATOM     96  C   UNL A   1      42.560  28.780  36.033  1.00  0.00     0.059 A 
ATOM     97  F   UNL A   1      43.439  30.837  35.330  1.00  0.00    -0.206 F 
ATOM     98  C   UNL A   1      41.905  27.587  35.737  1.00  0.00     0.060 A 
BRANCH  98  99
ATOM     99  S   UNL A   1      41.682  26.331  37.017  1.00  0.00     0.124 S 
ATOM    100  O   UNL A   1      41.670  25.097  36.239  1.00  0.00    -0.237 OA
ATOM    101  O   UNL A   1      42.851  26.530  37.869  1.00  0.00    -0.237 OA
ATOM    102  O   UNL A   1      40.406  26.691  37.632  1.00  0.00    -0.744 OA
ENDBRANCH  98  99
ENDBRANCH  66  91
ENDBRANCH  40  41
ENDBRANCH  32  35
ENDBRANCH  30  31
ENDBRANCH  29  30
ENDBRANCH   1  29
TORSDOF 18
ENDMDL
MODEL 3
REMARK VINA RESULT:     -12.2      2.737      5.019
REMARK SMILES COc1cc(OC)cc(-c2cc3nc(C)c(CCC(=O)NCCCNC(=O)c4ccc(-c5c6nc(c(-c7c(F)cc(S(=O)(=O)[O-])cc7F)c7ccc([nH]7)c(-c7c(F)cc(S(=O)(=O)[O-])cc7F)c7nc(c(-c8c(F)cc(S(=O)(=O)[O-])cc8F)c8ccc5[nH]8)C=C7)C=C6)cc4)c(C)n3n2)c1
REMARK SMILES IDX 22 1 21 2 19 3 20 4 18 6 17 7 16 8 10 9 11 10 97 11 12 12
REMARK SMILES IDX 96 13 13 14 94 15 14 16 95 17 15 18 9 19 3 20 4 21 98 22
REMARK SMILES IDX 5 23 8 24 2 25 1 26 6 27 7 28 23 29 24 30 25 31 26 32 27 34
REMARK SMILES IDX 28 35 29 36 93 37 30 38 92 39 31 40 32 41 33 42 86 43 34 44
REMARK SMILES IDX 91 45 85 46 87 47 35 48 90 49 84 50 83 51 36 53 70 54 49 55
REMARK SMILES IDX 69 56 50 57 53 58 68 59 88 60 51 61 52 62 67 64 89 65 54 66
REMARK SMILES IDX 37 67 38 68 47 69 39 70 40 71 46 72 48 73 41 74 42 75 43 76
REMARK SMILES IDX 44 77 45 78 71 79 72 80 81 81 73 82 74 83 80 84 82 85 75 86
REMARK SMILES IDX 76 87 77 88 78 89 79 90 55 91 56 92 65 93 57 94 58 95 64 96
REMARK SMILES IDX 66 97 59 98 60 99 61 100 62 101 63 102
REMARK H PARENT 21 5 25 33 87 52 53 63
REMARK Flexibility Score: inf
ROOT
ATOM      1  C   UNL A   1      44.003  22.618  25.553  1.00  0.00     0.117 C 
ENDROOT
BRANCH   1   2
ATOM      2  N   UNL A   1      44.411  22.467  26.942  1.00  0.00    -0.356 N 
ATOM      3  C   UNL A   1      43.910  23.032  28.076  1.00  0.00     0.220 C 
ATOM      4  O   UNL A   1      44.602  23.005  29.093  1.00  0.00    -0.275 OA
ATOM      5  H   UNL A   1      45.171  21.857  27.086  1.00  0.00     0.163 HD
BRANCH   3   6
ATOM      6  C   UNL A   1      42.512  23.618  28.098  1.00  0.00     0.105 C 
BRANCH   6   7
ATOM      7  C   UNL A   1      41.396  22.553  28.119  1.00  0.00     0.049 C 
BRANCH   7   8
ATOM      8  C   UNL A   1      40.245  22.899  27.197  1.00  0.00    -0.005 A 
ATOM      9  C   UNL A   1      36.197  22.297  25.383  1.00  0.00     0.095 A 
ATOM     10  C   UNL A   1      36.438  23.610  25.842  1.00  0.00     0.080 A 
ATOM     11  N   UNL A   1      37.336  21.585  25.353  1.00  0.00    -0.166 NA
ATOM     12  C   UNL A   1      37.768  23.654  26.180  1.00  0.00     0.156 A 
ATOM     13  N   UNL A   1      38.282  22.378  25.932  1.00  0.00    -0.219 N 
ATOM     14  N   UNL A   1      38.527  24.653  26.710  1.00  0.00    -0.234 NA
ATOM     15  C   UNL A   1      39.560  22.014  26.428  1.00  0.00     0.046 A 
ATOM     16  C   UNL A   1      39.694  24.314  27.177  1.00  0.00     0.045 A 
ATOM     17  C   UNL A   1      40.012  20.595  26.215  1.00  0.00     0.067 C 
ATOM     18  C   UNL A   1      40.565  25.463  27.648  1.00  0.00     0.067 C 
BRANCH   9  19
ATOM     19  C   UNL A   1      34.917  21.757  24.915  1.00  0.00     0.009 A 
ATOM     20  C   UNL A   1      33.166  20.074  24.942  1.00  0.00     0.123 A 
ATOM     21  C   UNL A   1      32.412  20.847  24.062  1.00  0.00     0.092 A 
ATOM     22  C   UNL A   1      34.415  20.525  25.382  1.00  0.00     0.057 A 
ATOM     23  C   UNL A   1      32.894  22.074  23.602  1.00  0.00     0.123 A 
ATOM     24  C   UNL A   1      34.145  22.525  24.029  1.00  0.00     0.057 A 
BRANCH  20  25
ATOM     25  O   UNL A   1      32.552  18.957  25.447  1.00  0.00    -0.497 OA
ATOM     26  C   UNL A   1      33.175  17.731  25.070  1.00  0.00     0.278 C 
ENDBRANCH  20  25
BRANCH  23  27
ATOM     27  O   UNL A   1      32.038  22.743  22.772  1.00  0.00    -0.497 OA
ATOM     28  C   UNL A   1      31.020  23.520  23.390  1.00  0.00     0.278 C 
ENDBRANCH  23  27
ENDBRANCH   9  19
ENDBRANCH   7   8
ENDBRANCH   6   7
ENDBRANCH   3   6
ENDBRANCH   1   2
BRANCH   1  29
ATOM     29  C   UNL A   1      44.504  23.918  24.961  1.00  0.00     0.042 C 
BRANCH  29  30
ATOM     30  C   UNL A   1      45.661  24.524  25.722  1.00  0.00     0.118 C 
BRANCH  30  31
ATOM     31  N   UNL A   1      46.169  25.717  25.090  1.00  0.00    -0.352 N 
ATOM     32  C   UNL A   1      45.563  26.948  24.981  1.00  0.00     0.251 C 
ATOM     33  H   UNL A   1      47.064  25.641  24.684  1.00  0.00     0.163 HD
ATOM     34  O   UNL A   1      45.962  27.703  24.104  1.00  0.00    -0.269 OA
BRANCH  32  35
ATOM     35  C   UNL A   1      44.493  27.363  25.929  1.00  0.00     0.039 A 
ATOM     36  C   UNL A   1      43.281  27.876  25.454  1.00  0.00     0.014 A 
ATOM     37  C   UNL A   1      44.721  27.365  27.305  1.00  0.00     0.014 A 
ATOM     38  C   UNL A   1      42.454  28.563  26.329  1.00  0.00     0.010 A 
ATOM     39  C   UNL A   1      43.743  27.708  28.186  1.00  0.00     0.010 A 
ATOM     40  C   UNL A   1      42.793  28.558  27.678  1.00  0.00    -0.014 A 
BRANCH  40  41
ATOM     41  C   UNL A   1      42.379  29.621  28.571  1.00  0.00     0.031 A 
ATOM     42  C   UNL A   1      43.352  30.714  28.706  1.00  0.00     0.074 A 
ATOM     43  C   UNL A   1      41.107  29.683  29.034  1.00  0.00     0.049 A 
ATOM     44  N   UNL A   1      44.039  31.034  29.748  1.00  0.00    -0.248 NA
ATOM     45  C   UNL A   1      43.726  31.443  27.485  1.00  0.00     0.031 C 
ATOM     46  C   UNL A   1      39.943  28.851  28.683  1.00  0.00     0.029 A 
ATOM     47  N   UNL A   1      40.560  30.600  29.874  1.00  0.00    -0.354 N 
ATOM     48  C   UNL A   1      44.786  32.142  29.375  1.00  0.00     0.074 A 
ATOM     49  C   UNL A   1      44.709  32.219  27.940  1.00  0.00     0.031 C 
ATOM     50  C   UNL A   1      38.808  29.439  29.129  1.00  0.00     0.029 A 
ATOM     51  C   UNL A   1      39.170  30.596  29.925  1.00  0.00     0.049 A 
ATOM     52  H   UNL A   1      41.107  31.222  30.406  1.00  0.00     0.167 HD
ATOM     53  C   UNL A   1      45.224  33.044  30.294  1.00  0.00     0.037 A 
ATOM     54  C   UNL A   1      38.393  31.527  30.537  1.00  0.00     0.037 A 
ATOM     55  C   UNL A   1      45.129  32.511  31.632  1.00  0.00     0.049 A 
ATOM     56  C   UNL A   1      39.273  32.235  31.512  1.00  0.00     0.074 A 
ATOM     57  C   UNL A   1      45.697  31.425  32.271  1.00  0.00     0.029 A 
ATOM     58  N   UNL A   1      44.034  32.860  32.388  1.00  0.00    -0.354 N 
ATOM     59  N   UNL A   1      39.813  31.656  32.554  1.00  0.00    -0.248 NA
ATOM     60  C   UNL A   1      39.954  33.437  31.051  1.00  0.00     0.031 C 
ATOM     61  C   UNL A   1      44.653  30.883  33.077  1.00  0.00     0.029 A 
ATOM     62  C   UNL A   1      43.533  31.707  32.943  1.00  0.00     0.049 A 
ATOM     63  H   UNL A   1      43.675  33.769  32.509  1.00  0.00     0.167 HD
ATOM     64  C   UNL A   1      41.101  32.171  32.631  1.00  0.00     0.074 A 
ATOM     65  C   UNL A   1      41.107  33.310  31.713  1.00  0.00     0.031 C 
ATOM     66  C   UNL A   1      42.126  31.465  33.199  1.00  0.00     0.037 A 
BRANCH  53  67
ATOM     67  C   UNL A   1      45.437  34.505  30.008  1.00  0.00     0.058 A 
ATOM     68  C   UNL A   1      44.326  35.329  29.751  1.00  0.00     0.135 A 
ATOM     69  C   UNL A   1      46.701  35.077  29.729  1.00  0.00     0.135 A 
ATOM     70  F   UNL A   1      43.078  34.884  29.972  1.00  0.00    -0.206 F 
ATOM     71  C   UNL A   1      44.455  36.603  29.196  1.00  0.00     0.059 A 
ATOM     72  C   UNL A   1      46.854  36.365  29.232  1.00  0.00     0.059 A 
ATOM     73  F   UNL A   1      47.840  34.384  29.829  1.00  0.00    -0.206 F 
ATOM     74  C   UNL A   1      45.725  37.104  28.927  1.00  0.00     0.060 A 
BRANCH  74  75
ATOM     75  S   UNL A   1      45.893  38.695  28.101  1.00  0.00     0.124 S 
ATOM     76  O   UNL A   1      47.044  39.261  28.792  1.00  0.00    -0.237 OA
ATOM     77  O   UNL A   1      46.109  38.294  26.714  1.00  0.00    -0.237 OA
ATOM     78  O   UNL A   1      44.612  39.347  28.366  1.00  0.00    -0.744 OA
ENDBRANCH  74  75
ENDBRANCH  53  67
BRANCH  54  79
ATOM     79  C   UNL A   1      37.114  32.100  30.024  1.00  0.00     0.058 A 
ATOM     80  C   UNL A   1      35.893  31.911  30.698  1.00  0.00     0.135 A 
ATOM     81  C   UNL A   1      37.109  33.073  29.003  1.00  0.00     0.135 A 
ATOM     82  F   UNL A   1      35.808  31.023  31.700  1.00  0.00    -0.206 F 
ATOM     83  C   UNL A   1      34.749  32.667  30.401  1.00  0.00     0.059 A 
ATOM     84  C   UNL A   1      35.982  33.833  28.685  1.00  0.00     0.059 A 
ATOM     85  F   UNL A   1      38.231  33.381  28.337  1.00  0.00    -0.206 F 
ATOM     86  C   UNL A   1      34.811  33.642  29.404  1.00  0.00     0.060 A 
BRANCH  86  87
ATOM     87  S   UNL A   1      33.395  34.737  29.133  1.00  0.00     0.124 S 
ATOM     88  O   UNL A   1      32.561  33.939  28.241  1.00  0.00    -0.237 OA
ATOM     89  O   UNL A   1      32.884  34.923  30.487  1.00  0.00    -0.237 OA
ATOM     90  O   UNL A   1      33.994  35.925  28.528  1.00  0.00    -0.744 OA
ENDBRANCH  86  87
ENDBRANCH  54  79
BRANCH  66  91
ATOM     91  C   UNL A   1      41.796  30.200  33.959  1.00  0.00     0.058 A 
ATOM     92  C   UNL A   1      41.698  28.926  33.370  1.00  0.00     0.135 A 
ATOM     93  C   UNL A   1      41.782  30.251  35.361  1.00  0.00     0.135 A 
ATOM     94  F   UNL A   1      41.801  28.773  32.043  1.00  0.00    -0.206 F 
ATOM     95  C   UNL A   1      41.569  27.762  34.135  1.00  0.00     0.059 A 
ATOM     96  C   UNL A   1      41.683  29.104  36.145  1.00  0.00     0.059 A 
ATOM     97  F   UNL A   1      41.934  31.429  35.990  1.00  0.00    -0.206 F 
ATOM     98  C   UNL A   1      41.570  27.861  35.525  1.00  0.00     0.060 A 
BRANCH  98  99
ATOM     99  S   UNL A   1      41.502  26.353  36.517  1.00  0.00     0.124 S 
ATOM    100  O   UNL A   1      40.644  26.752  37.627  1.00  0.00    -0.237 OA
ATOM    101  O   UNL A   1      40.926  25.384  35.588  1.00  0.00    -0.237 OA
ATOM    102  O   UNL A   1      42.900  26.110  36.866  1.00  0.00    -0.744 OA
ENDBRANCH  98  99
ENDBRANCH  66  91
ENDBRANCH  40  41
ENDBRANCH  32  35
ENDBRANCH  30  31
ENDBRANCH  29  30
ENDBRANCH   1  29
TORSDOF 18
ENDMDL
