MODEL 1
REMARK VINA RESULT:     -12.3      0.000      0.000
REMARK SMILES Cc1[nH]c2ccccc2c1[C@@H](C(=O)NCCCNC(=O)c1ccc(-c2c3nc(c(-c4c(F)cc(S(=O)(=O)[O-])cc4F)c4ccc([nH]4)c(-c4c(F)cc(S(=O)(=O)[O-])cc4F)c4nc(c(-c5c(F)cc(S(=O)(=O)[O-])cc5F)c5ccc2[nH]5)C=C4)C=C3)cc1)[NH+]1CCCC1
REMARK SMILES IDX 17 1 16 2 15 3 14 4 12 5 13 6 11 8 10 9 1 10 2 11 3 12 4 13
REMARK SMILES IDX 9 15 5 16 8 17 6 18 7 19 87 20 88 21 91 22 89 24 90 25 18 26
REMARK SMILES IDX 19 27 20 29 21 30 22 31 86 32 23 33 85 34 24 35 25 36 26 37
REMARK SMILES IDX 79 38 27 39 84 40 78 41 80 42 28 43 83 44 77 45 76 46 29 48
REMARK SMILES IDX 63 49 42 50 62 51 43 52 46 53 61 54 81 55 44 56 45 57 60 59
REMARK SMILES IDX 82 60 47 61 30 62 31 63 40 64 32 65 33 66 39 67 41 68 34 69
REMARK SMILES IDX 35 70 36 71 37 72 38 73 64 74 65 75 74 76 66 77 67 78 73 79
REMARK SMILES IDX 75 80 68 81 69 82 70 83 71 84 72 85 48 86 49 87 58 88 50 89
REMARK SMILES IDX 51 90 57 91 59 92 52 93 53 94 54 95 55 96 56 97
REMARK H PARENT 14 7 3 14 87 23 18 28 80 47 46 58
REMARK Flexibility Score: inf
ROOT
ATOM      1  C   UNL A   1      33.598  28.547  27.093  1.00  0.00     0.118 C 
ENDROOT
BRANCH   1   2
ATOM      2  C   UNL A   1      32.306  27.801  27.399  1.00  0.00     0.042 C 
BRANCH   2   3
ATOM      3  C   UNL A   1      32.159  26.491  26.633  1.00  0.00     0.118 C 
BRANCH   3   4
ATOM      4  N   UNL A   1      30.787  26.229  26.242  1.00  0.00    -0.351 N 
ATOM      5  C   UNL A   1      30.232  26.207  24.984  1.00  0.00     0.283 C 
ATOM      6  O   UNL A   1      29.018  25.986  24.928  1.00  0.00    -0.268 OA
ATOM      7  H   UNL A   1      30.164  26.041  26.983  1.00  0.00     0.163 HD
BRANCH   5   8
ATOM      8  C   UNL A   1      31.155  26.397  23.743  1.00  0.00     0.307 C 
BRANCH   8   9
ATOM      9  C   UNL A   1      31.034  27.775  23.120  1.00  0.00     0.047 A 
ATOM     10  C   UNL A   1      33.573  28.416  22.791  1.00  0.00     0.065 C 
ATOM     11  C   UNL A   1      32.097  28.582  22.705  1.00  0.00     0.022 A 
ATOM     12  N   UNL A   1      31.569  29.705  22.121  1.00  0.00    -0.358 N 
ATOM     13  C   UNL A   1      30.200  29.672  22.154  1.00  0.00     0.046 A 
ATOM     14  H   UNL A   1      32.102  30.436  21.731  1.00  0.00     0.166 HD
ATOM     15  C   UNL A   1      29.831  28.524  22.854  1.00  0.00     0.009 A 
ATOM     16  C   UNL A   1      29.273  30.578  21.625  1.00  0.00     0.027 A 
ATOM     17  C   UNL A   1      28.456  28.327  23.108  1.00  0.00     0.011 A 
ATOM     18  C   UNL A   1      27.918  30.314  21.829  1.00  0.00     0.002 A 
ATOM     19  C   UNL A   1      27.512  29.214  22.576  1.00  0.00     0.001 A 
ENDBRANCH   8   9
BRANCH   8  20
ATOM     20  N   UNL A   1      31.074  25.269  22.772  1.00  0.00    -0.321 N 
ATOM     21  C   UNL A   1      30.993  23.940  23.382  1.00  0.00     0.263 C 
ATOM     22  C   UNL A   1      32.122  25.171  21.757  1.00  0.00     0.263 C 
ATOM     23  H   UNL A   1      30.200  25.534  22.317  1.00  0.00     0.349 HD
ATOM     24  C   UNL A   1      32.403  23.376  23.362  1.00  0.00     0.067 C 
ATOM     25  C   UNL A   1      33.071  24.057  22.180  1.00  0.00     0.067 C 
ENDBRANCH   8  20
ENDBRANCH   5   8
ENDBRANCH   3   4
ENDBRANCH   2   3
ENDBRANCH   1   2
BRANCH   1  26
ATOM     26  N   UNL A   1      33.521  29.957  27.452  1.00  0.00    -0.352 N 
ATOM     27  C   UNL A   1      34.432  30.747  28.110  1.00  0.00     0.251 C 
ATOM     28  H   UNL A   1      32.691  30.412  27.181  1.00  0.00     0.163 HD
ATOM     29  O   UNL A   1      34.094  31.860  28.501  1.00  0.00    -0.269 OA
BRANCH  27  30
ATOM     30  C   UNL A   1      35.802  30.252  28.362  1.00  0.00     0.039 A 
ATOM     31  C   UNL A   1      36.744  30.308  27.331  1.00  0.00     0.014 A 
ATOM     32  C   UNL A   1      36.156  29.717  29.604  1.00  0.00     0.014 A 
ATOM     33  C   UNL A   1      38.055  29.887  27.567  1.00  0.00     0.010 A 
ATOM     34  C   UNL A   1      37.479  29.376  29.860  1.00  0.00     0.010 A 
ATOM     35  C   UNL A   1      38.443  29.450  28.843  1.00  0.00    -0.014 A 
BRANCH  35  36
ATOM     36  C   UNL A   1      39.842  29.043  29.140  1.00  0.00     0.031 A 
ATOM     37  C   UNL A   1      40.798  30.042  29.737  1.00  0.00     0.074 A 
ATOM     38  C   UNL A   1      40.266  27.805  28.815  1.00  0.00     0.049 A 
ATOM     39  N   UNL A   1      42.083  29.931  29.948  1.00  0.00    -0.248 NA
ATOM     40  C   UNL A   1      40.238  31.349  30.123  1.00  0.00     0.031 C 
ATOM     41  C   UNL A   1      39.442  26.757  28.209  1.00  0.00     0.029 A 
ATOM     42  N   UNL A   1      41.503  27.221  28.937  1.00  0.00    -0.354 N 
ATOM     43  C   UNL A   1      42.484  31.147  30.489  1.00  0.00     0.074 A 
ATOM     44  C   UNL A   1      41.321  32.006  30.512  1.00  0.00     0.031 C 
ATOM     45  C   UNL A   1      40.192  25.657  28.023  1.00  0.00     0.029 A 
ATOM     46  C   UNL A   1      41.559  25.935  28.451  1.00  0.00     0.049 A 
ATOM     47  H   UNL A   1      42.278  27.681  29.332  1.00  0.00     0.167 HD
ATOM     48  C   UNL A   1      43.704  31.506  30.954  1.00  0.00     0.037 A 
ATOM     49  C   UNL A   1      42.599  25.084  28.346  1.00  0.00     0.037 A 
ATOM     50  C   UNL A   1      44.854  30.640  30.947  1.00  0.00     0.049 A 
ATOM     51  C   UNL A   1      43.957  25.528  28.827  1.00  0.00     0.074 A 
ATOM     52  C   UNL A   1      46.133  30.905  31.405  1.00  0.00     0.029 A 
ATOM     53  N   UNL A   1      44.864  29.339  30.466  1.00  0.00    -0.354 N 
ATOM     54  N   UNL A   1      44.310  26.672  29.365  1.00  0.00    -0.248 NA
ATOM     55  C   UNL A   1      45.060  24.564  28.694  1.00  0.00     0.031 C 
ATOM     56  C   UNL A   1      46.925  29.779  31.168  1.00  0.00     0.029 A 
ATOM     57  C   UNL A   1      46.126  28.791  30.614  1.00  0.00     0.049 A 
ATOM     58  H   UNL A   1      44.088  28.874  30.079  1.00  0.00     0.167 HD
ATOM     59  C   UNL A   1      45.660  26.545  29.676  1.00  0.00     0.074 A 
ATOM     60  C   UNL A   1      46.060  25.213  29.272  1.00  0.00     0.031 C 
ATOM     61  C   UNL A   1      46.495  27.448  30.246  1.00  0.00     0.037 A 
BRANCH  48  62
ATOM     62  C   UNL A   1      43.858  32.882  31.541  1.00  0.00     0.058 A 
ATOM     63  C   UNL A   1      44.160  33.990  30.732  1.00  0.00     0.135 A 
ATOM     64  C   UNL A   1      43.631  33.112  32.907  1.00  0.00     0.135 A 
ATOM     65  F   UNL A   1      44.406  33.825  29.423  1.00  0.00    -0.206 F 
ATOM     66  C   UNL A   1      44.243  35.274  31.259  1.00  0.00     0.059 A 
ATOM     67  C   UNL A   1      43.679  34.393  33.451  1.00  0.00     0.059 A 
ATOM     68  F   UNL A   1      43.342  32.088  33.727  1.00  0.00    -0.206 F 
ATOM     69  C   UNL A   1      43.991  35.467  32.619  1.00  0.00     0.060 A 
BRANCH  69  70
ATOM     70  S   UNL A   1      44.060  37.147  33.272  1.00  0.00     0.124 S 
ATOM     71  O   UNL A   1      45.304  37.114  34.034  1.00  0.00    -0.237 OA
ATOM     72  O   UNL A   1      44.084  37.952  32.054  1.00  0.00    -0.237 OA
ATOM     73  O   UNL A   1      42.840  37.254  34.067  1.00  0.00    -0.744 OA
ENDBRANCH  69  70
ENDBRANCH  48  62
BRANCH  49  74
ATOM     74  C   UNL A   1      42.416  23.726  27.760  1.00  0.00     0.058 A 
ATOM     75  C   UNL A   1      42.316  22.592  28.580  1.00  0.00     0.135 A 
ATOM     76  C   UNL A   1      42.391  23.528  26.371  1.00  0.00     0.135 A 
ATOM     77  F   UNL A   1      42.336  22.727  29.916  1.00  0.00    -0.206 F 
ATOM     78  C   UNL A   1      42.251  21.308  28.049  1.00  0.00     0.059 A 
ATOM     79  C   UNL A   1      42.292  22.257  25.814  1.00  0.00     0.059 A 
ATOM     80  F   UNL A   1      42.460  24.578  25.538  1.00  0.00    -0.206 F 
ATOM     81  C   UNL A   1      42.248  21.151  26.662  1.00  0.00     0.060 A 
BRANCH  81  82
ATOM     82  S   UNL A   1      42.182  19.481  25.978  1.00  0.00     0.124 S 
ATOM     83  O   UNL A   1      43.065  19.603  24.824  1.00  0.00    -0.237 OA
ATOM     84  O   UNL A   1      42.685  18.676  27.086  1.00  0.00    -0.237 OA
ATOM     85  O   UNL A   1      40.766  19.300  25.674  1.00  0.00    -0.744 OA
ENDBRANCH  81  82
ENDBRANCH  49  74
BRANCH  61  86
ATOM     86  C   UNL A   1      47.904  27.010  30.542  1.00  0.00     0.058 A 
ATOM     87  C   UNL A   1      48.944  27.167  29.614  1.00  0.00     0.135 A 
ATOM     88  C   UNL A   1      48.225  26.489  31.807  1.00  0.00     0.135 A 
ATOM     89  F   UNL A   1      48.689  27.654  28.389  1.00  0.00    -0.206 F 
ATOM     90  C   UNL A   1      50.251  26.805  29.922  1.00  0.00     0.059 A 
ATOM     91  C   UNL A   1      49.530  26.150  32.148  1.00  0.00     0.059 A 
ATOM     92  F   UNL A   1      47.269  26.327  32.736  1.00  0.00    -0.206 F 
ATOM     93  C   UNL A   1      50.536  26.304  31.194  1.00  0.00     0.060 A 
BRANCH  93  94
ATOM     94  S   UNL A   1      52.245  25.887  31.597  1.00  0.00     0.124 S 
ATOM     95  O   UNL A   1      52.918  26.142  30.328  1.00  0.00    -0.237 OA
ATOM     96  O   UNL A   1      52.548  26.824  32.675  1.00  0.00    -0.237 OA
ATOM     97  O   UNL A   1      52.170  24.485  31.996  1.00  0.00    -0.744 OA
ENDBRANCH  93  94
ENDBRANCH  61  86
ENDBRANCH  35  36
ENDBRANCH  27  30
ENDBRANCH   1  26
TORSDOF 15
ENDMDL
MODEL 2
REMARK VINA RESULT:     -12.2      5.069     10.681
REMARK SMILES Cc1[nH]c2ccccc2c1[C@@H](C(=O)NCCCNC(=O)c1ccc(-c2c3nc(c(-c4c(F)cc(S(=O)(=O)[O-])cc4F)c4ccc([nH]4)c(-c4c(F)cc(S(=O)(=O)[O-])cc4F)c4nc(c(-c5c(F)cc(S(=O)(=O)[O-])cc5F)c5ccc2[nH]5)C=C4)C=C3)cc1)[NH+]1CCCC1
REMARK SMILES IDX 17 1 16 2 15 3 14 4 12 5 13 6 11 8 10 9 1 10 2 11 3 12 4 13
REMARK SMILES IDX 9 15 5 16 8 17 6 18 7 19 87 20 88 21 91 22 89 24 90 25 18 26
REMARK SMILES IDX 19 27 20 29 21 30 22 31 86 32 23 33 85 34 24 35 25 36 26 37
REMARK SMILES IDX 79 38 27 39 84 40 78 41 80 42 28 43 83 44 77 45 76 46 29 48
REMARK SMILES IDX 63 49 42 50 62 51 43 52 46 53 61 54 81 55 44 56 45 57 60 59
REMARK SMILES IDX 82 60 47 61 30 62 31 63 40 64 32 65 33 66 39 67 41 68 34 69
REMARK SMILES IDX 35 70 36 71 37 72 38 73 64 74 65 75 74 76 66 77 67 78 73 79
REMARK SMILES IDX 75 80 68 81 69 82 70 83 71 84 72 85 48 86 49 87 58 88 50 89
REMARK SMILES IDX 51 90 57 91 59 92 52 93 53 94 54 95 55 96 56 97
REMARK H PARENT 14 7 3 14 87 23 18 28 80 47 46 58
REMARK Flexibility Score: inf
ROOT
ATOM      1  C   UNL A   1      38.557  24.055  26.590  1.00  0.00     0.118 C 
ENDROOT
BRANCH   1   2
ATOM      2  C   UNL A   1      37.597  23.251  25.724  1.00  0.00     0.042 C 
BRANCH   2   3
ATOM      3  C   UNL A   1      36.260  23.943  25.485  1.00  0.00     0.118 C 
BRANCH   3   4
ATOM      4  N   UNL A   1      35.770  23.751  24.134  1.00  0.00    -0.351 N 
ATOM      5  C   UNL A   1      34.518  23.371  23.710  1.00  0.00     0.283 C 
ATOM      6  O   UNL A   1      34.369  23.249  22.490  1.00  0.00    -0.268 OA
ATOM      7  H   UNL A   1      36.427  23.915  23.418  1.00  0.00     0.163 HD
BRANCH   5   8
ATOM      8  C   UNL A   1      33.384  23.182  24.763  1.00  0.00     0.307 C 
BRANCH   8   9
ATOM      9  C   UNL A   1      33.336  21.779  25.337  1.00  0.00     0.047 A 
ATOM     10  C   UNL A   1      34.068  22.217  27.834  1.00  0.00     0.065 C 
ATOM     11  C   UNL A   1      33.608  21.426  26.661  1.00  0.00     0.022 A 
ATOM     12  N   UNL A   1      33.372  20.081  26.796  1.00  0.00    -0.358 N 
ATOM     13  C   UNL A   1      32.972  19.537  25.604  1.00  0.00     0.046 A 
ATOM     14  H   UNL A   1      33.477  19.576  27.635  1.00  0.00     0.166 HD
ATOM     15  C   UNL A   1      33.027  20.550  24.647  1.00  0.00     0.009 A 
ATOM     16  C   UNL A   1      32.579  18.226  25.310  1.00  0.00     0.027 A 
ATOM     17  C   UNL A   1      32.754  20.199  23.307  1.00  0.00     0.011 A 
ATOM     18  C   UNL A   1      32.243  17.930  23.988  1.00  0.00     0.002 A 
ATOM     19  C   UNL A   1      32.346  18.897  22.994  1.00  0.00     0.001 A 
ENDBRANCH   8   9
BRANCH   8  20
ATOM     20  N   UNL A   1      32.066  23.711  24.309  1.00  0.00    -0.321 N 
ATOM     21  C   UNL A   1      32.012  25.165  24.147  1.00  0.00     0.263 C 
ATOM     22  C   UNL A   1      30.886  23.360  25.097  1.00  0.00     0.263 C 
ATOM     23  H   UNL A   1      32.018  23.226  23.413  1.00  0.00     0.349 HD
ATOM     24  C   UNL A   1      31.383  25.711  25.417  1.00  0.00     0.067 C 
ATOM     25  C   UNL A   1      30.506  24.580  25.927  1.00  0.00     0.067 C 
ENDBRANCH   8  20
ENDBRANCH   5   8
ENDBRANCH   3   4
ENDBRANCH   2   3
ENDBRANCH   1   2
BRANCH   1  26
ATOM     26  N   UNL A   1      39.934  23.958  26.127  1.00  0.00    -0.352 N 
ATOM     27  C   UNL A   1      41.024  24.733  26.442  1.00  0.00     0.251 C 
ATOM     28  H   UNL A   1      40.111  23.227  25.492  1.00  0.00     0.163 HD
ATOM     29  O   UNL A   1      42.055  24.620  25.787  1.00  0.00    -0.269 OA
BRANCH  27  30
ATOM     30  C   UNL A   1      40.949  25.709  27.551  1.00  0.00     0.039 A 
ATOM     31  C   UNL A   1      41.912  26.718  27.633  1.00  0.00     0.014 A 
ATOM     32  C   UNL A   1      39.943  25.620  28.518  1.00  0.00     0.014 A 
ATOM     33  C   UNL A   1      41.827  27.674  28.649  1.00  0.00     0.010 A 
ATOM     34  C   UNL A   1      39.814  26.619  29.477  1.00  0.00     0.010 A 
ATOM     35  C   UNL A   1      40.758  27.654  29.558  1.00  0.00    -0.014 A 
BRANCH  35  36
ATOM     36  C   UNL A   1      40.613  28.686  30.618  1.00  0.00     0.031 A 
ATOM     37  C   UNL A   1      41.460  28.603  31.861  1.00  0.00     0.074 A 
ATOM     38  C   UNL A   1      39.681  29.653  30.494  1.00  0.00     0.049 A 
ATOM     39  N   UNL A   1      41.398  29.319  32.952  1.00  0.00    -0.248 NA
ATOM     40  C   UNL A   1      42.499  27.558  31.888  1.00  0.00     0.031 C 
ATOM     41  C   UNL A   1      38.782  29.823  29.350  1.00  0.00     0.029 A 
ATOM     42  N   UNL A   1      39.324  30.668  31.346  1.00  0.00    -0.354 N 
ATOM     43  C   UNL A   1      42.383  28.814  33.793  1.00  0.00     0.074 A 
ATOM     44  C   UNL A   1      42.985  27.688  33.114  1.00  0.00     0.031 C 
ATOM     45  C   UNL A   1      37.988  30.885  29.567  1.00  0.00     0.029 A 
ATOM     46  C   UNL A   1      38.285  31.442  30.882  1.00  0.00     0.049 A 
ATOM     47  H   UNL A   1      39.769  30.826  32.210  1.00  0.00     0.167 HD
ATOM     48  C   UNL A   1      42.773  29.266  35.008  1.00  0.00     0.037 A 
ATOM     49  C   UNL A   1      37.635  32.470  31.461  1.00  0.00     0.037 A 
ATOM     50  C   UNL A   1      42.185  30.400  35.672  1.00  0.00     0.049 A 
ATOM     51  C   UNL A   1      38.058  32.923  32.835  1.00  0.00     0.074 A 
ATOM     52  C   UNL A   1      42.516  30.946  36.900  1.00  0.00     0.029 A 
ATOM     53  N   UNL A   1      41.150  31.168  35.159  1.00  0.00    -0.354 N 
ATOM     54  N   UNL A   1      39.014  32.452  33.602  1.00  0.00    -0.248 NA
ATOM     55  C   UNL A   1      37.321  34.051  33.424  1.00  0.00     0.031 C 
ATOM     56  C   UNL A   1      41.658  32.020  37.146  1.00  0.00     0.029 A 
ATOM     57  C   UNL A   1      40.829  32.180  36.048  1.00  0.00     0.049 A 
ATOM     58  H   UNL A   1      40.710  31.017  34.292  1.00  0.00     0.167 HD
ATOM     59  C   UNL A   1      39.021  33.256  34.737  1.00  0.00     0.074 A 
ATOM     60  C   UNL A   1      37.980  34.245  34.557  1.00  0.00     0.031 C 
ATOM     61  C   UNL A   1      39.817  33.183  35.831  1.00  0.00     0.037 A 
BRANCH  48  62
ATOM     62  C   UNL A   1      43.912  28.560  35.691  1.00  0.00     0.058 A 
ATOM     63  C   UNL A   1      45.244  28.953  35.481  1.00  0.00     0.135 A 
ATOM     64  C   UNL A   1      43.672  27.531  36.615  1.00  0.00     0.135 A 
ATOM     65  F   UNL A   1      45.533  29.918  34.594  1.00  0.00    -0.206 F 
ATOM     66  C   UNL A   1      46.297  28.345  36.155  1.00  0.00     0.059 A 
ATOM     67  C   UNL A   1      44.707  26.927  37.324  1.00  0.00     0.059 A 
ATOM     68  F   UNL A   1      42.418  27.113  36.851  1.00  0.00    -0.206 F 
ATOM     69  C   UNL A   1      46.018  27.338  37.082  1.00  0.00     0.060 A 
BRANCH  69  70
ATOM     70  S   UNL A   1      47.395  26.594  37.978  1.00  0.00     0.124 S 
ATOM     71  O   UNL A   1      48.446  27.587  37.775  1.00  0.00    -0.237 OA
ATOM     72  O   UNL A   1      46.867  26.499  39.335  1.00  0.00    -0.237 OA
ATOM     73  O   UNL A   1      47.598  25.319  37.295  1.00  0.00    -0.744 OA
ENDBRANCH  69  70
ENDBRANCH  48  62
BRANCH  49  74
ATOM     74  C   UNL A   1      36.510  33.152  30.759  1.00  0.00     0.058 A 
ATOM     75  C   UNL A   1      36.749  34.013  29.677  1.00  0.00     0.135 A 
ATOM     76  C   UNL A   1      35.183  32.999  31.187  1.00  0.00     0.135 A 
ATOM     77  F   UNL A   1      38.001  34.196  29.229  1.00  0.00    -0.206 F 
ATOM     78  C   UNL A   1      35.723  34.738  29.079  1.00  0.00     0.059 A 
ATOM     79  C   UNL A   1      34.134  33.686  30.584  1.00  0.00     0.059 A 
ATOM     80  F   UNL A   1      34.892  32.171  32.202  1.00  0.00    -0.206 F 
ATOM     81  C   UNL A   1      34.418  34.573  29.546  1.00  0.00     0.060 A 
BRANCH  81  82
ATOM     82  S   UNL A   1      33.094  35.530  28.778  1.00  0.00     0.124 S 
ATOM     83  O   UNL A   1      32.464  34.527  27.927  1.00  0.00    -0.237 OA
ATOM     84  O   UNL A   1      32.319  35.966  29.935  1.00  0.00    -0.237 OA
ATOM     85  O   UNL A   1      33.811  36.592  28.078  1.00  0.00    -0.744 OA
ENDBRANCH  81  82
ENDBRANCH  49  74
BRANCH  61  86
ATOM     86  C   UNL A   1      39.656  34.243  36.887  1.00  0.00     0.058 A 
ATOM     87  C   UNL A   1      38.918  34.021  38.059  1.00  0.00     0.135 A 
ATOM     88  C   UNL A   1      40.313  35.478  36.749  1.00  0.00     0.135 A 
ATOM     89  F   UNL A   1      38.265  32.861  38.237  1.00  0.00    -0.206 F 
ATOM     90  C   UNL A   1      38.820  34.992  39.049  1.00  0.00     0.059 A 
ATOM     91  C   UNL A   1      40.256  36.451  37.741  1.00  0.00     0.059 A 
ATOM     92  F   UNL A   1      41.041  35.738  35.651  1.00  0.00    -0.206 F 
ATOM     93  C   UNL A   1      39.499  36.202  38.884  1.00  0.00     0.060 A 
BRANCH  93  94
ATOM     94  S   UNL A   1      39.406  37.432  40.202  1.00  0.00     0.124 S 
ATOM     95  O   UNL A   1      40.803  37.830  40.334  1.00  0.00    -0.237 OA
ATOM     96  O   UNL A   1      38.513  38.435  39.627  1.00  0.00    -0.237 OA
ATOM     97  O   UNL A   1      38.856  36.685  41.328  1.00  0.00    -0.744 OA
ENDBRANCH  93  94
ENDBRANCH  61  86
ENDBRANCH  35  36
ENDBRANCH  27  30
ENDBRANCH   1  26
TORSDOF 15
ENDMDL
MODEL 3
REMARK VINA RESULT:     -12.2      1.883      3.792
REMARK SMILES Cc1[nH]c2ccccc2c1[C@@H](C(=O)NCCCNC(=O)c1ccc(-c2c3nc(c(-c4c(F)cc(S(=O)(=O)[O-])cc4F)c4ccc([nH]4)c(-c4c(F)cc(S(=O)(=O)[O-])cc4F)c4nc(c(-c5c(F)cc(S(=O)(=O)[O-])cc5F)c5ccc2[nH]5)C=C4)C=C3)cc1)[NH+]1CCCC1
REMARK SMILES IDX 17 1 16 2 15 3 14 4 12 5 13 6 11 8 10 9 1 10 2 11 3 12 4 13
REMARK SMILES IDX 9 15 5 16 8 17 6 18 7 19 87 20 88 21 91 22 89 24 90 25 18 26
REMARK SMILES IDX 19 27 20 29 21 30 22 31 86 32 23 33 85 34 24 35 25 36 26 37
REMARK SMILES IDX 79 38 27 39 84 40 78 41 80 42 28 43 83 44 77 45 76 46 29 48
REMARK SMILES IDX 63 49 42 50 62 51 43 52 46 53 61 54 81 55 44 56 45 57 60 59
REMARK SMILES IDX 82 60 47 61 30 62 31 63 40 64 32 65 33 66 39 67 41 68 34 69
REMARK SMILES IDX 35 70 36 71 37 72 38 73 64 74 65 75 74 76 66 77 67 78 73 79
REMARK SMILES IDX 75 80 68 81 69 82 70 83 71 84 72 85 48 86 49 87 58 88 50 89
REMARK SMILES IDX 51 90 57 91 59 92 52 93 53 94 54 95 55 96 56 97
REMARK H PARENT 14 7 3 14 87 23 18 28 80 47 46 58
REMARK Flexibility Score: inf
ROOT
ATOM      1  C   UNL A   1      33.450  28.315  27.377  1.00  0.00     0.118 C 
ENDROOT
BRANCH   1   2
ATOM      2  C   UNL A   1      33.710  27.869  25.944  1.00  0.00     0.042 C 
BRANCH   2   3
ATOM      3  C   UNL A   1      33.402  26.397  25.695  1.00  0.00     0.118 C 
BRANCH   3   4
ATOM      4  N   UNL A   1      33.911  25.932  24.419  1.00  0.00    -0.351 N 
ATOM      5  C   UNL A   1      34.056  24.644  23.959  1.00  0.00     0.283 C 
ATOM      6  O   UNL A   1      34.550  24.520  22.834  1.00  0.00    -0.268 OA
ATOM      7  H   UNL A   1      34.193  26.639  23.793  1.00  0.00     0.163 HD
BRANCH   5   8
ATOM      8  C   UNL A   1      33.549  23.462  24.838  1.00  0.00     0.307 C 
BRANCH   8   9
ATOM      9  C   UNL A   1      34.583  22.365  25.011  1.00  0.00     0.047 A 
ATOM     10  C   UNL A   1      33.154  20.218  24.454  1.00  0.00     0.065 C 
ATOM     11  C   UNL A   1      34.370  21.000  24.806  1.00  0.00     0.022 A 
ATOM     12  N   UNL A   1      35.568  20.356  24.983  1.00  0.00    -0.358 N 
ATOM     13  C   UNL A   1      36.555  21.247  25.313  1.00  0.00     0.046 A 
ATOM     14  H   UNL A   1      35.701  19.385  24.885  1.00  0.00     0.166 HD
ATOM     15  C   UNL A   1      35.956  22.501  25.431  1.00  0.00     0.009 A 
ATOM     16  C   UNL A   1      37.921  21.027  25.523  1.00  0.00     0.027 A 
ATOM     17  C   UNL A   1      36.764  23.573  25.870  1.00  0.00     0.011 A 
ATOM     18  C   UNL A   1      38.707  22.123  25.883  1.00  0.00     0.002 A 
ATOM     19  C   UNL A   1      38.136  23.377  26.072  1.00  0.00     0.001 A 
ENDBRANCH   8   9
BRANCH   8  20
ATOM     20  N   UNL A   1      32.193  22.979  24.448  1.00  0.00    -0.321 N 
ATOM     21  C   UNL A   1      31.785  23.332  23.087  1.00  0.00     0.263 C 
ATOM     22  C   UNL A   1      31.068  23.352  25.304  1.00  0.00     0.263 C 
ATOM     23  H   UNL A   1      32.363  21.978  24.547  1.00  0.00     0.349 HD
ATOM     24  C   UNL A   1      30.911  24.567  23.212  1.00  0.00     0.067 C 
ATOM     25  C   UNL A   1      30.305  24.469  24.601  1.00  0.00     0.067 C 
ENDBRANCH   8  20
ENDBRANCH   5   8
ENDBRANCH   3   4
ENDBRANCH   2   3
ENDBRANCH   1   2
BRANCH   1  26
ATOM     26  N   UNL A   1      33.418  29.765  27.508  1.00  0.00    -0.352 N 
ATOM     27  C   UNL A   1      34.376  30.626  27.986  1.00  0.00     0.251 C 
ATOM     28  H   UNL A   1      32.583  30.193  27.209  1.00  0.00     0.163 HD
ATOM     29  O   UNL A   1      34.079  31.795  28.209  1.00  0.00    -0.269 OA
BRANCH  27  30
ATOM     30  C   UNL A   1      35.749  30.142  28.246  1.00  0.00     0.039 A 
ATOM     31  C   UNL A   1      36.678  30.144  27.202  1.00  0.00     0.014 A 
ATOM     32  C   UNL A   1      36.117  29.670  29.509  1.00  0.00     0.014 A 
ATOM     33  C   UNL A   1      37.992  29.733  27.443  1.00  0.00     0.010 A 
ATOM     34  C   UNL A   1      37.443  29.340  29.767  1.00  0.00     0.010 A 
ATOM     35  C   UNL A   1      38.394  29.361  28.735  1.00  0.00    -0.014 A 
BRANCH  35  36
ATOM     36  C   UNL A   1      39.796  28.966  29.035  1.00  0.00     0.031 A 
ATOM     37  C   UNL A   1      40.744  29.977  29.626  1.00  0.00     0.074 A 
ATOM     38  C   UNL A   1      40.230  27.729  28.719  1.00  0.00     0.049 A 
ATOM     39  N   UNL A   1      42.029  29.877  29.839  1.00  0.00    -0.248 NA
ATOM     40  C   UNL A   1      40.173  31.282  30.003  1.00  0.00     0.031 C 
ATOM     41  C   UNL A   1      39.415  26.671  28.119  1.00  0.00     0.029 A 
ATOM     42  N   UNL A   1      41.472  27.157  28.845  1.00  0.00    -0.354 N 
ATOM     43  C   UNL A   1      42.421  31.100  30.372  1.00  0.00     0.074 A 
ATOM     44  C   UNL A   1      41.251  31.950  30.388  1.00  0.00     0.031 C 
ATOM     45  C   UNL A   1      40.173  25.576  27.942  1.00  0.00     0.029 A 
ATOM     46  C   UNL A   1      41.538  25.867  28.369  1.00  0.00     0.049 A 
ATOM     47  H   UNL A   1      42.243  27.626  29.238  1.00  0.00     0.167 HD
ATOM     48  C   UNL A   1      43.638  31.471  30.835  1.00  0.00     0.037 A 
ATOM     49  C   UNL A   1      42.584  25.025  28.269  1.00  0.00     0.037 A 
ATOM     50  C   UNL A   1      44.795  30.615  30.834  1.00  0.00     0.049 A 
ATOM     51  C   UNL A   1      43.939  25.482  28.748  1.00  0.00     0.074 A 
ATOM     52  C   UNL A   1      46.072  30.893  31.292  1.00  0.00     0.029 A 
ATOM     53  N   UNL A   1      44.814  29.311  30.362  1.00  0.00    -0.354 N 
ATOM     54  N   UNL A   1      44.283  26.632  29.278  1.00  0.00    -0.248 NA
ATOM     55  C   UNL A   1      45.050  24.526  28.622  1.00  0.00     0.031 C 
ATOM     56  C   UNL A   1      46.872  29.771  31.063  1.00  0.00     0.029 A 
ATOM     57  C   UNL A   1      46.081  28.774  30.514  1.00  0.00     0.049 A 
ATOM     58  H   UNL A   1      44.043  28.838  29.977  1.00  0.00     0.167 HD
ATOM     59  C   UNL A   1      45.634  26.518  29.591  1.00  0.00     0.074 A 
ATOM     60  C   UNL A   1      46.044  25.187  29.197  1.00  0.00     0.031 C 
ATOM     61  C   UNL A   1      46.461  27.431  30.155  1.00  0.00     0.037 A 
BRANCH  48  62
ATOM     62  C   UNL A   1      43.780  32.853  31.413  1.00  0.00     0.058 A 
ATOM     63  C   UNL A   1      44.111  33.951  30.603  1.00  0.00     0.135 A 
ATOM     64  C   UNL A   1      43.515  33.097  32.770  1.00  0.00     0.135 A 
ATOM     65  F   UNL A   1      44.395  33.772  29.304  1.00  0.00    -0.206 F 
ATOM     66  C   UNL A   1      44.184  35.240  31.119  1.00  0.00     0.059 A 
ATOM     67  C   UNL A   1      43.552  34.383  33.303  1.00  0.00     0.059 A 
ATOM     68  F   UNL A   1      43.196  32.083  33.590  1.00  0.00    -0.206 F 
ATOM     69  C   UNL A   1      43.894  35.447  32.469  1.00  0.00     0.060 A 
BRANCH  69  70
ATOM     70  S   UNL A   1      43.951  37.134  33.108  1.00  0.00     0.124 S 
ATOM     71  O   UNL A   1      42.759  37.168  33.950  1.00  0.00    -0.237 OA
ATOM     72  O   UNL A   1      45.227  37.155  33.815  1.00  0.00    -0.237 OA
ATOM     73  O   UNL A   1      43.889  37.957  31.903  1.00  0.00    -0.744 OA
ENDBRANCH  69  70
ENDBRANCH  48  62
BRANCH  49  74
ATOM     74  C   UNL A   1      42.413  23.661  27.692  1.00  0.00     0.058 A 
ATOM     75  C   UNL A   1      42.277  22.537  28.521  1.00  0.00     0.135 A 
ATOM     76  C   UNL A   1      42.434  23.448  26.305  1.00  0.00     0.135 A 
ATOM     77  F   UNL A   1      42.253  22.686  29.855  1.00  0.00    -0.206 F 
ATOM     78  C   UNL A   1      42.222  21.248  28.002  1.00  0.00     0.059 A 
ATOM     79  C   UNL A   1      42.345  22.171  25.759  1.00  0.00     0.059 A 
ATOM     80  F   UNL A   1      42.538  24.487  25.464  1.00  0.00    -0.206 F 
ATOM     81  C   UNL A   1      42.265  21.075  26.617  1.00  0.00     0.060 A 
BRANCH  81  82
ATOM     82  S   UNL A   1      42.211  19.398  25.950  1.00  0.00     0.124 S 
ATOM     83  O   UNL A   1      40.785  19.231  25.694  1.00  0.00    -0.237 OA
ATOM     84  O   UNL A   1      43.064  19.509  24.771  1.00  0.00    -0.237 OA
ATOM     85  O   UNL A   1      42.757  18.588  27.034  1.00  0.00    -0.744 OA
ENDBRANCH  81  82
ENDBRANCH  49  74
BRANCH  61  86
ATOM     86  C   UNL A   1      47.873  27.007  30.456  1.00  0.00     0.058 A 
ATOM     87  C   UNL A   1      48.925  27.230  29.556  1.00  0.00     0.135 A 
ATOM     88  C   UNL A   1      48.183  26.428  31.699  1.00  0.00     0.135 A 
ATOM     89  F   UNL A   1      48.683  27.773  28.352  1.00  0.00    -0.206 F 
ATOM     90  C   UNL A   1      50.234  26.879  29.869  1.00  0.00     0.059 A 
ATOM     91  C   UNL A   1      49.488  26.098  32.046  1.00  0.00     0.059 A 
ATOM     92  F   UNL A   1      47.214  26.202  32.600  1.00  0.00    -0.206 F 
ATOM     93  C   UNL A   1      50.507  26.320  31.120  1.00  0.00     0.060 A 
BRANCH  93  94
ATOM     94  S   UNL A   1      52.217  25.916  31.532  1.00  0.00     0.124 S 
ATOM     95  O   UNL A   1      52.881  26.089  30.245  1.00  0.00    -0.237 OA
ATOM     96  O   UNL A   1      52.536  26.915  32.548  1.00  0.00    -0.237 OA
ATOM     97  O   UNL A   1      52.137  24.542  32.018  1.00  0.00    -0.744 OA
ENDBRANCH  93  94
ENDBRANCH  61  86
ENDBRANCH  35  36
ENDBRANCH  27  30
ENDBRANCH   1  26
TORSDOF 15
ENDMDL
