MODEL 1
REMARK VINA RESULT:     -12.5      0.000      0.000
REMARK SMILES O=C(COc1cc(C(F)(F)F)nc(Nc2ccc3c(c2)CCC3)n1)NCCCNC(=O)c1ccc(-c2c3nc(c(-c4c(F)cc(S(=O)(=O)[O-])cc4F)c4ccc([nH]4)c(-c4c(F)cc(S(=O)(=O)[O-])cc4F)c4nc(c(-c5c(F)cc(S(=O)(=O)[O-])cc5F)c5ccc2[nH]5)C=C4)C=C3)cc1
REMARK SMILES IDX 26 1 25 2 1 3 2 4 3 6 4 7 5 8 6 9 24 10 7 11 13 12 12 13
REMARK SMILES IDX 8 14 9 15 10 16 11 17 14 18 15 20 16 21 20 22 17 23 19 24
REMARK SMILES IDX 18 25 21 26 23 27 22 28 27 29 28 30 29 31 30 32 31 34 32 35
REMARK SMILES IDX 33 36 97 37 34 38 96 39 35 40 36 41 37 42 90 43 38 44 95 45
REMARK SMILES IDX 89 46 91 47 39 48 94 49 88 50 87 51 40 53 74 54 53 55 73 56
REMARK SMILES IDX 54 57 57 58 72 59 92 60 55 61 56 62 71 64 93 65 58 66 41 67
REMARK SMILES IDX 42 68 51 69 43 70 44 71 50 72 52 73 45 74 46 75 47 76 48 77
REMARK SMILES IDX 49 78 75 79 76 80 85 81 77 82 78 83 84 84 86 85 79 86 80 87
REMARK SMILES IDX 81 88 82 89 83 90 59 91 60 92 69 93 61 94 62 95 68 96 70 97
REMARK SMILES IDX 63 98 64 99 65 100 66 101 67 102
REMARK H PARENT 25 5 14 19 29 33 91 52 57 63
REMARK Flexibility Score: inf
ROOT
ATOM      1  C   UNL A   1      40.109  21.514  26.297  1.00  0.00     0.117 C 
ENDROOT
BRANCH   1   2
ATOM      2  N   UNL A   1      38.847  22.156  25.991  1.00  0.00    -0.353 N 
ATOM      3  O   UNL A   1      37.848  20.337  24.990  1.00  0.00    -0.271 OA
ATOM      4  C   UNL A   1      37.776  21.471  25.448  1.00  0.00     0.258 C 
ATOM      5  H   UNL A   1      38.748  23.118  26.177  1.00  0.00     0.163 HD
BRANCH   4   6
ATOM      6  C   UNL A   1      36.454  22.231  25.556  1.00  0.00     0.331 C 
BRANCH   6   7
ATOM      7  O   UNL A   1      35.729  22.228  24.326  1.00  0.00    -0.467 OA
BRANCH   7   8
ATOM      8  C   UNL A   1      34.490  21.646  24.436  1.00  0.00     0.219 A 
ATOM      9  C   UNL A   1      34.346  20.303  24.671  1.00  0.00     0.102 A 
ATOM     10  N   UNL A   1      33.470  22.506  24.473  1.00  0.00    -0.177 NA
ATOM     11  C   UNL A   1      33.068  19.856  24.928  1.00  0.00     0.153 A 
ATOM     12  C   UNL A   1      32.259  22.017  24.774  1.00  0.00     0.231 A 
ATOM     13  N   UNL A   1      32.021  20.716  25.000  1.00  0.00    -0.208 NA
BRANCH  11  14
ATOM     14  C   UNL A   1      32.835  18.375  25.171  1.00  0.00     0.433 C 
ATOM     15  F   UNL A   1      32.530  18.091  26.469  1.00  0.00    -0.165 F 
ATOM     16  F   UNL A   1      31.818  17.866  24.421  1.00  0.00    -0.165 F 
ATOM     17  F   UNL A   1      33.925  17.604  24.879  1.00  0.00    -0.165 F 
ENDBRANCH  11  14
BRANCH  12  18
ATOM     18  N   UNL A   1      31.184  22.872  24.984  1.00  0.00    -0.324 N 
ATOM     19  H   UNL A   1      30.342  22.436  25.248  1.00  0.00     0.170 HD
BRANCH  18  20
ATOM     20  C   UNL A   1      31.128  24.265  24.873  1.00  0.00     0.041 A 
ATOM     21  C   UNL A   1      30.941  25.081  26.006  1.00  0.00     0.026 A 
ATOM     22  C   UNL A   1      31.149  24.854  23.602  1.00  0.00     0.030 A 
ATOM     23  C   UNL A   1      30.806  26.467  25.895  1.00  0.00     0.006 A 
ATOM     24  C   UNL A   1      30.988  26.227  23.496  1.00  0.00    -0.043 A 
ATOM     25  C   UNL A   1      30.829  27.025  24.631  1.00  0.00    -0.045 A 
ATOM     26  C   UNL A   1      30.850  27.043  22.250  1.00  0.00     0.036 C 
ATOM     27  C   UNL A   1      30.605  28.455  24.253  1.00  0.00     0.036 C 
ATOM     28  C   UNL A   1      31.083  28.460  22.795  1.00  0.00     0.010 C 
ENDBRANCH  18  20
ENDBRANCH  12  18
ENDBRANCH   7   8
ENDBRANCH   6   7
ENDBRANCH   4   6
ENDBRANCH   1   2
BRANCH   1  29
ATOM     29  C   UNL A   1      40.743  22.019  27.580  1.00  0.00     0.042 C 
BRANCH  29  30
ATOM     30  C   UNL A   1      41.966  22.905  27.369  1.00  0.00     0.118 C 
BRANCH  30  31
ATOM     31  N   UNL A   1      41.867  23.758  26.191  1.00  0.00    -0.352 N 
ATOM     32  C   UNL A   1      41.579  25.098  26.094  1.00  0.00     0.251 C 
ATOM     33  H   UNL A   1      42.033  23.304  25.334  1.00  0.00     0.163 HD
ATOM     34  O   UNL A   1      41.419  25.596  24.981  1.00  0.00    -0.269 OA
BRANCH  32  35
ATOM     35  C   UNL A   1      41.431  25.933  27.308  1.00  0.00     0.039 A 
ATOM     36  C   UNL A   1      42.422  26.874  27.601  1.00  0.00     0.014 A 
ATOM     37  C   UNL A   1      40.335  25.791  28.164  1.00  0.00     0.014 A 
ATOM     38  C   UNL A   1      42.279  27.714  28.708  1.00  0.00     0.010 A 
ATOM     39  C   UNL A   1      40.151  26.687  29.214  1.00  0.00     0.010 A 
ATOM     40  C   UNL A   1      41.123  27.656  29.503  1.00  0.00    -0.014 A 
BRANCH  40  41
ATOM     41  C   UNL A   1      40.917  28.601  30.634  1.00  0.00     0.031 A 
ATOM     42  C   UNL A   1      41.743  28.480  31.889  1.00  0.00     0.074 A 
ATOM     43  C   UNL A   1      39.951  29.539  30.553  1.00  0.00     0.049 A 
ATOM     44  N   UNL A   1      41.679  29.183  32.991  1.00  0.00    -0.248 NA
ATOM     45  C   UNL A   1      42.756  27.413  31.919  1.00  0.00     0.031 C 
ATOM     46  C   UNL A   1      39.049  29.727  29.414  1.00  0.00     0.029 A 
ATOM     47  N   UNL A   1      39.561  30.506  31.445  1.00  0.00    -0.354 N 
ATOM     48  C   UNL A   1      42.632  28.640  33.845  1.00  0.00     0.074 A 
ATOM     49  C   UNL A   1      43.218  27.511  33.157  1.00  0.00     0.031 C 
ATOM     50  C   UNL A   1      38.233  30.762  29.665  1.00  0.00     0.029 A 
ATOM     51  C   UNL A   1      38.521  31.287  30.996  1.00  0.00     0.049 A 
ATOM     52  H   UNL A   1      39.985  30.629  32.325  1.00  0.00     0.167 HD
ATOM     53  C   UNL A   1      43.003  29.058  35.080  1.00  0.00     0.037 A 
ATOM     54  C   UNL A   1      37.869  32.306  31.589  1.00  0.00     0.037 A 
ATOM     55  C   UNL A   1      42.427  30.194  35.753  1.00  0.00     0.049 A 
ATOM     56  C   UNL A   1      38.295  32.748  32.964  1.00  0.00     0.074 A 
ATOM     57  C   UNL A   1      42.770  30.729  36.983  1.00  0.00     0.029 A 
ATOM     58  N   UNL A   1      41.387  30.968  35.259  1.00  0.00    -0.354 N 
ATOM     59  N   UNL A   1      39.243  32.262  33.731  1.00  0.00    -0.248 NA
ATOM     60  C   UNL A   1      37.571  33.884  33.550  1.00  0.00     0.031 C 
ATOM     61  C   UNL A   1      41.903  31.792  37.256  1.00  0.00     0.029 A 
ATOM     62  C   UNL A   1      41.061  31.961  36.169  1.00  0.00     0.049 A 
ATOM     63  H   UNL A   1      40.945  30.831  34.390  1.00  0.00     0.167 HD
ATOM     64  C   UNL A   1      39.250  33.053  34.874  1.00  0.00     0.074 A 
ATOM     65  C   UNL A   1      38.222  34.057  34.691  1.00  0.00     0.031 C 
ATOM     66  C   UNL A   1      40.038  32.959  35.975  1.00  0.00     0.037 A 
BRANCH  53  67
ATOM     67  C   UNL A   1      44.086  28.283  35.785  1.00  0.00     0.058 A 
ATOM     68  C   UNL A   1      45.446  28.582  35.604  1.00  0.00     0.135 A 
ATOM     69  C   UNL A   1      43.759  27.253  36.683  1.00  0.00     0.135 A 
ATOM     70  F   UNL A   1      45.820  29.546  34.747  1.00  0.00    -0.206 F 
ATOM     71  C   UNL A   1      46.443  27.869  36.263  1.00  0.00     0.059 A 
ATOM     72  C   UNL A   1      44.739  26.548  37.377  1.00  0.00     0.059 A 
ATOM     73  F   UNL A   1      42.475  26.924  36.896  1.00  0.00    -0.206 F 
ATOM     74  C   UNL A   1      46.079  26.855  37.148  1.00  0.00     0.060 A 
BRANCH  74  75
ATOM     75  S   UNL A   1      47.386  25.944  37.999  1.00  0.00     0.124 S 
ATOM     76  O   UNL A   1      48.157  27.032  38.593  1.00  0.00    -0.237 OA
ATOM     77  O   UNL A   1      46.630  25.118  38.934  1.00  0.00    -0.237 OA
ATOM     78  O   UNL A   1      48.052  25.219  36.922  1.00  0.00    -0.744 OA
ENDBRANCH  74  75
ENDBRANCH  53  67
BRANCH  54  79
ATOM     79  C   UNL A   1      36.757  32.994  30.877  1.00  0.00     0.058 A 
ATOM     80  C   UNL A   1      35.419  32.751  31.218  1.00  0.00     0.135 A 
ATOM     81  C   UNL A   1      37.011  33.912  29.846  1.00  0.00     0.135 A 
ATOM     82  F   UNL A   1      35.124  31.877  32.193  1.00  0.00    -0.206 F 
ATOM     83  C   UNL A   1      34.370  33.377  30.552  1.00  0.00     0.059 A 
ATOM     84  C   UNL A   1      35.980  34.573  29.184  1.00  0.00     0.059 A 
ATOM     85  F   UNL A   1      38.274  34.194  29.491  1.00  0.00    -0.206 F 
ATOM     86  C   UNL A   1      34.662  34.289  29.537  1.00  0.00     0.060 A 
BRANCH  86  87
ATOM     87  S   UNL A   1      33.294  35.128  28.709  1.00  0.00     0.124 S 
ATOM     88  O   UNL A   1      32.674  34.029  27.978  1.00  0.00    -0.237 OA
ATOM     89  O   UNL A   1      32.533  35.657  29.835  1.00  0.00    -0.237 OA
ATOM     90  O   UNL A   1      33.965  36.133  27.888  1.00  0.00    -0.744 OA
ENDBRANCH  86  87
ENDBRANCH  54  79
BRANCH  66  91
ATOM     91  C   UNL A   1      39.851  33.996  37.050  1.00  0.00     0.058 A 
ATOM     92  C   UNL A   1      40.395  35.286  36.944  1.00  0.00     0.135 A 
ATOM     93  C   UNL A   1      39.087  33.701  38.193  1.00  0.00     0.135 A 
ATOM     94  F   UNL A   1      41.136  35.621  35.875  1.00  0.00    -0.206 F 
ATOM     95  C   UNL A   1      40.221  36.234  37.947  1.00  0.00     0.059 A 
ATOM     96  C   UNL A   1      38.873  34.644  39.193  1.00  0.00     0.059 A 
ATOM     97  F   UNL A   1      38.532  32.488  38.341  1.00  0.00    -0.206 F 
ATOM     98  C   UNL A   1      39.458  35.903  39.070  1.00  0.00     0.060 A 
BRANCH  98  99
ATOM     99  S   UNL A   1      39.231  37.145  40.359  1.00  0.00     0.124 S 
ATOM    100  O   UNL A   1      40.612  37.433  40.736  1.00  0.00    -0.237 OA
ATOM    101  O   UNL A   1      38.533  38.210  39.647  1.00  0.00    -0.237 OA
ATOM    102  O   UNL A   1      38.438  36.448  41.368  1.00  0.00    -0.744 OA
ENDBRANCH  98  99
ENDBRANCH  66  91
ENDBRANCH  40  41
ENDBRANCH  32  35
ENDBRANCH  30  31
ENDBRANCH  29  30
ENDBRANCH   1  29
TORSDOF 18
ENDMDL
MODEL 2
REMARK VINA RESULT:     -12.3      4.721     10.062
REMARK SMILES O=C(COc1cc(C(F)(F)F)nc(Nc2ccc3c(c2)CCC3)n1)NCCCNC(=O)c1ccc(-c2c3nc(c(-c4c(F)cc(S(=O)(=O)[O-])cc4F)c4ccc([nH]4)c(-c4c(F)cc(S(=O)(=O)[O-])cc4F)c4nc(c(-c5c(F)cc(S(=O)(=O)[O-])cc5F)c5ccc2[nH]5)C=C4)C=C3)cc1
REMARK SMILES IDX 26 1 25 2 1 3 2 4 3 6 4 7 5 8 6 9 24 10 7 11 13 12 12 13
REMARK SMILES IDX 8 14 9 15 10 16 11 17 14 18 15 20 16 21 20 22 17 23 19 24
REMARK SMILES IDX 18 25 21 26 23 27 22 28 27 29 28 30 29 31 30 32 31 34 32 35
REMARK SMILES IDX 33 36 97 37 34 38 96 39 35 40 36 41 37 42 90 43 38 44 95 45
REMARK SMILES IDX 89 46 91 47 39 48 94 49 88 50 87 51 40 53 74 54 53 55 73 56
REMARK SMILES IDX 54 57 57 58 72 59 92 60 55 61 56 62 71 64 93 65 58 66 41 67
REMARK SMILES IDX 42 68 51 69 43 70 44 71 50 72 52 73 45 74 46 75 47 76 48 77
REMARK SMILES IDX 49 78 75 79 76 80 85 81 77 82 78 83 84 84 86 85 79 86 80 87
REMARK SMILES IDX 81 88 82 89 83 90 59 91 60 92 69 93 61 94 62 95 68 96 70 97
REMARK SMILES IDX 63 98 64 99 65 100 66 101 67 102
REMARK H PARENT 25 5 14 19 29 33 91 52 57 63
REMARK Flexibility Score: inf
ROOT
ATOM      1  C   UNL A   1      31.923  26.311  26.487  1.00  0.00     0.117 C 
ENDROOT
BRANCH   1   2
ATOM      2  N   UNL A   1      32.210  24.905  26.679  1.00  0.00    -0.353 N 
ATOM      3  O   UNL A   1      30.023  24.184  26.744  1.00  0.00    -0.271 OA
ATOM      4  C   UNL A   1      31.222  23.938  26.689  1.00  0.00     0.258 C 
ATOM      5  H   UNL A   1      33.146  24.626  26.808  1.00  0.00     0.163 HD
BRANCH   4   6
ATOM      6  C   UNL A   1      31.763  22.518  26.529  1.00  0.00     0.331 C 
BRANCH   6   7
ATOM      7  O   UNL A   1      31.893  22.142  25.157  1.00  0.00    -0.467 OA
BRANCH   7   8
ATOM      8  C   UNL A   1      32.876  22.841  24.501  1.00  0.00     0.219 A 
ATOM      9  C   UNL A   1      34.177  22.410  24.489  1.00  0.00     0.102 A 
ATOM     10  N   UNL A   1      32.436  23.850  23.746  1.00  0.00    -0.177 NA
ATOM     11  C   UNL A   1      35.046  23.094  23.666  1.00  0.00     0.153 A 
ATOM     12  C   UNL A   1      33.318  24.445  22.932  1.00  0.00     0.231 A 
ATOM     13  N   UNL A   1      34.614  24.103  22.868  1.00  0.00    -0.208 NA
BRANCH  11  14
ATOM     14  C   UNL A   1      36.508  22.684  23.625  1.00  0.00     0.433 C 
ATOM     15  F   UNL A   1      37.323  23.556  24.284  1.00  0.00    -0.165 F 
ATOM     16  F   UNL A   1      36.733  21.460  24.179  1.00  0.00    -0.165 F 
ATOM     17  F   UNL A   1      37.010  22.609  22.357  1.00  0.00    -0.165 F 
ENDBRANCH  11  14
BRANCH  12  18
ATOM     18  N   UNL A   1      32.899  25.393  22.007  1.00  0.00    -0.324 N 
ATOM     19  H   UNL A   1      33.112  25.191  21.068  1.00  0.00     0.170 HD
BRANCH  18  20
ATOM     20  C   UNL A   1      32.217  26.595  22.221  1.00  0.00     0.041 A 
ATOM     21  C   UNL A   1      32.909  27.817  22.337  1.00  0.00     0.026 A 
ATOM     22  C   UNL A   1      30.832  26.571  22.433  1.00  0.00     0.030 A 
ATOM     23  C   UNL A   1      32.243  29.010  22.628  1.00  0.00     0.006 A 
ATOM     24  C   UNL A   1      30.181  27.754  22.748  1.00  0.00    -0.043 A 
ATOM     25  C   UNL A   1      30.878  28.962  22.834  1.00  0.00    -0.045 A 
ATOM     26  C   UNL A   1      28.748  27.939  23.136  1.00  0.00     0.036 C 
ATOM     27  C   UNL A   1      29.971  30.075  23.253  1.00  0.00     0.036 C 
ATOM     28  C   UNL A   1      28.592  29.459  22.979  1.00  0.00     0.010 C 
ENDBRANCH  18  20
ENDBRANCH  12  18
ENDBRANCH   7   8
ENDBRANCH   6   7
ENDBRANCH   4   6
ENDBRANCH   1   2
BRANCH   1  29
ATOM     29  C   UNL A   1      33.012  27.048  25.729  1.00  0.00     0.042 C 
BRANCH  29  30
ATOM     30  C   UNL A   1      34.037  27.742  26.619  1.00  0.00     0.118 C 
BRANCH  30  31
ATOM     31  N   UNL A   1      33.628  29.075  27.043  1.00  0.00    -0.352 N 
ATOM     32  C   UNL A   1      34.329  30.035  27.734  1.00  0.00     0.251 C 
ATOM     33  H   UNL A   1      32.709  29.326  26.798  1.00  0.00     0.163 HD
ATOM     34  O   UNL A   1      33.745  31.051  28.104  1.00  0.00    -0.269 OA
BRANCH  32  35
ATOM     35  C   UNL A   1      35.761  29.843  28.058  1.00  0.00     0.039 A 
ATOM     36  C   UNL A   1      36.107  29.406  29.339  1.00  0.00     0.014 A 
ATOM     37  C   UNL A   1      36.763  30.099  27.118  1.00  0.00     0.014 A 
ATOM     38  C   UNL A   1      37.447  29.160  29.652  1.00  0.00     0.010 A 
ATOM     39  C   UNL A   1      38.086  29.770  27.403  1.00  0.00     0.010 A 
ATOM     40  C   UNL A   1      38.446  29.303  28.676  1.00  0.00    -0.014 A 
BRANCH  40  41
ATOM     41  C   UNL A   1      39.865  28.965  28.971  1.00  0.00     0.031 A 
ATOM     42  C   UNL A   1      40.785  29.994  29.575  1.00  0.00     0.074 A 
ATOM     43  C   UNL A   1      40.341  27.745  28.647  1.00  0.00     0.049 A 
ATOM     44  N   UNL A   1      42.058  29.897  29.863  1.00  0.00    -0.248 NA
ATOM     45  C   UNL A   1      40.204  31.314  29.870  1.00  0.00     0.031 C 
ATOM     46  C   UNL A   1      39.567  26.676  28.010  1.00  0.00     0.029 A 
ATOM     47  N   UNL A   1      41.590  27.198  28.803  1.00  0.00    -0.354 N 
ATOM     48  C   UNL A   1      42.431  31.140  30.362  1.00  0.00     0.074 A 
ATOM     49  C   UNL A   1      41.265  31.992  30.283  1.00  0.00     0.031 C 
ATOM     50  C   UNL A   1      40.349  25.597  27.857  1.00  0.00     0.029 A 
ATOM     51  C   UNL A   1      41.690  25.905  28.344  1.00  0.00     0.049 A 
ATOM     52  H   UNL A   1      42.345  27.686  29.205  1.00  0.00     0.167 HD
ATOM     53  C   UNL A   1      43.627  31.528  30.866  1.00  0.00     0.037 A 
ATOM     54  C   UNL A   1      42.742  25.064  28.312  1.00  0.00     0.037 A 
ATOM     55  C   UNL A   1      44.781  30.669  30.959  1.00  0.00     0.049 A 
ATOM     56  C   UNL A   1      44.063  25.521  28.871  1.00  0.00     0.074 A 
ATOM     57  C   UNL A   1      46.023  30.953  31.500  1.00  0.00     0.029 A 
ATOM     58  N   UNL A   1      44.837  29.362  30.497  1.00  0.00    -0.354 N 
ATOM     59  N   UNL A   1      44.380  26.679  29.400  1.00  0.00    -0.248 NA
ATOM     60  C   UNL A   1      45.168  24.552  28.841  1.00  0.00     0.031 C 
ATOM     61  C   UNL A   1      46.845  29.837  31.318  1.00  0.00     0.029 A 
ATOM     62  C   UNL A   1      46.099  28.834  30.721  1.00  0.00     0.049 A 
ATOM     63  H   UNL A   1      44.090  28.880  30.072  1.00  0.00     0.167 HD
ATOM     64  C   UNL A   1      45.709  26.568  29.793  1.00  0.00     0.074 A 
ATOM     65  C   UNL A   1      46.131  25.224  29.455  1.00  0.00     0.031 C 
ATOM     66  C   UNL A   1      46.508  27.493  30.383  1.00  0.00     0.037 A 
BRANCH  53  67
ATOM     67  C   UNL A   1      43.752  32.946  31.358  1.00  0.00     0.058 A 
ATOM     68  C   UNL A   1      44.183  33.986  30.516  1.00  0.00     0.135 A 
ATOM     69  C   UNL A   1      43.400  33.281  32.676  1.00  0.00     0.135 A 
ATOM     70  F   UNL A   1      44.548  33.724  29.250  1.00  0.00    -0.206 F 
ATOM     71  C   UNL A   1      44.290  35.296  30.971  1.00  0.00     0.059 A 
ATOM     72  C   UNL A   1      43.469  34.590  33.143  1.00  0.00     0.059 A 
ATOM     73  F   UNL A   1      42.981  32.329  33.525  1.00  0.00    -0.206 F 
ATOM     74  C   UNL A   1      43.930  35.588  32.286  1.00  0.00     0.060 A 
BRANCH  74  75
ATOM     75  S   UNL A   1      44.069  37.295  32.858  1.00  0.00     0.124 S 
ATOM     76  O   UNL A   1      45.435  37.317  33.375  1.00  0.00    -0.237 OA
ATOM     77  O   UNL A   1      43.845  38.053  31.631  1.00  0.00    -0.237 OA
ATOM     78  O   UNL A   1      43.017  37.405  33.862  1.00  0.00    -0.744 OA
ENDBRANCH  74  75
ENDBRANCH  53  67
BRANCH  54  79
ATOM     79  C   UNL A   1      42.584  23.694  27.750  1.00  0.00     0.058 A 
ATOM     80  C   UNL A   1      42.646  23.468  26.368  1.00  0.00     0.135 A 
ATOM     81  C   UNL A   1      42.375  22.584  28.584  1.00  0.00     0.135 A 
ATOM     82  F   UNL A   1      42.838  24.497  25.527  1.00  0.00    -0.206 F 
ATOM     83  C   UNL A   1      42.487  22.195  25.828  1.00  0.00     0.059 A 
ATOM     84  C   UNL A   1      42.242  21.298  28.071  1.00  0.00     0.059 A 
ATOM     85  F   UNL A   1      42.324  22.743  29.916  1.00  0.00    -0.206 F 
ATOM     86  C   UNL A   1      42.286  21.116  26.690  1.00  0.00     0.060 A 
BRANCH  86  87
ATOM     87  S   UNL A   1      42.125  19.463  25.981  1.00  0.00     0.124 S 
ATOM     88  O   UNL A   1      42.651  18.629  27.056  1.00  0.00    -0.237 OA
ATOM     89  O   UNL A   1      40.687  19.370  25.746  1.00  0.00    -0.237 OA
ATOM     90  O   UNL A   1      42.946  19.532  24.776  1.00  0.00    -0.744 OA
ENDBRANCH  86  87
ENDBRANCH  54  79
BRANCH  66  91
ATOM     91  C   UNL A   1      47.907  27.070  30.744  1.00  0.00     0.058 A 
ATOM     92  C   UNL A   1      48.205  26.443  31.964  1.00  0.00     0.135 A 
ATOM     93  C   UNL A   1      48.962  27.269  29.836  1.00  0.00     0.135 A 
ATOM     94  F   UNL A   1      47.236  26.232  32.870  1.00  0.00    -0.206 F 
ATOM     95  C   UNL A   1      49.503  26.063  32.289  1.00  0.00     0.059 A 
ATOM     96  C   UNL A   1      50.261  26.866  30.127  1.00  0.00     0.059 A 
ATOM     97  F   UNL A   1      48.733  27.850  28.649  1.00  0.00    -0.206 F 
ATOM     98  C   UNL A   1      50.527  26.280  31.363  1.00  0.00     0.060 A 
BRANCH  98  99
ATOM     99  S   UNL A   1      52.204  25.772  31.792  1.00  0.00     0.124 S 
ATOM    100  O   UNL A   1      52.006  24.368  32.142  1.00  0.00    -0.237 OA
ATOM    101  O   UNL A   1      52.932  26.020  30.553  1.00  0.00    -0.237 OA
ATOM    102  O   UNL A   1      52.551  26.652  32.905  1.00  0.00    -0.744 OA
ENDBRANCH  98  99
ENDBRANCH  66  91
ENDBRANCH  40  41
ENDBRANCH  32  35
ENDBRANCH  30  31
ENDBRANCH  29  30
ENDBRANCH   1  29
TORSDOF 18
ENDMDL
MODEL 3
REMARK VINA RESULT:     -12.2      1.935      3.608
REMARK SMILES O=C(COc1cc(C(F)(F)F)nc(Nc2ccc3c(c2)CCC3)n1)NCCCNC(=O)c1ccc(-c2c3nc(c(-c4c(F)cc(S(=O)(=O)[O-])cc4F)c4ccc([nH]4)c(-c4c(F)cc(S(=O)(=O)[O-])cc4F)c4nc(c(-c5c(F)cc(S(=O)(=O)[O-])cc5F)c5ccc2[nH]5)C=C4)C=C3)cc1
REMARK SMILES IDX 26 1 25 2 1 3 2 4 3 6 4 7 5 8 6 9 24 10 7 11 13 12 12 13
REMARK SMILES IDX 8 14 9 15 10 16 11 17 14 18 15 20 16 21 20 22 17 23 19 24
REMARK SMILES IDX 18 25 21 26 23 27 22 28 27 29 28 30 29 31 30 32 31 34 32 35
REMARK SMILES IDX 33 36 97 37 34 38 96 39 35 40 36 41 37 42 90 43 38 44 95 45
REMARK SMILES IDX 89 46 91 47 39 48 94 49 88 50 87 51 40 53 74 54 53 55 73 56
REMARK SMILES IDX 54 57 57 58 72 59 92 60 55 61 56 62 71 64 93 65 58 66 41 67
REMARK SMILES IDX 42 68 51 69 43 70 44 71 50 72 52 73 45 74 46 75 47 76 48 77
REMARK SMILES IDX 49 78 75 79 76 80 85 81 77 82 78 83 84 84 86 85 79 86 80 87
REMARK SMILES IDX 81 88 82 89 83 90 59 91 60 92 69 93 61 94 62 95 68 96 70 97
REMARK SMILES IDX 63 98 64 99 65 100 66 101 67 102
REMARK H PARENT 25 5 14 19 29 33 91 52 57 63
REMARK Flexibility Score: inf
ROOT
ATOM      1  C   UNL A   1      39.513  22.667  26.999  1.00  0.00     0.117 C 
ENDROOT
BRANCH   1   2
ATOM      2  N   UNL A   1      38.609  23.174  25.987  1.00  0.00    -0.353 N 
ATOM      3  O   UNL A   1      37.777  21.134  25.313  1.00  0.00    -0.271 OA
ATOM      4  C   UNL A   1      37.734  22.359  25.294  1.00  0.00     0.258 C 
ATOM      5  H   UNL A   1      38.617  24.138  25.785  1.00  0.00     0.163 HD
BRANCH   4   6
ATOM      6  C   UNL A   1      36.634  23.131  24.566  1.00  0.00     0.331 C 
BRANCH   6   7
ATOM      7  O   UNL A   1      36.280  24.335  25.248  1.00  0.00    -0.467 OA
BRANCH   7   8
ATOM      8  C   UNL A   1      34.973  24.346  25.670  1.00  0.00     0.219 A 
ATOM      9  C   UNL A   1      34.249  25.509  25.733  1.00  0.00     0.102 A 
ATOM     10  N   UNL A   1      34.429  23.139  25.838  1.00  0.00    -0.177 NA
ATOM     11  C   UNL A   1      32.905  25.384  26.010  1.00  0.00     0.153 A 
ATOM     12  C   UNL A   1      33.108  23.081  26.059  1.00  0.00     0.231 A 
ATOM     13  N   UNL A   1      32.325  24.166  26.155  1.00  0.00    -0.208 NA
BRANCH  11  14
ATOM     14  C   UNL A   1      32.050  26.635  26.120  1.00  0.00     0.433 C 
ATOM     15  F   UNL A   1      32.214  27.484  25.066  1.00  0.00    -0.165 F 
ATOM     16  F   UNL A   1      30.717  26.365  26.188  1.00  0.00    -0.165 F 
ATOM     17  F   UNL A   1      32.328  27.380  27.231  1.00  0.00    -0.165 F 
ENDBRANCH  11  14
BRANCH  12  18
ATOM     18  N   UNL A   1      32.450  21.857  26.086  1.00  0.00    -0.324 N 
ATOM     19  H   UNL A   1      31.765  21.761  26.786  1.00  0.00     0.170 HD
BRANCH  18  20
ATOM     20  C   UNL A   1      32.623  20.742  25.261  1.00  0.00     0.041 A 
ATOM     21  C   UNL A   1      32.382  20.814  23.874  1.00  0.00     0.026 A 
ATOM     22  C   UNL A   1      32.937  19.504  25.836  1.00  0.00     0.030 A 
ATOM     23  C   UNL A   1      32.478  19.687  23.055  1.00  0.00     0.006 A 
ATOM     24  C   UNL A   1      33.004  18.383  25.022  1.00  0.00    -0.043 A 
ATOM     25  C   UNL A   1      32.787  18.476  23.645  1.00  0.00    -0.045 A 
ATOM     26  C   UNL A   1      33.193  16.957  25.434  1.00  0.00     0.036 C 
ATOM     27  C   UNL A   1      32.845  17.128  23.001  1.00  0.00     0.036 C 
ATOM     28  C   UNL A   1      33.547  16.304  24.090  1.00  0.00     0.010 C 
ENDBRANCH  18  20
ENDBRANCH  12  18
ENDBRANCH   7   8
ENDBRANCH   6   7
ENDBRANCH   4   6
ENDBRANCH   1   2
BRANCH   1  29
ATOM     29  C   UNL A   1      40.868  22.266  26.446  1.00  0.00     0.042 C 
BRANCH  29  30
ATOM     30  C   UNL A   1      41.989  23.252  26.757  1.00  0.00     0.118 C 
BRANCH  30  31
ATOM     31  N   UNL A   1      42.242  24.201  25.680  1.00  0.00    -0.352 N 
ATOM     32  C   UNL A   1      42.207  25.575  25.688  1.00  0.00     0.251 C 
ATOM     33  H   UNL A   1      42.473  23.796  24.814  1.00  0.00     0.163 HD
ATOM     34  O   UNL A   1      42.328  26.183  24.627  1.00  0.00    -0.269 OA
BRANCH  32  35
ATOM     35  C   UNL A   1      41.996  26.321  26.950  1.00  0.00     0.039 A 
ATOM     36  C   UNL A   1      42.889  27.343  27.283  1.00  0.00     0.014 A 
ATOM     37  C   UNL A   1      40.938  26.017  27.811  1.00  0.00     0.014 A 
ATOM     38  C   UNL A   1      42.679  28.102  28.438  1.00  0.00     0.010 A 
ATOM     39  C   UNL A   1      40.681  26.830  28.913  1.00  0.00     0.010 A 
ATOM     40  C   UNL A   1      41.552  27.878  29.244  1.00  0.00    -0.014 A 
BRANCH  40  41
ATOM     41  C   UNL A   1      41.270  28.732  30.429  1.00  0.00     0.031 A 
ATOM     42  C   UNL A   1      42.084  28.581  31.689  1.00  0.00     0.074 A 
ATOM     43  C   UNL A   1      40.248  29.611  30.391  1.00  0.00     0.049 A 
ATOM     44  N   UNL A   1      41.960  29.205  32.833  1.00  0.00    -0.248 NA
ATOM     45  C   UNL A   1      43.161  27.579  31.669  1.00  0.00     0.031 C 
ATOM     46  C   UNL A   1      39.352  29.817  29.250  1.00  0.00     0.029 A 
ATOM     47  N   UNL A   1      39.784  30.492  31.336  1.00  0.00    -0.354 N 
ATOM     48  C   UNL A   1      42.932  28.667  33.667  1.00  0.00     0.074 A 
ATOM     49  C   UNL A   1      43.599  27.624  32.919  1.00  0.00     0.031 C 
ATOM     50  C   UNL A   1      38.468  30.780  29.552  1.00  0.00     0.029 A 
ATOM     51  C   UNL A   1      38.703  31.234  30.920  1.00  0.00     0.049 A 
ATOM     52  H   UNL A   1      40.187  30.583  32.230  1.00  0.00     0.167 HD
ATOM     53  C   UNL A   1      43.259  29.025  34.933  1.00  0.00     0.037 A 
ATOM     54  C   UNL A   1      37.980  32.169  31.565  1.00  0.00     0.037 A 
ATOM     55  C   UNL A   1      42.602  30.077  35.668  1.00  0.00     0.049 A 
ATOM     56  C   UNL A   1      38.357  32.546  32.973  1.00  0.00     0.074 A 
ATOM     57  C   UNL A   1      42.893  30.550  36.936  1.00  0.00     0.029 A 
ATOM     58  N   UNL A   1      41.523  30.815  35.206  1.00  0.00    -0.354 N 
ATOM     59  N   UNL A   1      39.323  32.071  33.725  1.00  0.00    -0.248 NA
ATOM     60  C   UNL A   1      37.554  33.594  33.618  1.00  0.00     0.031 C 
ATOM     61  C   UNL A   1      41.956  31.537  37.261  1.00  0.00     0.029 A 
ATOM     62  C   UNL A   1      41.121  31.724  36.171  1.00  0.00     0.049 A 
ATOM     63  H   UNL A   1      41.103  30.708  34.321  1.00  0.00     0.167 HD
ATOM     64  C   UNL A   1      39.263  32.784  34.917  1.00  0.00     0.074 A 
ATOM     65  C   UNL A   1      38.176  33.732  34.780  1.00  0.00     0.031 C 
ATOM     66  C   UNL A   1      40.039  32.667  36.023  1.00  0.00     0.037 A 
BRANCH  53  67
ATOM     67  C   UNL A   1      44.378  28.275  35.606  1.00  0.00     0.058 A 
ATOM     68  C   UNL A   1      45.715  28.693  35.505  1.00  0.00     0.135 A 
ATOM     69  C   UNL A   1      44.108  27.145  36.396  1.00  0.00     0.135 A 
ATOM     70  F   UNL A   1      46.036  29.759  34.752  1.00  0.00    -0.206 F 
ATOM     71  C   UNL A   1      46.745  28.002  36.135  1.00  0.00     0.059 A 
ATOM     72  C   UNL A   1      45.119  26.457  37.061  1.00  0.00     0.059 A 
ATOM     73  F   UNL A   1      42.849  26.699  36.530  1.00  0.00    -0.206 F 
ATOM     74  C   UNL A   1      46.437  26.886  36.912  1.00  0.00     0.060 A 
BRANCH  74  75
ATOM     75  S   UNL A   1      47.786  26.005  37.726  1.00  0.00     0.124 S 
ATOM     76  O   UNL A   1      47.451  26.199  39.134  1.00  0.00    -0.237 OA
ATOM     77  O   UNL A   1      47.622  24.647  37.217  1.00  0.00    -0.237 OA
ATOM     78  O   UNL A   1      48.979  26.706  37.264  1.00  0.00    -0.744 OA
ENDBRANCH  74  75
ENDBRANCH  53  67
BRANCH  54  79
ATOM     79  C   UNL A   1      36.837  32.832  30.879  1.00  0.00     0.058 A 
ATOM     80  C   UNL A   1      35.516  32.424  31.113  1.00  0.00     0.135 A 
ATOM     81  C   UNL A   1      37.042  33.890  29.979  1.00  0.00     0.135 A 
ATOM     82  F   UNL A   1      35.267  31.412  31.960  1.00  0.00    -0.206 F 
ATOM     83  C   UNL A   1      34.440  33.025  30.468  1.00  0.00     0.059 A 
ATOM     84  C   UNL A   1      35.981  34.527  29.344  1.00  0.00     0.059 A 
ATOM     85  F   UNL A   1      38.285  34.331  29.731  1.00  0.00    -0.206 F 
ATOM     86  C   UNL A   1      34.684  34.078  29.586  1.00  0.00     0.060 A 
BRANCH  86  87
ATOM     87  S   UNL A   1      33.276  34.881  28.788  1.00  0.00     0.124 S 
ATOM     88  O   UNL A   1      32.410  35.158  29.928  1.00  0.00    -0.237 OA
ATOM     89  O   UNL A   1      33.901  36.042  28.162  1.00  0.00    -0.237 OA
ATOM     90  O   UNL A   1      32.792  33.863  27.860  1.00  0.00    -0.744 OA
ENDBRANCH  86  87
ENDBRANCH  54  79
BRANCH  66  91
ATOM     91  C   UNL A   1      39.772  33.617  37.160  1.00  0.00     0.058 A 
ATOM     92  C   UNL A   1      38.941  33.273  38.238  1.00  0.00     0.135 A 
ATOM     93  C   UNL A   1      40.382  34.883  37.183  1.00  0.00     0.135 A 
ATOM     94  F   UNL A   1      38.329  32.078  38.266  1.00  0.00    -0.206 F 
ATOM     95  C   UNL A   1      38.695  34.162  39.280  1.00  0.00     0.059 A 
ATOM     96  C   UNL A   1      40.177  35.775  38.231  1.00  0.00     0.059 A 
ATOM     97  F   UNL A   1      41.197  35.260  36.185  1.00  0.00    -0.206 F 
ATOM     98  C   UNL A   1      39.318  35.413  39.267  1.00  0.00     0.060 A 
BRANCH  98  99
ATOM     99  S   UNL A   1      39.000  36.552  40.630  1.00  0.00     0.124 S 
ATOM    100  O   UNL A   1      37.956  35.846  41.366  1.00  0.00    -0.237 OA
ATOM    101  O   UNL A   1      40.300  36.625  41.286  1.00  0.00    -0.237 OA
ATOM    102  O   UNL A   1      38.573  37.777  39.957  1.00  0.00    -0.744 OA
ENDBRANCH  98  99
ENDBRANCH  66  91
ENDBRANCH  40  41
ENDBRANCH  32  35
ENDBRANCH  30  31
ENDBRANCH  29  30
ENDBRANCH   1  29
TORSDOF 18
ENDMDL
