MODEL 1
REMARK VINA RESULT:     -12.2      0.000      0.000
REMARK SMILES C[C@H]([C@@H](C)C(=O)NCCCNC(=O)c1ccc(-c2c3nc(c(-c4c(F)cc(S(=O)(=O)[O-])cc4F)c4ccc([nH]4)c(-c4c(F)cc(S(=O)(=O)[O-])cc4F)c4nc(c(-c5c(F)cc(S(=O)(=O)[O-])cc5F)c5ccc2[nH]5)C=C4)C=C3)cc1)[S@@](=O)c1ccc2ccccc2c1
REMARK SMILES IDX 9 1 8 2 7 3 5 4 6 5 3 7 4 8 2 9 1 10 80 11 81 12 82 13 83 14
REMARK SMILES IDX 91 15 84 16 90 17 85 18 89 19 86 20 88 21 87 22 10 23 11 24
REMARK SMILES IDX 12 25 13 27 14 28 15 29 79 30 16 31 78 32 17 33 18 34 19 35
REMARK SMILES IDX 72 36 20 37 77 38 71 39 73 40 21 41 76 42 70 43 69 44 22 46
REMARK SMILES IDX 56 47 35 48 55 49 36 50 39 51 54 52 74 53 37 54 38 55 53 57
REMARK SMILES IDX 75 58 40 59 23 60 24 61 33 62 25 63 26 64 32 65 34 66 27 67
REMARK SMILES IDX 28 68 29 69 30 70 31 71 57 72 58 73 67 74 59 75 60 76 66 77
REMARK SMILES IDX 68 78 61 79 62 80 63 81 64 82 65 83 41 84 42 85 51 86 43 87
REMARK SMILES IDX 44 88 50 89 52 90 45 91 46 92 47 93 48 94 49 95
REMARK H PARENT 7 6 11 26 73 45 39 56
REMARK Flexibility Score: inf
ROOT
ATOM      1  C   UNL A   1      33.342  27.812  25.620  1.00  0.00     0.042 C 
ENDROOT
BRANCH   1   2
ATOM      2  C   UNL A   1      33.943  26.572  24.978  1.00  0.00     0.117 C 
BRANCH   2   3
ATOM      3  N   UNL A   1      33.770  26.617  23.539  1.00  0.00    -0.356 N 
ATOM      4  C   UNL A   1      33.541  25.638  22.626  1.00  0.00     0.224 C 
ATOM      5  O   UNL A   1      33.616  25.947  21.434  1.00  0.00    -0.275 OA
ATOM      6  H   UNL A   1      33.829  27.521  23.154  1.00  0.00     0.163 HD
BRANCH   4   7
ATOM      7  C   UNL A   1      33.101  24.234  23.024  1.00  0.00     0.091 C 
ATOM      8  C   UNL A   1      33.307  23.324  21.806  1.00  0.00     0.019 C 
BRANCH   7   9
ATOM      9  C   UNL A   1      31.837  24.195  23.946  1.00  0.00     0.093 C 
ATOM     10  C   UNL A   1      30.417  24.055  23.396  1.00  0.00     0.023 C 
BRANCH   9  11
ATOM     11  S   UNL A   1      32.061  23.099  25.429  1.00  0.00     0.057 S 
ATOM     12  O   UNL A   1      30.719  22.566  25.833  1.00  0.00    -0.254 OA
BRANCH  11  13
ATOM     13  C   UNL A   1      32.981  21.663  24.833  1.00  0.00     0.040 A 
ATOM     14  C   UNL A   1      34.334  21.498  25.080  1.00  0.00     0.018 A 
ATOM     15  C   UNL A   1      32.311  20.606  24.211  1.00  0.00     0.026 A 
ATOM     16  C   UNL A   1      34.937  20.252  25.068  1.00  0.00     0.010 A 
ATOM     17  C   UNL A   1      32.972  19.378  23.981  1.00  0.00    -0.017 A 
ATOM     18  C   UNL A   1      34.251  19.174  24.545  1.00  0.00    -0.018 A 
ATOM     19  C   UNL A   1      32.438  18.348  23.195  1.00  0.00     0.009 A 
ATOM     20  C   UNL A   1      34.873  17.927  24.500  1.00  0.00     0.009 A 
ATOM     21  C   UNL A   1      33.142  17.150  23.022  1.00  0.00     0.001 A 
ATOM     22  C   UNL A   1      34.328  16.919  23.718  1.00  0.00     0.001 A 
ENDBRANCH  11  13
ENDBRANCH   9  11
ENDBRANCH   7   9
ENDBRANCH   4   7
ENDBRANCH   2   3
ENDBRANCH   1   2
BRANCH   1  23
ATOM     23  C   UNL A   1      34.064  28.223  26.887  1.00  0.00     0.118 C 
BRANCH  23  24
ATOM     24  N   UNL A   1      33.746  29.589  27.276  1.00  0.00    -0.352 N 
ATOM     25  C   UNL A   1      34.492  30.465  28.023  1.00  0.00     0.251 C 
ATOM     26  H   UNL A   1      32.879  29.930  26.960  1.00  0.00     0.163 HD
ATOM     27  O   UNL A   1      33.977  31.502  28.441  1.00  0.00    -0.269 OA
BRANCH  25  28
ATOM     28  C   UNL A   1      35.901  30.146  28.337  1.00  0.00     0.039 A 
ATOM     29  C   UNL A   1      36.227  29.653  29.603  1.00  0.00     0.014 A 
ATOM     30  C   UNL A   1      36.897  30.324  27.374  1.00  0.00     0.014 A 
ATOM     31  C   UNL A   1      37.546  29.286  29.881  1.00  0.00     0.010 A 
ATOM     32  C   UNL A   1      38.181  29.857  27.615  1.00  0.00     0.010 A 
ATOM     33  C   UNL A   1      38.526  29.357  28.879  1.00  0.00    -0.014 A 
BRANCH  33  34
ATOM     34  C   UNL A   1      39.937  28.970  29.125  1.00  0.00     0.031 A 
ATOM     35  C   UNL A   1      40.904  30.004  29.636  1.00  0.00     0.074 A 
ATOM     36  C   UNL A   1      40.368  27.735  28.802  1.00  0.00     0.049 A 
ATOM     37  N   UNL A   1      42.201  29.930  29.773  1.00  0.00    -0.248 NA
ATOM     38  C   UNL A   1      40.335  31.312  30.005  1.00  0.00     0.031 C 
ATOM     39  C   UNL A   1      39.532  26.660  28.262  1.00  0.00     0.029 A 
ATOM     40  N   UNL A   1      41.623  27.184  28.858  1.00  0.00    -0.354 N 
ATOM     41  C   UNL A   1      42.605  31.185  30.213  1.00  0.00     0.074 A 
ATOM     42  C   UNL A   1      41.425  32.019  30.258  1.00  0.00     0.031 C 
ATOM     43  C   UNL A   1      40.296  25.576  28.049  1.00  0.00     0.029 A 
ATOM     44  C   UNL A   1      41.680  25.894  28.388  1.00  0.00     0.049 A 
ATOM     45  H   UNL A   1      42.408  27.667  29.203  1.00  0.00     0.167 HD
ATOM     46  C   UNL A   1      43.844  31.599  30.571  1.00  0.00     0.037 A 
ATOM     47  C   UNL A   1      42.733  25.067  28.229  1.00  0.00     0.037 A 
ATOM     48  C   UNL A   1      45.006  30.752  30.543  1.00  0.00     0.049 A 
ATOM     49  C   UNL A   1      44.104  25.545  28.625  1.00  0.00     0.074 A 
ATOM     50  C   UNL A   1      46.299  31.050  30.933  1.00  0.00     0.029 A 
ATOM     51  N   UNL A   1      45.016  29.437  30.094  1.00  0.00    -0.354 N 
ATOM     52  N   UNL A   1      44.465  26.719  29.087  1.00  0.00    -0.248 NA
ATOM     53  C   UNL A   1      45.209  24.588  28.484  1.00  0.00     0.031 C 
ATOM     54  C   UNL A   1      47.101  29.935  30.669  1.00  0.00     0.029 A 
ATOM     55  C   UNL A   1      46.296  28.917  30.180  1.00  0.00     0.049 A 
ATOM     56  H   UNL A   1      44.228  28.947  29.766  1.00  0.00     0.167 HD
ATOM     57  C   UNL A   1      45.831  26.630  29.330  1.00  0.00     0.074 A 
ATOM     58  C   UNL A   1      46.232  25.288  28.960  1.00  0.00     0.031 C 
ATOM     59  C   UNL A   1      46.674  27.571  29.823  1.00  0.00     0.037 A 
BRANCH  46  60
ATOM     60  C   UNL A   1      43.998  33.032  31.009  1.00  0.00     0.058 A 
ATOM     61  C   UNL A   1      43.795  33.427  32.342  1.00  0.00     0.135 A 
ATOM     62  C   UNL A   1      44.348  34.027  30.082  1.00  0.00     0.135 A 
ATOM     63  F   UNL A   1      43.444  32.522  33.270  1.00  0.00    -0.206 F 
ATOM     64  C   UNL A   1      43.881  34.760  32.729  1.00  0.00     0.059 A 
ATOM     65  C   UNL A   1      44.478  35.362  30.454  1.00  0.00     0.059 A 
ATOM     66  F   UNL A   1      44.558  33.711  28.794  1.00  0.00    -0.206 F 
ATOM     67  C   UNL A   1      44.219  35.722  31.775  1.00  0.00     0.060 A 
BRANCH  67  68
ATOM     68  S   UNL A   1      44.300  37.450  32.288  1.00  0.00     0.124 S 
ATOM     69  O   UNL A   1      43.388  37.457  33.428  1.00  0.00    -0.237 OA
ATOM     70  O   UNL A   1      45.714  37.614  32.609  1.00  0.00    -0.237 OA
ATOM     71  O   UNL A   1      43.839  38.177  31.111  1.00  0.00    -0.744 OA
ENDBRANCH  67  68
ENDBRANCH  46  60
BRANCH  47  72
ATOM     72  C   UNL A   1      42.515  23.697  27.692  1.00  0.00     0.058 A 
ATOM     73  C   UNL A   1      42.480  23.462  26.310  1.00  0.00     0.135 A 
ATOM     74  C   UNL A   1      42.386  22.590  28.546  1.00  0.00     0.135 A 
ATOM     75  F   UNL A   1      42.591  24.488  25.452  1.00  0.00    -0.206 F 
ATOM     76  C   UNL A   1      42.322  22.181  25.792  1.00  0.00     0.059 A 
ATOM     77  C   UNL A   1      42.255  21.296  28.052  1.00  0.00     0.059 A 
ATOM     78  F   UNL A   1      42.430  22.760  29.876  1.00  0.00    -0.206 F 
ATOM     79  C   UNL A   1      42.219  21.102  26.672  1.00  0.00     0.060 A 
BRANCH  79  80
ATOM     80  S   UNL A   1      42.094  19.436  25.984  1.00  0.00     0.124 S 
ATOM     81  O   UNL A   1      42.932  19.543  24.796  1.00  0.00    -0.237 OA
ATOM     82  O   UNL A   1      42.626  18.618  27.070  1.00  0.00    -0.237 OA
ATOM     83  O   UNL A   1      40.663  19.281  25.738  1.00  0.00    -0.744 OA
ENDBRANCH  79  80
ENDBRANCH  47  72
BRANCH  59  84
ATOM     84  C   UNL A   1      48.108  27.178  30.052  1.00  0.00     0.058 A 
ATOM     85  C   UNL A   1      49.112  27.433  29.106  1.00  0.00     0.135 A 
ATOM     86  C   UNL A   1      48.493  26.614  31.280  1.00  0.00     0.135 A 
ATOM     87  F   UNL A   1      48.798  27.964  27.913  1.00  0.00    -0.206 F 
ATOM     88  C   UNL A   1      50.446  27.133  29.365  1.00  0.00     0.059 A 
ATOM     89  C   UNL A   1      49.823  26.333  31.571  1.00  0.00     0.059 A 
ATOM     90  F   UNL A   1      47.572  26.358  32.224  1.00  0.00    -0.206 F 
ATOM     91  C   UNL A   1      50.793  26.590  30.604  1.00  0.00     0.060 A 
BRANCH  91  92
ATOM     92  S   UNL A   1      52.534  26.262  30.949  1.00  0.00     0.124 S 
ATOM     93  O   UNL A   1      53.084  26.144  29.603  1.00  0.00    -0.237 OA
ATOM     94  O   UNL A   1      52.932  27.451  31.697  1.00  0.00    -0.237 OA
ATOM     95  O   UNL A   1      52.500  25.025  31.723  1.00  0.00    -0.744 OA
ENDBRANCH  91  92
ENDBRANCH  59  84
ENDBRANCH  33  34
ENDBRANCH  25  28
ENDBRANCH  23  24
ENDBRANCH   1  23
TORSDOF 16
ENDMDL
MODEL 2
REMARK VINA RESULT:     -12.0      1.201      2.401
REMARK SMILES C[C@H]([C@@H](C)C(=O)NCCCNC(=O)c1ccc(-c2c3nc(c(-c4c(F)cc(S(=O)(=O)[O-])cc4F)c4ccc([nH]4)c(-c4c(F)cc(S(=O)(=O)[O-])cc4F)c4nc(c(-c5c(F)cc(S(=O)(=O)[O-])cc5F)c5ccc2[nH]5)C=C4)C=C3)cc1)[S@@](=O)c1ccc2ccccc2c1
REMARK SMILES IDX 9 1 8 2 7 3 5 4 6 5 3 7 4 8 2 9 1 10 80 11 81 12 82 13 83 14
REMARK SMILES IDX 91 15 84 16 90 17 85 18 89 19 86 20 88 21 87 22 10 23 11 24
REMARK SMILES IDX 12 25 13 27 14 28 15 29 79 30 16 31 78 32 17 33 18 34 19 35
REMARK SMILES IDX 72 36 20 37 77 38 71 39 73 40 21 41 76 42 70 43 69 44 22 46
REMARK SMILES IDX 56 47 35 48 55 49 36 50 39 51 54 52 74 53 37 54 38 55 53 57
REMARK SMILES IDX 75 58 40 59 23 60 24 61 33 62 25 63 26 64 32 65 34 66 27 67
REMARK SMILES IDX 28 68 29 69 30 70 31 71 57 72 58 73 67 74 59 75 60 76 66 77
REMARK SMILES IDX 68 78 61 79 62 80 63 81 64 82 65 83 41 84 42 85 51 86 43 87
REMARK SMILES IDX 44 88 50 89 52 90 45 91 46 92 47 93 48 94 49 95
REMARK H PARENT 7 6 11 26 73 45 39 56
REMARK Flexibility Score: inf
ROOT
ATOM      1  C   UNL A   1      34.269  27.693  25.438  1.00  0.00     0.042 C 
ENDROOT
BRANCH   1   2
ATOM      2  C   UNL A   1      33.289  28.229  24.406  1.00  0.00     0.117 C 
BRANCH   2   3
ATOM      3  N   UNL A   1      33.558  27.645  23.106  1.00  0.00    -0.356 N 
ATOM      4  C   UNL A   1      33.093  26.518  22.509  1.00  0.00     0.224 C 
ATOM      5  O   UNL A   1      33.635  26.169  21.457  1.00  0.00    -0.275 OA
ATOM      6  H   UNL A   1      34.192  28.160  22.556  1.00  0.00     0.163 HD
BRANCH   4   7
ATOM      7  C   UNL A   1      31.883  25.753  23.032  1.00  0.00     0.091 C 
ATOM      8  C   UNL A   1      30.658  26.663  22.873  1.00  0.00     0.019 C 
BRANCH   7   9
ATOM      9  C   UNL A   1      32.172  24.885  24.302  1.00  0.00     0.093 C 
ATOM     10  C   UNL A   1      31.442  25.092  25.629  1.00  0.00     0.023 C 
BRANCH   9  11
ATOM     11  S   UNL A   1      32.306  23.072  23.919  1.00  0.00     0.057 S 
ATOM     12  O   UNL A   1      32.517  22.913  22.442  1.00  0.00    -0.254 OA
BRANCH  11  13
ATOM     13  C   UNL A   1      33.851  22.531  24.680  1.00  0.00     0.040 A 
ATOM     14  C   UNL A   1      34.173  21.192  24.827  1.00  0.00     0.018 A 
ATOM     15  C   UNL A   1      34.831  23.466  25.026  1.00  0.00     0.026 A 
ATOM     16  C   UNL A   1      35.483  20.759  24.948  1.00  0.00     0.010 A 
ATOM     17  C   UNL A   1      36.134  23.040  25.375  1.00  0.00    -0.017 A 
ATOM     18  C   UNL A   1      36.480  21.683  25.194  1.00  0.00    -0.018 A 
ATOM     19  C   UNL A   1      37.105  23.891  25.919  1.00  0.00     0.009 A 
ATOM     20  C   UNL A   1      37.793  21.242  25.354  1.00  0.00     0.009 A 
ATOM     21  C   UNL A   1      38.381  23.404  26.226  1.00  0.00     0.001 A 
ATOM     22  C   UNL A   1      38.741  22.099  25.892  1.00  0.00     0.001 A 
ENDBRANCH  11  13
ENDBRANCH   9  11
ENDBRANCH   7   9
ENDBRANCH   4   7
ENDBRANCH   2   3
ENDBRANCH   1   2
BRANCH   1  23
ATOM     23  C   UNL A   1      33.830  27.972  26.861  1.00  0.00     0.118 C 
BRANCH  23  24
ATOM     24  N   UNL A   1      33.512  29.377  27.067  1.00  0.00    -0.352 N 
ATOM     25  C   UNL A   1      34.245  30.337  27.719  1.00  0.00     0.251 C 
ATOM     26  H   UNL A   1      32.656  29.680  26.687  1.00  0.00     0.163 HD
ATOM     27  O   UNL A   1      33.726  31.420  27.990  1.00  0.00    -0.269 OA
BRANCH  25  28
ATOM     28  C   UNL A   1      35.642  30.053  28.108  1.00  0.00     0.039 A 
ATOM     29  C   UNL A   1      35.916  29.605  29.402  1.00  0.00     0.014 A 
ATOM     30  C   UNL A   1      36.680  30.221  27.188  1.00  0.00     0.014 A 
ATOM     31  C   UNL A   1      37.226  29.271  29.753  1.00  0.00     0.010 A 
ATOM     32  C   UNL A   1      37.959  29.785  27.503  1.00  0.00     0.010 A 
ATOM     33  C   UNL A   1      38.251  29.330  28.796  1.00  0.00    -0.014 A 
BRANCH  33  34
ATOM     34  C   UNL A   1      39.656  28.977  29.120  1.00  0.00     0.031 A 
ATOM     35  C   UNL A   1      40.561  30.027  29.707  1.00  0.00     0.074 A 
ATOM     36  C   UNL A   1      40.139  27.761  28.803  1.00  0.00     0.049 A 
ATOM     37  N   UNL A   1      41.849  29.986  29.920  1.00  0.00    -0.248 NA
ATOM     38  C   UNL A   1      39.935  31.312  30.063  1.00  0.00     0.031 C 
ATOM     39  C   UNL A   1      39.369  26.674  28.195  1.00  0.00     0.029 A 
ATOM     40  N   UNL A   1      41.404  27.243  28.924  1.00  0.00    -0.354 N 
ATOM     41  C   UNL A   1      42.191  31.243  30.405  1.00  0.00     0.074 A 
ATOM     42  C   UNL A   1      40.987  32.043  30.393  1.00  0.00     0.031 C 
ATOM     43  C   UNL A   1      40.174  25.615  28.010  1.00  0.00     0.029 A 
ATOM     44  C   UNL A   1      41.526  25.964  28.437  1.00  0.00     0.049 A 
ATOM     45  H   UNL A   1      42.153  27.741  29.325  1.00  0.00     0.167 HD
ATOM     46  C   UNL A   1      43.394  31.684  30.844  1.00  0.00     0.037 A 
ATOM     47  C   UNL A   1      42.610  25.169  28.327  1.00  0.00     0.037 A 
ATOM     48  C   UNL A   1      44.579  30.869  30.871  1.00  0.00     0.049 A 
ATOM     49  C   UNL A   1      43.940  25.677  28.813  1.00  0.00     0.074 A 
ATOM     50  C   UNL A   1      45.837  31.195  31.343  1.00  0.00     0.029 A 
ATOM     51  N   UNL A   1      44.653  29.563  30.402  1.00  0.00    -0.354 N 
ATOM     52  N   UNL A   1      44.239  26.851  29.317  1.00  0.00    -0.248 NA
ATOM     53  C   UNL A   1      45.078  24.753  28.723  1.00  0.00     0.031 C 
ATOM     54  C   UNL A   1      46.685  30.107  31.110  1.00  0.00     0.029 A 
ATOM     55  C   UNL A   1      45.940  29.077  30.556  1.00  0.00     0.049 A 
ATOM     56  H   UNL A   1      43.900  29.059  30.018  1.00  0.00     0.167 HD
ATOM     57  C   UNL A   1      45.591  26.795  29.640  1.00  0.00     0.074 A 
ATOM     58  C   UNL A   1      46.051  25.471  29.271  1.00  0.00     0.031 C 
ATOM     59  C   UNL A   1      46.376  27.749  30.199  1.00  0.00     0.037 A 
BRANCH  46  60
ATOM     60  C   UNL A   1      43.481  33.112  31.315  1.00  0.00     0.058 A 
ATOM     61  C   UNL A   1      43.693  34.176  30.422  1.00  0.00     0.135 A 
ATOM     62  C   UNL A   1      43.357  33.421  32.679  1.00  0.00     0.135 A 
ATOM     63  F   UNL A   1      43.834  33.939  29.107  1.00  0.00    -0.206 F 
ATOM     64  C   UNL A   1      43.832  35.485  30.868  1.00  0.00     0.059 A 
ATOM     65  C   UNL A   1      43.454  34.730  33.145  1.00  0.00     0.059 A 
ATOM     66  F   UNL A   1      43.151  32.448  33.579  1.00  0.00    -0.206 F 
ATOM     67  C   UNL A   1      43.716  35.752  32.234  1.00  0.00     0.060 A 
BRANCH  67  68
ATOM     68  S   UNL A   1      43.925  37.453  32.799  1.00  0.00     0.124 S 
ATOM     69  O   UNL A   1      43.781  38.193  31.549  1.00  0.00    -0.237 OA
ATOM     70  O   UNL A   1      42.830  37.602  33.752  1.00  0.00    -0.237 OA
ATOM     71  O   UNL A   1      45.263  37.456  33.380  1.00  0.00    -0.744 OA
ENDBRANCH  67  68
ENDBRANCH  46  60
BRANCH  47  72
ATOM     72  C   UNL A   1      42.463  23.804  27.754  1.00  0.00     0.058 A 
ATOM     73  C   UNL A   1      42.535  23.591  26.370  1.00  0.00     0.135 A 
ATOM     74  C   UNL A   1      42.296  22.680  28.580  1.00  0.00     0.135 A 
ATOM     75  F   UNL A   1      42.685  24.634  25.539  1.00  0.00    -0.206 F 
ATOM     76  C   UNL A   1      42.445  22.317  25.822  1.00  0.00     0.059 A 
ATOM     77  C   UNL A   1      42.231  21.392  28.058  1.00  0.00     0.059 A 
ATOM     78  F   UNL A   1      42.238  22.828  29.912  1.00  0.00    -0.206 F 
ATOM     79  C   UNL A   1      42.302  21.221  26.676  1.00  0.00     0.060 A 
BRANCH  79  80
ATOM     80  S   UNL A   1      42.265  19.565  25.955  1.00  0.00     0.124 S 
ATOM     81  O   UNL A   1      40.843  19.395  25.679  1.00  0.00    -0.237 OA
ATOM     82  O   UNL A   1      43.128  19.722  24.788  1.00  0.00    -0.237 OA
ATOM     83  O   UNL A   1      42.808  18.724  27.017  1.00  0.00    -0.744 OA
ENDBRANCH  79  80
ENDBRANCH  47  72
BRANCH  59  84
ATOM     84  C   UNL A   1      47.805  27.390  30.506  1.00  0.00     0.058 A 
ATOM     85  C   UNL A   1      48.175  26.766  31.707  1.00  0.00     0.135 A 
ATOM     86  C   UNL A   1      48.803  27.598  29.540  1.00  0.00     0.135 A 
ATOM     87  F   UNL A   1      47.261  26.550  32.667  1.00  0.00    -0.206 F 
ATOM     88  C   UNL A   1      49.488  26.371  31.943  1.00  0.00     0.059 A 
ATOM     89  C   UNL A   1      50.115  27.183  29.743  1.00  0.00     0.059 A 
ATOM     90  F   UNL A   1      48.500  28.182  28.370  1.00  0.00    -0.206 F 
ATOM     91  C   UNL A   1      50.449  26.577  30.952  1.00  0.00     0.060 A 
BRANCH  91  92
ATOM     92  S   UNL A   1      52.136  26.004  31.248  1.00  0.00     0.124 S 
ATOM     93  O   UNL A   1      51.901  24.683  31.820  1.00  0.00    -0.237 OA
ATOM     94  O   UNL A   1      52.711  26.022  29.906  1.00  0.00    -0.237 OA
ATOM     95  O   UNL A   1      52.677  26.999  32.169  1.00  0.00    -0.744 OA
ENDBRANCH  91  92
ENDBRANCH  59  84
ENDBRANCH  33  34
ENDBRANCH  25  28
ENDBRANCH  23  24
ENDBRANCH   1  23
TORSDOF 16
ENDMDL
MODEL 3
REMARK VINA RESULT:     -11.9      3.230      4.164
REMARK SMILES C[C@H]([C@@H](C)C(=O)NCCCNC(=O)c1ccc(-c2c3nc(c(-c4c(F)cc(S(=O)(=O)[O-])cc4F)c4ccc([nH]4)c(-c4c(F)cc(S(=O)(=O)[O-])cc4F)c4nc(c(-c5c(F)cc(S(=O)(=O)[O-])cc5F)c5ccc2[nH]5)C=C4)C=C3)cc1)[S@@](=O)c1ccc2ccccc2c1
REMARK SMILES IDX 9 1 8 2 7 3 5 4 6 5 3 7 4 8 2 9 1 10 80 11 81 12 82 13 83 14
REMARK SMILES IDX 91 15 84 16 90 17 85 18 89 19 86 20 88 21 87 22 10 23 11 24
REMARK SMILES IDX 12 25 13 27 14 28 15 29 79 30 16 31 78 32 17 33 18 34 19 35
REMARK SMILES IDX 72 36 20 37 77 38 71 39 73 40 21 41 76 42 70 43 69 44 22 46
REMARK SMILES IDX 56 47 35 48 55 49 36 50 39 51 54 52 74 53 37 54 38 55 53 57
REMARK SMILES IDX 75 58 40 59 23 60 24 61 33 62 25 63 26 64 32 65 34 66 27 67
REMARK SMILES IDX 28 68 29 69 30 70 31 71 57 72 58 73 67 74 59 75 60 76 66 77
REMARK SMILES IDX 68 78 61 79 62 80 63 81 64 82 65 83 41 84 42 85 51 86 43 87
REMARK SMILES IDX 44 88 50 89 52 90 45 91 46 92 47 93 48 94 49 95
REMARK H PARENT 7 6 11 26 73 45 39 56
REMARK Flexibility Score: inf
ROOT
ATOM      1  C   UNL A   1      33.712  28.207  24.732  1.00  0.00     0.042 C 
ENDROOT
BRANCH   1   2
ATOM      2  C   UNL A   1      32.284  28.343  24.229  1.00  0.00     0.117 C 
BRANCH   2   3
ATOM      3  N   UNL A   1      31.372  27.633  25.105  1.00  0.00    -0.356 N 
ATOM      4  C   UNL A   1      30.903  26.360  25.080  1.00  0.00     0.224 C 
ATOM      5  O   UNL A   1      29.989  26.077  25.859  1.00  0.00    -0.275 OA
ATOM      6  H   UNL A   1      31.033  28.173  25.856  1.00  0.00     0.163 HD
BRANCH   4   7
ATOM      7  C   UNL A   1      31.531  25.273  24.214  1.00  0.00     0.091 C 
ATOM      8  C   UNL A   1      30.390  24.536  23.500  1.00  0.00     0.019 C 
BRANCH   7   9
ATOM      9  C   UNL A   1      32.761  24.562  24.869  1.00  0.00     0.093 C 
ATOM     10  C   UNL A   1      32.666  23.797  26.190  1.00  0.00     0.023 C 
BRANCH   9  11
ATOM     11  S   UNL A   1      33.774  23.602  23.644  1.00  0.00     0.057 S 
ATOM     12  O   UNL A   1      34.402  24.570  22.685  1.00  0.00    -0.254 OA
BRANCH  11  13
ATOM     13  C   UNL A   1      35.150  22.912  24.590  1.00  0.00     0.040 A 
ATOM     14  C   UNL A   1      35.358  21.547  24.701  1.00  0.00     0.018 A 
ATOM     15  C   UNL A   1      36.125  23.755  25.131  1.00  0.00     0.026 A 
ATOM     16  C   UNL A   1      36.604  21.015  24.986  1.00  0.00     0.010 A 
ATOM     17  C   UNL A   1      37.330  23.218  25.640  1.00  0.00    -0.017 A 
ATOM     18  C   UNL A   1      37.610  21.850  25.431  1.00  0.00    -0.018 A 
ATOM     19  C   UNL A   1      38.261  23.968  26.371  1.00  0.00     0.009 A 
ATOM     20  C   UNL A   1      38.853  21.307  25.754  1.00  0.00     0.009 A 
ATOM     21  C   UNL A   1      39.443  23.374  26.832  1.00  0.00     0.001 A 
ATOM     22  C   UNL A   1      39.763  22.065  26.476  1.00  0.00     0.001 A 
ENDBRANCH  11  13
ENDBRANCH   9  11
ENDBRANCH   7   9
ENDBRANCH   4   7
ENDBRANCH   2   3
ENDBRANCH   1   2
BRANCH   1  23
ATOM     23  C   UNL A   1      33.851  28.562  26.199  1.00  0.00     0.118 C 
BRANCH  23  24
ATOM     24  N   UNL A   1      33.711  29.993  26.427  1.00  0.00    -0.352 N 
ATOM     25  C   UNL A   1      34.424  30.801  27.276  1.00  0.00     0.251 C 
ATOM     26  H   UNL A   1      33.010  30.441  25.902  1.00  0.00     0.163 HD
ATOM     27  O   UNL A   1      34.027  31.943  27.506  1.00  0.00    -0.269 OA
BRANCH  25  28
ATOM     28  C   UNL A   1      35.648  30.285  27.923  1.00  0.00     0.039 A 
ATOM     29  C   UNL A   1      36.882  30.451  27.289  1.00  0.00     0.014 A 
ATOM     30  C   UNL A   1      35.577  29.648  29.165  1.00  0.00     0.014 A 
ATOM     31  C   UNL A   1      38.049  30.026  27.929  1.00  0.00     0.010 A 
ATOM     32  C   UNL A   1      36.742  29.328  29.845  1.00  0.00     0.010 A 
ATOM     33  C   UNL A   1      37.989  29.490  29.224  1.00  0.00    -0.014 A 
BRANCH  33  34
ATOM     34  C   UNL A   1      39.203  29.033  29.947  1.00  0.00     0.031 A 
ATOM     35  C   UNL A   1      39.633  29.761  31.192  1.00  0.00     0.074 A 
ATOM     36  C   UNL A   1      39.961  28.043  29.439  1.00  0.00     0.049 A 
ATOM     37  N   UNL A   1      40.732  29.635  31.888  1.00  0.00    -0.248 NA
ATOM     38  C   UNL A   1      38.719  30.799  31.698  1.00  0.00     0.031 C 
ATOM     39  C   UNL A   1      39.667  27.289  28.219  1.00  0.00     0.029 A 
ATOM     40  N   UNL A   1      41.151  27.516  29.875  1.00  0.00    -0.354 N 
ATOM     41  C   UNL A   1      40.655  30.594  32.891  1.00  0.00     0.074 A 
ATOM     42  C   UNL A   1      39.433  31.336  32.674  1.00  0.00     0.031 C 
ATOM     43  C   UNL A   1      40.642  26.390  28.012  1.00  0.00     0.029 A 
ATOM     44  C   UNL A   1      41.655  26.537  29.054  1.00  0.00     0.049 A 
ATOM     45  H   UNL A   1      41.600  27.811  30.700  1.00  0.00     0.167 HD
ATOM     46  C   UNL A   1      41.512  30.820  33.915  1.00  0.00     0.037 A 
ATOM     47  C   UNL A   1      42.812  25.849  29.121  1.00  0.00     0.037 A 
ATOM     48  C   UNL A   1      42.713  30.059  34.131  1.00  0.00     0.049 A 
ATOM     49  C   UNL A   1      43.756  26.117  30.261  1.00  0.00     0.074 A 
ATOM     50  C   UNL A   1      43.627  30.167  35.163  1.00  0.00     0.029 A 
ATOM     51  N   UNL A   1      43.171  29.048  33.295  1.00  0.00    -0.354 N 
ATOM     52  N   UNL A   1      43.647  26.993  31.232  1.00  0.00    -0.248 NA
ATOM     53  C   UNL A   1      44.977  25.303  30.320  1.00  0.00     0.031 C 
ATOM     54  C   UNL A   1      44.664  29.260  34.923  1.00  0.00     0.029 A 
ATOM     55  C   UNL A   1      44.363  28.537  33.778  1.00  0.00     0.049 A 
ATOM     56  H   UNL A   1      42.713  28.740  32.479  1.00  0.00     0.167 HD
ATOM     57  C   UNL A   1      44.764  26.809  32.039  1.00  0.00     0.074 A 
ATOM     58  C   UNL A   1      45.538  25.740  31.441  1.00  0.00     0.031 C 
ATOM     59  C   UNL A   1      45.112  27.460  33.178  1.00  0.00     0.037 A 
BRANCH  46  60
ATOM     60  C   UNL A   1      41.181  31.943  34.863  1.00  0.00     0.058 A 
ATOM     61  C   UNL A   1      40.316  31.760  35.956  1.00  0.00     0.135 A 
ATOM     62  C   UNL A   1      41.730  33.221  34.674  1.00  0.00     0.135 A 
ATOM     63  F   UNL A   1      39.750  30.562  36.179  1.00  0.00    -0.206 F 
ATOM     64  C   UNL A   1      39.968  32.813  36.794  1.00  0.00     0.059 A 
ATOM     65  C   UNL A   1      41.425  34.282  35.523  1.00  0.00     0.059 A 
ATOM     66  F   UNL A   1      42.564  33.456  33.649  1.00  0.00    -0.206 F 
ATOM     67  C   UNL A   1      40.524  34.074  36.565  1.00  0.00     0.060 A 
BRANCH  67  68
ATOM     68  S   UNL A   1      40.041  35.436  37.646  1.00  0.00     0.124 S 
ATOM     69  O   UNL A   1      38.947  34.832  38.401  1.00  0.00    -0.237 OA
ATOM     70  O   UNL A   1      41.265  35.687  38.399  1.00  0.00    -0.237 OA
ATOM     71  O   UNL A   1      39.654  36.489  36.713  1.00  0.00    -0.744 OA
ENDBRANCH  67  68
ENDBRANCH  46  60
BRANCH  47  72
ATOM     72  C   UNL A   1      43.118  24.825  28.086  1.00  0.00     0.058 A 
ATOM     73  C   UNL A   1      43.729  25.183  26.876  1.00  0.00     0.135 A 
ATOM     74  C   UNL A   1      42.850  23.464  28.304  1.00  0.00     0.135 A 
ATOM     75  F   UNL A   1      43.998  26.472  26.616  1.00  0.00    -0.206 F 
ATOM     76  C   UNL A   1      44.062  24.233  25.917  1.00  0.00     0.059 A 
ATOM     77  C   UNL A   1      43.198  22.491  27.372  1.00  0.00     0.059 A 
ATOM     78  F   UNL A   1      42.282  23.067  29.453  1.00  0.00    -0.206 F 
ATOM     79  C   UNL A   1      43.801  22.886  26.179  1.00  0.00     0.060 A 
BRANCH  79  80
ATOM     80  S   UNL A   1      44.310  21.655  24.958  1.00  0.00     0.124 S 
ATOM     81  O   UNL A   1      44.177  22.402  23.713  1.00  0.00    -0.237 OA
ATOM     82  O   UNL A   1      45.676  21.355  25.381  1.00  0.00    -0.237 OA
ATOM     83  O   UNL A   1      43.351  20.572  25.152  1.00  0.00    -0.744 OA
ENDBRANCH  79  80
ENDBRANCH  47  72
BRANCH  59  84
ATOM     84  C   UNL A   1      46.354  27.004  33.894  1.00  0.00     0.058 A 
ATOM     85  C   UNL A   1      47.607  27.591  33.662  1.00  0.00     0.135 A 
ATOM     86  C   UNL A   1      46.265  26.022  34.894  1.00  0.00     0.135 A 
ATOM     87  F   UNL A   1      47.749  28.530  32.713  1.00  0.00    -0.206 F 
ATOM     88  C   UNL A   1      48.731  27.211  34.389  1.00  0.00     0.059 A 
ATOM     89  C   UNL A   1      47.369  25.648  35.653  1.00  0.00     0.059 A 
ATOM     90  F   UNL A   1      45.087  25.435  35.163  1.00  0.00    -0.206 F 
ATOM     91  C   UNL A   1      48.600  26.244  35.388  1.00  0.00     0.060 A 
BRANCH  91  92
ATOM     92  S   UNL A   1      50.055  25.805  36.364  1.00  0.00     0.124 S 
ATOM     93  O   UNL A   1      51.101  25.804  35.348  1.00  0.00    -0.237 OA
ATOM     94  O   UNL A   1      50.115  26.891  37.337  1.00  0.00    -0.237 OA
ATOM     95  O   UNL A   1      49.713  24.497  36.914  1.00  0.00    -0.744 OA
ENDBRANCH  91  92
ENDBRANCH  59  84
ENDBRANCH  33  34
ENDBRANCH  25  28
ENDBRANCH  23  24
ENDBRANCH   1  23
TORSDOF 16
ENDMDL
