MODEL 1
REMARK VINA RESULT:     -12.0      0.000      0.000
REMARK SMILES Cc1cc(Cl)cc2c1O[C@H](C(F)(F)F)C(C(=O)NCCCNC(=O)c1ccc(-c3c4nc(c(-c5c(F)cc(S(=O)(=O)[O-])cc5F)c5ccc([nH]5)c(-c5c(F)cc(S(=O)(=O)[O-])cc5F)c5nc(c(-c6c(F)cc(S(=O)(=O)[O-])cc6F)c6ccc3[nH]6)C=C5)C=C4)cc1)=C2
REMARK SMILES IDX 21 1 20 2 19 3 18 4 16 5 17 6 15 8 1 9 2 10 3 11 8 12 4 13
REMARK SMILES IDX 7 14 9 15 5 16 6 17 91 18 10 19 11 20 12 21 13 22 14 23
REMARK SMILES IDX 22 24 23 25 24 27 25 28 26 29 90 30 27 31 89 32 28 33 29 34
REMARK SMILES IDX 30 35 83 36 31 37 88 38 82 39 84 40 32 41 87 42 81 43 80 44
REMARK SMILES IDX 33 46 67 47 46 48 66 49 47 50 50 51 65 52 85 53 48 54 49 55
REMARK SMILES IDX 64 57 86 58 51 59 34 60 35 61 44 62 36 63 37 64 43 65 45 66
REMARK SMILES IDX 38 67 39 68 40 69 41 70 42 71 68 72 69 73 78 74 70 75 71 76
REMARK SMILES IDX 77 77 79 78 72 79 73 80 74 81 75 82 76 83 52 84 53 85 62 86
REMARK SMILES IDX 54 87 55 88 61 89 63 90 56 91 57 92 58 93 59 94 60 95
REMARK H PARENT 18 7 22 26 84 45 50 56
REMARK Flexibility Score: inf
ROOT
ATOM      1  C   UNL A   1      33.607  28.240  27.047  1.00  0.00     0.118 C 
ENDROOT
BRANCH   1   2
ATOM      2  C   UNL A   1      33.990  28.062  25.584  1.00  0.00     0.042 C 
BRANCH   2   3
ATOM      3  C   UNL A   1      32.853  27.472  24.766  1.00  0.00     0.118 C 
BRANCH   3   4
ATOM      4  N   UNL A   1      31.852  26.827  25.604  1.00  0.00    -0.352 N 
ATOM      5  C   UNL A   1      31.598  25.581  26.064  1.00  0.00     0.251 C 
ATOM      6  O   UNL A   1      30.606  25.478  26.793  1.00  0.00    -0.270 OA
ATOM      7  H   UNL A   1      31.180  27.472  25.923  1.00  0.00     0.163 HD
BRANCH   5   8
ATOM      8  C   UNL A   1      32.418  24.372  25.760  1.00  0.00     0.067 C 
ATOM      9  C   UNL A   1      34.211  19.678  24.622  1.00  0.00     0.048 C 
ATOM     10  C   UNL A   1      34.799  20.965  25.128  1.00  0.00    -0.007 A 
ATOM     11  C   UNL A   1      36.187  21.069  25.292  1.00  0.00     0.027 A 
ATOM     12  C   UNL A   1      34.007  22.090  25.394  1.00  0.00     0.131 A 
ATOM     13  C   UNL A   1      36.756  22.265  25.732  1.00  0.00     0.042 A 
ATOM     14  C   UNL A   1      34.575  23.291  25.835  1.00  0.00     0.019 A 
ATOM     15  O   UNL A   1      32.656  21.947  25.250  1.00  0.00    -0.475 OA
ATOM     16  Cl  UNL A   1      38.462  22.370  25.936  1.00  0.00    -0.084 Cl
ATOM     17  C   UNL A   1      35.958  23.375  26.009  1.00  0.00     0.032 A 
ATOM     18  C   UNL A   1      33.710  24.427  26.133  1.00  0.00     0.025 C 
ATOM     19  C   UNL A   1      31.889  23.160  25.051  1.00  0.00     0.314 C 
BRANCH  19  20
ATOM     20  C   UNL A   1      31.695  23.391  23.541  1.00  0.00     0.429 C 
ATOM     21  F   UNL A   1      31.966  22.256  22.848  1.00  0.00    -0.167 F 
ATOM     22  F   UNL A   1      30.426  23.741  23.223  1.00  0.00    -0.167 F 
ATOM     23  F   UNL A   1      32.499  24.364  23.054  1.00  0.00    -0.167 F 
ENDBRANCH  19  20
ENDBRANCH   5   8
ENDBRANCH   3   4
ENDBRANCH   2   3
ENDBRANCH   1   2
BRANCH   1  24
ATOM     24  N   UNL A   1      33.503  29.652  27.410  1.00  0.00    -0.352 N 
ATOM     25  C   UNL A   1      34.370  30.452  28.109  1.00  0.00     0.251 C 
ATOM     26  H   UNL A   1      32.681  30.098  27.104  1.00  0.00     0.163 HD
ATOM     27  O   UNL A   1      33.974  31.522  28.567  1.00  0.00    -0.269 OA
BRANCH  25  28
ATOM     28  C   UNL A   1      35.768  30.025  28.309  1.00  0.00     0.039 A 
ATOM     29  C   UNL A   1      36.681  30.137  27.259  1.00  0.00     0.014 A 
ATOM     30  C   UNL A   1      36.167  29.490  29.536  1.00  0.00     0.014 A 
ATOM     31  C   UNL A   1      38.010  29.768  27.463  1.00  0.00     0.010 A 
ATOM     32  C   UNL A   1      37.508  29.226  29.770  1.00  0.00     0.010 A 
ATOM     33  C   UNL A   1      38.439  29.341  28.730  1.00  0.00    -0.014 A 
BRANCH  33  34
ATOM     34  C   UNL A   1      39.849  28.964  28.987  1.00  0.00     0.031 A 
ATOM     35  C   UNL A   1      40.784  29.962  29.613  1.00  0.00     0.074 A 
ATOM     36  C   UNL A   1      40.295  27.751  28.606  1.00  0.00     0.049 A 
ATOM     37  N   UNL A   1      42.062  29.850  29.864  1.00  0.00    -0.248 NA
ATOM     38  C   UNL A   1      40.214  31.271  29.974  1.00  0.00     0.031 C 
ATOM     39  C   UNL A   1      39.486  26.720  27.953  1.00  0.00     0.029 A 
ATOM     40  N   UNL A   1      41.535  27.180  28.716  1.00  0.00    -0.354 N 
ATOM     41  C   UNL A   1      42.445  31.071  30.407  1.00  0.00     0.074 A 
ATOM     42  C   UNL A   1      41.287  31.934  30.373  1.00  0.00     0.031 C 
ATOM     43  C   UNL A   1      40.240  25.627  27.761  1.00  0.00     0.029 A 
ATOM     44  C   UNL A   1      41.594  25.892  28.239  1.00  0.00     0.049 A 
ATOM     45  H   UNL A   1      42.313  27.648  29.099  1.00  0.00     0.167 HD
ATOM     46  C   UNL A   1      43.645  31.427  30.926  1.00  0.00     0.037 A 
ATOM     47  C   UNL A   1      42.622  25.023  28.197  1.00  0.00     0.037 A 
ATOM     48  C   UNL A   1      44.785  30.551  30.971  1.00  0.00     0.049 A 
ATOM     49  C   UNL A   1      43.955  25.449  28.748  1.00  0.00     0.074 A 
ATOM     50  C   UNL A   1      46.037  30.795  31.504  1.00  0.00     0.029 A 
ATOM     51  N   UNL A   1      44.809  29.260  30.462  1.00  0.00    -0.354 N 
ATOM     52  N   UNL A   1      44.291  26.590  29.301  1.00  0.00    -0.248 NA
ATOM     53  C   UNL A   1      45.049  24.473  28.668  1.00  0.00     0.031 C 
ATOM     54  C   UNL A   1      46.833  29.668  31.277  1.00  0.00     0.029 A 
ATOM     55  C   UNL A   1      46.062  28.702  30.647  1.00  0.00     0.049 A 
ATOM     56  H   UNL A   1      44.047  28.808  30.033  1.00  0.00     0.167 HD
ATOM     57  C   UNL A   1      45.630  26.464  29.652  1.00  0.00     0.074 A 
ATOM     58  C   UNL A   1      46.038  25.129  29.260  1.00  0.00     0.031 C 
ATOM     59  C   UNL A   1      46.448  27.372  30.243  1.00  0.00     0.037 A 
BRANCH  46  60
ATOM     60  C   UNL A   1      43.766  32.816  31.492  1.00  0.00     0.058 A 
ATOM     61  C   UNL A   1      43.463  33.087  32.837  1.00  0.00     0.135 A 
ATOM     62  C   UNL A   1      44.186  33.886  30.688  1.00  0.00     0.135 A 
ATOM     63  F   UNL A   1      43.039  32.104  33.648  1.00  0.00    -0.206 F 
ATOM     64  C   UNL A   1      43.529  34.376  33.353  1.00  0.00     0.059 A 
ATOM     65  C   UNL A   1      44.292  35.181  31.192  1.00  0.00     0.059 A 
ATOM     66  F   UNL A   1      44.488  33.686  29.396  1.00  0.00    -0.206 F 
ATOM     67  C   UNL A   1      43.942  35.418  32.521  1.00  0.00     0.060 A 
BRANCH  67  68
ATOM     68  S   UNL A   1      44.002  37.088  33.203  1.00  0.00     0.124 S 
ATOM     69  O   UNL A   1      45.276  37.065  33.916  1.00  0.00    -0.237 OA
ATOM     70  O   UNL A   1      43.963  37.916  32.003  1.00  0.00    -0.237 OA
ATOM     71  O   UNL A   1      42.814  37.155  34.048  1.00  0.00    -0.744 OA
ENDBRANCH  67  68
ENDBRANCH  46  60
BRANCH  47  72
ATOM     72  C   UNL A   1      42.402  23.653  27.665  1.00  0.00     0.058 A 
ATOM     73  C   UNL A   1      42.425  23.413  26.283  1.00  0.00     0.135 A 
ATOM     74  C   UNL A   1      42.233  22.551  28.518  1.00  0.00     0.135 A 
ATOM     75  F   UNL A   1      42.578  24.435  25.427  1.00  0.00    -0.206 F 
ATOM     76  C   UNL A   1      42.299  22.128  25.765  1.00  0.00     0.059 A 
ATOM     77  C   UNL A   1      42.126  21.254  28.024  1.00  0.00     0.059 A 
ATOM     78  F   UNL A   1      42.218  22.727  29.848  1.00  0.00    -0.206 F 
ATOM     79  C   UNL A   1      42.162  21.053  26.645  1.00  0.00     0.060 A 
BRANCH  79  80
ATOM     80  S   UNL A   1      42.091  19.384  25.959  1.00  0.00     0.124 S 
ATOM     81  O   UNL A   1      40.663  19.226  25.710  1.00  0.00    -0.237 OA
ATOM     82  O   UNL A   1      42.937  19.507  24.776  1.00  0.00    -0.237 OA
ATOM     83  O   UNL A   1      42.641  18.556  27.030  1.00  0.00    -0.744 OA
ENDBRANCH  79  80
ENDBRANCH  47  72
BRANCH  59  84
ATOM     84  C   UNL A   1      47.868  26.957  30.509  1.00  0.00     0.058 A 
ATOM     85  C   UNL A   1      48.917  27.360  29.669  1.00  0.00     0.135 A 
ATOM     86  C   UNL A   1      48.193  26.222  31.660  1.00  0.00     0.135 A 
ATOM     87  F   UNL A   1      48.658  28.057  28.551  1.00  0.00    -0.206 F 
ATOM     88  C   UNL A   1      50.240  27.042  29.957  1.00  0.00     0.059 A 
ATOM     89  C   UNL A   1      49.510  25.916  31.983  1.00  0.00     0.059 A 
ATOM     90  F   UNL A   1      47.226  25.820  32.502  1.00  0.00    -0.206 F 
ATOM     91  C   UNL A   1      50.527  26.326  31.122  1.00  0.00     0.060 A 
BRANCH  91  92
ATOM     92  S   UNL A   1      52.253  25.971  31.508  1.00  0.00     0.124 S 
ATOM     93  O   UNL A   1      52.865  26.005  30.184  1.00  0.00    -0.237 OA
ATOM     94  O   UNL A   1      52.605  27.073  32.398  1.00  0.00    -0.237 OA
ATOM     95  O   UNL A   1      52.198  24.656  32.139  1.00  0.00    -0.744 OA
ENDBRANCH  91  92
ENDBRANCH  59  84
ENDBRANCH  33  34
ENDBRANCH  25  28
ENDBRANCH   1  24
TORSDOF 14
ENDMDL
MODEL 2
REMARK VINA RESULT:     -12.0      4.895     10.439
REMARK SMILES Cc1cc(Cl)cc2c1O[C@H](C(F)(F)F)C(C(=O)NCCCNC(=O)c1ccc(-c3c4nc(c(-c5c(F)cc(S(=O)(=O)[O-])cc5F)c5ccc([nH]5)c(-c5c(F)cc(S(=O)(=O)[O-])cc5F)c5nc(c(-c6c(F)cc(S(=O)(=O)[O-])cc6F)c6ccc3[nH]6)C=C5)C=C4)cc1)=C2
REMARK SMILES IDX 21 1 20 2 19 3 18 4 16 5 17 6 15 8 1 9 2 10 3 11 8 12 4 13
REMARK SMILES IDX 7 14 9 15 5 16 6 17 91 18 10 19 11 20 12 21 13 22 14 23
REMARK SMILES IDX 22 24 23 25 24 27 25 28 26 29 90 30 27 31 89 32 28 33 29 34
REMARK SMILES IDX 30 35 83 36 31 37 88 38 82 39 84 40 32 41 87 42 81 43 80 44
REMARK SMILES IDX 33 46 67 47 46 48 66 49 47 50 50 51 65 52 85 53 48 54 49 55
REMARK SMILES IDX 64 57 86 58 51 59 34 60 35 61 44 62 36 63 37 64 43 65 45 66
REMARK SMILES IDX 38 67 39 68 40 69 41 70 42 71 68 72 69 73 78 74 70 75 71 76
REMARK SMILES IDX 77 77 79 78 72 79 73 80 74 81 75 82 76 83 52 84 53 85 62 86
REMARK SMILES IDX 54 87 55 88 61 89 63 90 56 91 57 92 58 93 59 94 60 95
REMARK H PARENT 18 7 22 26 84 45 50 56
REMARK Flexibility Score: inf
ROOT
ATOM      1  C   UNL A   1      40.305  23.310  27.160  1.00  0.00     0.118 C 
ENDROOT
BRANCH   1   2
ATOM      2  C   UNL A   1      39.096  22.661  26.499  1.00  0.00     0.042 C 
BRANCH   2   3
ATOM      3  C   UNL A   1      38.108  23.694  25.981  1.00  0.00     0.118 C 
BRANCH   3   4
ATOM      4  N   UNL A   1      37.636  23.375  24.642  1.00  0.00    -0.352 N 
ATOM      5  C   UNL A   1      36.447  23.305  24.000  1.00  0.00     0.251 C 
ATOM      6  O   UNL A   1      36.508  22.996  22.806  1.00  0.00    -0.270 OA
ATOM      7  H   UNL A   1      38.383  23.151  24.041  1.00  0.00     0.163 HD
BRANCH   5   8
ATOM      8  C   UNL A   1      35.120  23.574  24.625  1.00  0.00     0.067 C 
ATOM      9  C   UNL A   1      30.329  23.390  26.513  1.00  0.00     0.048 C 
ATOM     10  C   UNL A   1      31.326  24.471  26.202  1.00  0.00    -0.007 A 
ATOM     11  C   UNL A   1      31.032  25.797  26.543  1.00  0.00     0.027 A 
ATOM     12  C   UNL A   1      32.572  24.188  25.627  1.00  0.00     0.131 A 
ATOM     13  C   UNL A   1      31.956  26.811  26.291  1.00  0.00     0.042 A 
ATOM     14  C   UNL A   1      33.502  25.203  25.372  1.00  0.00     0.019 A 
ATOM     15  O   UNL A   1      32.817  22.889  25.281  1.00  0.00    -0.475 OA
ATOM     16  Cl  UNL A   1      31.572  28.436  26.709  1.00  0.00    -0.084 Cl
ATOM     17  C   UNL A   1      33.188  26.523  25.703  1.00  0.00     0.032 A 
ATOM     18  C   UNL A   1      34.773  24.869  24.739  1.00  0.00     0.025 C 
ATOM     19  C   UNL A   1      34.207  22.502  25.144  1.00  0.00     0.314 C 
BRANCH  19  20
ATOM     20  C   UNL A   1      34.694  21.896  26.474  1.00  0.00     0.429 C 
ATOM     21  F   UNL A   1      35.015  22.878  27.354  1.00  0.00    -0.167 F 
ATOM     22  F   UNL A   1      33.753  21.132  27.078  1.00  0.00    -0.167 F 
ATOM     23  F   UNL A   1      35.788  21.115  26.322  1.00  0.00    -0.167 F 
ENDBRANCH  19  20
ENDBRANCH   5   8
ENDBRANCH   3   4
ENDBRANCH   2   3
ENDBRANCH   1   2
BRANCH   1  24
ATOM     24  N   UNL A   1      41.145  24.005  26.186  1.00  0.00    -0.352 N 
ATOM     25  C   UNL A   1      41.432  25.340  26.059  1.00  0.00     0.251 C 
ATOM     26  H   UNL A   1      41.570  23.423  25.516  1.00  0.00     0.163 HD
ATOM     27  O   UNL A   1      41.912  25.761  25.008  1.00  0.00    -0.269 OA
BRANCH  25  28
ATOM     28  C   UNL A   1      41.165  26.261  27.179  1.00  0.00     0.039 A 
ATOM     29  C   UNL A   1      40.182  25.940  28.118  1.00  0.00     0.014 A 
ATOM     30  C   UNL A   1      41.876  27.458  27.285  1.00  0.00     0.014 A 
ATOM     31  C   UNL A   1      39.959  26.795  29.197  1.00  0.00     0.010 A 
ATOM     32  C   UNL A   1      41.728  28.252  28.413  1.00  0.00     0.010 A 
ATOM     33  C   UNL A   1      40.753  27.940  29.369  1.00  0.00    -0.014 A 
BRANCH  33  34
ATOM     34  C   UNL A   1      40.557  28.857  30.516  1.00  0.00     0.031 A 
ATOM     35  C   UNL A   1      41.429  28.721  31.734  1.00  0.00     0.074 A 
ATOM     36  C   UNL A   1      39.564  29.766  30.481  1.00  0.00     0.049 A 
ATOM     37  N   UNL A   1      41.380  29.381  32.862  1.00  0.00    -0.248 NA
ATOM     38  C   UNL A   1      42.472  27.683  31.692  1.00  0.00     0.031 C 
ATOM     39  C   UNL A   1      38.632  29.958  29.368  1.00  0.00     0.029 A 
ATOM     40  N   UNL A   1      39.175  30.700  31.405  1.00  0.00    -0.354 N 
ATOM     41  C   UNL A   1      42.380  28.836  33.659  1.00  0.00     0.074 A 
ATOM     42  C   UNL A   1      42.963  27.740  32.920  1.00  0.00     0.031 C 
ATOM     43  C   UNL A   1      37.809  30.978  29.656  1.00  0.00     0.029 A 
ATOM     44  C   UNL A   1      38.126  31.485  30.987  1.00  0.00     0.049 A 
ATOM     45  H   UNL A   1      39.605  30.801  32.285  1.00  0.00     0.167 HD
ATOM     46  C   UNL A   1      42.801  29.240  34.881  1.00  0.00     0.037 A 
ATOM     47  C   UNL A   1      37.497  32.501  31.607  1.00  0.00     0.037 A 
ATOM     48  C   UNL A   1      42.224  30.345  35.598  1.00  0.00     0.049 A 
ATOM     49  C   UNL A   1      37.958  32.914  32.978  1.00  0.00     0.074 A 
ATOM     50  C   UNL A   1      42.595  30.862  36.825  1.00  0.00     0.029 A 
ATOM     51  N   UNL A   1      41.152  31.104  35.149  1.00  0.00    -0.354 N 
ATOM     52  N   UNL A   1      38.936  32.420  33.700  1.00  0.00    -0.248 NA
ATOM     53  C   UNL A   1      37.233  34.017  33.619  1.00  0.00     0.031 C 
ATOM     54  C   UNL A   1      41.718  31.906  37.140  1.00  0.00     0.029 A 
ATOM     55  C   UNL A   1      40.832  32.071  36.086  1.00  0.00     0.049 A 
ATOM     56  H   UNL A   1      40.688  30.973  34.291  1.00  0.00     0.167 HD
ATOM     57  C   UNL A   1      38.955  33.164  34.874  1.00  0.00     0.074 A 
ATOM     58  C   UNL A   1      37.899  34.150  34.758  1.00  0.00     0.031 C 
ATOM     59  C   UNL A   1      39.771  33.040  35.951  1.00  0.00     0.037 A 
BRANCH  46  60
ATOM     60  C   UNL A   1      43.947  28.485  35.499  1.00  0.00     0.058 A 
ATOM     61  C   UNL A   1      45.282  28.820  35.218  1.00  0.00     0.135 A 
ATOM     62  C   UNL A   1      43.713  27.416  36.378  1.00  0.00     0.135 A 
ATOM     63  F   UNL A   1      45.564  29.822  34.370  1.00  0.00    -0.206 F 
ATOM     64  C   UNL A   1      46.342  28.096  35.751  1.00  0.00     0.059 A 
ATOM     65  C   UNL A   1      44.761  26.698  36.950  1.00  0.00     0.059 A 
ATOM     66  F   UNL A   1      42.458  27.051  36.682  1.00  0.00    -0.206 F 
ATOM     67  C   UNL A   1      46.071  27.034  36.613  1.00  0.00     0.060 A 
BRANCH  67  68
ATOM     68  S   UNL A   1      47.461  26.093  37.278  1.00  0.00     0.124 S 
ATOM     69  O   UNL A   1      47.442  24.906  36.428  1.00  0.00    -0.237 OA
ATOM     70  O   UNL A   1      48.582  27.003  37.069  1.00  0.00    -0.237 OA
ATOM     71  O   UNL A   1      47.088  25.871  38.671  1.00  0.00    -0.744 OA
ENDBRANCH  67  68
ENDBRANCH  46  60
BRANCH  47  72
ATOM     72  C   UNL A   1      36.406  33.225  30.903  1.00  0.00     0.058 A 
ATOM     73  C   UNL A   1      35.076  33.100  31.330  1.00  0.00     0.135 A 
ATOM     74  C   UNL A   1      36.672  34.104  29.841  1.00  0.00     0.135 A 
ATOM     75  F   UNL A   1      34.771  32.268  32.338  1.00  0.00    -0.206 F 
ATOM     76  C   UNL A   1      34.048  33.827  30.738  1.00  0.00     0.059 A 
ATOM     77  C   UNL A   1      35.664  34.858  29.246  1.00  0.00     0.059 A 
ATOM     78  F   UNL A   1      37.930  34.270  29.405  1.00  0.00    -0.206 F 
ATOM     79  C   UNL A   1      34.355  34.713  29.703  1.00  0.00     0.060 A 
BRANCH  79  80
ATOM     80  S   UNL A   1      33.025  35.716  29.006  1.00  0.00     0.124 S 
ATOM     81  O   UNL A   1      33.769  36.809  28.391  1.00  0.00    -0.237 OA
ATOM     82  O   UNL A   1      32.389  34.777  28.086  1.00  0.00    -0.237 OA
ATOM     83  O   UNL A   1      32.226  36.075  30.175  1.00  0.00    -0.744 OA
ENDBRANCH  79  80
ENDBRANCH  47  72
BRANCH  59  84
ATOM     84  C   UNL A   1      39.563  33.995  37.093  1.00  0.00     0.058 A 
ATOM     85  C   UNL A   1      38.826  33.627  38.229  1.00  0.00     0.135 A 
ATOM     86  C   UNL A   1      40.178  35.257  37.090  1.00  0.00     0.135 A 
ATOM     87  F   UNL A   1      38.211  32.434  38.279  1.00  0.00    -0.206 F 
ATOM     88  C   UNL A   1      38.698  34.481  39.319  1.00  0.00     0.059 A 
ATOM     89  C   UNL A   1      40.087  36.116  38.179  1.00  0.00     0.059 A 
ATOM     90  F   UNL A   1      40.903  35.653  36.031  1.00  0.00    -0.206 F 
ATOM     91  C   UNL A   1      39.340  35.721  39.288  1.00  0.00     0.060 A 
BRANCH  91  92
ATOM     92  S   UNL A   1      39.209  36.792  40.733  1.00  0.00     0.124 S 
ATOM     93  O   UNL A   1      38.553  37.968  40.171  1.00  0.00    -0.237 OA
ATOM     94  O   UNL A   1      38.400  35.988  41.644  1.00  0.00    -0.237 OA
ATOM     95  O   UNL A   1      40.597  36.985  41.143  1.00  0.00    -0.744 OA
ENDBRANCH  91  92
ENDBRANCH  59  84
ENDBRANCH  33  34
ENDBRANCH  25  28
ENDBRANCH   1  24
TORSDOF 14
ENDMDL
MODEL 3
REMARK VINA RESULT:     -11.9      4.915     10.427
REMARK SMILES Cc1cc(Cl)cc2c1O[C@H](C(F)(F)F)C(C(=O)NCCCNC(=O)c1ccc(-c3c4nc(c(-c5c(F)cc(S(=O)(=O)[O-])cc5F)c5ccc([nH]5)c(-c5c(F)cc(S(=O)(=O)[O-])cc5F)c5nc(c(-c6c(F)cc(S(=O)(=O)[O-])cc6F)c6ccc3[nH]6)C=C5)C=C4)cc1)=C2
REMARK SMILES IDX 21 1 20 2 19 3 18 4 16 5 17 6 15 8 1 9 2 10 3 11 8 12 4 13
REMARK SMILES IDX 7 14 9 15 5 16 6 17 91 18 10 19 11 20 12 21 13 22 14 23
REMARK SMILES IDX 22 24 23 25 24 27 25 28 26 29 90 30 27 31 89 32 28 33 29 34
REMARK SMILES IDX 30 35 83 36 31 37 88 38 82 39 84 40 32 41 87 42 81 43 80 44
REMARK SMILES IDX 33 46 67 47 46 48 66 49 47 50 50 51 65 52 85 53 48 54 49 55
REMARK SMILES IDX 64 57 86 58 51 59 34 60 35 61 44 62 36 63 37 64 43 65 45 66
REMARK SMILES IDX 38 67 39 68 40 69 41 70 42 71 68 72 69 73 78 74 70 75 71 76
REMARK SMILES IDX 77 77 79 78 72 79 73 80 74 81 75 82 76 83 52 84 53 85 62 86
REMARK SMILES IDX 54 87 55 88 61 89 63 90 56 91 57 92 58 93 59 94 60 95
REMARK H PARENT 18 7 22 26 84 45 50 56
REMARK Flexibility Score: inf
ROOT
ATOM      1  C   UNL A   1      39.493  23.534  26.895  1.00  0.00     0.118 C 
ENDROOT
BRANCH   1   2
ATOM      2  C   UNL A   1      38.192  23.659  26.115  1.00  0.00     0.042 C 
BRANCH   2   3
ATOM      3  C   UNL A   1      37.746  22.326  25.535  1.00  0.00     0.118 C 
BRANCH   3   4
ATOM      4  N   UNL A   1      36.489  21.871  26.112  1.00  0.00    -0.352 N 
ATOM      5  C   UNL A   1      35.172  22.138  25.955  1.00  0.00     0.251 C 
ATOM      6  O   UNL A   1      34.411  21.482  26.673  1.00  0.00    -0.270 OA
ATOM      7  H   UNL A   1      36.637  21.186  26.803  1.00  0.00     0.163 HD
BRANCH   5   8
ATOM      8  C   UNL A   1      34.608  23.133  24.997  1.00  0.00     0.067 C 
ATOM      9  C   UNL A   1      32.871  25.736  20.904  1.00  0.00     0.048 C 
ATOM     10  C   UNL A   1      33.214  26.069  22.329  1.00  0.00    -0.007 A 
ATOM     11  C   UNL A   1      32.964  27.359  22.814  1.00  0.00     0.027 A 
ATOM     12  C   UNL A   1      33.731  25.110  23.211  1.00  0.00     0.131 A 
ATOM     13  C   UNL A   1      33.246  27.680  24.142  1.00  0.00     0.042 A 
ATOM     14  C   UNL A   1      34.015  25.428  24.545  1.00  0.00     0.019 A 
ATOM     15  O   UNL A   1      33.988  23.870  22.701  1.00  0.00    -0.475 OA
ATOM     16  Cl  UNL A   1      32.940  29.273  24.716  1.00  0.00    -0.084 Cl
ATOM     17  C   UNL A   1      33.775  26.724  25.009  1.00  0.00     0.032 A 
ATOM     18  C   UNL A   1      34.584  24.410  25.420  1.00  0.00     0.025 C 
ATOM     19  C   UNL A   1      34.057  22.776  23.649  1.00  0.00     0.314 C 
BRANCH  19  20
ATOM     20  C   UNL A   1      32.677  22.095  23.730  1.00  0.00     0.429 C 
ATOM     21  F   UNL A   1      31.951  22.613  24.752  1.00  0.00    -0.167 F 
ATOM     22  F   UNL A   1      31.939  22.270  22.608  1.00  0.00    -0.167 F 
ATOM     23  F   UNL A   1      32.765  20.760  23.932  1.00  0.00    -0.167 F 
ENDBRANCH  19  20
ENDBRANCH   5   8
ENDBRANCH   3   4
ENDBRANCH   2   3
ENDBRANCH   1   2
BRANCH   1  24
ATOM     24  N   UNL A   1      40.632  24.035  26.127  1.00  0.00    -0.352 N 
ATOM     25  C   UNL A   1      41.231  25.269  26.137  1.00  0.00     0.251 C 
ATOM     26  H   UNL A   1      41.032  23.384  25.507  1.00  0.00     0.163 HD
ATOM     27  O   UNL A   1      41.978  25.588  25.214  1.00  0.00    -0.269 OA
BRANCH  25  28
ATOM     28  C   UNL A   1      40.977  26.203  27.250  1.00  0.00     0.039 A 
ATOM     29  C   UNL A   1      40.067  25.854  28.250  1.00  0.00     0.014 A 
ATOM     30  C   UNL A   1      41.626  27.439  27.288  1.00  0.00     0.014 A 
ATOM     31  C   UNL A   1      39.857  26.724  29.320  1.00  0.00     0.010 A 
ATOM     32  C   UNL A   1      41.499  28.252  28.403  1.00  0.00     0.010 A 
ATOM     33  C   UNL A   1      40.596  27.914  29.420  1.00  0.00    -0.014 A 
BRANCH  33  34
ATOM     34  C   UNL A   1      40.415  28.848  30.556  1.00  0.00     0.031 A 
ATOM     35  C   UNL A   1      41.286  28.715  31.775  1.00  0.00     0.074 A 
ATOM     36  C   UNL A   1      39.435  29.771  30.510  1.00  0.00     0.049 A 
ATOM     37  N   UNL A   1      41.247  29.391  32.893  1.00  0.00    -0.248 NA
ATOM     38  C   UNL A   1      42.315  27.662  31.745  1.00  0.00     0.031 C 
ATOM     39  C   UNL A   1      38.505  29.961  29.395  1.00  0.00     0.029 A 
ATOM     40  N   UNL A   1      39.060  30.722  31.422  1.00  0.00    -0.354 N 
ATOM     41  C   UNL A   1      42.241  28.842  33.697  1.00  0.00     0.074 A 
ATOM     42  C   UNL A   1      42.808  27.729  32.972  1.00  0.00     0.031 C 
ATOM     43  C   UNL A   1      37.696  30.997  29.670  1.00  0.00     0.029 A 
ATOM     44  C   UNL A   1      38.022  31.516  30.995  1.00  0.00     0.049 A 
ATOM     45  H   UNL A   1      39.492  30.828  32.300  1.00  0.00     0.167 HD
ATOM     46  C   UNL A   1      42.669  29.256  34.913  1.00  0.00     0.037 A 
ATOM     47  C   UNL A   1      37.408  32.550  31.602  1.00  0.00     0.037 A 
ATOM     48  C   UNL A   1      42.109  30.379  35.616  1.00  0.00     0.049 A 
ATOM     49  C   UNL A   1      37.876  32.973  32.967  1.00  0.00     0.074 A 
ATOM     50  C   UNL A   1      42.488  30.906  36.836  1.00  0.00     0.029 A 
ATOM     51  N   UNL A   1      41.047  31.147  35.158  1.00  0.00    -0.354 N 
ATOM     52  N   UNL A   1      38.848  32.475  33.695  1.00  0.00    -0.248 NA
ATOM     53  C   UNL A   1      37.167  34.095  33.594  1.00  0.00     0.031 C 
ATOM     54  C   UNL A   1      41.627  31.966  37.138  1.00  0.00     0.029 A 
ATOM     55  C   UNL A   1      40.742  32.131  36.082  1.00  0.00     0.049 A 
ATOM     56  H   UNL A   1      40.580  31.011  34.302  1.00  0.00     0.167 HD
ATOM     57  C   UNL A   1      38.879  33.234  34.859  1.00  0.00     0.074 A 
ATOM     58  C   UNL A   1      37.837  34.233  34.731  1.00  0.00     0.031 C 
ATOM     59  C   UNL A   1      39.695  33.113  35.937  1.00  0.00     0.037 A 
BRANCH  46  60
ATOM     60  C   UNL A   1      43.805  28.493  35.540  1.00  0.00     0.058 A 
ATOM     61  C   UNL A   1      45.144  28.805  35.252  1.00  0.00     0.135 A 
ATOM     62  C   UNL A   1      43.557  27.440  36.434  1.00  0.00     0.135 A 
ATOM     63  F   UNL A   1      45.440  29.790  34.389  1.00  0.00    -0.206 F 
ATOM     64  C   UNL A   1      46.195  28.073  35.793  1.00  0.00     0.059 A 
ATOM     65  C   UNL A   1      44.595  26.714  37.014  1.00  0.00     0.059 A 
ATOM     66  F   UNL A   1      42.297  27.098  36.745  1.00  0.00    -0.206 F 
ATOM     67  C   UNL A   1      45.910  27.026  36.671  1.00  0.00     0.060 A 
BRANCH  67  68
ATOM     68  S   UNL A   1      47.287  26.075  37.346  1.00  0.00     0.124 S 
ATOM     69  O   UNL A   1      48.426  26.695  36.675  1.00  0.00    -0.237 OA
ATOM     70  O   UNL A   1      47.175  26.339  38.777  1.00  0.00    -0.237 OA
ATOM     71  O   UNL A   1      46.989  24.706  36.938  1.00  0.00    -0.744 OA
ENDBRANCH  67  68
ENDBRANCH  46  60
BRANCH  47  72
ATOM     72  C   UNL A   1      36.326  33.280  30.890  1.00  0.00     0.058 A 
ATOM     73  C   UNL A   1      34.999  33.200  31.336  1.00  0.00     0.135 A 
ATOM     74  C   UNL A   1      36.601  34.120  29.800  1.00  0.00     0.135 A 
ATOM     75  F   UNL A   1      34.686  32.405  32.371  1.00  0.00    -0.206 F 
ATOM     76  C   UNL A   1      33.983  33.935  30.734  1.00  0.00     0.059 A 
ATOM     77  C   UNL A   1      35.605  34.882  29.194  1.00  0.00     0.059 A 
ATOM     78  F   UNL A   1      37.857  34.242  29.344  1.00  0.00    -0.206 F 
ATOM     79  C   UNL A   1      34.298  34.782  29.670  1.00  0.00     0.060 A 
BRANCH  79  80
ATOM     80  S   UNL A   1      32.984  35.797  28.960  1.00  0.00     0.124 S 
ATOM     81  O   UNL A   1      32.335  34.852  28.059  1.00  0.00    -0.237 OA
ATOM     82  O   UNL A   1      32.222  36.178  30.145  1.00  0.00    -0.237 OA
ATOM     83  O   UNL A   1      33.711  36.887  28.315  1.00  0.00    -0.744 OA
ENDBRANCH  79  80
ENDBRANCH  47  72
BRANCH  59  84
ATOM     84  C   UNL A   1      39.501  34.085  37.066  1.00  0.00     0.058 A 
ATOM     85  C   UNL A   1      38.807  33.724  38.231  1.00  0.00     0.135 A 
ATOM     86  C   UNL A   1      40.090  35.359  37.020  1.00  0.00     0.135 A 
ATOM     87  F   UNL A   1      38.219  32.520  38.322  1.00  0.00    -0.206 F 
ATOM     88  C   UNL A   1      38.694  34.597  39.308  1.00  0.00     0.059 A 
ATOM     89  C   UNL A   1      40.014  36.237  38.096  1.00  0.00     0.059 A 
ATOM     90  F   UNL A   1      40.774  35.749  35.932  1.00  0.00    -0.206 F 
ATOM     91  C   UNL A   1      39.309  35.848  39.234  1.00  0.00     0.060 A 
BRANCH  91  92
ATOM     92  S   UNL A   1      39.200  36.945  40.662  1.00  0.00     0.124 S 
ATOM     93  O   UNL A   1      38.508  36.101  41.630  1.00  0.00    -0.237 OA
ATOM     94  O   UNL A   1      40.605  37.220  40.950  1.00  0.00    -0.237 OA
ATOM     95  O   UNL A   1      38.435  38.083  40.162  1.00  0.00    -0.744 OA
ENDBRANCH  91  92
ENDBRANCH  59  84
ENDBRANCH  33  34
ENDBRANCH  25  28
ENDBRANCH   1  24
TORSDOF 14
ENDMDL
