MODEL 1
REMARK VINA RESULT:     -14.4      0.000      0.000
REMARK SMILES Cc1ccc(NC(=O)[C@H]2CC=CC[C@H]2C(=O)NCCCNC(=O)c2ccc(-c3c4nc(c(-c5c(F)cc(S(=O)(=O)[O-])cc5F)c5ccc([nH]5)c(-c5c(F)cc(S(=O)(=O)[O-])cc5F)c5nc(c(-c6c(F)cc(S(=O)(=O)[O-])cc6F)c6ccc3[nH]6)C=C5)C=C4)cc2)cc1F
REMARK SMILES IDX 19 1 18 2 17 3 15 4 16 5 14 7 9 8 10 9 11 10 13 11 12 12
REMARK SMILES IDX 7 13 6 14 8 16 5 17 1 18 2 19 3 20 91 21 4 22 90 23 92 24
REMARK SMILES IDX 20 25 21 26 22 27 23 29 24 30 25 31 89 32 26 33 88 34 27 35
REMARK SMILES IDX 28 36 29 37 82 38 30 39 87 40 81 41 83 42 31 43 86 44 80 45
REMARK SMILES IDX 79 46 32 48 66 49 45 50 65 51 46 52 49 53 64 54 84 55 47 56
REMARK SMILES IDX 48 57 63 59 85 60 50 61 33 62 34 63 43 64 35 65 36 66 42 67
REMARK SMILES IDX 44 68 37 69 38 70 39 71 40 72 41 73 67 74 68 75 77 76 69 77
REMARK SMILES IDX 70 78 76 79 78 80 71 81 72 82 73 83 74 84 75 85 51 86 52 87
REMARK SMILES IDX 61 88 53 89 54 90 60 91 62 92 55 93 56 94 57 95 58 96 59 97
REMARK H PARENT 17 6 6 15 21 28 83 47 49 58
REMARK Flexibility Score: inf
ROOT
ATOM      1  C   UNL A   1      33.853  28.077  26.004  1.00  0.00     0.042 C 
ENDROOT
BRANCH   1   2
ATOM      2  C   UNL A   1      33.159  26.751  26.273  1.00  0.00     0.117 C 
BRANCH   2   3
ATOM      3  N   UNL A   1      32.802  26.019  25.066  1.00  0.00    -0.356 N 
ATOM      4  C   UNL A   1      33.296  24.877  24.526  1.00  0.00     0.224 C 
ATOM      5  O   UNL A   1      32.683  24.386  23.574  1.00  0.00    -0.275 OA
ATOM      6  H   UNL A   1      32.072  26.428  24.548  1.00  0.00     0.163 HD
BRANCH   4   7
ATOM      7  C   UNL A   1      34.518  24.164  25.092  1.00  0.00     0.095 C 
ATOM      8  C   UNL A   1      34.301  23.219  26.308  1.00  0.00     0.095 C 
ATOM      9  C   UNL A   1      35.157  21.923  26.304  1.00  0.00     0.041 C 
ATOM     10  C   UNL A   1      35.793  21.510  25.022  1.00  0.00    -0.030 C 
ATOM     11  C   UNL A   1      35.392  23.697  23.907  1.00  0.00     0.041 C 
ATOM     12  C   UNL A   1      35.906  22.302  23.956  1.00  0.00    -0.030 C 
BRANCH   8  13
ATOM     13  C   UNL A   1      32.855  22.903  26.722  1.00  0.00     0.228 C 
ATOM     14  N   UNL A   1      32.149  21.823  26.285  1.00  0.00    -0.326 N 
ATOM     15  H   UNL A   1      31.372  21.625  26.855  1.00  0.00     0.169 HD
ATOM     16  O   UNL A   1      32.255  23.645  27.511  1.00  0.00    -0.274 OA
BRANCH  14  17
ATOM     17  C   UNL A   1      32.273  20.928  25.212  1.00  0.00     0.044 A 
ATOM     18  C   UNL A   1      32.603  17.947  22.102  1.00  0.00     0.047 C 
ATOM     19  C   UNL A   1      32.489  18.960  23.197  1.00  0.00    -0.015 A 
ATOM     20  C   UNL A   1      32.653  18.611  24.539  1.00  0.00     0.008 A 
ATOM     21  C   UNL A   1      32.204  20.290  22.889  1.00  0.00     0.128 A 
ATOM     22  C   UNL A   1      32.533  19.587  25.536  1.00  0.00     0.026 A 
ATOM     23  C   UNL A   1      32.091  21.267  23.877  1.00  0.00     0.065 A 
ATOM     24  F   UNL A   1      32.007  20.649  21.611  1.00  0.00    -0.207 F 
ENDBRANCH  14  17
ENDBRANCH   8  13
ENDBRANCH   4   7
ENDBRANCH   2   3
ENDBRANCH   1   2
BRANCH   1  25
ATOM     25  C   UNL A   1      34.497  28.683  27.229  1.00  0.00     0.118 C 
BRANCH  25  26
ATOM     26  N   UNL A   1      35.016  30.004  26.938  1.00  0.00    -0.352 N 
ATOM     27  C   UNL A   1      36.010  30.633  27.662  1.00  0.00     0.251 C 
ATOM     28  H   UNL A   1      34.633  30.488  26.170  1.00  0.00     0.163 HD
ATOM     29  O   UNL A   1      35.881  31.822  27.923  1.00  0.00    -0.269 OA
BRANCH  27  30
ATOM     30  C   UNL A   1      37.162  29.819  28.133  1.00  0.00     0.039 A 
ATOM     31  C   UNL A   1      37.126  29.155  29.367  1.00  0.00     0.014 A 
ATOM     32  C   UNL A   1      38.315  29.759  27.351  1.00  0.00     0.014 A 
ATOM     33  C   UNL A   1      38.232  28.406  29.794  1.00  0.00     0.010 A 
ATOM     34  C   UNL A   1      39.360  28.953  27.718  1.00  0.00     0.010 A 
ATOM     35  C   UNL A   1      39.344  28.308  28.957  1.00  0.00    -0.014 A 
BRANCH  35  36
ATOM     36  C   UNL A   1      40.593  27.617  29.239  1.00  0.00     0.031 A 
ATOM     37  C   UNL A   1      40.856  26.245  28.752  1.00  0.00     0.074 A 
ATOM     38  C   UNL A   1      41.617  28.394  29.671  1.00  0.00     0.049 A 
ATOM     39  N   UNL A   1      41.890  25.553  29.095  1.00  0.00    -0.248 NA
ATOM     40  C   UNL A   1      39.989  25.540  27.811  1.00  0.00     0.031 C 
ATOM     41  C   UNL A   1      43.045  28.124  29.567  1.00  0.00     0.029 A 
ATOM     42  N   UNL A   1      41.581  29.607  30.363  1.00  0.00    -0.354 N 
ATOM     43  C   UNL A   1      41.990  24.477  28.243  1.00  0.00     0.074 A 
ATOM     44  C   UNL A   1      40.739  24.470  27.512  1.00  0.00     0.031 C 
ATOM     45  C   UNL A   1      43.694  28.945  30.409  1.00  0.00     0.029 A 
ATOM     46  C   UNL A   1      42.681  29.583  31.230  1.00  0.00     0.049 A 
ATOM     47  H   UNL A   1      40.921  30.328  30.261  1.00  0.00     0.167 HD
ATOM     48  C   UNL A   1      43.169  23.791  28.169  1.00  0.00     0.037 A 
ATOM     49  C   UNL A   1      42.562  29.415  32.587  1.00  0.00     0.037 A 
ATOM     50  C   UNL A   1      44.173  24.366  29.069  1.00  0.00     0.049 A 
ATOM     51  C   UNL A   1      43.261  28.172  33.125  1.00  0.00     0.074 A 
ATOM     52  C   UNL A   1      45.244  25.231  28.907  1.00  0.00     0.029 A 
ATOM     53  N   UNL A   1      43.970  24.271  30.428  1.00  0.00    -0.354 N 
ATOM     54  N   UNL A   1      43.884  27.298  32.383  1.00  0.00    -0.248 NA
ATOM     55  C   UNL A   1      43.236  27.768  34.533  1.00  0.00     0.031 C 
ATOM     56  C   UNL A   1      45.675  25.652  30.200  1.00  0.00     0.029 A 
ATOM     57  C   UNL A   1      44.870  25.036  31.141  1.00  0.00     0.049 A 
ATOM     58  H   UNL A   1      43.265  23.721  30.843  1.00  0.00     0.167 HD
ATOM     59  C   UNL A   1      44.231  26.211  33.135  1.00  0.00     0.074 A 
ATOM     60  C   UNL A   1      43.843  26.567  34.486  1.00  0.00     0.031 C 
ATOM     61  C   UNL A   1      44.747  25.071  32.589  1.00  0.00     0.037 A 
BRANCH  48  62
ATOM     62  C   UNL A   1      43.504  22.711  27.162  1.00  0.00     0.058 A 
ATOM     63  C   UNL A   1      42.805  21.482  27.165  1.00  0.00     0.135 A 
ATOM     64  C   UNL A   1      44.487  22.823  26.160  1.00  0.00     0.135 A 
ATOM     65  F   UNL A   1      41.789  21.251  28.008  1.00  0.00    -0.206 F 
ATOM     66  C   UNL A   1      43.114  20.423  26.311  1.00  0.00     0.059 A 
ATOM     67  C   UNL A   1      44.850  21.759  25.323  1.00  0.00     0.059 A 
ATOM     68  F   UNL A   1      45.102  23.988  25.915  1.00  0.00    -0.206 F 
ATOM     69  C   UNL A   1      44.161  20.558  25.412  1.00  0.00     0.060 A 
BRANCH  69  70
ATOM     70  S   UNL A   1      44.594  19.148  24.376  1.00  0.00     0.124 S 
ATOM     71  O   UNL A   1      44.416  19.689  23.031  1.00  0.00    -0.237 OA
ATOM     72  O   UNL A   1      45.971  18.885  24.778  1.00  0.00    -0.237 OA
ATOM     73  O   UNL A   1      43.621  18.129  24.766  1.00  0.00    -0.744 OA
ENDBRANCH  69  70
ENDBRANCH  48  62
BRANCH  49  74
ATOM     74  C   UNL A   1      41.285  29.963  33.133  1.00  0.00     0.058 A 
ATOM     75  C   UNL A   1      41.166  31.361  33.231  1.00  0.00     0.135 A 
ATOM     76  C   UNL A   1      40.105  29.207  33.041  1.00  0.00     0.135 A 
ATOM     77  F   UNL A   1      42.265  32.123  33.354  1.00  0.00    -0.206 F 
ATOM     78  C   UNL A   1      39.949  31.996  33.022  1.00  0.00     0.059 A 
ATOM     79  C   UNL A   1      38.874  29.824  32.831  1.00  0.00     0.059 A 
ATOM     80  F   UNL A   1      40.161  27.869  32.975  1.00  0.00    -0.206 F 
ATOM     81  C   UNL A   1      38.827  31.216  32.743  1.00  0.00     0.060 A 
BRANCH  81  82
ATOM     82  S   UNL A   1      37.382  32.043  32.034  1.00  0.00     0.124 S 
ATOM     83  O   UNL A   1      37.275  33.234  32.874  1.00  0.00    -0.237 OA
ATOM     84  O   UNL A   1      37.842  32.273  30.667  1.00  0.00    -0.237 OA
ATOM     85  O   UNL A   1      36.325  31.056  32.200  1.00  0.00    -0.744 OA
ENDBRANCH  81  82
ENDBRANCH  49  74
BRANCH  61  86
ATOM     86  C   UNL A   1      45.127  23.863  33.398  1.00  0.00     0.058 A 
ATOM     87  C   UNL A   1      44.184  22.897  33.783  1.00  0.00     0.135 A 
ATOM     88  C   UNL A   1      46.432  23.698  33.915  1.00  0.00     0.135 A 
ATOM     89  F   UNL A   1      42.904  22.998  33.392  1.00  0.00    -0.206 F 
ATOM     90  C   UNL A   1      44.527  21.806  34.582  1.00  0.00     0.059 A 
ATOM     91  C   UNL A   1      46.783  22.650  34.758  1.00  0.00     0.059 A 
ATOM     92  F   UNL A   1      47.428  24.532  33.585  1.00  0.00    -0.206 F 
ATOM     93  C   UNL A   1      45.830  21.690  35.062  1.00  0.00     0.060 A 
BRANCH  93  94
ATOM     94  S   UNL A   1      46.279  20.280  36.089  1.00  0.00     0.124 S 
ATOM     95  O   UNL A   1      45.723  20.643  37.389  1.00  0.00    -0.237 OA
ATOM     96  O   UNL A   1      45.602  19.190  35.394  1.00  0.00    -0.237 OA
ATOM     97  O   UNL A   1      47.736  20.261  36.021  1.00  0.00    -0.744 OA
ENDBRANCH  93  94
ENDBRANCH  61  86
ENDBRANCH  35  36
ENDBRANCH  27  30
ENDBRANCH  25  26
ENDBRANCH   1  25
TORSDOF 15
ENDMDL
MODEL 2
REMARK VINA RESULT:     -14.2      4.832     11.292
REMARK SMILES Cc1ccc(NC(=O)[C@H]2CC=CC[C@H]2C(=O)NCCCNC(=O)c2ccc(-c3c4nc(c(-c5c(F)cc(S(=O)(=O)[O-])cc5F)c5ccc([nH]5)c(-c5c(F)cc(S(=O)(=O)[O-])cc5F)c5nc(c(-c6c(F)cc(S(=O)(=O)[O-])cc6F)c6ccc3[nH]6)C=C5)C=C4)cc2)cc1F
REMARK SMILES IDX 19 1 18 2 17 3 15 4 16 5 14 7 9 8 10 9 11 10 13 11 12 12
REMARK SMILES IDX 7 13 6 14 8 16 5 17 1 18 2 19 3 20 91 21 4 22 90 23 92 24
REMARK SMILES IDX 20 25 21 26 22 27 23 29 24 30 25 31 89 32 26 33 88 34 27 35
REMARK SMILES IDX 28 36 29 37 82 38 30 39 87 40 81 41 83 42 31 43 86 44 80 45
REMARK SMILES IDX 79 46 32 48 66 49 45 50 65 51 46 52 49 53 64 54 84 55 47 56
REMARK SMILES IDX 48 57 63 59 85 60 50 61 33 62 34 63 43 64 35 65 36 66 42 67
REMARK SMILES IDX 44 68 37 69 38 70 39 71 40 72 41 73 67 74 68 75 77 76 69 77
REMARK SMILES IDX 70 78 76 79 78 80 71 81 72 82 73 83 74 84 75 85 51 86 52 87
REMARK SMILES IDX 61 88 53 89 54 90 60 91 62 92 55 93 56 94 57 95 58 96 59 97
REMARK H PARENT 17 6 6 15 21 28 83 47 49 58
REMARK Flexibility Score: inf
ROOT
ATOM      1  C   UNL A   1      35.799  23.565  25.790  1.00  0.00     0.042 C 
ENDROOT
BRANCH   1   2
ATOM      2  C   UNL A   1      35.035  23.916  24.522  1.00  0.00     0.117 C 
BRANCH   2   3
ATOM      3  N   UNL A   1      33.596  24.020  24.713  1.00  0.00    -0.356 N 
ATOM      4  C   UNL A   1      32.797  25.085  24.971  1.00  0.00     0.224 C 
ATOM      5  O   UNL A   1      31.577  24.908  24.914  1.00  0.00    -0.275 OA
ATOM      6  H   UNL A   1      33.117  23.163  24.642  1.00  0.00     0.163 HD
BRANCH   4   7
ATOM      7  C   UNL A   1      33.351  26.475  25.257  1.00  0.00     0.095 C 
ATOM      8  C   UNL A   1      33.742  27.359  24.038  1.00  0.00     0.095 C 
ATOM      9  C   UNL A   1      33.421  28.872  24.183  1.00  0.00     0.041 C 
ATOM     10  C   UNL A   1      32.463  29.284  25.247  1.00  0.00    -0.030 C 
ATOM     11  C   UNL A   1      32.533  27.090  26.415  1.00  0.00     0.041 C 
ATOM     12  C   UNL A   1      32.072  28.494  26.246  1.00  0.00    -0.030 C 
BRANCH   8  13
ATOM     13  C   UNL A   1      33.350  26.862  22.637  1.00  0.00     0.228 C 
ATOM     14  N   UNL A   1      32.228  27.249  21.970  1.00  0.00    -0.326 N 
ATOM     15  H   UNL A   1      32.281  27.066  21.004  1.00  0.00     0.169 HD
ATOM     16  O   UNL A   1      34.079  26.065  22.032  1.00  0.00    -0.274 OA
BRANCH  14  17
ATOM     17  C   UNL A   1      31.014  27.848  22.340  1.00  0.00     0.044 A 
ATOM     18  C   UNL A   1      27.329  29.904  23.267  1.00  0.00     0.047 C 
ATOM     19  C   UNL A   1      28.612  29.212  22.931  1.00  0.00    -0.015 A 
ATOM     20  C   UNL A   1      29.652  29.874  22.276  1.00  0.00     0.008 A 
ATOM     21  C   UNL A   1      28.790  27.871  23.266  1.00  0.00     0.128 A 
ATOM     22  C   UNL A   1      30.836  29.192  21.973  1.00  0.00     0.026 A 
ATOM     23  C   UNL A   1      29.969  27.188  22.973  1.00  0.00     0.065 A 
ATOM     24  F   UNL A   1      27.795  27.198  23.866  1.00  0.00    -0.207 F 
ENDBRANCH  14  17
ENDBRANCH   8  13
ENDBRANCH   4   7
ENDBRANCH   2   3
ENDBRANCH   1   2
BRANCH   1  25
ATOM     25  C   UNL A   1      37.199  24.131  25.830  1.00  0.00     0.118 C 
BRANCH  25  26
ATOM     26  N   UNL A   1      38.052  23.334  26.687  1.00  0.00    -0.352 N 
ATOM     27  C   UNL A   1      39.315  23.709  27.104  1.00  0.00     0.251 C 
ATOM     28  H   UNL A   1      37.708  22.464  26.995  1.00  0.00     0.163 HD
ATOM     29  O   UNL A   1      40.205  22.868  27.102  1.00  0.00    -0.269 OA
BRANCH  27  30
ATOM     30  C   UNL A   1      39.540  25.129  27.484  1.00  0.00     0.039 A 
ATOM     31  C   UNL A   1      40.126  26.035  26.590  1.00  0.00     0.014 A 
ATOM     32  C   UNL A   1      39.205  25.548  28.771  1.00  0.00     0.014 A 
ATOM     33  C   UNL A   1      40.341  27.366  26.979  1.00  0.00     0.010 A 
ATOM     34  C   UNL A   1      39.324  26.867  29.123  1.00  0.00     0.010 A 
ATOM     35  C   UNL A   1      39.930  27.772  28.249  1.00  0.00    -0.014 A 
BRANCH  35  36
ATOM     36  C   UNL A   1      40.102  29.089  28.844  1.00  0.00     0.031 A 
ATOM     37  C   UNL A   1      39.016  30.094  28.850  1.00  0.00     0.074 A 
ATOM     38  C   UNL A   1      41.164  29.230  29.674  1.00  0.00     0.049 A 
ATOM     39  N   UNL A   1      39.175  31.312  29.244  1.00  0.00    -0.248 NA
ATOM     40  C   UNL A   1      37.646  29.806  28.435  1.00  0.00     0.031 C 
ATOM     41  C   UNL A   1      41.329  30.194  30.754  1.00  0.00     0.029 A 
ATOM     42  N   UNL A   1      42.381  28.544  29.686  1.00  0.00    -0.354 N 
ATOM     43  C   UNL A   1      37.931  31.875  29.414  1.00  0.00     0.074 A 
ATOM     44  C   UNL A   1      37.014  30.923  28.822  1.00  0.00     0.031 C 
ATOM     45  C   UNL A   1      42.629  30.238  31.090  1.00  0.00     0.029 A 
ATOM     46  C   UNL A   1      43.345  29.482  30.078  1.00  0.00     0.049 A 
ATOM     47  H   UNL A   1      42.530  27.597  29.464  1.00  0.00     0.167 HD
ATOM     48  C   UNL A   1      37.812  33.023  30.145  1.00  0.00     0.037 A 
ATOM     49  C   UNL A   1      44.263  30.020  29.212  1.00  0.00     0.037 A 
ATOM     50  C   UNL A   1      39.114  33.470  30.645  1.00  0.00     0.049 A 
ATOM     51  C   UNL A   1      44.164  31.533  29.058  1.00  0.00     0.074 A 
ATOM     52  C   UNL A   1      39.782  33.362  31.854  1.00  0.00     0.029 A 
ATOM     53  N   UNL A   1      40.053  33.907  29.736  1.00  0.00    -0.354 N 
ATOM     54  N   UNL A   1      43.266  32.276  29.646  1.00  0.00    -0.248 NA
ATOM     55  C   UNL A   1      45.014  32.319  28.160  1.00  0.00     0.031 C 
ATOM     56  C   UNL A   1      41.141  33.743  31.649  1.00  0.00     0.029 A 
ATOM     57  C   UNL A   1      41.292  34.087  30.318  1.00  0.00     0.049 A 
ATOM     58  H   UNL A   1      39.863  34.071  28.784  1.00  0.00     0.167 HD
ATOM     59  C   UNL A   1      43.324  33.551  29.156  1.00  0.00     0.074 A 
ATOM     60  C   UNL A   1      44.463  33.543  28.258  1.00  0.00     0.031 C 
ATOM     61  C   UNL A   1      42.396  34.502  29.468  1.00  0.00     0.037 A 
BRANCH  48  62
ATOM     62  C   UNL A   1      36.510  33.666  30.578  1.00  0.00     0.058 A 
ATOM     63  C   UNL A   1      35.596  34.159  29.618  1.00  0.00     0.135 A 
ATOM     64  C   UNL A   1      36.094  33.815  31.915  1.00  0.00     0.135 A 
ATOM     65  F   UNL A   1      35.813  34.022  28.303  1.00  0.00    -0.206 F 
ATOM     66  C   UNL A   1      34.417  34.824  29.956  1.00  0.00     0.059 A 
ATOM     67  C   UNL A   1      34.941  34.521  32.281  1.00  0.00     0.059 A 
ATOM     68  F   UNL A   1      36.763  33.237  32.922  1.00  0.00    -0.206 F 
ATOM     69  C   UNL A   1      34.111  35.029  31.292  1.00  0.00     0.060 A 
BRANCH  69  70
ATOM     70  S   UNL A   1      32.623  35.962  31.701  1.00  0.00     0.124 S 
ATOM     71  O   UNL A   1      33.161  37.064  32.494  1.00  0.00    -0.237 OA
ATOM     72  O   UNL A   1      32.114  36.319  30.381  1.00  0.00    -0.237 OA
ATOM     73  O   UNL A   1      31.814  35.001  32.447  1.00  0.00    -0.744 OA
ENDBRANCH  69  70
ENDBRANCH  48  62
BRANCH  49  74
ATOM     74  C   UNL A   1      44.641  29.087  28.109  1.00  0.00     0.058 A 
ATOM     75  C   UNL A   1      45.506  28.024  28.425  1.00  0.00     0.135 A 
ATOM     76  C   UNL A   1      43.795  28.940  26.998  1.00  0.00     0.135 A 
ATOM     77  F   UNL A   1      46.357  28.132  29.457  1.00  0.00    -0.206 F 
ATOM     78  C   UNL A   1      45.381  26.787  27.806  1.00  0.00     0.059 A 
ATOM     79  C   UNL A   1      43.654  27.707  26.364  1.00  0.00     0.059 A 
ATOM     80  F   UNL A   1      42.972  29.935  26.637  1.00  0.00    -0.206 F 
ATOM     81  C   UNL A   1      44.394  26.622  26.834  1.00  0.00     0.060 A 
BRANCH  81  82
ATOM     82  S   UNL A   1      43.939  24.932  26.374  1.00  0.00     0.124 S 
ATOM     83  O   UNL A   1      43.109  24.525  27.507  1.00  0.00    -0.237 OA
ATOM     84  O   UNL A   1      43.226  25.173  25.122  1.00  0.00    -0.237 OA
ATOM     85  O   UNL A   1      45.228  24.264  26.264  1.00  0.00    -0.744 OA
ENDBRANCH  81  82
ENDBRANCH  49  74
BRANCH  61  86
ATOM     86  C   UNL A   1      42.438  35.906  28.934  1.00  0.00     0.058 A 
ATOM     87  C   UNL A   1      41.852  36.255  27.707  1.00  0.00     0.135 A 
ATOM     88  C   UNL A   1      43.172  36.924  29.583  1.00  0.00     0.135 A 
ATOM     89  F   UNL A   1      41.183  35.341  26.985  1.00  0.00    -0.206 F 
ATOM     90  C   UNL A   1      41.940  37.546  27.185  1.00  0.00     0.059 A 
ATOM     91  C   UNL A   1      43.320  38.201  29.055  1.00  0.00     0.059 A 
ATOM     92  F   UNL A   1      43.741  36.725  30.780  1.00  0.00    -0.206 F 
ATOM     93  C   UNL A   1      42.674  38.513  27.869  1.00  0.00     0.060 A 
BRANCH  93  94
ATOM     94  S   UNL A   1      42.787  40.183  27.202  1.00  0.00     0.124 S 
ATOM     95  O   UNL A   1      43.856  40.061  26.216  1.00  0.00    -0.237 OA
ATOM     96  O   UNL A   1      41.444  40.367  26.660  1.00  0.00    -0.237 OA
ATOM     97  O   UNL A   1      43.110  40.993  28.371  1.00  0.00    -0.744 OA
ENDBRANCH  93  94
ENDBRANCH  61  86
ENDBRANCH  35  36
ENDBRANCH  27  30
ENDBRANCH  25  26
ENDBRANCH   1  25
TORSDOF 15
ENDMDL
MODEL 3
REMARK VINA RESULT:     -14.0      1.230      1.665
REMARK SMILES Cc1ccc(NC(=O)[C@H]2CC=CC[C@H]2C(=O)NCCCNC(=O)c2ccc(-c3c4nc(c(-c5c(F)cc(S(=O)(=O)[O-])cc5F)c5ccc([nH]5)c(-c5c(F)cc(S(=O)(=O)[O-])cc5F)c5nc(c(-c6c(F)cc(S(=O)(=O)[O-])cc6F)c6ccc3[nH]6)C=C5)C=C4)cc2)cc1F
REMARK SMILES IDX 19 1 18 2 17 3 15 4 16 5 14 7 9 8 10 9 11 10 13 11 12 12
REMARK SMILES IDX 7 13 6 14 8 16 5 17 1 18 2 19 3 20 91 21 4 22 90 23 92 24
REMARK SMILES IDX 20 25 21 26 22 27 23 29 24 30 25 31 89 32 26 33 88 34 27 35
REMARK SMILES IDX 28 36 29 37 82 38 30 39 87 40 81 41 83 42 31 43 86 44 80 45
REMARK SMILES IDX 79 46 32 48 66 49 45 50 65 51 46 52 49 53 64 54 84 55 47 56
REMARK SMILES IDX 48 57 63 59 85 60 50 61 33 62 34 63 43 64 35 65 36 66 42 67
REMARK SMILES IDX 44 68 37 69 38 70 39 71 40 72 41 73 67 74 68 75 77 76 69 77
REMARK SMILES IDX 70 78 76 79 78 80 71 81 72 82 73 83 74 84 75 85 51 86 52 87
REMARK SMILES IDX 61 88 53 89 54 90 60 91 62 92 55 93 56 94 57 95 58 96 59 97
REMARK H PARENT 17 6 6 15 21 28 83 47 49 58
REMARK Flexibility Score: inf
ROOT
ATOM      1  C   UNL A   1      33.886  28.019  25.889  1.00  0.00     0.042 C 
ENDROOT
BRANCH   1   2
ATOM      2  C   UNL A   1      33.232  26.667  26.134  1.00  0.00     0.117 C 
BRANCH   2   3
ATOM      3  N   UNL A   1      32.946  25.923  24.917  1.00  0.00    -0.356 N 
ATOM      4  C   UNL A   1      33.456  24.766  24.427  1.00  0.00     0.224 C 
ATOM      5  O   UNL A   1      32.901  24.271  23.443  1.00  0.00    -0.275 OA
ATOM      6  H   UNL A   1      32.258  26.335  24.345  1.00  0.00     0.163 HD
BRANCH   4   7
ATOM      7  C   UNL A   1      34.626  24.044  25.083  1.00  0.00     0.095 C 
ATOM      8  C   UNL A   1      34.322  23.165  26.330  1.00  0.00     0.095 C 
ATOM      9  C   UNL A   1      35.134  21.845  26.427  1.00  0.00     0.041 C 
ATOM     10  C   UNL A   1      35.815  21.351  25.197  1.00  0.00    -0.030 C 
ATOM     11  C   UNL A   1      35.539  23.494  23.965  1.00  0.00     0.041 C 
ATOM     12  C   UNL A   1      36.004  22.088  24.102  1.00  0.00    -0.030 C 
BRANCH   8  13
ATOM     13  C   UNL A   1      32.848  22.913  26.688  1.00  0.00     0.228 C 
ATOM     14  N   UNL A   1      32.118  21.855  26.239  1.00  0.00    -0.326 N 
ATOM     15  H   UNL A   1      31.310  21.698  26.779  1.00  0.00     0.169 HD
ATOM     16  O   UNL A   1      32.247  23.692  27.438  1.00  0.00    -0.274 OA
BRANCH  14  17
ATOM     17  C   UNL A   1      32.251  20.936  25.187  1.00  0.00     0.044 A 
ATOM     18  C   UNL A   1      32.612  17.885  22.149  1.00  0.00     0.047 C 
ATOM     19  C   UNL A   1      32.487  18.923  23.219  1.00  0.00    -0.015 A 
ATOM     20  C   UNL A   1      32.667  18.610  24.568  1.00  0.00     0.008 A 
ATOM     21  C   UNL A   1      32.177  20.239  22.882  1.00  0.00     0.128 A 
ATOM     22  C   UNL A   1      32.537  19.608  25.542  1.00  0.00     0.026 A 
ATOM     23  C   UNL A   1      32.053  21.238  23.846  1.00  0.00     0.065 A 
ATOM     24  F   UNL A   1      31.964  20.563  21.596  1.00  0.00    -0.207 F 
ENDBRANCH  14  17
ENDBRANCH   8  13
ENDBRANCH   4   7
ENDBRANCH   2   3
ENDBRANCH   1   2
BRANCH   1  25
ATOM     25  C   UNL A   1      34.007  28.869  27.132  1.00  0.00     0.118 C 
BRANCH  25  26
ATOM     26  N   UNL A   1      34.486  30.196  26.805  1.00  0.00    -0.352 N 
ATOM     27  C   UNL A   1      35.462  30.873  27.509  1.00  0.00     0.251 C 
ATOM     28  H   UNL A   1      34.089  30.647  26.024  1.00  0.00     0.163 HD
ATOM     29  O   UNL A   1      35.299  32.064  27.737  1.00  0.00    -0.269 OA
BRANCH  27  30
ATOM     30  C   UNL A   1      36.639  30.106  27.999  1.00  0.00     0.039 A 
ATOM     31  C   UNL A   1      36.626  29.482  29.254  1.00  0.00     0.014 A 
ATOM     32  C   UNL A   1      37.789  30.053  27.214  1.00  0.00     0.014 A 
ATOM     33  C   UNL A   1      37.754  28.777  29.700  1.00  0.00     0.010 A 
ATOM     34  C   UNL A   1      38.858  29.288  27.601  1.00  0.00     0.010 A 
ATOM     35  C   UNL A   1      38.865  28.683  28.860  1.00  0.00    -0.014 A 
BRANCH  35  36
ATOM     36  C   UNL A   1      40.134  28.035  29.157  1.00  0.00     0.031 A 
ATOM     37  C   UNL A   1      40.396  26.624  28.798  1.00  0.00     0.074 A 
ATOM     38  C   UNL A   1      41.163  28.861  29.467  1.00  0.00     0.049 A 
ATOM     39  N   UNL A   1      41.451  25.979  29.166  1.00  0.00    -0.248 NA
ATOM     40  C   UNL A   1      39.501  25.821  27.969  1.00  0.00     0.031 C 
ATOM     41  C   UNL A   1      42.589  28.596  29.331  1.00  0.00     0.029 A 
ATOM     42  N   UNL A   1      41.139  30.137  30.036  1.00  0.00    -0.354 N 
ATOM     43  C   UNL A   1      41.532  24.825  28.421  1.00  0.00     0.074 A 
ATOM     44  C   UNL A   1      40.253  24.733  27.747  1.00  0.00     0.031 C 
ATOM     45  C   UNL A   1      43.261  29.503  30.060  1.00  0.00     0.029 A 
ATOM     46  C   UNL A   1      42.273  30.211  30.855  1.00  0.00     0.049 A 
ATOM     47  H   UNL A   1      40.465  30.838  29.891  1.00  0.00     0.167 HD
ATOM     48  C   UNL A   1      42.717  24.147  28.367  1.00  0.00     0.037 A 
ATOM     49  C   UNL A   1      42.211  30.177  32.225  1.00  0.00     0.037 A 
ATOM     50  C   UNL A   1      43.748  24.818  29.163  1.00  0.00     0.049 A 
ATOM     51  C   UNL A   1      42.947  29.001  32.855  1.00  0.00     0.074 A 
ATOM     52  C   UNL A   1      44.799  25.673  28.872  1.00  0.00     0.029 A 
ATOM     53  N   UNL A   1      43.601  24.857  30.532  1.00  0.00    -0.354 N 
ATOM     54  N   UNL A   1      43.552  28.064  32.178  1.00  0.00    -0.248 NA
ATOM     55  C   UNL A   1      42.985  28.739  34.296  1.00  0.00     0.031 C 
ATOM     56  C   UNL A   1      45.276  26.225  30.097  1.00  0.00     0.029 A 
ATOM     57  C   UNL A   1      44.519  25.699  31.128  1.00  0.00     0.049 A 
ATOM     58  H   UNL A   1      42.921  24.345  31.028  1.00  0.00     0.167 HD
ATOM     59  C   UNL A   1      43.944  27.060  33.020  1.00  0.00     0.074 A 
ATOM     60  C   UNL A   1      43.606  27.546  34.344  1.00  0.00     0.031 C 
ATOM     61  C   UNL A   1      44.453  25.877  32.569  1.00  0.00     0.037 A 
BRANCH  48  62
ATOM     62  C   UNL A   1      43.025  22.974  27.459  1.00  0.00     0.058 A 
ATOM     63  C   UNL A   1      42.307  21.762  27.579  1.00  0.00     0.135 A 
ATOM     64  C   UNL A   1      44.001  22.979  26.444  1.00  0.00     0.135 A 
ATOM     65  F   UNL A   1      41.295  21.625  28.448  1.00  0.00    -0.206 F 
ATOM     66  C   UNL A   1      42.592  20.626  26.822  1.00  0.00     0.059 A 
ATOM     67  C   UNL A   1      44.340  21.839  25.704  1.00  0.00     0.059 A 
ATOM     68  F   UNL A   1      44.632  24.107  26.090  1.00  0.00    -0.206 F 
ATOM     69  C   UNL A   1      43.632  20.662  25.906  1.00  0.00     0.060 A 
BRANCH  69  70
ATOM     70  S   UNL A   1      44.034  19.157  24.999  1.00  0.00     0.124 S 
ATOM     71  O   UNL A   1      42.895  18.298  25.311  1.00  0.00    -0.237 OA
ATOM     72  O   UNL A   1      44.108  19.639  23.625  1.00  0.00    -0.237 OA
ATOM     73  O   UNL A   1      45.304  18.735  25.586  1.00  0.00    -0.744 OA
ENDBRANCH  69  70
ENDBRANCH  48  62
BRANCH  49  74
ATOM     74  C   UNL A   1      40.949  30.765  32.767  1.00  0.00     0.058 A 
ATOM     75  C   UNL A   1      39.937  29.874  33.167  1.00  0.00     0.135 A 
ATOM     76  C   UNL A   1      40.966  32.044  33.344  1.00  0.00     0.135 A 
ATOM     77  F   UNL A   1      39.860  28.651  32.619  1.00  0.00    -0.206 F 
ATOM     78  C   UNL A   1      39.116  30.158  34.251  1.00  0.00     0.059 A 
ATOM     79  C   UNL A   1      40.152  32.350  34.432  1.00  0.00     0.059 A 
ATOM     80  F   UNL A   1      41.892  32.941  32.975  1.00  0.00    -0.206 F 
ATOM     81  C   UNL A   1      39.291  31.367  34.923  1.00  0.00     0.060 A 
BRANCH  81  82
ATOM     82  S   UNL A   1      38.557  31.530  36.570  1.00  0.00     0.124 S 
ATOM     83  O   UNL A   1      37.507  32.520  36.335  1.00  0.00    -0.237 OA
ATOM     84  O   UNL A   1      38.097  30.163  36.799  1.00  0.00    -0.237 OA
ATOM     85  O   UNL A   1      39.677  31.978  37.385  1.00  0.00    -0.744 OA
ENDBRANCH  81  82
ENDBRANCH  49  74
BRANCH  61  86
ATOM     86  C   UNL A   1      44.882  24.760  33.478  1.00  0.00     0.058 A 
ATOM     87  C   UNL A   1      43.962  24.028  34.244  1.00  0.00     0.135 A 
ATOM     88  C   UNL A   1      46.247  24.466  33.698  1.00  0.00     0.135 A 
ATOM     89  F   UNL A   1      42.645  24.274  34.150  1.00  0.00    -0.206 F 
ATOM     90  C   UNL A   1      44.366  23.029  35.130  1.00  0.00     0.059 A 
ATOM     91  C   UNL A   1      46.675  23.515  34.616  1.00  0.00     0.059 A 
ATOM     92  F   UNL A   1      47.217  25.068  32.996  1.00  0.00    -0.206 F 
ATOM     93  C   UNL A   1      45.725  22.777  35.307  1.00  0.00     0.060 A 
BRANCH  93  94
ATOM     94  S   UNL A   1      46.252  21.485  36.445  1.00  0.00     0.124 S 
ATOM     95  O   UNL A   1      45.739  21.960  37.727  1.00  0.00    -0.237 OA
ATOM     96  O   UNL A   1      45.577  20.318  35.887  1.00  0.00    -0.237 OA
ATOM     97  O   UNL A   1      47.706  21.492  36.318  1.00  0.00    -0.744 OA
ENDBRANCH  93  94
ENDBRANCH  61  86
ENDBRANCH  35  36
ENDBRANCH  27  30
ENDBRANCH  25  26
ENDBRANCH   1  25
TORSDOF 15
ENDMDL
