MODEL 1
REMARK VINA RESULT:     -11.3      0.000      0.000
REMARK SMILES Cc1coc2c(C)c3oc(=O)c(CC(=O)NCC(=O)N[C@H](C(=O)NCCCNC(=O)c4ccc(-c5c6nc(c(-c7c(F)cc(S(=O)(=O)[O-])cc7F)c7ccc([nH]7)c(-c7c(F)cc(S(=O)(=O)[O-])cc7F)c7nc(c(-c8c(F)cc(S(=O)(=O)[O-])cc8F)c8ccc5[nH]8)C=C7)C=C6)cc4)C(C)C)c(C)c3cc12
REMARK SMILES IDX 25 1 24 2 22 3 23 4 21 6 20 7 18 8 19 9 17 11 16 12 14 13
REMARK SMILES IDX 15 14 13 16 12 17 1 18 2 19 3 20 104 21 4 22 5 23 103 24
REMARK SMILES IDX 6 25 102 26 7 27 8 28 100 29 9 30 101 31 10 32 11 33 97 34
REMARK SMILES IDX 98 35 99 36 26 37 27 38 28 39 29 40 30 42 31 43 32 44 96 45
REMARK SMILES IDX 33 46 95 47 34 48 35 49 36 50 89 51 37 52 94 53 88 54 90 55
REMARK SMILES IDX 38 56 93 57 87 58 86 59 39 61 73 62 52 63 72 64 53 65 56 66
REMARK SMILES IDX 71 67 91 68 54 69 55 70 70 72 92 73 57 74 40 75 41 76 50 77
REMARK SMILES IDX 42 78 43 79 49 80 51 81 44 82 45 83 46 84 47 85 48 86 74 87
REMARK SMILES IDX 75 88 84 89 76 90 77 91 83 92 85 93 78 94 79 95 80 96 81 97
REMARK SMILES IDX 82 98 58 99 59 100 68 101 60 102 61 103 67 104 69 105 62 106
REMARK SMILES IDX 63 107 64 108 65 109 66 110
REMARK H PARENT 24 5 20 10 16 15 28 41 90 60 56 71
REMARK Flexibility Score: inf
ROOT
ATOM      1  C   UNL A   1      41.778  27.366  36.028  1.00  0.00     0.117 C 
ENDROOT
BRANCH   1   2
ATOM      2  N   UNL A   1      41.260  27.112  34.715  1.00  0.00    -0.354 N 
ATOM      3  C   UNL A   1      40.791  28.093  33.904  1.00  0.00     0.242 C 
ATOM      4  O   UNL A   1      40.058  27.785  32.962  1.00  0.00    -0.273 OA
ATOM      5  H   UNL A   1      41.245  26.184  34.387  1.00  0.00     0.163 HD
BRANCH   3   6
ATOM      6  C   UNL A   1      41.354  29.522  34.058  1.00  0.00     0.173 C 
BRANCH   6   7
ATOM      7  N   UNL A   1      42.431  29.979  35.021  1.00  0.00    -0.343 N 
ATOM      8  C   UNL A   1      42.467  30.877  36.079  1.00  0.00     0.240 C 
ATOM      9  O   UNL A   1      43.592  30.953  36.609  1.00  0.00    -0.273 OA
ATOM     10  H   UNL A   1      43.298  29.543  34.859  1.00  0.00     0.164 HD
BRANCH   8  11
ATOM     11  C   UNL A   1      41.209  31.689  36.861  1.00  0.00     0.216 C 
BRANCH  11  12
ATOM     12  N   UNL A   1      39.659  31.661  36.839  1.00  0.00    -0.347 N 
ATOM     13  C   UNL A   1      38.503  31.622  36.105  1.00  0.00     0.225 C 
ATOM     14  O   UNL A   1      37.518  31.574  36.878  1.00  0.00    -0.275 OA
ATOM     15  H   UNL A   1      39.379  31.681  37.783  1.00  0.00     0.164 HD
BRANCH  13  16
ATOM     16  C   UNL A   1      38.093  31.560  34.510  1.00  0.00     0.143 C 
BRANCH  16  17
ATOM     17  C   UNL A   1      36.797  31.951  33.699  1.00  0.00     0.051 A 
ATOM     18  C   UNL A   1      33.100  37.532  31.288  1.00  0.00     0.048 C 
ATOM     19  C   UNL A   1      33.348  36.238  30.606  1.00  0.00    -0.005 A 
ATOM     20  C   UNL A   1      32.961  35.901  29.323  1.00  0.00     0.199 A 
ATOM     21  C   UNL A   1      33.994  35.072  31.133  1.00  0.00     0.024 A 
ATOM     22  O   UNL A   1      33.388  34.655  29.000  1.00  0.00    -0.464 OA
ATOM     23  C   UNL A   1      34.012  34.144  30.101  1.00  0.00     0.140 A 
ATOM     24  C   UNL A   1      34.598  34.712  32.364  1.00  0.00     0.024 A 
ATOM     25  C   UNL A   1      34.601  32.881  30.182  1.00  0.00     0.036 A 
ATOM     26  C   UNL A   1      35.122  33.410  32.567  1.00  0.00     0.022 A 
ATOM     27  C   UNL A   1      34.732  31.993  28.986  1.00  0.00     0.052 C 
ATOM     28  C   UNL A   1      35.084  32.538  31.471  1.00  0.00     0.145 A 
ATOM     29  C   UNL A   1      35.938  33.017  33.784  1.00  0.00    -0.029 A 
ATOM     30  O   UNL A   1      35.658  31.257  31.606  1.00  0.00    -0.422 OA
ATOM     31  C   UNL A   1      35.836  34.004  34.924  1.00  0.00     0.046 C 
ATOM     32  C   UNL A   1      36.452  30.897  32.682  1.00  0.00     0.340 A 
ATOM     33  O   UNL A   1      36.888  29.754  32.770  1.00  0.00    -0.246 OA
ENDBRANCH  16  17
ENDBRANCH  13  16
ENDBRANCH  11  12
ENDBRANCH   8  11
ENDBRANCH   6   7
BRANCH   6  34
ATOM     34  C   UNL A   1      41.908  29.960  32.750  1.00  0.00     0.015 C 
ATOM     35  C   UNL A   1      41.505  31.277  32.099  1.00  0.00     0.010 C 
ATOM     36  C   UNL A   1      43.350  29.444  32.901  1.00  0.00     0.010 C 
ENDBRANCH   6  34
ENDBRANCH   3   6
ENDBRANCH   1   2
BRANCH   1  37
ATOM     37  C   UNL A   1      41.510  26.152  36.935  1.00  0.00     0.042 C 
BRANCH  37  38
ATOM     38  C   UNL A   1      42.061  24.890  36.326  1.00  0.00     0.118 C 
BRANCH  38  39
ATOM     39  N   UNL A   1      43.185  24.456  37.130  1.00  0.00    -0.352 N 
ATOM     40  C   UNL A   1      44.493  24.239  36.777  1.00  0.00     0.251 C 
ATOM     41  H   UNL A   1      42.978  24.290  38.077  1.00  0.00     0.163 HD
ATOM     42  O   UNL A   1      45.254  23.698  37.541  1.00  0.00    -0.269 OA
BRANCH  40  43
ATOM     43  C   UNL A   1      44.915  24.646  35.428  1.00  0.00     0.039 A 
ATOM     44  C   UNL A   1      45.131  23.645  34.483  1.00  0.00     0.014 A 
ATOM     45  C   UNL A   1      45.010  26.000  35.100  1.00  0.00     0.014 A 
ATOM     46  C   UNL A   1      45.380  24.017  33.173  1.00  0.00     0.010 A 
ATOM     47  C   UNL A   1      45.139  26.364  33.780  1.00  0.00     0.010 A 
ATOM     48  C   UNL A   1      45.355  25.375  32.823  1.00  0.00    -0.014 A 
BRANCH  48  49
ATOM     49  C   UNL A   1      45.417  25.735  31.412  1.00  0.00     0.031 A 
ATOM     50  C   UNL A   1      46.425  26.784  31.097  1.00  0.00     0.074 A 
ATOM     51  C   UNL A   1      44.748  25.068  30.452  1.00  0.00     0.049 A 
ATOM     52  N   UNL A   1      46.207  28.010  30.754  1.00  0.00    -0.248 NA
ATOM     53  C   UNL A   1      47.843  26.490  31.367  1.00  0.00     0.031 C 
ATOM     54  C   UNL A   1      43.967  23.834  30.582  1.00  0.00     0.029 A 
ATOM     55  N   UNL A   1      44.706  25.310  29.115  1.00  0.00    -0.354 N 
ATOM     56  C   UNL A   1      47.460  28.573  30.527  1.00  0.00     0.074 A 
ATOM     57  C   UNL A   1      48.412  27.672  31.118  1.00  0.00     0.031 C 
ATOM     58  C   UNL A   1      43.732  23.318  29.357  1.00  0.00     0.029 A 
ATOM     59  C   UNL A   1      44.194  24.264  28.358  1.00  0.00     0.049 A 
ATOM     60  H   UNL A   1      45.014  26.155  28.716  1.00  0.00     0.167 HD
ATOM     61  C   UNL A   1      47.619  29.601  29.647  1.00  0.00     0.037 A 
ATOM     62  C   UNL A   1      44.184  24.168  27.006  1.00  0.00     0.037 A 
ATOM     63  C   UNL A   1      46.348  30.206  29.331  1.00  0.00     0.049 A 
ATOM     64  C   UNL A   1      44.307  25.554  26.482  1.00  0.00     0.074 A 
ATOM     65  C   UNL A   1      45.369  30.850  30.061  1.00  0.00     0.029 A 
ATOM     66  N   UNL A   1      45.763  29.839  28.144  1.00  0.00    -0.354 N 
ATOM     67  N   UNL A   1      43.403  26.482  26.661  1.00  0.00    -0.248 NA
ATOM     68  C   UNL A   1      45.634  26.042  26.142  1.00  0.00     0.031 C 
ATOM     69  C   UNL A   1      44.138  30.439  29.472  1.00  0.00     0.029 A 
ATOM     70  C   UNL A   1      44.429  29.625  28.374  1.00  0.00     0.049 A 
ATOM     71  H   UNL A   1      46.221  29.747  27.278  1.00  0.00     0.167 HD
ATOM     72  C   UNL A   1      44.125  27.646  26.881  1.00  0.00     0.074 A 
ATOM     73  C   UNL A   1      45.482  27.336  26.439  1.00  0.00     0.031 C 
ATOM     74  C   UNL A   1      43.623  28.653  27.658  1.00  0.00     0.037 A 
BRANCH  61  75
ATOM     75  C   UNL A   1      48.837  29.806  28.771  1.00  0.00     0.058 A 
ATOM     76  C   UNL A   1      49.240  28.768  27.901  1.00  0.00     0.135 A 
ATOM     77  C   UNL A   1      49.784  30.838  28.956  1.00  0.00     0.135 A 
ATOM     78  F   UNL A   1      48.425  27.730  27.649  1.00  0.00    -0.206 F 
ATOM     79  C   UNL A   1      50.515  28.717  27.333  1.00  0.00     0.059 A 
ATOM     80  C   UNL A   1      51.037  30.834  28.356  1.00  0.00     0.059 A 
ATOM     81  F   UNL A   1      49.585  31.853  29.803  1.00  0.00    -0.206 F 
ATOM     82  C   UNL A   1      51.412  29.749  27.582  1.00  0.00     0.060 A 
BRANCH  82  83
ATOM     83  S   UNL A   1      53.091  29.639  26.942  1.00  0.00     0.124 S 
ATOM     84  O   UNL A   1      52.942  28.617  25.912  1.00  0.00    -0.237 OA
ATOM     85  O   UNL A   1      53.323  31.000  26.469  1.00  0.00    -0.237 OA
ATOM     86  O   UNL A   1      53.870  29.247  28.113  1.00  0.00    -0.744 OA
ENDBRANCH  82  83
ENDBRANCH  61  75
BRANCH  62  87
ATOM     87  C   UNL A   1      44.424  22.949  26.187  1.00  0.00     0.058 A 
ATOM     88  C   UNL A   1      45.727  22.503  25.903  1.00  0.00     0.135 A 
ATOM     89  C   UNL A   1      43.383  22.044  25.886  1.00  0.00     0.135 A 
ATOM     90  F   UNL A   1      46.782  23.286  26.175  1.00  0.00    -0.206 F 
ATOM     91  C   UNL A   1      45.986  21.221  25.398  1.00  0.00     0.059 A 
ATOM     92  C   UNL A   1      43.616  20.770  25.371  1.00  0.00     0.059 A 
ATOM     93  F   UNL A   1      42.105  22.335  26.169  1.00  0.00    -0.206 F 
ATOM     94  C   UNL A   1      44.922  20.354  25.155  1.00  0.00     0.060 A 
BRANCH  94  95
ATOM     95  S   UNL A   1      45.256  18.646  24.659  1.00  0.00     0.124 S 
ATOM     96  O   UNL A   1      44.028  17.969  25.060  1.00  0.00    -0.237 OA
ATOM     97  O   UNL A   1      45.472  18.782  23.222  1.00  0.00    -0.237 OA
ATOM     98  O   UNL A   1      46.444  18.293  25.433  1.00  0.00    -0.744 OA
ENDBRANCH  94  95
ENDBRANCH  62  87
BRANCH  74  99
ATOM     99  C   UNL A   1      42.152  28.647  27.993  1.00  0.00     0.058 A 
ATOM    100  C   UNL A   1      41.620  28.316  29.251  1.00  0.00     0.135 A 
ATOM    101  C   UNL A   1      41.269  29.201  27.052  1.00  0.00     0.135 A 
ATOM    102  F   UNL A   1      42.406  27.862  30.236  1.00  0.00    -0.206 F 
ATOM    103  C   UNL A   1      40.271  28.519  29.556  1.00  0.00     0.059 A 
ATOM    104  C   UNL A   1      39.931  29.442  27.344  1.00  0.00     0.059 A 
ATOM    105  F   UNL A   1      41.727  29.589  25.849  1.00  0.00    -0.206 F 
ATOM    106  C   UNL A   1      39.436  29.098  28.599  1.00  0.00     0.060 A 
BRANCH 106 107
ATOM    107  S   UNL A   1      37.724  29.474  29.036  1.00  0.00     0.124 S 
ATOM    108  O   UNL A   1      37.484  28.567  30.153  1.00  0.00    -0.237 OA
ATOM    109  O   UNL A   1      37.789  30.893  29.373  1.00  0.00    -0.237 OA
ATOM    110  O   UNL A   1      36.984  29.168  27.814  1.00  0.00    -0.744 OA
ENDBRANCH 106 107
ENDBRANCH  74  99
ENDBRANCH  48  49
ENDBRANCH  40  43
ENDBRANCH  38  39
ENDBRANCH  37  38
ENDBRANCH   1  37
TORSDOF 19
ENDMDL
MODEL 2
REMARK VINA RESULT:     -10.8      4.379      8.412
REMARK SMILES Cc1coc2c(C)c3oc(=O)c(CC(=O)NCC(=O)N[C@H](C(=O)NCCCNC(=O)c4ccc(-c5c6nc(c(-c7c(F)cc(S(=O)(=O)[O-])cc7F)c7ccc([nH]7)c(-c7c(F)cc(S(=O)(=O)[O-])cc7F)c7nc(c(-c8c(F)cc(S(=O)(=O)[O-])cc8F)c8ccc5[nH]8)C=C7)C=C6)cc4)C(C)C)c(C)c3cc12
REMARK SMILES IDX 25 1 24 2 22 3 23 4 21 6 20 7 18 8 19 9 17 11 16 12 14 13
REMARK SMILES IDX 15 14 13 16 12 17 1 18 2 19 3 20 104 21 4 22 5 23 103 24
REMARK SMILES IDX 6 25 102 26 7 27 8 28 100 29 9 30 101 31 10 32 11 33 97 34
REMARK SMILES IDX 98 35 99 36 26 37 27 38 28 39 29 40 30 42 31 43 32 44 96 45
REMARK SMILES IDX 33 46 95 47 34 48 35 49 36 50 89 51 37 52 94 53 88 54 90 55
REMARK SMILES IDX 38 56 93 57 87 58 86 59 39 61 73 62 52 63 72 64 53 65 56 66
REMARK SMILES IDX 71 67 91 68 54 69 55 70 70 72 92 73 57 74 40 75 41 76 50 77
REMARK SMILES IDX 42 78 43 79 49 80 51 81 44 82 45 83 46 84 47 85 48 86 74 87
REMARK SMILES IDX 75 88 84 89 76 90 77 91 83 92 85 93 78 94 79 95 80 96 81 97
REMARK SMILES IDX 82 98 58 99 59 100 68 101 60 102 61 103 67 104 69 105 62 106
REMARK SMILES IDX 63 107 64 108 65 109 66 110
REMARK H PARENT 24 5 20 10 16 15 28 41 90 60 56 71
REMARK Flexibility Score: inf
ROOT
ATOM      1  C   UNL A   1      35.619  33.623  33.998  1.00  0.00     0.117 C 
ENDROOT
BRANCH   1   2
ATOM      2  N   UNL A   1      36.869  34.307  33.833  1.00  0.00    -0.354 N 
ATOM      3  C   UNL A   1      37.756  34.476  34.845  1.00  0.00     0.242 C 
ATOM      4  O   UNL A   1      38.620  35.349  34.737  1.00  0.00    -0.273 OA
ATOM      5  H   UNL A   1      37.093  34.669  32.946  1.00  0.00     0.163 HD
BRANCH   3   6
ATOM      6  C   UNL A   1      37.785  33.445  35.993  1.00  0.00     0.173 C 
BRANCH   6   7
ATOM      7  N   UNL A   1      38.191  31.988  35.901  1.00  0.00    -0.343 N 
ATOM      8  C   UNL A   1      38.499  31.131  34.853  1.00  0.00     0.240 C 
ATOM      9  O   UNL A   1      38.782  29.982  35.238  1.00  0.00    -0.273 OA
ATOM     10  H   UNL A   1      38.248  31.552  36.781  1.00  0.00     0.164 HD
BRANCH   8  11
ATOM     11  C   UNL A   1      38.745  31.462  33.215  1.00  0.00     0.216 C 
BRANCH  11  12
ATOM     12  N   UNL A   1      39.312  32.631  32.370  1.00  0.00    -0.347 N 
ATOM     13  C   UNL A   1      40.239  33.631  32.234  1.00  0.00     0.225 C 
ATOM     14  O   UNL A   1      40.078  34.204  31.132  1.00  0.00    -0.275 OA
ATOM     15  H   UNL A   1      38.747  32.677  31.565  1.00  0.00     0.164 HD
BRANCH  13  16
ATOM     16  C   UNL A   1      41.517  34.210  33.099  1.00  0.00     0.143 C 
BRANCH  16  17
ATOM     17  C   UNL A   1      42.540  35.391  32.877  1.00  0.00     0.051 A 
ATOM     18  C   UNL A   1      45.230  39.683  27.879  1.00  0.00     0.048 C 
ATOM     19  C   UNL A   1      44.873  40.023  29.279  1.00  0.00    -0.005 A 
ATOM     20  C   UNL A   1      44.929  41.276  29.856  1.00  0.00     0.199 A 
ATOM     21  C   UNL A   1      44.438  39.137  30.319  1.00  0.00     0.024 A 
ATOM     22  O   UNL A   1      44.489  41.239  31.139  1.00  0.00    -0.464 OA
ATOM     23  C   UNL A   1      44.196  39.938  31.427  1.00  0.00     0.140 A 
ATOM     24  C   UNL A   1      44.191  37.746  30.434  1.00  0.00     0.024 A 
ATOM     25  C   UNL A   1      43.706  39.471  32.648  1.00  0.00     0.036 A 
ATOM     26  C   UNL A   1      43.797  37.174  31.671  1.00  0.00     0.022 A 
ATOM     27  C   UNL A   1      43.309  40.405  33.747  1.00  0.00     0.052 C 
ATOM     28  C   UNL A   1      43.589  38.060  32.736  1.00  0.00     0.145 A 
ATOM     29  C   UNL A   1      43.343  35.735  31.819  1.00  0.00    -0.029 A 
ATOM     30  O   UNL A   1      43.128  37.544  33.964  1.00  0.00    -0.422 OA
ATOM     31  C   UNL A   1      43.692  34.865  30.634  1.00  0.00     0.046 C 
ATOM     32  C   UNL A   1      42.657  36.249  34.108  1.00  0.00     0.340 A 
ATOM     33  O   UNL A   1      42.310  35.839  35.211  1.00  0.00    -0.246 OA
ENDBRANCH  16  17
ENDBRANCH  13  16
ENDBRANCH  11  12
ENDBRANCH   8  11
ENDBRANCH   6   7
BRANCH   6  34
ATOM     34  C   UNL A   1      38.688  33.947  37.062  1.00  0.00     0.015 C 
ATOM     35  C   UNL A   1      38.263  34.001  38.524  1.00  0.00     0.010 C 
ATOM     36  C   UNL A   1      40.027  33.392  36.542  1.00  0.00     0.010 C 
ENDBRANCH   6  34
ENDBRANCH   3   6
ENDBRANCH   1   2
BRANCH   1  37
ATOM     37  C   UNL A   1      34.896  33.529  32.643  1.00  0.00     0.042 C 
BRANCH  37  38
ATOM     38  C   UNL A   1      35.446  32.400  31.813  1.00  0.00     0.118 C 
BRANCH  38  39
ATOM     39  N   UNL A   1      34.598  32.241  30.650  1.00  0.00    -0.352 N 
ATOM     40  C   UNL A   1      34.887  31.734  29.408  1.00  0.00     0.251 C 
ATOM     41  H   UNL A   1      33.670  32.543  30.769  1.00  0.00     0.163 HD
ATOM     42  O   UNL A   1      34.101  31.851  28.499  1.00  0.00    -0.269 OA
BRANCH  40  43
ATOM     43  C   UNL A   1      36.196  31.093  29.217  1.00  0.00     0.039 A 
ATOM     44  C   UNL A   1      37.321  31.912  29.158  1.00  0.00     0.014 A 
ATOM     45  C   UNL A   1      36.296  29.701  29.181  1.00  0.00     0.014 A 
ATOM     46  C   UNL A   1      38.570  31.316  29.131  1.00  0.00     0.010 A 
ATOM     47  C   UNL A   1      37.538  29.115  29.273  1.00  0.00     0.010 A 
ATOM     48  C   UNL A   1      38.673  29.919  29.218  1.00  0.00    -0.014 A 
BRANCH  48  49
ATOM     49  C   UNL A   1      39.991  29.324  29.392  1.00  0.00     0.031 A 
ATOM     50  C   UNL A   1      40.331  29.003  30.805  1.00  0.00     0.074 A 
ATOM     51  C   UNL A   1      40.769  28.942  28.360  1.00  0.00     0.049 A 
ATOM     52  N   UNL A   1      41.191  29.598  31.564  1.00  0.00    -0.248 NA
ATOM     53  C   UNL A   1      39.493  28.024  31.518  1.00  0.00     0.031 C 
ATOM     54  C   UNL A   1      40.432  28.917  26.933  1.00  0.00     0.029 A 
ATOM     55  N   UNL A   1      42.013  28.397  28.385  1.00  0.00    -0.354 N 
ATOM     56  C   UNL A   1      41.175  28.909  32.773  1.00  0.00     0.074 A 
ATOM     57  C   UNL A   1      39.982  28.106  32.757  1.00  0.00     0.031 C 
ATOM     58  C   UNL A   1      41.345  28.176  26.268  1.00  0.00     0.029 A 
ATOM     59  C   UNL A   1      42.412  27.820  27.186  1.00  0.00     0.049 A 
ATOM     60  H   UNL A   1      42.585  28.409  29.187  1.00  0.00     0.167 HD
ATOM     61  C   UNL A   1      42.280  28.864  33.571  1.00  0.00     0.037 A 
ATOM     62  C   UNL A   1      43.523  27.074  26.972  1.00  0.00     0.037 A 
ATOM     63  C   UNL A   1      43.230  29.878  33.185  1.00  0.00     0.049 A 
ATOM     64  C   UNL A   1      44.481  27.423  28.054  1.00  0.00     0.074 A 
ATOM     65  C   UNL A   1      43.210  31.257  33.120  1.00  0.00     0.029 A 
ATOM     66  N   UNL A   1      44.292  29.473  32.413  1.00  0.00    -0.354 N 
ATOM     67  N   UNL A   1      45.016  28.607  28.198  1.00  0.00    -0.248 NA
ATOM     68  C   UNL A   1      44.506  26.584  29.243  1.00  0.00     0.031 C 
ATOM     69  C   UNL A   1      43.971  31.583  31.960  1.00  0.00     0.029 A 
ATOM     70  C   UNL A   1      44.473  30.397  31.418  1.00  0.00     0.049 A 
ATOM     71  H   UNL A   1      44.830  28.661  32.551  1.00  0.00     0.167 HD
ATOM     72  C   UNL A   1      45.048  28.820  29.569  1.00  0.00     0.074 A 
ATOM     73  C   UNL A   1      44.827  27.502  30.159  1.00  0.00     0.031 C 
ATOM     74  C   UNL A   1      44.968  30.081  30.091  1.00  0.00     0.037 A 
BRANCH  61  75
ATOM     75  C   UNL A   1      42.683  27.678  34.421  1.00  0.00     0.058 A 
ATOM     76  C   UNL A   1      42.728  27.822  35.825  1.00  0.00     0.135 A 
ATOM     77  C   UNL A   1      43.301  26.512  33.916  1.00  0.00     0.135 A 
ATOM     78  F   UNL A   1      42.174  28.892  36.421  1.00  0.00    -0.206 F 
ATOM     79  C   UNL A   1      43.410  26.927  36.651  1.00  0.00     0.059 A 
ATOM     80  C   UNL A   1      43.938  25.580  34.725  1.00  0.00     0.059 A 
ATOM     81  F   UNL A   1      43.410  26.265  32.606  1.00  0.00    -0.206 F 
ATOM     82  C   UNL A   1      44.027  25.816  36.087  1.00  0.00     0.060 A 
BRANCH  82  83
ATOM     83  S   UNL A   1      44.998  24.715  37.129  1.00  0.00     0.124 S 
ATOM     84  O   UNL A   1      44.381  24.932  38.433  1.00  0.00    -0.237 OA
ATOM     85  O   UNL A   1      44.751  23.418  36.509  1.00  0.00    -0.237 OA
ATOM     86  O   UNL A   1      46.357  25.227  36.980  1.00  0.00    -0.744 OA
ENDBRANCH  82  83
ENDBRANCH  61  75
BRANCH  62  87
ATOM     87  C   UNL A   1      43.644  25.862  26.117  1.00  0.00     0.058 A 
ATOM     88  C   UNL A   1      44.765  25.656  25.294  1.00  0.00     0.135 A 
ATOM     89  C   UNL A   1      42.791  24.750  26.287  1.00  0.00     0.135 A 
ATOM     90  F   UNL A   1      45.644  26.650  25.091  1.00  0.00    -0.206 F 
ATOM     91  C   UNL A   1      45.049  24.413  24.713  1.00  0.00     0.059 A 
ATOM     92  C   UNL A   1      43.047  23.507  25.709  1.00  0.00     0.059 A 
ATOM     93  F   UNL A   1      41.724  24.809  27.097  1.00  0.00    -0.206 F 
ATOM     94  C   UNL A   1      44.193  23.338  24.945  1.00  0.00     0.060 A 
BRANCH  94  95
ATOM     95  S   UNL A   1      44.637  21.693  24.336  1.00  0.00     0.124 S 
ATOM     96  O   UNL A   1      43.664  20.845  25.014  1.00  0.00    -0.237 OA
ATOM     97  O   UNL A   1      44.461  21.842  22.895  1.00  0.00    -0.237 OA
ATOM     98  O   UNL A   1      46.021  21.529  24.777  1.00  0.00    -0.744 OA
ENDBRANCH  94  95
ENDBRANCH  62  87
BRANCH  74  99
ATOM     99  C   UNL A   1      45.191  31.260  29.176  1.00  0.00     0.058 A 
ATOM    100  C   UNL A   1      46.453  31.763  28.813  1.00  0.00     0.135 A 
ATOM    101  C   UNL A   1      44.080  31.763  28.481  1.00  0.00     0.135 A 
ATOM    102  F   UNL A   1      47.574  31.278  29.364  1.00  0.00    -0.206 F 
ATOM    103  C   UNL A   1      46.601  32.726  27.811  1.00  0.00     0.059 A 
ATOM    104  C   UNL A   1      44.206  32.698  27.459  1.00  0.00     0.059 A 
ATOM    105  F   UNL A   1      42.852  31.284  28.743  1.00  0.00    -0.206 F 
ATOM    106  C   UNL A   1      45.470  33.177  27.128  1.00  0.00     0.060 A 
BRANCH 106 107
ATOM    107  S   UNL A   1      45.675  34.328  25.750  1.00  0.00     0.124 S 
ATOM    108  O   UNL A   1      47.097  34.201  25.450  1.00  0.00    -0.237 OA
ATOM    109  O   UNL A   1      44.764  33.786  24.747  1.00  0.00    -0.237 OA
ATOM    110  O   UNL A   1      45.270  35.613  26.315  1.00  0.00    -0.744 OA
ENDBRANCH 106 107
ENDBRANCH  74  99
ENDBRANCH  48  49
ENDBRANCH  40  43
ENDBRANCH  38  39
ENDBRANCH  37  38
ENDBRANCH   1  37
TORSDOF 19
ENDMDL
MODEL 3
REMARK VINA RESULT:     -10.7      3.855      8.186
REMARK SMILES Cc1coc2c(C)c3oc(=O)c(CC(=O)NCC(=O)N[C@H](C(=O)NCCCNC(=O)c4ccc(-c5c6nc(c(-c7c(F)cc(S(=O)(=O)[O-])cc7F)c7ccc([nH]7)c(-c7c(F)cc(S(=O)(=O)[O-])cc7F)c7nc(c(-c8c(F)cc(S(=O)(=O)[O-])cc8F)c8ccc5[nH]8)C=C7)C=C6)cc4)C(C)C)c(C)c3cc12
REMARK SMILES IDX 25 1 24 2 22 3 23 4 21 6 20 7 18 8 19 9 17 11 16 12 14 13
REMARK SMILES IDX 15 14 13 16 12 17 1 18 2 19 3 20 104 21 4 22 5 23 103 24
REMARK SMILES IDX 6 25 102 26 7 27 8 28 100 29 9 30 101 31 10 32 11 33 97 34
REMARK SMILES IDX 98 35 99 36 26 37 27 38 28 39 29 40 30 42 31 43 32 44 96 45
REMARK SMILES IDX 33 46 95 47 34 48 35 49 36 50 89 51 37 52 94 53 88 54 90 55
REMARK SMILES IDX 38 56 93 57 87 58 86 59 39 61 73 62 52 63 72 64 53 65 56 66
REMARK SMILES IDX 71 67 91 68 54 69 55 70 70 72 92 73 57 74 40 75 41 76 50 77
REMARK SMILES IDX 42 78 43 79 49 80 51 81 44 82 45 83 46 84 47 85 48 86 74 87
REMARK SMILES IDX 75 88 84 89 76 90 77 91 83 92 85 93 78 94 79 95 80 96 81 97
REMARK SMILES IDX 82 98 58 99 59 100 68 101 60 102 61 103 67 104 69 105 62 106
REMARK SMILES IDX 63 107 64 108 65 109 66 110
REMARK H PARENT 24 5 20 10 16 15 28 41 90 60 56 71
REMARK Flexibility Score: inf
ROOT
ATOM      1  C   UNL A   1      34.872  33.415  32.814  1.00  0.00     0.117 C 
ENDROOT
BRANCH   1   2
ATOM      2  N   UNL A   1      35.779  34.455  33.206  1.00  0.00    -0.354 N 
ATOM      3  C   UNL A   1      37.081  34.223  33.507  1.00  0.00     0.242 C 
ATOM      4  O   UNL A   1      37.700  35.068  34.157  1.00  0.00    -0.273 OA
ATOM      5  H   UNL A   1      35.441  35.378  33.259  1.00  0.00     0.163 HD
BRANCH   3   6
ATOM      6  C   UNL A   1      37.796  33.021  32.853  1.00  0.00     0.173 C 
BRANCH   6   7
ATOM      7  N   UNL A   1      39.194  32.997  32.270  1.00  0.00    -0.343 N 
ATOM      8  C   UNL A   1      40.425  33.490  32.681  1.00  0.00     0.240 C 
ATOM      9  O   UNL A   1      41.338  33.243  31.872  1.00  0.00    -0.273 OA
ATOM     10  H   UNL A   1      39.239  32.528  31.406  1.00  0.00     0.164 HD
BRANCH   8  11
ATOM     11  C   UNL A   1      40.888  34.160  34.161  1.00  0.00     0.216 C 
BRANCH  11  12
ATOM     12  N   UNL A   1      40.360  35.255  35.122  1.00  0.00    -0.347 N 
ATOM     13  C   UNL A   1      40.180  35.691  36.409  1.00  0.00     0.225 C 
ATOM     14  O   UNL A   1      39.653  36.828  36.395  1.00  0.00    -0.275 OA
ATOM     15  H   UNL A   1      39.980  35.956  34.545  1.00  0.00     0.164 HD
BRANCH  13  16
ATOM     16  C   UNL A   1      40.529  35.143  37.923  1.00  0.00     0.143 C 
BRANCH  16  17
ATOM     17  C   UNL A   1      39.781  34.195  38.940  1.00  0.00     0.051 A 
ATOM     18  C   UNL A   1      35.138  34.219  44.332  1.00  0.00     0.048 C 
ATOM     19  C   UNL A   1      35.248  33.235  43.226  1.00  0.00    -0.005 A 
ATOM     20  C   UNL A   1      34.406  32.165  42.996  1.00  0.00     0.199 A 
ATOM     21  C   UNL A   1      36.251  33.164  42.204  1.00  0.00     0.024 A 
ATOM     22  O   UNL A   1      34.769  31.496  41.873  1.00  0.00    -0.464 OA
ATOM     23  C   UNL A   1      35.895  32.097  41.392  1.00  0.00     0.140 A 
ATOM     24  C   UNL A   1      37.406  33.910  41.858  1.00  0.00     0.024 A 
ATOM     25  C   UNL A   1      36.587  31.713  40.241  1.00  0.00     0.036 A 
ATOM     26  C   UNL A   1      38.227  33.522  40.769  1.00  0.00     0.022 A 
ATOM     27  C   UNL A   1      36.060  30.660  39.318  1.00  0.00     0.052 C 
ATOM     28  C   UNL A   1      37.793  32.424  40.014  1.00  0.00     0.145 A 
ATOM     29  C   UNL A   1      39.365  34.371  40.235  1.00  0.00    -0.029 A 
ATOM     30  O   UNL A   1      38.540  32.046  38.879  1.00  0.00    -0.422 OA
ATOM     31  C   UNL A   1      39.788  35.475  41.176  1.00  0.00     0.046 C 
ATOM     32  C   UNL A   1      39.546  32.834  38.344  1.00  0.00     0.340 A 
ATOM     33  O   UNL A   1      40.194  32.434  37.381  1.00  0.00    -0.246 OA
ENDBRANCH  16  17
ENDBRANCH  13  16
ENDBRANCH  11  12
ENDBRANCH   8  11
ENDBRANCH   6   7
BRANCH   6  34
ATOM     34  C   UNL A   1      37.857  31.910  33.838  1.00  0.00     0.015 C 
ATOM     35  C   UNL A   1      37.477  32.101  35.302  1.00  0.00     0.010 C 
ATOM     36  C   UNL A   1      37.390  30.750  32.940  1.00  0.00     0.010 C 
ENDBRANCH   6  34
ENDBRANCH   3   6
ENDBRANCH   1   2
BRANCH   1  37
ATOM     37  C   UNL A   1      34.746  33.389  31.280  1.00  0.00     0.042 C 
BRANCH  37  38
ATOM     38  C   UNL A   1      34.459  31.997  30.785  1.00  0.00     0.118 C 
BRANCH  38  39
ATOM     39  N   UNL A   1      34.420  32.033  29.337  1.00  0.00    -0.352 N 
ATOM     40  C   UNL A   1      35.384  31.705  28.418  1.00  0.00     0.251 C 
ATOM     41  H   UNL A   1      33.568  32.341  28.953  1.00  0.00     0.163 HD
ATOM     42  O   UNL A   1      35.237  31.975  27.251  1.00  0.00    -0.269 OA
BRANCH  40  43
ATOM     43  C   UNL A   1      36.610  31.061  28.911  1.00  0.00     0.039 A 
ATOM     44  C   UNL A   1      36.661  29.669  28.912  1.00  0.00     0.014 A 
ATOM     45  C   UNL A   1      37.709  31.837  29.283  1.00  0.00     0.014 A 
ATOM     46  C   UNL A   1      37.858  29.051  29.229  1.00  0.00     0.010 A 
ATOM     47  C   UNL A   1      38.926  31.226  29.482  1.00  0.00     0.010 A 
ATOM     48  C   UNL A   1      38.994  29.835  29.484  1.00  0.00    -0.014 A 
BRANCH  48  49
ATOM     49  C   UNL A   1      40.285  29.173  29.616  1.00  0.00     0.031 A 
ATOM     50  C   UNL A   1      40.747  29.017  31.022  1.00  0.00     0.074 A 
ATOM     51  C   UNL A   1      40.930  28.603  28.579  1.00  0.00     0.049 A 
ATOM     52  N   UNL A   1      41.713  29.642  31.609  1.00  0.00    -0.248 NA
ATOM     53  C   UNL A   1      39.929  28.203  31.937  1.00  0.00     0.031 C 
ATOM     54  C   UNL A   1      40.449  28.416  27.207  1.00  0.00     0.029 A 
ATOM     55  N   UNL A   1      42.135  27.977  28.564  1.00  0.00    -0.354 N 
ATOM     56  C   UNL A   1      41.779  29.120  32.898  1.00  0.00     0.074 A 
ATOM     57  C   UNL A   1      40.545  28.412  33.103  1.00  0.00     0.031 C 
ATOM     58  C   UNL A   1      41.243  27.529  26.568  1.00  0.00     0.029 A 
ATOM     59  C   UNL A   1      42.374  27.220  27.423  1.00  0.00     0.049 A 
ATOM     60  H   UNL A   1      42.785  28.051  29.299  1.00  0.00     0.167 HD
ATOM     61  C   UNL A   1      42.955  29.100  33.588  1.00  0.00     0.037 A 
ATOM     62  C   UNL A   1      43.411  26.372  27.213  1.00  0.00     0.037 A 
ATOM     63  C   UNL A   1      43.920  29.982  32.980  1.00  0.00     0.049 A 
ATOM     64  C   UNL A   1      44.494  26.789  28.143  1.00  0.00     0.074 A 
ATOM     65  C   UNL A   1      43.977  31.338  32.727  1.00  0.00     0.029 A 
ATOM     66  N   UNL A   1      44.872  29.403  32.176  1.00  0.00    -0.354 N 
ATOM     67  N   UNL A   1      45.110  27.940  28.072  1.00  0.00    -0.248 NA
ATOM     68  C   UNL A   1      44.589  26.115  29.428  1.00  0.00     0.031 C 
ATOM     69  C   UNL A   1      44.633  31.453  31.468  1.00  0.00     0.029 A 
ATOM     70  C   UNL A   1      45.006  30.173  31.051  1.00  0.00     0.049 A 
ATOM     71  H   UNL A   1      45.372  28.578  32.375  1.00  0.00     0.167 HD
ATOM     72  C   UNL A   1      45.294  28.328  29.392  1.00  0.00     0.074 A 
ATOM     73  C   UNL A   1      45.056  27.119  30.175  1.00  0.00     0.031 C 
ATOM     74  C   UNL A   1      45.344  29.650  29.740  1.00  0.00     0.037 A 
BRANCH  61  75
ATOM     75  C   UNL A   1      43.370  28.009  34.553  1.00  0.00     0.058 A 
ATOM     76  C   UNL A   1      43.775  28.364  35.859  1.00  0.00     0.135 A 
ATOM     77  C   UNL A   1      43.667  26.682  34.170  1.00  0.00     0.135 A 
ATOM     78  F   UNL A   1      43.548  29.600  36.333  1.00  0.00    -0.206 F 
ATOM     79  C   UNL A   1      44.495  27.498  36.683  1.00  0.00     0.059 A 
ATOM     80  C   UNL A   1      44.335  25.786  34.997  1.00  0.00     0.059 A 
ATOM     81  F   UNL A   1      43.418  26.213  32.944  1.00  0.00    -0.206 F 
ATOM     82  C   UNL A   1      44.785  26.214  36.234  1.00  0.00     0.060 A 
BRANCH  82  83
ATOM     83  S   UNL A   1      45.805  25.129  37.245  1.00  0.00     0.124 S 
ATOM     84  O   UNL A   1      45.151  23.842  37.038  1.00  0.00    -0.237 OA
ATOM     85  O   UNL A   1      47.118  25.291  36.630  1.00  0.00    -0.237 OA
ATOM     86  O   UNL A   1      45.672  25.697  38.583  1.00  0.00    -0.744 OA
ENDBRANCH  82  83
ENDBRANCH  61  75
BRANCH  62  87
ATOM     87  C   UNL A   1      43.372  25.053  26.525  1.00  0.00     0.058 A 
ATOM     88  C   UNL A   1      44.041  24.842  25.307  1.00  0.00     0.135 A 
ATOM     89  C   UNL A   1      42.899  23.894  27.178  1.00  0.00     0.135 A 
ATOM     90  F   UNL A   1      44.545  25.883  24.626  1.00  0.00    -0.206 F 
ATOM     91  C   UNL A   1      44.271  23.560  24.791  1.00  0.00     0.059 A 
ATOM     92  C   UNL A   1      43.104  22.609  26.678  1.00  0.00     0.059 A 
ATOM     93  F   UNL A   1      42.299  23.965  28.375  1.00  0.00    -0.206 F 
ATOM     94  C   UNL A   1      43.816  22.447  25.497  1.00  0.00     0.060 A 
BRANCH  94  95
ATOM     95  S   UNL A   1      44.248  20.786  24.924  1.00  0.00     0.124 S 
ATOM     96  O   UNL A   1      45.409  20.473  25.750  1.00  0.00    -0.237 OA
ATOM     97  O   UNL A   1      43.032  20.035  25.219  1.00  0.00    -0.237 OA
ATOM     98  O   UNL A   1      44.528  20.978  23.503  1.00  0.00    -0.744 OA
ENDBRANCH  94  95
ENDBRANCH  62  87
BRANCH  74  99
ATOM     99  C   UNL A   1      45.543  30.678  28.654  1.00  0.00     0.058 A 
ATOM    100  C   UNL A   1      44.503  31.307  27.947  1.00  0.00     0.135 A 
ATOM    101  C   UNL A   1      46.838  31.192  28.476  1.00  0.00     0.135 A 
ATOM    102  F   UNL A   1      43.227  30.938  28.123  1.00  0.00    -0.206 F 
ATOM    103  C   UNL A   1      44.741  32.390  27.097  1.00  0.00     0.059 A 
ATOM    104  C   UNL A   1      47.093  32.289  27.660  1.00  0.00     0.059 A 
ATOM    105  F   UNL A   1      47.867  30.670  29.164  1.00  0.00    -0.206 F 
ATOM    106  C   UNL A   1      46.040  32.885  26.971  1.00  0.00     0.060 A 
BRANCH 106 107
ATOM    107  S   UNL A   1      46.327  34.361  25.971  1.00  0.00     0.124 S 
ATOM    108  O   UNL A   1      47.728  34.210  25.592  1.00  0.00    -0.237 OA
ATOM    109  O   UNL A   1      45.357  34.205  24.891  1.00  0.00    -0.237 OA
ATOM    110  O   UNL A   1      46.045  35.460  26.893  1.00  0.00    -0.744 OA
ENDBRANCH 106 107
ENDBRANCH  74  99
ENDBRANCH  48  49
ENDBRANCH  40  43
ENDBRANCH  38  39
ENDBRANCH  37  38
ENDBRANCH   1  37
TORSDOF 19
ENDMDL
