MODEL 1
REMARK VINA RESULT:     -13.9      0.000      0.000
REMARK SMILES Cc1ccc(Nc2c(F)cccc2Cl)c(CC(=O)NCCCNC(=O)c2ccc(-c3c4nc(c(-c5c(F)cc(S(=O)(=O)[O-])cc5F)c5ccc([nH]5)c(-c5c(F)cc(S(=O)(=O)[O-])cc5F)c5nc(c(-c6c(F)cc(S(=O)(=O)[O-])cc6F)c6ccc3[nH]6)C=C5)C=C4)cc2)c1
REMARK SMILES IDX 21 1 20 2 19 3 17 4 18 5 16 7 15 8 1 9 2 10 3 11 92 12 4 13
REMARK SMILES IDX 5 14 6 15 7 17 8 18 13 19 9 20 10 21 12 22 14 23 11 24 22 25
REMARK SMILES IDX 23 26 24 27 25 29 26 30 27 31 91 32 28 33 90 34 29 35 30 36
REMARK SMILES IDX 31 37 84 38 32 39 89 40 83 41 85 42 33 43 88 44 82 45 81 46
REMARK SMILES IDX 34 48 68 49 47 50 67 51 48 52 51 53 66 54 86 55 49 56 50 57
REMARK SMILES IDX 65 59 87 60 52 61 35 62 36 63 45 64 37 65 38 66 44 67 46 68
REMARK SMILES IDX 39 69 40 70 41 71 42 72 43 73 69 74 70 75 79 76 71 77 72 78
REMARK SMILES IDX 78 79 80 80 73 81 74 82 75 83 76 84 77 85 53 86 54 87 63 88
REMARK SMILES IDX 55 89 56 90 62 91 64 92 57 93 58 94 59 95 60 96 61 97
REMARK H PARENT 19 6 6 16 23 28 85 47 51 58
REMARK Flexibility Score: inf
ROOT
ATOM      1  C   UNL A   1      33.023  29.887  26.723  1.00  0.00     0.042 C 
ENDROOT
BRANCH   1   2
ATOM      2  C   UNL A   1      32.460  28.962  25.648  1.00  0.00     0.117 C 
BRANCH   2   3
ATOM      3  N   UNL A   1      31.758  27.814  26.205  1.00  0.00    -0.356 N 
ATOM      4  C   UNL A   1      32.168  26.517  26.302  1.00  0.00     0.224 C 
ATOM      5  O   UNL A   1      31.387  25.672  26.753  1.00  0.00    -0.275 OA
ATOM      6  H   UNL A   1      30.860  28.001  26.561  1.00  0.00     0.163 HD
BRANCH   4   7
ATOM      7  C   UNL A   1      33.552  26.094  25.843  1.00  0.00     0.137 C 
BRANCH   7   8
ATOM      8  C   UNL A   1      33.551  25.341  24.529  1.00  0.00    -0.015 A 
ATOM      9  C   UNL A   1      32.067  25.967  21.058  1.00  0.00     0.044 C 
ATOM     10  C   UNL A   1      32.809  25.328  22.192  1.00  0.00    -0.051 A 
ATOM     11  C   UNL A   1      33.293  24.029  22.065  1.00  0.00     0.005 A 
ATOM     12  C   UNL A   1      32.974  25.987  23.412  1.00  0.00     0.009 A 
ATOM     13  C   UNL A   1      33.913  23.398  23.146  1.00  0.00     0.026 A 
ATOM     14  C   UNL A   1      34.038  24.019  24.400  1.00  0.00     0.042 A 
BRANCH  14  15
ATOM     15  N   UNL A   1      34.642  23.348  25.487  1.00  0.00    -0.352 N 
ATOM     16  H   UNL A   1      34.165  23.421  26.345  1.00  0.00     0.167 HD
BRANCH  15  17
ATOM     17  C   UNL A   1      35.836  22.585  25.520  1.00  0.00     0.094 A 
ATOM     18  C   UNL A   1      37.092  23.167  25.755  1.00  0.00     0.148 A 
ATOM     19  C   UNL A   1      35.815  21.210  25.211  1.00  0.00     0.067 A 
ATOM     20  F   UNL A   1      37.189  24.468  26.070  1.00  0.00    -0.205 F 
ATOM     21  C   UNL A   1      38.274  22.428  25.683  1.00  0.00     0.041 A 
ATOM     22  C   UNL A   1      36.998  20.464  25.135  1.00  0.00     0.023 A 
ATOM     23  Cl  UNL A   1      34.329  20.398  24.862  1.00  0.00    -0.082 Cl
ATOM     24  C   UNL A   1      38.229  21.073  25.367  1.00  0.00     0.005 A 
ENDBRANCH  15  17
ENDBRANCH  14  15
ENDBRANCH   7   8
ENDBRANCH   4   7
ENDBRANCH   2   3
ENDBRANCH   1   2
BRANCH   1  25
ATOM     25  C   UNL A   1      34.525  29.745  26.927  1.00  0.00     0.118 C 
BRANCH  25  26
ATOM     26  N   UNL A   1      35.116  30.938  27.527  1.00  0.00    -0.352 N 
ATOM     27  C   UNL A   1      36.292  31.033  28.252  1.00  0.00     0.251 C 
ATOM     28  H   UNL A   1      34.617  31.778  27.402  1.00  0.00     0.163 HD
ATOM     29  O   UNL A   1      36.634  32.050  28.821  1.00  0.00    -0.269 OA
BRANCH  27  30
ATOM     30  C   UNL A   1      37.172  29.850  28.216  1.00  0.00     0.039 A 
ATOM     31  C   UNL A   1      37.284  29.105  29.395  1.00  0.00     0.014 A 
ATOM     32  C   UNL A   1      38.078  29.703  27.170  1.00  0.00     0.014 A 
ATOM     33  C   UNL A   1      38.423  28.335  29.605  1.00  0.00     0.010 A 
ATOM     34  C   UNL A   1      39.243  29.000  27.414  1.00  0.00     0.010 A 
ATOM     35  C   UNL A   1      39.438  28.363  28.651  1.00  0.00    -0.014 A 
BRANCH  35  36
ATOM     36  C   UNL A   1      40.775  27.822  28.882  1.00  0.00     0.031 A 
ATOM     37  C   UNL A   1      41.082  26.425  28.509  1.00  0.00     0.074 A 
ATOM     38  C   UNL A   1      41.761  28.630  29.327  1.00  0.00     0.049 A 
ATOM     39  N   UNL A   1      42.146  25.783  28.856  1.00  0.00    -0.248 NA
ATOM     40  C   UNL A   1      40.150  25.613  27.740  1.00  0.00     0.031 C 
ATOM     41  C   UNL A   1      43.198  28.380  29.276  1.00  0.00     0.029 A 
ATOM     42  N   UNL A   1      41.633  29.763  30.138  1.00  0.00    -0.354 N 
ATOM     43  C   UNL A   1      42.180  24.602  28.149  1.00  0.00     0.074 A 
ATOM     44  C   UNL A   1      40.882  24.517  27.523  1.00  0.00     0.031 C 
ATOM     45  C   UNL A   1      43.800  29.128  30.211  1.00  0.00     0.029 A 
ATOM     46  C   UNL A   1      42.758  29.763  30.995  1.00  0.00     0.049 A 
ATOM     47  H   UNL A   1      40.907  30.428  30.115  1.00  0.00     0.167 HD
ATOM     48  C   UNL A   1      43.351  23.899  28.090  1.00  0.00     0.037 A 
ATOM     49  C   UNL A   1      42.597  29.620  32.345  1.00  0.00     0.037 A 
ATOM     50  C   UNL A   1      44.339  24.437  29.031  1.00  0.00     0.049 A 
ATOM     51  C   UNL A   1      43.204  28.358  32.928  1.00  0.00     0.074 A 
ATOM     52  C   UNL A   1      45.447  25.263  28.932  1.00  0.00     0.029 A 
ATOM     53  N   UNL A   1      44.067  24.338  30.385  1.00  0.00    -0.354 N 
ATOM     54  N   UNL A   1      43.841  27.453  32.234  1.00  0.00    -0.248 NA
ATOM     55  C   UNL A   1      43.079  27.981  34.338  1.00  0.00     0.031 C 
ATOM     56  C   UNL A   1      45.801  25.697  30.246  1.00  0.00     0.029 A 
ATOM     57  C   UNL A   1      44.912  25.129  31.139  1.00  0.00     0.049 A 
ATOM     58  H   UNL A   1      43.356  23.772  30.764  1.00  0.00     0.167 HD
ATOM     59  C   UNL A   1      44.128  26.382  33.036  1.00  0.00     0.074 A 
ATOM     60  C   UNL A   1      43.662  26.770  34.354  1.00  0.00     0.031 C 
ATOM     61  C   UNL A   1      44.678  25.226  32.570  1.00  0.00     0.037 A 
BRANCH  48  62
ATOM     62  C   UNL A   1      43.679  22.874  27.016  1.00  0.00     0.058 A 
ATOM     63  C   UNL A   1      42.927  21.683  26.906  1.00  0.00     0.135 A 
ATOM     64  C   UNL A   1      44.762  22.953  26.119  1.00  0.00     0.135 A 
ATOM     65  F   UNL A   1      41.803  21.495  27.611  1.00  0.00    -0.206 F 
ATOM     66  C   UNL A   1      43.293  20.619  26.075  1.00  0.00     0.059 A 
ATOM     67  C   UNL A   1      45.186  21.885  25.324  1.00  0.00     0.059 A 
ATOM     68  F   UNL A   1      45.426  24.096  25.917  1.00  0.00    -0.206 F 
ATOM     69  C   UNL A   1      44.452  20.711  25.318  1.00  0.00     0.060 A 
BRANCH  69  70
ATOM     70  S   UNL A   1      44.973  19.299  24.328  1.00  0.00     0.124 S 
ATOM     71  O   UNL A   1      44.412  18.177  25.074  1.00  0.00    -0.237 OA
ATOM     72  O   UNL A   1      44.349  19.584  23.041  1.00  0.00    -0.237 OA
ATOM     73  O   UNL A   1      46.431  19.388  24.350  1.00  0.00    -0.744 OA
ENDBRANCH  69  70
ENDBRANCH  48  62
BRANCH  49  74
ATOM     74  C   UNL A   1      41.381  30.322  32.845  1.00  0.00     0.058 A 
ATOM     75  C   UNL A   1      40.248  29.531  33.129  1.00  0.00     0.135 A 
ATOM     76  C   UNL A   1      41.455  31.587  33.441  1.00  0.00     0.135 A 
ATOM     77  F   UNL A   1      40.120  28.315  32.572  1.00  0.00    -0.206 F 
ATOM     78  C   UNL A   1      39.323  29.902  34.096  1.00  0.00     0.059 A 
ATOM     79  C   UNL A   1      40.527  31.985  34.406  1.00  0.00     0.059 A 
ATOM     80  F   UNL A   1      42.506  32.385  33.205  1.00  0.00    -0.206 F 
ATOM     81  C   UNL A   1      39.511  31.102  34.776  1.00  0.00     0.060 A 
BRANCH  81  82
ATOM     82  S   UNL A   1      38.523  31.386  36.265  1.00  0.00     0.124 S 
ATOM     83  O   UNL A   1      37.416  32.181  35.747  1.00  0.00    -0.237 OA
ATOM     84  O   UNL A   1      38.183  30.019  36.664  1.00  0.00    -0.237 OA
ATOM     85  O   UNL A   1      39.445  32.086  37.150  1.00  0.00    -0.744 OA
ENDBRANCH  81  82
ENDBRANCH  49  74
BRANCH  61  86
ATOM     86  C   UNL A   1      45.021  24.072  33.462  1.00  0.00     0.058 A 
ATOM     87  C   UNL A   1      46.281  23.961  34.072  1.00  0.00     0.135 A 
ATOM     88  C   UNL A   1      44.148  22.976  33.614  1.00  0.00     0.135 A 
ATOM     89  F   UNL A   1      47.183  24.949  33.959  1.00  0.00    -0.206 F 
ATOM     90  C   UNL A   1      46.650  22.831  34.802  1.00  0.00     0.059 A 
ATOM     91  C   UNL A   1      44.510  21.822  34.301  1.00  0.00     0.059 A 
ATOM     92  F   UNL A   1      42.902  23.010  33.114  1.00  0.00    -0.206 F 
ATOM     93  C   UNL A   1      45.761  21.763  34.905  1.00  0.00     0.060 A 
BRANCH  93  94
ATOM     94  S   UNL A   1      46.250  20.276  35.802  1.00  0.00     0.124 S 
ATOM     95  O   UNL A   1      45.293  19.281  35.325  1.00  0.00    -0.237 OA
ATOM     96  O   UNL A   1      47.624  20.100  35.343  1.00  0.00    -0.237 OA
ATOM     97  O   UNL A   1      46.096  20.663  37.200  1.00  0.00    -0.744 OA
ENDBRANCH  93  94
ENDBRANCH  61  86
ENDBRANCH  35  36
ENDBRANCH  27  30
ENDBRANCH  25  26
ENDBRANCH   1  25
TORSDOF 16
ENDMDL
MODEL 2
REMARK VINA RESULT:     -13.8      5.044     11.485
REMARK SMILES Cc1ccc(Nc2c(F)cccc2Cl)c(CC(=O)NCCCNC(=O)c2ccc(-c3c4nc(c(-c5c(F)cc(S(=O)(=O)[O-])cc5F)c5ccc([nH]5)c(-c5c(F)cc(S(=O)(=O)[O-])cc5F)c5nc(c(-c6c(F)cc(S(=O)(=O)[O-])cc6F)c6ccc3[nH]6)C=C5)C=C4)cc2)c1
REMARK SMILES IDX 21 1 20 2 19 3 17 4 18 5 16 7 15 8 1 9 2 10 3 11 92 12 4 13
REMARK SMILES IDX 5 14 6 15 7 17 8 18 13 19 9 20 10 21 12 22 14 23 11 24 22 25
REMARK SMILES IDX 23 26 24 27 25 29 26 30 27 31 91 32 28 33 90 34 29 35 30 36
REMARK SMILES IDX 31 37 84 38 32 39 89 40 83 41 85 42 33 43 88 44 82 45 81 46
REMARK SMILES IDX 34 48 68 49 47 50 67 51 48 52 51 53 66 54 86 55 49 56 50 57
REMARK SMILES IDX 65 59 87 60 52 61 35 62 36 63 45 64 37 65 38 66 44 67 46 68
REMARK SMILES IDX 39 69 40 70 41 71 42 72 43 73 69 74 70 75 79 76 71 77 72 78
REMARK SMILES IDX 78 79 80 80 73 81 74 82 75 83 76 84 77 85 53 86 54 87 63 88
REMARK SMILES IDX 55 89 56 90 62 91 64 92 57 93 58 94 59 95 60 96 61 97
REMARK H PARENT 19 6 6 16 23 28 85 47 51 58
REMARK Flexibility Score: inf
ROOT
ATOM      1  C   UNL A   1      37.299  22.188  25.584  1.00  0.00     0.042 C 
ENDROOT
BRANCH   1   2
ATOM      2  C   UNL A   1      35.800  22.472  25.548  1.00  0.00     0.117 C 
BRANCH   2   3
ATOM      3  N   UNL A   1      35.370  23.068  24.290  1.00  0.00    -0.356 N 
ATOM      4  C   UNL A   1      34.734  24.255  24.071  1.00  0.00     0.224 C 
ATOM      5  O   UNL A   1      34.394  24.551  22.922  1.00  0.00    -0.275 OA
ATOM      6  H   UNL A   1      35.567  22.540  23.484  1.00  0.00     0.163 HD
BRANCH   4   7
ATOM      7  C   UNL A   1      34.416  25.199  25.217  1.00  0.00     0.137 C 
BRANCH   7   8
ATOM      8  C   UNL A   1      32.944  25.256  25.566  1.00  0.00    -0.015 A 
ATOM      9  C   UNL A   1      30.297  22.670  26.542  1.00  0.00     0.044 C 
ATOM     10  C   UNL A   1      30.958  23.976  26.221  1.00  0.00    -0.051 A 
ATOM     11  C   UNL A   1      30.190  25.128  26.075  1.00  0.00     0.005 A 
ATOM     12  C   UNL A   1      32.334  24.057  26.001  1.00  0.00     0.009 A 
ATOM     13  C   UNL A   1      30.789  26.332  25.697  1.00  0.00     0.026 A 
ATOM     14  C   UNL A   1      32.162  26.424  25.412  1.00  0.00     0.042 A 
BRANCH  14  15
ATOM     15  N   UNL A   1      32.739  27.648  25.001  1.00  0.00    -0.352 N 
ATOM     16  H   UNL A   1      33.156  27.638  24.110  1.00  0.00     0.167 HD
BRANCH  15  17
ATOM     17  C   UNL A   1      32.803  28.886  25.687  1.00  0.00     0.094 A 
ATOM     18  C   UNL A   1      33.768  29.148  26.672  1.00  0.00     0.148 A 
ATOM     19  C   UNL A   1      31.820  29.873  25.475  1.00  0.00     0.067 A 
ATOM     20  F   UNL A   1      34.745  28.261  26.919  1.00  0.00    -0.205 F 
ATOM     21  C   UNL A   1      33.762  30.330  27.417  1.00  0.00     0.041 A 
ATOM     22  C   UNL A   1      31.807  31.059  26.220  1.00  0.00     0.023 A 
ATOM     23  Cl  UNL A   1      30.557  29.638  24.317  1.00  0.00    -0.082 Cl
ATOM     24  C   UNL A   1      32.776  31.286  27.195  1.00  0.00     0.005 A 
ENDBRANCH  15  17
ENDBRANCH  14  15
ENDBRANCH   7   8
ENDBRANCH   4   7
ENDBRANCH   2   3
ENDBRANCH   1   2
BRANCH   1  25
ATOM     25  C   UNL A   1      38.151  23.429  25.806  1.00  0.00     0.118 C 
BRANCH  25  26
ATOM     26  N   UNL A   1      39.457  23.108  26.378  1.00  0.00    -0.352 N 
ATOM     27  C   UNL A   1      40.347  23.964  27.003  1.00  0.00     0.251 C 
ATOM     28  H   UNL A   1      39.738  22.167  26.311  1.00  0.00     0.163 HD
ATOM     29  O   UNL A   1      41.465  23.625  27.332  1.00  0.00    -0.269 OA
BRANCH  27  30
ATOM     30  C   UNL A   1      39.826  25.302  27.346  1.00  0.00     0.039 A 
ATOM     31  C   UNL A   1      40.278  26.377  26.572  1.00  0.00     0.014 A 
ATOM     32  C   UNL A   1      39.195  25.498  28.570  1.00  0.00     0.014 A 
ATOM     33  C   UNL A   1      40.263  27.657  27.115  1.00  0.00     0.010 A 
ATOM     34  C   UNL A   1      39.252  26.757  29.136  1.00  0.00     0.010 A 
ATOM     35  C   UNL A   1      39.836  27.823  28.431  1.00  0.00    -0.014 A 
BRANCH  35  36
ATOM     36  C   UNL A   1      40.028  29.056  29.190  1.00  0.00     0.031 A 
ATOM     37  C   UNL A   1      39.006  30.123  29.139  1.00  0.00     0.074 A 
ATOM     38  C   UNL A   1      41.081  29.174  30.028  1.00  0.00     0.049 A 
ATOM     39  N   UNL A   1      39.164  31.321  29.589  1.00  0.00    -0.248 NA
ATOM     40  C   UNL A   1      37.712  29.916  28.506  1.00  0.00     0.031 C 
ATOM     41  C   UNL A   1      41.245  30.142  31.108  1.00  0.00     0.029 A 
ATOM     42  N   UNL A   1      42.335  28.567  29.910  1.00  0.00    -0.354 N 
ATOM     43  C   UNL A   1      37.940  31.951  29.564  1.00  0.00     0.074 A 
ATOM     44  C   UNL A   1      37.088  31.055  28.818  1.00  0.00     0.031 C 
ATOM     45  C   UNL A   1      42.551  30.274  31.374  1.00  0.00     0.029 A 
ATOM     46  C   UNL A   1      43.277  29.515  30.372  1.00  0.00     0.049 A 
ATOM     47  H   UNL A   1      42.525  27.661  29.574  1.00  0.00     0.167 HD
ATOM     48  C   UNL A   1      37.772  33.103  30.281  1.00  0.00     0.037 A 
ATOM     49  C   UNL A   1      44.208  30.037  29.519  1.00  0.00     0.037 A 
ATOM     50  C   UNL A   1      39.056  33.607  30.778  1.00  0.00     0.049 A 
ATOM     51  C   UNL A   1      44.082  31.528  29.275  1.00  0.00     0.074 A 
ATOM     52  C   UNL A   1      39.724  33.576  31.992  1.00  0.00     0.029 A 
ATOM     53  N   UNL A   1      39.989  34.035  29.850  1.00  0.00    -0.354 N 
ATOM     54  N   UNL A   1      43.174  32.294  29.816  1.00  0.00    -0.248 NA
ATOM     55  C   UNL A   1      44.935  32.266  28.338  1.00  0.00     0.031 C 
ATOM     56  C   UNL A   1      41.085  33.944  31.764  1.00  0.00     0.029 A 
ATOM     57  C   UNL A   1      41.238  34.203  30.414  1.00  0.00     0.049 A 
ATOM     58  H   UNL A   1      39.786  34.200  28.900  1.00  0.00     0.167 HD
ATOM     59  C   UNL A   1      43.252  33.548  29.273  1.00  0.00     0.074 A 
ATOM     60  C   UNL A   1      44.390  33.493  28.376  1.00  0.00     0.031 C 
ATOM     61  C   UNL A   1      42.354  34.537  29.545  1.00  0.00     0.037 A 
BRANCH  48  62
ATOM     62  C   UNL A   1      36.423  33.643  30.726  1.00  0.00     0.058 A 
ATOM     63  C   UNL A   1      35.513  34.171  29.783  1.00  0.00     0.135 A 
ATOM     64  C   UNL A   1      35.990  33.750  32.063  1.00  0.00     0.135 A 
ATOM     65  F   UNL A   1      35.722  34.053  28.464  1.00  0.00    -0.206 F 
ATOM     66  C   UNL A   1      34.347  34.855  30.142  1.00  0.00     0.059 A 
ATOM     67  C   UNL A   1      34.864  34.480  32.453  1.00  0.00     0.059 A 
ATOM     68  F   UNL A   1      36.601  33.095  33.055  1.00  0.00    -0.206 F 
ATOM     69  C   UNL A   1      34.052  35.045  31.484  1.00  0.00     0.060 A 
BRANCH  69  70
ATOM     70  S   UNL A   1      32.604  36.014  31.941  1.00  0.00     0.124 S 
ATOM     71  O   UNL A   1      32.179  36.556  30.654  1.00  0.00    -0.237 OA
ATOM     72  O   UNL A   1      31.732  35.001  32.524  1.00  0.00    -0.237 OA
ATOM     73  O   UNL A   1      33.136  36.998  32.881  1.00  0.00    -0.744 OA
ENDBRANCH  69  70
ENDBRANCH  48  62
BRANCH  49  74
ATOM     74  C   UNL A   1      44.708  29.026  28.545  1.00  0.00     0.058 A 
ATOM     75  C   UNL A   1      44.130  29.025  27.259  1.00  0.00     0.135 A 
ATOM     76  C   UNL A   1      45.961  28.420  28.693  1.00  0.00     0.135 A 
ATOM     77  F   UNL A   1      42.922  29.580  27.064  1.00  0.00    -0.206 F 
ATOM     78  C   UNL A   1      44.838  28.605  26.140  1.00  0.00     0.059 A 
ATOM     79  C   UNL A   1      46.684  27.976  27.583  1.00  0.00     0.059 A 
ATOM     80  F   UNL A   1      46.559  28.385  29.893  1.00  0.00    -0.206 F 
ATOM     81  C   UNL A   1      46.141  28.144  26.307  1.00  0.00     0.060 A 
BRANCH  81  82
ATOM     82  S   UNL A   1      47.160  27.955  24.825  1.00  0.00     0.124 S 
ATOM     83  O   UNL A   1      48.501  28.196  25.346  1.00  0.00    -0.237 OA
ATOM     84  O   UNL A   1      46.875  26.572  24.440  1.00  0.00    -0.237 OA
ATOM     85  O   UNL A   1      46.637  28.976  23.927  1.00  0.00    -0.744 OA
ENDBRANCH  81  82
ENDBRANCH  49  74
BRANCH  61  86
ATOM     86  C   UNL A   1      42.467  35.917  28.973  1.00  0.00     0.058 A 
ATOM     87  C   UNL A   1      41.792  36.286  27.798  1.00  0.00     0.135 A 
ATOM     88  C   UNL A   1      43.365  36.862  29.508  1.00  0.00     0.135 A 
ATOM     89  F   UNL A   1      40.935  35.437  27.209  1.00  0.00    -0.206 F 
ATOM     90  C   UNL A   1      41.989  37.528  27.194  1.00  0.00     0.059 A 
ATOM     91  C   UNL A   1      43.608  38.089  28.899  1.00  0.00     0.059 A 
ATOM     92  F   UNL A   1      44.016  36.625  30.658  1.00  0.00    -0.206 F 
ATOM     93  C   UNL A   1      42.904  38.420  27.747  1.00  0.00     0.060 A 
BRANCH  93  94
ATOM     94  S   UNL A   1      43.205  40.007  26.942  1.00  0.00     0.124 S 
ATOM     95  O   UNL A   1      43.088  40.956  28.045  1.00  0.00    -0.237 OA
ATOM     96  O   UNL A   1      44.552  39.814  26.416  1.00  0.00    -0.237 OA
ATOM     97  O   UNL A   1      42.143  40.082  25.945  1.00  0.00    -0.744 OA
ENDBRANCH  93  94
ENDBRANCH  61  86
ENDBRANCH  35  36
ENDBRANCH  27  30
ENDBRANCH  25  26
ENDBRANCH   1  25
TORSDOF 16
ENDMDL
MODEL 3
REMARK VINA RESULT:     -13.6      1.238      1.620
REMARK SMILES Cc1ccc(Nc2c(F)cccc2Cl)c(CC(=O)NCCCNC(=O)c2ccc(-c3c4nc(c(-c5c(F)cc(S(=O)(=O)[O-])cc5F)c5ccc([nH]5)c(-c5c(F)cc(S(=O)(=O)[O-])cc5F)c5nc(c(-c6c(F)cc(S(=O)(=O)[O-])cc6F)c6ccc3[nH]6)C=C5)C=C4)cc2)c1
REMARK SMILES IDX 21 1 20 2 19 3 17 4 18 5 16 7 15 8 1 9 2 10 3 11 92 12 4 13
REMARK SMILES IDX 5 14 6 15 7 17 8 18 13 19 9 20 10 21 12 22 14 23 11 24 22 25
REMARK SMILES IDX 23 26 24 27 25 29 26 30 27 31 91 32 28 33 90 34 29 35 30 36
REMARK SMILES IDX 31 37 84 38 32 39 89 40 83 41 85 42 33 43 88 44 82 45 81 46
REMARK SMILES IDX 34 48 68 49 47 50 67 51 48 52 51 53 66 54 86 55 49 56 50 57
REMARK SMILES IDX 65 59 87 60 52 61 35 62 36 63 45 64 37 65 38 66 44 67 46 68
REMARK SMILES IDX 39 69 40 70 41 71 42 72 43 73 69 74 70 75 79 76 71 77 72 78
REMARK SMILES IDX 78 79 80 80 73 81 74 82 75 83 76 84 77 85 53 86 54 87 63 88
REMARK SMILES IDX 55 89 56 90 62 91 64 92 57 93 58 94 59 95 60 96 61 97
REMARK H PARENT 19 6 6 16 23 28 85 47 51 58
REMARK Flexibility Score: inf
ROOT
ATOM      1  C   UNL A   1      32.949  29.834  27.228  1.00  0.00     0.042 C 
ENDROOT
BRANCH   1   2
ATOM      2  C   UNL A   1      32.248  28.594  26.680  1.00  0.00     0.117 C 
BRANCH   2   3
ATOM      3  N   UNL A   1      31.526  28.857  25.443  1.00  0.00    -0.356 N 
ATOM      4  C   UNL A   1      31.931  28.676  24.153  1.00  0.00     0.224 C 
ATOM      5  O   UNL A   1      31.184  29.026  23.234  1.00  0.00    -0.275 OA
ATOM      6  H   UNL A   1      30.617  29.216  25.553  1.00  0.00     0.163 HD
BRANCH   4   7
ATOM      7  C   UNL A   1      33.289  28.077  23.833  1.00  0.00     0.137 C 
BRANCH   7   8
ATOM      8  C   UNL A   1      33.212  26.729  23.146  1.00  0.00    -0.015 A 
ATOM      9  C   UNL A   1      32.504  25.556  19.573  1.00  0.00     0.044 C 
ATOM     10  C   UNL A   1      32.828  25.541  21.036  1.00  0.00    -0.051 A 
ATOM     11  C   UNL A   1      32.860  24.335  21.731  1.00  0.00     0.005 A 
ATOM     12  C   UNL A   1      33.040  26.727  21.743  1.00  0.00     0.009 A 
ATOM     13  C   UNL A   1      33.081  24.321  23.110  1.00  0.00     0.026 A 
ATOM     14  C   UNL A   1      33.238  25.504  23.851  1.00  0.00     0.042 A 
BRANCH  14  15
ATOM     15  N   UNL A   1      33.430  25.464  25.252  1.00  0.00    -0.352 N 
ATOM     16  H   UNL A   1      33.493  26.342  25.693  1.00  0.00     0.167 HD
BRANCH  15  17
ATOM     17  C   UNL A   1      33.546  24.344  26.111  1.00  0.00     0.094 A 
ATOM     18  C   UNL A   1      34.767  23.686  26.325  1.00  0.00     0.148 A 
ATOM     19  C   UNL A   1      32.401  23.779  26.708  1.00  0.00     0.067 A 
ATOM     20  F   UNL A   1      35.903  24.174  25.802  1.00  0.00    -0.205 F 
ATOM     21  C   UNL A   1      34.856  22.521  27.091  1.00  0.00     0.041 A 
ATOM     22  C   UNL A   1      32.482  22.609  27.474  1.00  0.00     0.023 A 
ATOM     23  Cl  UNL A   1      30.837  24.480  26.475  1.00  0.00    -0.082 Cl
ATOM     24  C   UNL A   1      33.709  21.977  27.662  1.00  0.00     0.005 A 
ENDBRANCH  15  17
ENDBRANCH  14  15
ENDBRANCH   7   8
ENDBRANCH   4   7
ENDBRANCH   2   3
ENDBRANCH   1   2
BRANCH   1  25
ATOM     25  C   UNL A   1      34.467  29.770  27.136  1.00  0.00     0.118 C 
BRANCH  25  26
ATOM     26  N   UNL A   1      35.102  30.986  27.638  1.00  0.00    -0.352 N 
ATOM     27  C   UNL A   1      36.317  31.104  28.292  1.00  0.00     0.251 C 
ATOM     28  H   UNL A   1      34.606  31.824  27.494  1.00  0.00     0.163 HD
ATOM     29  O   UNL A   1      36.700  32.145  28.785  1.00  0.00    -0.269 OA
BRANCH  27  30
ATOM     30  C   UNL A   1      37.182  29.909  28.273  1.00  0.00     0.039 A 
ATOM     31  C   UNL A   1      37.298  29.189  29.467  1.00  0.00     0.014 A 
ATOM     32  C   UNL A   1      38.074  29.726  27.220  1.00  0.00     0.014 A 
ATOM     33  C   UNL A   1      38.429  28.409  29.681  1.00  0.00     0.010 A 
ATOM     34  C   UNL A   1      39.232  29.014  27.466  1.00  0.00     0.010 A 
ATOM     35  C   UNL A   1      39.434  28.402  28.716  1.00  0.00    -0.014 A 
BRANCH  35  36
ATOM     36  C   UNL A   1      40.766  27.850  28.943  1.00  0.00     0.031 A 
ATOM     37  C   UNL A   1      41.058  26.448  28.575  1.00  0.00     0.074 A 
ATOM     38  C   UNL A   1      41.761  28.650  29.382  1.00  0.00     0.049 A 
ATOM     39  N   UNL A   1      42.117  25.798  28.920  1.00  0.00    -0.248 NA
ATOM     40  C   UNL A   1      40.116  25.643  27.812  1.00  0.00     0.031 C 
ATOM     41  C   UNL A   1      43.196  28.386  29.326  1.00  0.00     0.029 A 
ATOM     42  N   UNL A   1      41.647  29.787  30.189  1.00  0.00    -0.354 N 
ATOM     43  C   UNL A   1      42.138  24.613  28.217  1.00  0.00     0.074 A 
ATOM     44  C   UNL A   1      40.836  24.539  27.596  1.00  0.00     0.031 C 
ATOM     45  C   UNL A   1      43.808  29.131  30.256  1.00  0.00     0.029 A 
ATOM     46  C   UNL A   1      42.775  29.779  31.042  1.00  0.00     0.049 A 
ATOM     47  H   UNL A   1      40.928  30.459  30.166  1.00  0.00     0.167 HD
ATOM     48  C   UNL A   1      43.301  23.899  28.156  1.00  0.00     0.037 A 
ATOM     49  C   UNL A   1      42.618  29.643  32.393  1.00  0.00     0.037 A 
ATOM     50  C   UNL A   1      44.298  24.431  29.091  1.00  0.00     0.049 A 
ATOM     51  C   UNL A   1      43.216  28.377  32.978  1.00  0.00     0.074 A 
ATOM     52  C   UNL A   1      45.413  25.246  28.985  1.00  0.00     0.029 A 
ATOM     53  N   UNL A   1      44.030  24.340  30.446  1.00  0.00    -0.354 N 
ATOM     54  N   UNL A   1      43.840  27.464  32.285  1.00  0.00    -0.248 NA
ATOM     55  C   UNL A   1      43.092  28.006  34.390  1.00  0.00     0.031 C 
ATOM     56  C   UNL A   1      45.776  25.682  30.296  1.00  0.00     0.029 A 
ATOM     57  C   UNL A   1      44.885  25.125  31.195  1.00  0.00     0.049 A 
ATOM     58  H   UNL A   1      43.315  23.782  30.830  1.00  0.00     0.167 HD
ATOM     59  C   UNL A   1      44.121  26.393  33.090  1.00  0.00     0.074 A 
ATOM     60  C   UNL A   1      43.663  26.790  34.408  1.00  0.00     0.031 C 
ATOM     61  C   UNL A   1      44.658  25.230  32.626  1.00  0.00     0.037 A 
BRANCH  48  62
ATOM     62  C   UNL A   1      43.615  22.867  27.085  1.00  0.00     0.058 A 
ATOM     63  C   UNL A   1      42.884  21.661  27.013  1.00  0.00     0.135 A 
ATOM     64  C   UNL A   1      44.668  22.956  26.152  1.00  0.00     0.135 A 
ATOM     65  F   UNL A   1      41.787  21.460  27.756  1.00  0.00    -0.206 F 
ATOM     66  C   UNL A   1      43.244  20.594  26.184  1.00  0.00     0.059 A 
ATOM     67  C   UNL A   1      45.086  21.886  25.357  1.00  0.00     0.059 A 
ATOM     68  F   UNL A   1      45.301  24.109  25.915  1.00  0.00    -0.206 F 
ATOM     69  C   UNL A   1      44.377  20.698  25.389  1.00  0.00     0.060 A 
BRANCH  69  70
ATOM     70  S   UNL A   1      44.894  19.285  24.400  1.00  0.00     0.124 S 
ATOM     71  O   UNL A   1      44.183  18.183  25.042  1.00  0.00    -0.237 OA
ATOM     72  O   UNL A   1      44.424  19.656  23.070  1.00  0.00    -0.237 OA
ATOM     73  O   UNL A   1      46.345  19.265  24.568  1.00  0.00    -0.744 OA
ENDBRANCH  69  70
ENDBRANCH  48  62
BRANCH  49  74
ATOM     74  C   UNL A   1      41.411  30.358  32.895  1.00  0.00     0.058 A 
ATOM     75  C   UNL A   1      40.259  29.585  33.148  1.00  0.00     0.135 A 
ATOM     76  C   UNL A   1      41.504  31.607  33.520  1.00  0.00     0.135 A 
ATOM     77  F   UNL A   1      40.113  28.384  32.563  1.00  0.00    -0.206 F 
ATOM     78  C   UNL A   1      39.331  29.952  34.113  1.00  0.00     0.059 A 
ATOM     79  C   UNL A   1      40.573  32.003  34.483  1.00  0.00     0.059 A 
ATOM     80  F   UNL A   1      42.573  32.389  33.313  1.00  0.00    -0.206 F 
ATOM     81  C   UNL A   1      39.534  31.133  34.822  1.00  0.00     0.060 A 
BRANCH  81  82
ATOM     82  S   UNL A   1      38.535  31.404  36.306  1.00  0.00     0.124 S 
ATOM     83  O   UNL A   1      38.195  30.041  36.695  1.00  0.00    -0.237 OA
ATOM     84  O   UNL A   1      39.484  32.091  37.184  1.00  0.00    -0.237 OA
ATOM     85  O   UNL A   1      37.429  32.219  35.820  1.00  0.00    -0.744 OA
ENDBRANCH  81  82
ENDBRANCH  49  74
BRANCH  61  86
ATOM     86  C   UNL A   1      44.993  24.075  33.521  1.00  0.00     0.058 A 
ATOM     87  C   UNL A   1      46.308  23.835  33.953  1.00  0.00     0.135 A 
ATOM     88  C   UNL A   1      44.032  23.100  33.853  1.00  0.00     0.135 A 
ATOM     89  F   UNL A   1      47.290  24.703  33.662  1.00  0.00    -0.206 F 
ATOM     90  C   UNL A   1      46.648  22.696  34.683  1.00  0.00     0.059 A 
ATOM     91  C   UNL A   1      44.357  21.936  34.542  1.00  0.00     0.059 A 
ATOM     92  F   UNL A   1      42.739  23.265  33.532  1.00  0.00    -0.206 F 
ATOM     93  C   UNL A   1      45.667  21.748  34.967  1.00  0.00     0.060 A 
BRANCH  93  94
ATOM     94  S   UNL A   1      46.108  20.246  35.864  1.00  0.00     0.124 S 
ATOM     95  O   UNL A   1      45.709  20.558  37.233  1.00  0.00    -0.237 OA
ATOM     96  O   UNL A   1      45.291  19.250  35.179  1.00  0.00    -0.237 OA
ATOM     97  O   UNL A   1      47.547  20.138  35.647  1.00  0.00    -0.744 OA
ENDBRANCH  93  94
ENDBRANCH  61  86
ENDBRANCH  35  36
ENDBRANCH  27  30
ENDBRANCH  25  26
ENDBRANCH   1  25
TORSDOF 16
ENDMDL
