MODEL 1
REMARK VINA RESULT:     -12.4      0.000      0.000
REMARK SMILES O=C(NCCCNC(=O)c1cccc(-c2c(F)cc(F)cc2F)c1)c1ccc(-c2c3nc(c(-c4c(F)cc(S(=O)(=O)[O-])cc4F)c4ccc([nH]4)c(-c4c(F)cc(S(=O)(=O)[O-])cc4F)c4nc(c(-c5c(F)cc(S(=O)(=O)[O-])cc5F)c5ccc2[nH]5)C=C4)C=C3)cc1
REMARK SMILES IDX 4 1 3 2 1 3 2 4 25 6 26 7 90 8 27 9 89 10 28 11 29 12 30 13
REMARK SMILES IDX 83 14 31 15 88 16 82 17 84 18 32 19 87 20 81 21 80 22 33 24
REMARK SMILES IDX 67 25 46 26 66 27 47 28 50 29 65 30 85 31 48 32 49 33 64 35
REMARK SMILES IDX 86 36 51 37 34 38 35 39 44 40 36 41 37 42 43 43 45 44 38 45
REMARK SMILES IDX 39 46 40 47 41 48 42 49 68 50 69 51 78 52 70 53 71 54 77 55
REMARK SMILES IDX 79 56 72 57 73 58 74 59 75 60 76 61 52 62 53 63 62 64 54 65
REMARK SMILES IDX 55 66 61 67 63 68 56 69 57 70 58 71 59 72 60 73 5 74 6 75
REMARK SMILES IDX 7 76 8 77 9 79 10 80 11 81 24 82 12 83 14 84 13 85 15 86
REMARK SMILES IDX 16 87 22 88 17 89 18 90 21 91 23 92 19 93 20 94
REMARK H PARENT 3 5 84 23 50 34 7 78
REMARK Flexibility Score: inf
ROOT
ATOM      1  C   UNL A   1      40.058  23.334  27.096  1.00  0.00     0.118 C 
ENDROOT
BRANCH   1   2
ATOM      2  N   UNL A   1      40.902  24.011  26.118  1.00  0.00    -0.352 N 
ATOM      3  O   UNL A   1      41.899  25.730  25.057  1.00  0.00    -0.269 OA
ATOM      4  C   UNL A   1      41.321  25.321  26.060  1.00  0.00     0.251 C 
ATOM      5  H   UNL A   1      41.223  23.442  25.382  1.00  0.00     0.163 HD
BRANCH   4   6
ATOM      6  C   UNL A   1      41.048  26.238  27.189  1.00  0.00     0.039 A 
ATOM      7  C   UNL A   1      41.776  27.417  27.334  1.00  0.00     0.014 A 
ATOM      8  C   UNL A   1      40.058  25.910  28.120  1.00  0.00     0.014 A 
ATOM      9  C   UNL A   1      41.669  28.153  28.506  1.00  0.00     0.010 A 
ATOM     10  C   UNL A   1      39.859  26.729  29.238  1.00  0.00     0.010 A 
ATOM     11  C   UNL A   1      40.694  27.833  29.464  1.00  0.00    -0.014 A 
BRANCH  11  12
ATOM     12  C   UNL A   1      40.540  28.713  30.652  1.00  0.00     0.031 A 
ATOM     13  C   UNL A   1      41.452  28.589  31.844  1.00  0.00     0.074 A 
ATOM     14  C   UNL A   1      39.586  29.666  30.625  1.00  0.00     0.049 A 
ATOM     15  N   UNL A   1      41.475  29.307  32.939  1.00  0.00    -0.248 NA
ATOM     16  C   UNL A   1      42.461  27.521  31.811  1.00  0.00     0.031 C 
ATOM     17  C   UNL A   1      38.639  29.875  29.526  1.00  0.00     0.029 A 
ATOM     18  N   UNL A   1      39.270  30.651  31.522  1.00  0.00    -0.354 N 
ATOM     19  C   UNL A   1      42.480  28.767  33.733  1.00  0.00     0.074 A 
ATOM     20  C   UNL A   1      43.026  27.641  33.006  1.00  0.00     0.031 C 
ATOM     21  C   UNL A   1      37.896  30.960  29.782  1.00  0.00     0.029 A 
ATOM     22  C   UNL A   1      38.255  31.476  31.097  1.00  0.00     0.049 A 
ATOM     23  H   UNL A   1      39.727  30.760  32.388  1.00  0.00     0.167 HD
ATOM     24  C   UNL A   1      42.910  29.178  34.952  1.00  0.00     0.037 A 
ATOM     25  C   UNL A   1      37.662  32.522  31.702  1.00  0.00     0.037 A 
ATOM     26  C   UNL A   1      42.364  30.309  35.660  1.00  0.00     0.049 A 
ATOM     27  C   UNL A   1      38.134  32.931  33.066  1.00  0.00     0.074 A 
ATOM     28  C   UNL A   1      42.753  30.830  36.883  1.00  0.00     0.029 A 
ATOM     29  N   UNL A   1      41.304  31.090  35.217  1.00  0.00    -0.354 N 
ATOM     30  N   UNL A   1      39.110  32.429  33.786  1.00  0.00    -0.248 NA
ATOM     31  C   UNL A   1      37.425  34.047  33.702  1.00  0.00     0.031 C 
ATOM     32  C   UNL A   1      41.893  31.885  37.205  1.00  0.00     0.029 A 
ATOM     33  C   UNL A   1      41.008  32.067  36.155  1.00  0.00     0.049 A 
ATOM     34  H   UNL A   1      40.832  30.968  34.362  1.00  0.00     0.167 HD
ATOM     35  C   UNL A   1      39.148  33.186  34.951  1.00  0.00     0.074 A 
ATOM     36  C   UNL A   1      38.108  34.188  34.829  1.00  0.00     0.031 C 
ATOM     37  C   UNL A   1      39.971  33.062  36.022  1.00  0.00     0.037 A 
BRANCH  24  38
ATOM     38  C   UNL A   1      44.007  28.383  35.615  1.00  0.00     0.058 A 
ATOM     39  C   UNL A   1      43.732  27.339  36.513  1.00  0.00     0.135 A 
ATOM     40  C   UNL A   1      45.355  28.649  35.320  1.00  0.00     0.135 A 
ATOM     41  F   UNL A   1      42.464  27.044  36.842  1.00  0.00    -0.206 F 
ATOM     42  C   UNL A   1      44.754  26.614  37.122  1.00  0.00     0.059 A 
ATOM     43  C   UNL A   1      46.391  27.917  35.894  1.00  0.00     0.059 A 
ATOM     44  F   UNL A   1      45.678  29.632  34.465  1.00  0.00    -0.206 F 
ATOM     45  C   UNL A   1      46.080  26.913  36.809  1.00  0.00     0.060 A 
BRANCH  45  46
ATOM     46  S   UNL A   1      47.392  25.974  37.620  1.00  0.00     0.124 S 
ATOM     47  O   UNL A   1      46.997  24.603  37.319  1.00  0.00    -0.237 OA
ATOM     48  O   UNL A   1      48.588  26.453  36.934  1.00  0.00    -0.237 OA
ATOM     49  O   UNL A   1      47.277  26.367  39.022  1.00  0.00    -0.744 OA
ENDBRANCH  45  46
ENDBRANCH  24  38
BRANCH  25  50
ATOM     50  C   UNL A   1      36.559  33.245  31.016  1.00  0.00     0.058 A 
ATOM     51  C   UNL A   1      36.822  34.134  29.964  1.00  0.00     0.135 A 
ATOM     52  C   UNL A   1      35.217  33.042  31.381  1.00  0.00     0.135 A 
ATOM     53  F   UNL A   1      38.088  34.362  29.580  1.00  0.00    -0.206 F 
ATOM     54  C   UNL A   1      35.800  34.810  29.309  1.00  0.00     0.059 A 
ATOM     55  C   UNL A   1      34.175  33.682  30.719  1.00  0.00     0.059 A 
ATOM     56  F   UNL A   1      34.910  32.188  32.369  1.00  0.00    -0.206 F 
ATOM     57  C   UNL A   1      34.478  34.573  29.692  1.00  0.00     0.060 A 
BRANCH  57  58
ATOM     58  S   UNL A   1      33.155  35.422  28.804  1.00  0.00     0.124 S 
ATOM     59  O   UNL A   1      33.909  36.363  27.984  1.00  0.00    -0.237 OA
ATOM     60  O   UNL A   1      32.512  34.324  28.090  1.00  0.00    -0.237 OA
ATOM     61  O   UNL A   1      32.358  36.016  29.875  1.00  0.00    -0.744 OA
ENDBRANCH  57  58
ENDBRANCH  25  50
BRANCH  37  62
ATOM     62  C   UNL A   1      39.805  34.064  37.132  1.00  0.00     0.058 A 
ATOM     63  C   UNL A   1      39.035  33.789  38.273  1.00  0.00     0.135 A 
ATOM     64  C   UNL A   1      40.449  35.311  37.060  1.00  0.00     0.135 A 
ATOM     65  F   UNL A   1      38.390  32.618  38.388  1.00  0.00    -0.206 F 
ATOM     66  C   UNL A   1      38.881  34.728  39.288  1.00  0.00     0.059 A 
ATOM     67  C   UNL A   1      40.336  36.251  38.079  1.00  0.00     0.059 A 
ATOM     68  F   UNL A   1      41.205  35.622  35.996  1.00  0.00    -0.206 F 
ATOM     69  C   UNL A   1      39.537  35.956  39.183  1.00  0.00     0.060 A 
BRANCH  69  70
ATOM     70  S   UNL A   1      39.346  37.158  40.516  1.00  0.00     0.124 S 
ATOM     71  O   UNL A   1      38.610  36.382  41.508  1.00  0.00    -0.237 OA
ATOM     72  O   UNL A   1      40.731  37.470  40.855  1.00  0.00    -0.237 OA
ATOM     73  O   UNL A   1      38.600  38.245  39.890  1.00  0.00    -0.744 OA
ENDBRANCH  69  70
ENDBRANCH  37  62
ENDBRANCH  11  12
ENDBRANCH   4   6
ENDBRANCH   1   2
BRANCH   1  74
ATOM     74  C   UNL A   1      38.815  22.715  26.482  1.00  0.00     0.042 C 
BRANCH  74  75
ATOM     75  C   UNL A   1      37.795  23.734  26.006  1.00  0.00     0.118 C 
BRANCH  75  76
ATOM     76  N   UNL A   1      37.449  23.562  24.599  1.00  0.00    -0.352 N 
ATOM     77  C   UNL A   1      36.219  23.505  23.996  1.00  0.00     0.251 C 
ATOM     78  H   UNL A   1      38.218  23.474  23.989  1.00  0.00     0.163 HD
ATOM     79  O   UNL A   1      36.121  23.159  22.820  1.00  0.00    -0.269 OA
BRANCH  77  80
ATOM     80  C   UNL A   1      35.006  23.855  24.760  1.00  0.00     0.040 A 
ATOM     81  C   UNL A   1      34.465  22.925  25.648  1.00  0.00     0.014 A 
ATOM     82  C   UNL A   1      34.400  25.104  24.590  1.00  0.00     0.022 A 
ATOM     83  C   UNL A   1      33.360  23.281  26.418  1.00  0.00     0.001 A 
ATOM     84  C   UNL A   1      33.322  25.501  25.393  1.00  0.00    -0.012 A 
ATOM     85  C   UNL A   1      32.809  24.564  26.306  1.00  0.00     0.009 A 
BRANCH  84  86
ATOM     86  C   UNL A   1      32.797  26.873  25.300  1.00  0.00     0.053 A 
ATOM     87  C   UNL A   1      31.619  27.163  24.592  1.00  0.00     0.136 A 
ATOM     88  C   UNL A   1      33.415  27.947  25.961  1.00  0.00     0.136 A 
ATOM     89  F   UNL A   1      30.954  26.184  23.961  1.00  0.00    -0.206 F 
ATOM     90  C   UNL A   1      31.086  28.450  24.538  1.00  0.00     0.079 A 
ATOM     91  C   UNL A   1      32.899  29.239  25.918  1.00  0.00     0.079 A 
ATOM     92  F   UNL A   1      34.538  27.746  26.670  1.00  0.00    -0.206 F 
ATOM     93  C   UNL A   1      31.736  29.477  25.203  1.00  0.00     0.129 A 
ATOM     94  F   UNL A   1      31.234  30.717  25.155  1.00  0.00    -0.207 F 
ENDBRANCH  84  86
ENDBRANCH  77  80
ENDBRANCH  75  76
ENDBRANCH  74  75
ENDBRANCH   1  74
TORSDOF 14
ENDMDL
MODEL 2
REMARK VINA RESULT:     -12.4      0.921      2.067
REMARK SMILES O=C(NCCCNC(=O)c1cccc(-c2c(F)cc(F)cc2F)c1)c1ccc(-c2c3nc(c(-c4c(F)cc(S(=O)(=O)[O-])cc4F)c4ccc([nH]4)c(-c4c(F)cc(S(=O)(=O)[O-])cc4F)c4nc(c(-c5c(F)cc(S(=O)(=O)[O-])cc5F)c5ccc2[nH]5)C=C4)C=C3)cc1
REMARK SMILES IDX 4 1 3 2 1 3 2 4 25 6 26 7 90 8 27 9 89 10 28 11 29 12 30 13
REMARK SMILES IDX 83 14 31 15 88 16 82 17 84 18 32 19 87 20 81 21 80 22 33 24
REMARK SMILES IDX 67 25 46 26 66 27 47 28 50 29 65 30 85 31 48 32 49 33 64 35
REMARK SMILES IDX 86 36 51 37 34 38 35 39 44 40 36 41 37 42 43 43 45 44 38 45
REMARK SMILES IDX 39 46 40 47 41 48 42 49 68 50 69 51 78 52 70 53 71 54 77 55
REMARK SMILES IDX 79 56 72 57 73 58 74 59 75 60 76 61 52 62 53 63 62 64 54 65
REMARK SMILES IDX 55 66 61 67 63 68 56 69 57 70 58 71 59 72 60 73 5 74 6 75
REMARK SMILES IDX 7 76 8 77 9 79 10 80 11 81 24 82 12 83 14 84 13 85 15 86
REMARK SMILES IDX 16 87 22 88 17 89 18 90 21 91 23 92 19 93 20 94
REMARK H PARENT 3 5 84 23 50 34 7 78
REMARK Flexibility Score: inf
ROOT
ATOM      1  C   UNL A   1      39.306  23.536  26.858  1.00  0.00     0.118 C 
ENDROOT
BRANCH   1   2
ATOM      2  N   UNL A   1      40.527  23.927  26.161  1.00  0.00    -0.352 N 
ATOM      3  O   UNL A   1      42.211  25.266  25.494  1.00  0.00    -0.269 OA
ATOM      4  C   UNL A   1      41.309  25.052  26.298  1.00  0.00     0.251 C 
ATOM      5  H   UNL A   1      40.842  23.285  25.484  1.00  0.00     0.163 HD
BRANCH   4   6
ATOM      6  C   UNL A   1      41.040  26.013  27.391  1.00  0.00     0.039 A 
ATOM      7  C   UNL A   1      41.748  27.210  27.468  1.00  0.00     0.014 A 
ATOM      8  C   UNL A   1      40.076  25.709  28.355  1.00  0.00     0.014 A 
ATOM      9  C   UNL A   1      41.651  27.996  28.609  1.00  0.00     0.010 A 
ATOM     10  C   UNL A   1      39.883  26.573  29.440  1.00  0.00     0.010 A 
ATOM     11  C   UNL A   1      40.701  27.701  29.600  1.00  0.00    -0.014 A 
BRANCH  11  12
ATOM     12  C   UNL A   1      40.555  28.630  30.751  1.00  0.00     0.031 A 
ATOM     13  C   UNL A   1      41.473  28.556  31.942  1.00  0.00     0.074 A 
ATOM     14  C   UNL A   1      39.602  29.582  30.689  1.00  0.00     0.049 A 
ATOM     15  N   UNL A   1      41.502  29.319  33.005  1.00  0.00    -0.248 NA
ATOM     16  C   UNL A   1      42.481  27.486  31.949  1.00  0.00     0.031 C 
ATOM     17  C   UNL A   1      38.648  29.746  29.588  1.00  0.00     0.029 A 
ATOM     18  N   UNL A   1      39.291  30.605  31.546  1.00  0.00    -0.354 N 
ATOM     19  C   UNL A   1      42.511  28.811  33.816  1.00  0.00     0.074 A 
ATOM     20  C   UNL A   1      43.052  27.655  33.134  1.00  0.00     0.031 C 
ATOM     21  C   UNL A   1      37.907  30.841  29.802  1.00  0.00     0.029 A 
ATOM     22  C   UNL A   1      38.273  31.411  31.092  1.00  0.00     0.049 A 
ATOM     23  H   UNL A   1      39.752  30.749  32.404  1.00  0.00     0.167 HD
ATOM     24  C   UNL A   1      42.949  29.273  35.015  1.00  0.00     0.037 A 
ATOM     25  C   UNL A   1      37.685  32.482  31.656  1.00  0.00     0.037 A 
ATOM     26  C   UNL A   1      42.406  30.433  35.677  1.00  0.00     0.049 A 
ATOM     27  C   UNL A   1      38.165  32.948  32.999  1.00  0.00     0.074 A 
ATOM     28  C   UNL A   1      42.803  31.005  36.876  1.00  0.00     0.029 A 
ATOM     29  N   UNL A   1      41.345  31.196  35.209  1.00  0.00    -0.354 N 
ATOM     30  N   UNL A   1      39.144  32.476  33.734  1.00  0.00    -0.248 NA
ATOM     31  C   UNL A   1      37.460  34.090  33.592  1.00  0.00     0.031 C 
ATOM     32  C   UNL A   1      41.945  32.073  37.158  1.00  0.00     0.029 A 
ATOM     33  C   UNL A   1      41.054  32.212  36.106  1.00  0.00     0.049 A 
ATOM     34  H   UNL A   1      40.868  31.038  34.362  1.00  0.00     0.167 HD
ATOM     35  C   UNL A   1      39.188  33.280  34.866  1.00  0.00     0.074 A 
ATOM     36  C   UNL A   1      38.149  34.278  34.708  1.00  0.00     0.031 C 
ATOM     37  C   UNL A   1      40.017  33.200  35.937  1.00  0.00     0.037 A 
BRANCH  24  38
ATOM     38  C   UNL A   1      44.048  28.505  35.705  1.00  0.00     0.058 A 
ATOM     39  C   UNL A   1      45.406  28.765  35.460  1.00  0.00     0.135 A 
ATOM     40  C   UNL A   1      43.736  27.515  36.652  1.00  0.00     0.135 A 
ATOM     41  F   UNL A   1      45.767  29.692  34.557  1.00  0.00    -0.206 F 
ATOM     42  C   UNL A   1      46.413  28.047  36.101  1.00  0.00     0.059 A 
ATOM     43  C   UNL A   1      44.726  26.807  37.327  1.00  0.00     0.059 A 
ATOM     44  F   UNL A   1      42.455  27.227  36.931  1.00  0.00    -0.206 F 
ATOM     45  C   UNL A   1      46.062  27.067  37.030  1.00  0.00     0.060 A 
BRANCH  45  46
ATOM     46  S   UNL A   1      47.380  26.134  37.840  1.00  0.00     0.124 S 
ATOM     47  O   UNL A   1      47.324  26.669  39.196  1.00  0.00    -0.237 OA
ATOM     48  O   UNL A   1      46.926  24.755  37.685  1.00  0.00    -0.237 OA
ATOM     49  O   UNL A   1      48.571  26.489  37.074  1.00  0.00    -0.744 OA
ENDBRANCH  45  46
ENDBRANCH  24  38
BRANCH  25  50
ATOM     50  C   UNL A   1      36.579  33.177  30.946  1.00  0.00     0.058 A 
ATOM     51  C   UNL A   1      35.248  33.035  31.368  1.00  0.00     0.135 A 
ATOM     52  C   UNL A   1      36.831  34.016  29.848  1.00  0.00     0.135 A 
ATOM     53  F   UNL A   1      34.956  32.243  32.410  1.00  0.00    -0.206 F 
ATOM     54  C   UNL A   1      34.206  33.686  30.718  1.00  0.00     0.059 A 
ATOM     55  C   UNL A   1      35.809  34.703  29.203  1.00  0.00     0.059 A 
ATOM     56  F   UNL A   1      38.088  34.201  29.417  1.00  0.00    -0.206 F 
ATOM     57  C   UNL A   1      34.498  34.522  29.638  1.00  0.00     0.060 A 
BRANCH  57  58
ATOM     58  S   UNL A   1      33.141  35.398  28.830  1.00  0.00     0.124 S 
ATOM     59  O   UNL A   1      32.544  34.336  28.028  1.00  0.00    -0.237 OA
ATOM     60  O   UNL A   1      32.354  35.858  29.969  1.00  0.00    -0.237 OA
ATOM     61  O   UNL A   1      33.820  36.450  28.080  1.00  0.00    -0.744 OA
ENDBRANCH  57  58
ENDBRANCH  25  50
BRANCH  37  62
ATOM     62  C   UNL A   1      39.859  34.249  37.005  1.00  0.00     0.058 A 
ATOM     63  C   UNL A   1      40.421  35.529  36.879  1.00  0.00     0.135 A 
ATOM     64  C   UNL A   1      39.111  33.972  38.161  1.00  0.00     0.135 A 
ATOM     65  F   UNL A   1      41.154  35.844  35.799  1.00  0.00    -0.206 F 
ATOM     66  C   UNL A   1      40.277  36.487  37.877  1.00  0.00     0.059 A 
ATOM     67  C   UNL A   1      38.925  34.926  39.156  1.00  0.00     0.059 A 
ATOM     68  F   UNL A   1      38.544  32.767  38.329  1.00  0.00    -0.206 F 
ATOM     69  C   UNL A   1      39.525  36.176  39.013  1.00  0.00     0.060 A 
BRANCH  69  70
ATOM     70  S   UNL A   1      39.328  37.434  40.292  1.00  0.00     0.124 S 
ATOM     71  O   UNL A   1      38.531  38.439  39.596  1.00  0.00    -0.237 OA
ATOM     72  O   UNL A   1      38.639  36.698  41.348  1.00  0.00    -0.237 OA
ATOM     73  O   UNL A   1      40.700  37.824  40.601  1.00  0.00    -0.744 OA
ENDBRANCH  69  70
ENDBRANCH  37  62
ENDBRANCH  11  12
ENDBRANCH   4   6
ENDBRANCH   1   2
BRANCH   1  74
ATOM     74  C   UNL A   1      38.048  23.806  26.051  1.00  0.00     0.042 C 
BRANCH  74  75
ATOM     75  C   UNL A   1      37.544  22.598  25.281  1.00  0.00     0.118 C 
BRANCH  75  76
ATOM     76  N   UNL A   1      36.474  21.897  25.983  1.00  0.00    -0.352 N 
ATOM     77  C   UNL A   1      35.136  22.187  26.061  1.00  0.00     0.251 C 
ATOM     78  H   UNL A   1      36.757  21.091  26.474  1.00  0.00     0.163 HD
ATOM     79  O   UNL A   1      34.420  21.589  26.861  1.00  0.00    -0.269 OA
BRANCH  77  80
ATOM     80  C   UNL A   1      34.553  23.223  25.187  1.00  0.00     0.040 A 
ATOM     81  C   UNL A   1      34.351  22.943  23.836  1.00  0.00     0.014 A 
ATOM     82  C   UNL A   1      34.214  24.477  25.707  1.00  0.00     0.022 A 
ATOM     83  C   UNL A   1      33.739  23.898  23.027  1.00  0.00     0.001 A 
ATOM     84  C   UNL A   1      33.550  25.429  24.924  1.00  0.00    -0.012 A 
ATOM     85  C   UNL A   1      33.324  25.120  23.572  1.00  0.00     0.009 A 
BRANCH  84  86
ATOM     86  C   UNL A   1      33.069  26.681  25.532  1.00  0.00     0.053 A 
ATOM     87  C   UNL A   1      33.552  27.933  25.116  1.00  0.00     0.136 A 
ATOM     88  C   UNL A   1      32.065  26.688  26.514  1.00  0.00     0.136 A 
ATOM     89  F   UNL A   1      34.489  28.010  24.158  1.00  0.00    -0.206 F 
ATOM     90  C   UNL A   1      33.070  29.127  25.649  1.00  0.00     0.079 A 
ATOM     91  C   UNL A   1      31.571  27.870  27.060  1.00  0.00     0.079 A 
ATOM     92  F   UNL A   1      31.544  25.532  26.953  1.00  0.00    -0.206 F 
ATOM     93  C   UNL A   1      32.082  29.081  26.621  1.00  0.00     0.129 A 
ATOM     94  F   UNL A   1      31.614  30.221  27.142  1.00  0.00    -0.207 F 
ENDBRANCH  84  86
ENDBRANCH  77  80
ENDBRANCH  75  76
ENDBRANCH  74  75
ENDBRANCH   1  74
TORSDOF 14
ENDMDL
MODEL 3
REMARK VINA RESULT:     -12.3      3.541      9.520
REMARK SMILES O=C(NCCCNC(=O)c1cccc(-c2c(F)cc(F)cc2F)c1)c1ccc(-c2c3nc(c(-c4c(F)cc(S(=O)(=O)[O-])cc4F)c4ccc([nH]4)c(-c4c(F)cc(S(=O)(=O)[O-])cc4F)c4nc(c(-c5c(F)cc(S(=O)(=O)[O-])cc5F)c5ccc2[nH]5)C=C4)C=C3)cc1
REMARK SMILES IDX 4 1 3 2 1 3 2 4 25 6 26 7 90 8 27 9 89 10 28 11 29 12 30 13
REMARK SMILES IDX 83 14 31 15 88 16 82 17 84 18 32 19 87 20 81 21 80 22 33 24
REMARK SMILES IDX 67 25 46 26 66 27 47 28 50 29 65 30 85 31 48 32 49 33 64 35
REMARK SMILES IDX 86 36 51 37 34 38 35 39 44 40 36 41 37 42 43 43 45 44 38 45
REMARK SMILES IDX 39 46 40 47 41 48 42 49 68 50 69 51 78 52 70 53 71 54 77 55
REMARK SMILES IDX 79 56 72 57 73 58 74 59 75 60 76 61 52 62 53 63 62 64 54 65
REMARK SMILES IDX 55 66 61 67 63 68 56 69 57 70 58 71 59 72 60 73 5 74 6 75
REMARK SMILES IDX 7 76 8 77 9 79 10 80 11 81 24 82 12 83 14 84 13 85 15 86
REMARK SMILES IDX 16 87 22 88 17 89 18 90 21 91 23 92 19 93 20 94
REMARK H PARENT 3 5 84 23 50 34 7 78
REMARK Flexibility Score: inf
ROOT
ATOM      1  C   UNL A   1      34.045  28.344  25.741  1.00  0.00     0.118 C 
ENDROOT
BRANCH   1   2
ATOM      2  N   UNL A   1      33.671  29.671  26.218  1.00  0.00    -0.352 N 
ATOM      3  O   UNL A   1      33.677  31.487  27.550  1.00  0.00    -0.269 OA
ATOM      4  C   UNL A   1      34.249  30.464  27.184  1.00  0.00     0.251 C 
ATOM      5  H   UNL A   1      32.881  30.062  25.780  1.00  0.00     0.163 HD
BRANCH   4   6
ATOM      6  C   UNL A   1      35.534  30.068  27.799  1.00  0.00     0.039 A 
ATOM      7  C   UNL A   1      35.560  29.441  29.043  1.00  0.00     0.014 A 
ATOM      8  C   UNL A   1      36.731  30.334  27.128  1.00  0.00     0.014 A 
ATOM      9  C   UNL A   1      36.768  29.276  29.707  1.00  0.00     0.010 A 
ATOM     10  C   UNL A   1      37.953  30.042  27.746  1.00  0.00     0.010 A 
ATOM     11  C   UNL A   1      37.982  29.553  29.060  1.00  0.00    -0.014 A 
BRANCH  11  12
ATOM     12  C   UNL A   1      39.255  29.258  29.768  1.00  0.00     0.031 A 
ATOM     13  C   UNL A   1      39.635  29.980  31.034  1.00  0.00     0.074 A 
ATOM     14  C   UNL A   1      40.053  28.289  29.276  1.00  0.00     0.049 A 
ATOM     15  N   UNL A   1      40.688  29.809  31.792  1.00  0.00    -0.248 NA
ATOM     16  C   UNL A   1      38.725  31.033  31.507  1.00  0.00     0.031 C 
ATOM     17  C   UNL A   1      39.791  27.527  28.051  1.00  0.00     0.029 A 
ATOM     18  N   UNL A   1      41.223  27.757  29.749  1.00  0.00    -0.354 N 
ATOM     19  C   UNL A   1      40.582  30.743  32.817  1.00  0.00     0.074 A 
ATOM     20  C   UNL A   1      39.373  31.499  32.567  1.00  0.00     0.031 C 
ATOM     21  C   UNL A   1      40.732  26.584  27.906  1.00  0.00     0.029 A 
ATOM     22  C   UNL A   1      41.708  26.725  28.979  1.00  0.00     0.049 A 
ATOM     23  H   UNL A   1      41.674  28.081  30.562  1.00  0.00     0.167 HD
ATOM     24  C   UNL A   1      41.412  30.945  33.870  1.00  0.00     0.037 A 
ATOM     25  C   UNL A   1      42.823  25.983  29.107  1.00  0.00     0.037 A 
ATOM     26  C   UNL A   1      42.608  30.175  34.112  1.00  0.00     0.049 A 
ATOM     27  C   UNL A   1      43.742  26.253  30.262  1.00  0.00     0.074 A 
ATOM     28  C   UNL A   1      43.498  30.276  35.169  1.00  0.00     0.029 A 
ATOM     29  N   UNL A   1      43.091  29.171  33.284  1.00  0.00    -0.354 N 
ATOM     30  N   UNL A   1      43.606  27.118  31.240  1.00  0.00    -0.248 NA
ATOM     31  C   UNL A   1      44.968  25.450  30.332  1.00  0.00     0.031 C 
ATOM     32  C   UNL A   1      44.546  29.376  34.949  1.00  0.00     0.029 A 
ATOM     33  C   UNL A   1      44.279  28.666  33.789  1.00  0.00     0.049 A 
ATOM     34  H   UNL A   1      42.653  28.862  32.457  1.00  0.00     0.167 HD
ATOM     35  C   UNL A   1      44.718  26.944  32.056  1.00  0.00     0.074 A 
ATOM     36  C   UNL A   1      45.505  25.881  31.464  1.00  0.00     0.031 C 
ATOM     37  C   UNL A   1      45.053  27.605  33.192  1.00  0.00     0.037 A 
BRANCH  24  38
ATOM     38  C   UNL A   1      41.076  32.061  34.826  1.00  0.00     0.058 A 
ATOM     39  C   UNL A   1      40.231  31.868  35.932  1.00  0.00     0.135 A 
ATOM     40  C   UNL A   1      41.636  33.338  34.652  1.00  0.00     0.135 A 
ATOM     41  F   UNL A   1      39.658  30.672  36.145  1.00  0.00    -0.206 F 
ATOM     42  C   UNL A   1      39.926  32.907  36.806  1.00  0.00     0.059 A 
ATOM     43  C   UNL A   1      41.368  34.384  35.531  1.00  0.00     0.059 A 
ATOM     44  F   UNL A   1      42.454  33.582  33.616  1.00  0.00    -0.206 F 
ATOM     45  C   UNL A   1      40.496  34.163  36.595  1.00  0.00     0.060 A 
BRANCH  45  46
ATOM     46  S   UNL A   1      40.075  35.504  37.729  1.00  0.00     0.124 S 
ATOM     47  O   UNL A   1      39.908  36.623  36.807  1.00  0.00    -0.237 OA
ATOM     48  O   UNL A   1      38.851  35.012  38.354  1.00  0.00    -0.237 OA
ATOM     49  O   UNL A   1      41.237  35.585  38.610  1.00  0.00    -0.744 OA
ENDBRANCH  45  46
ENDBRANCH  24  38
BRANCH  25  50
ATOM     50  C   UNL A   1      43.124  24.921  28.112  1.00  0.00     0.058 A 
ATOM     51  C   UNL A   1      43.773  25.224  26.906  1.00  0.00     0.135 A 
ATOM     52  C   UNL A   1      42.791  23.578  28.357  1.00  0.00     0.135 A 
ATOM     53  F   UNL A   1      44.109  26.492  26.626  1.00  0.00    -0.206 F 
ATOM     54  C   UNL A   1      44.067  24.238  25.971  1.00  0.00     0.059 A 
ATOM     55  C   UNL A   1      43.104  22.571  27.451  1.00  0.00     0.059 A 
ATOM     56  F   UNL A   1      42.186  23.232  29.503  1.00  0.00    -0.206 F 
ATOM     57  C   UNL A   1      43.732  22.913  26.255  1.00  0.00     0.060 A 
BRANCH  57  58
ATOM     58  S   UNL A   1      44.159  21.636  25.053  1.00  0.00     0.124 S 
ATOM     59  O   UNL A   1      43.117  20.645  25.296  1.00  0.00    -0.237 OA
ATOM     60  O   UNL A   1      44.069  22.362  23.790  1.00  0.00    -0.237 OA
ATOM     61  O   UNL A   1      45.509  21.242  25.447  1.00  0.00    -0.744 OA
ENDBRANCH  57  58
ENDBRANCH  25  50
BRANCH  37  62
ATOM     62  C   UNL A   1      46.310  27.165  33.894  1.00  0.00     0.058 A 
ATOM     63  C   UNL A   1      46.304  26.144  34.857  1.00  0.00     0.135 A 
ATOM     64  C   UNL A   1      47.542  27.761  33.577  1.00  0.00     0.135 A 
ATOM     65  F   UNL A   1      45.153  25.548  35.206  1.00  0.00    -0.206 F 
ATOM     66  C   UNL A   1      47.470  25.753  35.507  1.00  0.00     0.059 A 
ATOM     67  C   UNL A   1      48.725  27.362  34.190  1.00  0.00     0.059 A 
ATOM     68  F   UNL A   1      47.606  28.736  32.656  1.00  0.00    -0.206 F 
ATOM     69  C   UNL A   1      48.677  26.368  35.166  1.00  0.00     0.060 A 
BRANCH  69  70
ATOM     70  S   UNL A   1      50.186  25.837  36.001  1.00  0.00     0.124 S 
ATOM     71  O   UNL A   1      51.139  25.808  34.897  1.00  0.00    -0.237 OA
ATOM     72  O   UNL A   1      50.387  26.898  36.984  1.00  0.00    -0.237 OA
ATOM     73  O   UNL A   1      49.828  24.536  36.556  1.00  0.00    -0.744 OA
ENDBRANCH  69  70
ENDBRANCH  37  62
ENDBRANCH  11  12
ENDBRANCH   4   6
ENDBRANCH   1   2
BRANCH   1  74
ATOM     74  C   UNL A   1      33.336  27.224  26.484  1.00  0.00     0.042 C 
BRANCH  74  75
ATOM     75  C   UNL A   1      32.052  26.764  25.816  1.00  0.00     0.118 C 
BRANCH  75  76
ATOM     76  N   UNL A   1      31.306  25.816  26.637  1.00  0.00    -0.352 N 
ATOM     77  C   UNL A   1      31.079  24.477  26.447  1.00  0.00     0.251 C 
ATOM     78  H   UNL A   1      30.904  26.197  27.451  1.00  0.00     0.163 HD
ATOM     79  O   UNL A   1      30.260  23.884  27.147  1.00  0.00    -0.269 OA
BRANCH  77  80
ATOM     80  C   UNL A   1      31.815  23.745  25.399  1.00  0.00     0.040 A 
ATOM     81  C   UNL A   1      31.205  23.521  24.165  1.00  0.00     0.014 A 
ATOM     82  C   UNL A   1      33.109  23.273  25.643  1.00  0.00     0.022 A 
ATOM     83  C   UNL A   1      31.926  22.889  23.154  1.00  0.00     0.001 A 
ATOM     84  C   UNL A   1      33.869  22.685  24.624  1.00  0.00    -0.012 A 
ATOM     85  C   UNL A   1      33.252  22.495  23.376  1.00  0.00     0.009 A 
BRANCH  84  86
ATOM     86  C   UNL A   1      35.279  22.333  24.862  1.00  0.00     0.053 A 
ATOM     87  C   UNL A   1      36.237  23.311  25.179  1.00  0.00     0.136 A 
ATOM     88  C   UNL A   1      35.722  21.001  24.842  1.00  0.00     0.136 A 
ATOM     89  F   UNL A   1      35.883  24.603  25.250  1.00  0.00    -0.206 F 
ATOM     90  C   UNL A   1      37.564  22.985  25.455  1.00  0.00     0.079 A 
ATOM     91  C   UNL A   1      37.043  20.655  25.113  1.00  0.00     0.079 A 
ATOM     92  F   UNL A   1      34.862  20.009  24.560  1.00  0.00    -0.206 F 
ATOM     93  C   UNL A   1      37.953  21.655  25.417  1.00  0.00     0.129 A 
ATOM     94  F   UNL A   1      39.225  21.331  25.677  1.00  0.00    -0.207 F 
ENDBRANCH  84  86
ENDBRANCH  77  80
ENDBRANCH  75  76
ENDBRANCH  74  75
ENDBRANCH   1  74
TORSDOF 14
ENDMDL
