MODEL 1
REMARK VINA RESULT:     -12.4      0.000      0.000
REMARK SMILES O=C(/C=C/c1ccc(NC(=O)NC2CCCC2)c(F)c1)NCCCNC(=O)c1ccc(-c2c3nc(c(-c4c(F)cc(S(=O)(=O)[O-])cc4F)c4ccc([nH]4)c(-c4c(F)cc(S(=O)(=O)[O-])cc4F)c4nc(c(-c5c(F)cc(S(=O)(=O)[O-])cc5F)c5ccc2[nH]5)C=C4)C=C3)cc1
REMARK SMILES IDX 23 1 22 2 21 3 1 4 2 5 3 7 4 8 5 9 6 10 20 11 7 12 18 13
REMARK SMILES IDX 8 14 19 15 9 16 10 17 11 19 12 20 13 22 14 23 17 24 15 25
REMARK SMILES IDX 16 26 24 27 25 28 26 29 27 31 28 32 29 33 93 34 30 35 92 36
REMARK SMILES IDX 31 37 32 38 33 39 86 40 34 41 91 42 85 43 87 44 35 45 90 46
REMARK SMILES IDX 84 47 83 48 36 50 70 51 49 52 69 53 50 54 53 55 68 56 88 57
REMARK SMILES IDX 51 58 52 59 67 61 89 62 54 63 37 64 38 65 47 66 39 67 40 68
REMARK SMILES IDX 46 69 48 70 41 71 42 72 43 73 44 74 45 75 71 76 72 77 81 78
REMARK SMILES IDX 73 79 74 80 80 81 82 82 75 83 76 84 77 85 78 86 79 87 55 88
REMARK SMILES IDX 56 89 65 90 57 91 58 92 64 93 66 94 59 95 60 96 61 97 62 98
REMARK SMILES IDX 63 99
REMARK H PARENT 21 6 9 18 12 21 25 30 87 49 53 60
REMARK Flexibility Score: inf
ROOT
ATOM      1  C   UNL A   1      40.916  22.168  27.381  1.00  0.00     0.042 C 
ENDROOT
BRANCH   1   2
ATOM      2  C   UNL A   1      40.678  21.476  26.047  1.00  0.00     0.118 C 
BRANCH   2   3
ATOM      3  N   UNL A   1      39.270  21.194  25.862  1.00  0.00    -0.352 N 
ATOM      4  O   UNL A   1      38.656  23.399  25.767  1.00  0.00    -0.270 OA
ATOM      5  C   UNL A   1      38.362  22.211  25.817  1.00  0.00     0.244 C 
ATOM      6  H   UNL A   1      38.966  20.263  25.766  1.00  0.00     0.163 HD
BRANCH   5   7
ATOM      7  C   UNL A   1      36.946  21.817  25.698  1.00  0.00     0.072 C 
ATOM      8  C   UNL A   1      36.145  21.788  24.618  1.00  0.00     0.014 C 
BRANCH   8   9
ATOM      9  C   UNL A   1      34.681  21.600  24.743  1.00  0.00    -0.022 A 
ATOM     10  C   UNL A   1      34.142  20.920  25.841  1.00  0.00     0.010 A 
ATOM     11  C   UNL A   1      33.782  22.232  23.878  1.00  0.00     0.049 A 
ATOM     12  C   UNL A   1      32.807  21.052  26.194  1.00  0.00     0.030 A 
ATOM     13  C   UNL A   1      32.444  22.386  24.270  1.00  0.00     0.147 A 
ATOM     14  C   UNL A   1      32.000  21.923  25.514  1.00  0.00     0.078 A 
ATOM     15  F   UNL A   1      31.597  23.033  23.455  1.00  0.00    -0.205 F 
BRANCH  14  16
ATOM     16  N   UNL A   1      30.755  22.293  26.027  1.00  0.00    -0.305 N 
ATOM     17  C   UNL A   1      30.356  23.308  26.810  1.00  0.00     0.319 C 
ATOM     18  H   UNL A   1      30.023  21.689  25.762  1.00  0.00     0.171 HD
ATOM     19  O   UNL A   1      29.342  23.118  27.496  1.00  0.00    -0.248 OA
ATOM     20  N   UNL A   1      30.926  24.516  26.958  1.00  0.00    -0.335 N 
ATOM     21  H   UNL A   1      30.908  24.769  27.909  1.00  0.00     0.165 HD
BRANCH  20  22
ATOM     22  C   UNL A   1      31.573  25.597  26.177  1.00  0.00     0.083 C 
ATOM     23  C   UNL A   1      31.321  27.085  26.450  1.00  0.00     0.025 C 
ATOM     24  C   UNL A   1      33.058  25.448  25.850  1.00  0.00     0.025 C 
ATOM     25  C   UNL A   1      32.687  27.696  26.729  1.00  0.00     0.002 C 
ATOM     26  C   UNL A   1      33.672  26.846  25.949  1.00  0.00     0.002 C 
ENDBRANCH  20  22
ENDBRANCH  14  16
ENDBRANCH   8   9
ENDBRANCH   5   7
ENDBRANCH   2   3
ENDBRANCH   1   2
BRANCH   1  27
ATOM     27  C   UNL A   1      41.962  23.271  27.298  1.00  0.00     0.118 C 
BRANCH  27  28
ATOM     28  N   UNL A   1      41.737  24.182  26.183  1.00  0.00    -0.352 N 
ATOM     29  C   UNL A   1      41.382  25.512  26.216  1.00  0.00     0.251 C 
ATOM     30  H   UNL A   1      41.853  23.794  25.286  1.00  0.00     0.163 HD
ATOM     31  O   UNL A   1      41.091  26.099  25.189  1.00  0.00    -0.269 OA
BRANCH  29  32
ATOM     32  C   UNL A   1      41.330  26.202  27.524  1.00  0.00     0.039 A 
ATOM     33  C   UNL A   1      42.355  27.088  27.860  1.00  0.00     0.014 A 
ATOM     34  C   UNL A   1      40.242  26.015  28.380  1.00  0.00     0.014 A 
ATOM     35  C   UNL A   1      42.249  27.849  29.027  1.00  0.00     0.010 A 
ATOM     36  C   UNL A   1      40.102  26.827  29.499  1.00  0.00     0.010 A 
ATOM     37  C   UNL A   1      41.098  27.758  29.829  1.00  0.00    -0.014 A 
BRANCH  37  38
ATOM     38  C   UNL A   1      40.897  28.638  31.009  1.00  0.00     0.031 A 
ATOM     39  C   UNL A   1      39.839  29.706  30.974  1.00  0.00     0.074 A 
ATOM     40  C   UNL A   1      41.723  28.536  32.070  1.00  0.00     0.049 A 
ATOM     41  N   UNL A   1      39.603  30.661  31.835  1.00  0.00    -0.248 NA
ATOM     42  C   UNL A   1      38.943  29.714  29.806  1.00  0.00     0.031 C 
ATOM     43  C   UNL A   1      42.804  27.556  32.210  1.00  0.00     0.029 A 
ATOM     44  N   UNL A   1      41.796  29.274  33.225  1.00  0.00    -0.354 N 
ATOM     45  C   UNL A   1      38.544  31.390  31.310  1.00  0.00     0.074 A 
ATOM     46  C   UNL A   1      38.216  30.801  30.030  1.00  0.00     0.031 C 
ATOM     47  C   UNL A   1      43.416  27.742  33.390  1.00  0.00     0.029 A 
ATOM     48  C   UNL A   1      42.812  28.886  34.068  1.00  0.00     0.049 A 
ATOM     49  H   UNL A   1      41.178  30.013  33.431  1.00  0.00     0.167 HD
ATOM     50  C   UNL A   1      37.892  32.442  31.856  1.00  0.00     0.037 A 
ATOM     51  C   UNL A   1      43.226  29.402  35.243  1.00  0.00     0.037 A 
ATOM     52  C   UNL A   1      38.210  33.007  33.140  1.00  0.00     0.049 A 
ATOM     53  C   UNL A   1      42.514  30.601  35.809  1.00  0.00     0.074 A 
ATOM     54  C   UNL A   1      37.576  34.045  33.800  1.00  0.00     0.029 A 
ATOM     55  N   UNL A   1      39.248  32.586  33.960  1.00  0.00    -0.354 N 
ATOM     56  N   UNL A   1      41.488  31.255  35.317  1.00  0.00    -0.248 NA
ATOM     57  C   UNL A   1      43.013  31.137  37.083  1.00  0.00     0.031 C 
ATOM     58  C   UNL A   1      38.260  34.286  34.993  1.00  0.00     0.029 A 
ATOM     59  C   UNL A   1      39.286  33.361  35.107  1.00  0.00     0.049 A 
ATOM     60  H   UNL A   1      39.864  31.846  33.758  1.00  0.00     0.167 HD
ATOM     61  C   UNL A   1      41.204  32.262  36.233  1.00  0.00     0.074 A 
ATOM     62  C   UNL A   1      42.160  32.129  37.312  1.00  0.00     0.031 C 
ATOM     63  C   UNL A   1      40.236  33.209  36.182  1.00  0.00     0.037 A 
BRANCH  50  64
ATOM     64  C   UNL A   1      36.758  33.050  31.079  1.00  0.00     0.058 A 
ATOM     65  C   UNL A   1      37.010  33.939  30.021  1.00  0.00     0.135 A 
ATOM     66  C   UNL A   1      35.418  32.813  31.427  1.00  0.00     0.135 A 
ATOM     67  F   UNL A   1      38.272  34.198  29.642  1.00  0.00    -0.206 F 
ATOM     68  C   UNL A   1      35.978  34.583  29.349  1.00  0.00     0.059 A 
ATOM     69  C   UNL A   1      34.368  33.424  30.749  1.00  0.00     0.059 A 
ATOM     70  F   UNL A   1      35.120  31.956  32.417  1.00  0.00    -0.206 F 
ATOM     71  C   UNL A   1      34.659  34.320  29.721  1.00  0.00     0.060 A 
BRANCH  71  72
ATOM     72  S   UNL A   1      33.329  35.143  28.820  1.00  0.00     0.124 S 
ATOM     73  O   UNL A   1      32.513  35.672  29.906  1.00  0.00    -0.237 OA
ATOM     74  O   UNL A   1      34.061  36.129  28.032  1.00  0.00    -0.237 OA
ATOM     75  O   UNL A   1      32.723  34.061  28.047  1.00  0.00    -0.744 OA
ENDBRANCH  71  72
ENDBRANCH  50  64
BRANCH  51  76
ATOM     76  C   UNL A   1      44.365  28.772  35.965  1.00  0.00     0.058 A 
ATOM     77  C   UNL A   1      44.162  27.748  36.903  1.00  0.00     0.135 A 
ATOM     78  C   UNL A   1      45.680  29.215  35.756  1.00  0.00     0.135 A 
ATOM     79  F   UNL A   1      42.923  27.293  37.148  1.00  0.00    -0.206 F 
ATOM     80  C   UNL A   1      45.217  27.207  37.631  1.00  0.00     0.059 A 
ATOM     81  C   UNL A   1      46.755  28.670  36.452  1.00  0.00     0.059 A 
ATOM     82  F   UNL A   1      45.926  30.181  34.858  1.00  0.00    -0.206 F 
ATOM     83  C   UNL A   1      46.510  27.679  37.401  1.00  0.00     0.060 A 
BRANCH  83  84
ATOM     84  S   UNL A   1      47.862  26.977  38.372  1.00  0.00     0.124 S 
ATOM     85  O   UNL A   1      48.986  27.804  37.945  1.00  0.00    -0.237 OA
ATOM     86  O   UNL A   1      47.398  27.192  39.738  1.00  0.00    -0.237 OA
ATOM     87  O   UNL A   1      47.904  25.585  37.936  1.00  0.00    -0.744 OA
ENDBRANCH  83  84
ENDBRANCH  51  76
BRANCH  63  88
ATOM     88  C   UNL A   1      40.125  34.177  37.329  1.00  0.00     0.058 A 
ATOM     89  C   UNL A   1      39.178  33.965  38.345  1.00  0.00     0.135 A 
ATOM     90  C   UNL A   1      40.853  35.375  37.349  1.00  0.00     0.135 A 
ATOM     91  F   UNL A   1      38.453  32.835  38.369  1.00  0.00    -0.206 F 
ATOM     92  C   UNL A   1      38.927  34.927  39.316  1.00  0.00     0.059 A 
ATOM     93  C   UNL A   1      40.637  36.341  38.328  1.00  0.00     0.059 A 
ATOM     94  F   UNL A   1      41.779  35.620  36.408  1.00  0.00    -0.206 F 
ATOM     95  C   UNL A   1      39.654  36.118  39.292  1.00  0.00     0.060 A 
BRANCH  95  96
ATOM     96  S   UNL A   1      39.280  37.374  40.533  1.00  0.00     0.124 S 
ATOM     97  O   UNL A   1      38.852  36.560  41.666  1.00  0.00    -0.237 OA
ATOM     98  O   UNL A   1      40.565  38.048  40.685  1.00  0.00    -0.237 OA
ATOM     99  O   UNL A   1      38.232  38.172  39.903  1.00  0.00    -0.744 OA
ENDBRANCH  95  96
ENDBRANCH  63  88
ENDBRANCH  37  38
ENDBRANCH  29  32
ENDBRANCH  27  28
ENDBRANCH   1  27
TORSDOF 16
ENDMDL
MODEL 2
REMARK VINA RESULT:     -12.3      1.638      2.635
REMARK SMILES O=C(/C=C/c1ccc(NC(=O)NC2CCCC2)c(F)c1)NCCCNC(=O)c1ccc(-c2c3nc(c(-c4c(F)cc(S(=O)(=O)[O-])cc4F)c4ccc([nH]4)c(-c4c(F)cc(S(=O)(=O)[O-])cc4F)c4nc(c(-c5c(F)cc(S(=O)(=O)[O-])cc5F)c5ccc2[nH]5)C=C4)C=C3)cc1
REMARK SMILES IDX 23 1 22 2 21 3 1 4 2 5 3 7 4 8 5 9 6 10 20 11 7 12 18 13
REMARK SMILES IDX 8 14 19 15 9 16 10 17 11 19 12 20 13 22 14 23 17 24 15 25
REMARK SMILES IDX 16 26 24 27 25 28 26 29 27 31 28 32 29 33 93 34 30 35 92 36
REMARK SMILES IDX 31 37 32 38 33 39 86 40 34 41 91 42 85 43 87 44 35 45 90 46
REMARK SMILES IDX 84 47 83 48 36 50 70 51 49 52 69 53 50 54 53 55 68 56 88 57
REMARK SMILES IDX 51 58 52 59 67 61 89 62 54 63 37 64 38 65 47 66 39 67 40 68
REMARK SMILES IDX 46 69 48 70 41 71 42 72 43 73 44 74 45 75 71 76 72 77 81 78
REMARK SMILES IDX 73 79 74 80 80 81 82 82 75 83 76 84 77 85 78 86 79 87 55 88
REMARK SMILES IDX 56 89 65 90 57 91 58 92 64 93 66 94 59 95 60 96 61 97 62 98
REMARK SMILES IDX 63 99
REMARK H PARENT 21 6 9 18 12 21 25 30 87 49 53 60
REMARK Flexibility Score: inf
ROOT
ATOM      1  C   UNL A   1      40.355  22.230  27.460  1.00  0.00     0.042 C 
ENDROOT
BRANCH   1   2
ATOM      2  C   UNL A   1      39.507  22.164  26.198  1.00  0.00     0.118 C 
BRANCH   2   3
ATOM      3  N   UNL A   1      38.377  23.065  26.294  1.00  0.00    -0.352 N 
ATOM      4  O   UNL A   1      37.114  21.932  24.755  1.00  0.00    -0.270 OA
ATOM      5  C   UNL A   1      37.293  22.901  25.483  1.00  0.00     0.244 C 
ATOM      6  H   UNL A   1      38.391  23.800  26.948  1.00  0.00     0.163 HD
BRANCH   5   7
ATOM      7  C   UNL A   1      36.226  23.912  25.607  1.00  0.00     0.072 C 
ATOM      8  C   UNL A   1      34.890  23.761  25.621  1.00  0.00     0.014 C 
BRANCH   8   9
ATOM      9  C   UNL A   1      33.978  24.922  25.503  1.00  0.00    -0.022 A 
ATOM     10  C   UNL A   1      32.737  24.922  26.152  1.00  0.00     0.010 A 
ATOM     11  C   UNL A   1      34.381  26.114  24.893  1.00  0.00     0.049 A 
ATOM     12  C   UNL A   1      32.040  26.098  26.387  1.00  0.00     0.030 A 
ATOM     13  C   UNL A   1      33.682  27.298  25.172  1.00  0.00     0.147 A 
ATOM     14  C   UNL A   1      32.596  27.304  26.054  1.00  0.00     0.078 A 
ATOM     15  F   UNL A   1      34.102  28.447  24.620  1.00  0.00    -0.205 F 
BRANCH  14  16
ATOM     16  N   UNL A   1      32.059  28.497  26.542  1.00  0.00    -0.305 N 
ATOM     17  C   UNL A   1      31.711  29.650  25.949  1.00  0.00     0.319 C 
ATOM     18  H   UNL A   1      31.906  28.493  27.515  1.00  0.00     0.171 HD
ATOM     19  O   UNL A   1      31.741  30.670  26.652  1.00  0.00    -0.248 OA
ATOM     20  N   UNL A   1      31.340  29.849  24.672  1.00  0.00    -0.335 N 
ATOM     21  H   UNL A   1      31.754  30.677  24.340  1.00  0.00     0.165 HD
BRANCH  20  22
ATOM     22  C   UNL A   1      30.520  29.246  23.596  1.00  0.00     0.083 C 
ATOM     23  C   UNL A   1      30.229  27.742  23.515  1.00  0.00     0.025 C 
ATOM     24  C   UNL A   1      29.240  29.971  23.185  1.00  0.00     0.025 C 
ATOM     25  C   UNL A   1      28.713  27.609  23.514  1.00  0.00     0.002 C 
ATOM     26  C   UNL A   1      28.200  28.890  22.882  1.00  0.00     0.002 C 
ENDBRANCH  20  22
ENDBRANCH  14  16
ENDBRANCH   8   9
ENDBRANCH   5   7
ENDBRANCH   2   3
ENDBRANCH   1   2
BRANCH   1  27
ATOM     27  C   UNL A   1      41.625  23.051  27.278  1.00  0.00     0.118 C 
BRANCH  27  28
ATOM     28  N   UNL A   1      41.549  23.966  26.148  1.00  0.00    -0.352 N 
ATOM     29  C   UNL A   1      41.333  25.326  26.154  1.00  0.00     0.251 C 
ATOM     30  H   UNL A   1      41.670  23.559  25.260  1.00  0.00     0.163 HD
ATOM     31  O   UNL A   1      41.155  25.929  25.110  1.00  0.00    -0.269 OA
BRANCH  29  32
ATOM     32  C   UNL A   1      41.288  26.033  27.453  1.00  0.00     0.039 A 
ATOM     33  C   UNL A   1      42.311  26.929  27.769  1.00  0.00     0.014 A 
ATOM     34  C   UNL A   1      40.208  25.851  28.321  1.00  0.00     0.014 A 
ATOM     35  C   UNL A   1      42.210  27.704  28.927  1.00  0.00     0.010 A 
ATOM     36  C   UNL A   1      40.073  26.677  29.430  1.00  0.00     0.010 A 
ATOM     37  C   UNL A   1      41.067  27.618  29.740  1.00  0.00    -0.014 A 
BRANCH  37  38
ATOM     38  C   UNL A   1      40.870  28.512  30.910  1.00  0.00     0.031 A 
ATOM     39  C   UNL A   1      39.821  29.588  30.862  1.00  0.00     0.074 A 
ATOM     40  C   UNL A   1      41.694  28.414  31.973  1.00  0.00     0.049 A 
ATOM     41  N   UNL A   1      39.592  30.554  31.712  1.00  0.00    -0.248 NA
ATOM     42  C   UNL A   1      38.927  29.591  29.692  1.00  0.00     0.031 C 
ATOM     43  C   UNL A   1      42.766  27.428  32.127  1.00  0.00     0.029 A 
ATOM     44  N   UNL A   1      41.770  29.164  33.121  1.00  0.00    -0.354 N 
ATOM     45  C   UNL A   1      38.540  31.286  31.177  1.00  0.00     0.074 A 
ATOM     46  C   UNL A   1      38.209  30.686  29.903  1.00  0.00     0.031 C 
ATOM     47  C   UNL A   1      43.378  27.621  33.305  1.00  0.00     0.029 A 
ATOM     48  C   UNL A   1      42.782  28.777  33.970  1.00  0.00     0.049 A 
ATOM     49  H   UNL A   1      41.159  29.910  33.318  1.00  0.00     0.167 HD
ATOM     50  C   UNL A   1      37.895  32.349  31.711  1.00  0.00     0.037 A 
ATOM     51  C   UNL A   1      43.198  29.303  35.140  1.00  0.00     0.037 A 
ATOM     52  C   UNL A   1      38.216  32.925  32.989  1.00  0.00     0.049 A 
ATOM     53  C   UNL A   1      42.494  30.513  35.692  1.00  0.00     0.074 A 
ATOM     54  C   UNL A   1      37.588  33.975  33.637  1.00  0.00     0.029 A 
ATOM     55  N   UNL A   1      39.248  32.504  33.816  1.00  0.00    -0.354 N 
ATOM     56  N   UNL A   1      41.475  31.170  35.191  1.00  0.00    -0.248 NA
ATOM     57  C   UNL A   1      42.996  31.059  36.961  1.00  0.00     0.031 C 
ATOM     58  C   UNL A   1      38.272  34.224  34.829  1.00  0.00     0.029 A 
ATOM     59  C   UNL A   1      39.291  33.291  34.954  1.00  0.00     0.049 A 
ATOM     60  H   UNL A   1      39.858  31.757  33.622  1.00  0.00     0.167 HD
ATOM     61  C   UNL A   1      41.198  32.189  36.096  1.00  0.00     0.074 A 
ATOM     62  C   UNL A   1      42.151  32.060  37.177  1.00  0.00     0.031 C 
ATOM     63  C   UNL A   1      40.238  33.143  36.033  1.00  0.00     0.037 A 
BRANCH  50  64
ATOM     64  C   UNL A   1      36.767  32.958  30.925  1.00  0.00     0.058 A 
ATOM     65  C   UNL A   1      37.028  33.857  29.878  1.00  0.00     0.135 A 
ATOM     66  C   UNL A   1      35.425  32.711  31.254  1.00  0.00     0.135 A 
ATOM     67  F   UNL A   1      38.292  34.126  29.516  1.00  0.00    -0.206 F 
ATOM     68  C   UNL A   1      36.000  34.501  29.199  1.00  0.00     0.059 A 
ATOM     69  C   UNL A   1      34.379  33.322  30.569  1.00  0.00     0.059 A 
ATOM     70  F   UNL A   1      35.119  31.844  32.234  1.00  0.00    -0.206 F 
ATOM     71  C   UNL A   1      34.678  34.228  29.552  1.00  0.00     0.060 A 
BRANCH  71  72
ATOM     72  S   UNL A   1      33.355  35.052  28.642  1.00  0.00     0.124 S 
ATOM     73  O   UNL A   1      32.775  33.947  27.888  1.00  0.00    -0.237 OA
ATOM     74  O   UNL A   1      32.533  35.589  29.721  1.00  0.00    -0.237 OA
ATOM     75  O   UNL A   1      34.063  36.053  27.847  1.00  0.00    -0.744 OA
ENDBRANCH  71  72
ENDBRANCH  50  64
BRANCH  51  76
ATOM     76  C   UNL A   1      44.330  28.671  35.871  1.00  0.00     0.058 A 
ATOM     77  C   UNL A   1      45.658  29.065  35.649  1.00  0.00     0.135 A 
ATOM     78  C   UNL A   1      44.102  27.627  36.781  1.00  0.00     0.135 A 
ATOM     79  F   UNL A   1      45.933  30.052  34.782  1.00  0.00    -0.206 F 
ATOM     80  C   UNL A   1      46.723  28.427  36.279  1.00  0.00     0.059 A 
ATOM     81  C   UNL A   1      45.149  26.992  37.444  1.00  0.00     0.059 A 
ATOM     82  F   UNL A   1      42.848  27.225  37.037  1.00  0.00    -0.206 F 
ATOM     83  C   UNL A   1      46.457  27.388  37.171  1.00  0.00     0.060 A 
BRANCH  83  84
ATOM     84  S   UNL A   1      47.855  26.560  37.962  1.00  0.00     0.124 S 
ATOM     85  O   UNL A   1      47.174  25.596  38.820  1.00  0.00    -0.237 OA
ATOM     86  O   UNL A   1      48.564  26.002  36.816  1.00  0.00    -0.237 OA
ATOM     87  O   UNL A   1      48.541  27.645  38.656  1.00  0.00    -0.744 OA
ENDBRANCH  83  84
ENDBRANCH  51  76
BRANCH  63  88
ATOM     88  C   UNL A   1      40.132  34.124  37.169  1.00  0.00     0.058 A 
ATOM     89  C   UNL A   1      39.289  33.855  38.260  1.00  0.00     0.135 A 
ATOM     90  C   UNL A   1      40.751  35.380  37.111  1.00  0.00     0.135 A 
ATOM     91  F   UNL A   1      38.669  32.669  38.361  1.00  0.00    -0.206 F 
ATOM     92  C   UNL A   1      39.032  34.815  39.233  1.00  0.00     0.059 A 
ATOM     93  C   UNL A   1      40.530  36.347  38.089  1.00  0.00     0.059 A 
ATOM     94  F   UNL A   1      41.576  35.682  36.095  1.00  0.00    -0.206 F 
ATOM     95  C   UNL A   1      39.648  36.062  39.131  1.00  0.00     0.060 A 
BRANCH  95  96
ATOM     96  S   UNL A   1      39.264  37.310  40.378  1.00  0.00     0.124 S 
ATOM     97  O   UNL A   1      40.595  37.746  40.787  1.00  0.00    -0.237 OA
ATOM     98  O   UNL A   1      38.485  38.278  39.613  1.00  0.00    -0.237 OA
ATOM     99  O   UNL A   1      38.512  36.565  41.384  1.00  0.00    -0.744 OA
ENDBRANCH  95  96
ENDBRANCH  63  88
ENDBRANCH  37  38
ENDBRANCH  29  32
ENDBRANCH  27  28
ENDBRANCH   1  27
TORSDOF 16
ENDMDL
MODEL 3
REMARK VINA RESULT:     -12.2      1.227      8.331
REMARK SMILES O=C(/C=C/c1ccc(NC(=O)NC2CCCC2)c(F)c1)NCCCNC(=O)c1ccc(-c2c3nc(c(-c4c(F)cc(S(=O)(=O)[O-])cc4F)c4ccc([nH]4)c(-c4c(F)cc(S(=O)(=O)[O-])cc4F)c4nc(c(-c5c(F)cc(S(=O)(=O)[O-])cc5F)c5ccc2[nH]5)C=C4)C=C3)cc1
REMARK SMILES IDX 23 1 22 2 21 3 1 4 2 5 3 7 4 8 5 9 6 10 20 11 7 12 18 13
REMARK SMILES IDX 8 14 19 15 9 16 10 17 11 19 12 20 13 22 14 23 17 24 15 25
REMARK SMILES IDX 16 26 24 27 25 28 26 29 27 31 28 32 29 33 93 34 30 35 92 36
REMARK SMILES IDX 31 37 32 38 33 39 86 40 34 41 91 42 85 43 87 44 35 45 90 46
REMARK SMILES IDX 84 47 83 48 36 50 70 51 49 52 69 53 50 54 53 55 68 56 88 57
REMARK SMILES IDX 51 58 52 59 67 61 89 62 54 63 37 64 38 65 47 66 39 67 40 68
REMARK SMILES IDX 46 69 48 70 41 71 42 72 43 73 44 74 45 75 71 76 72 77 81 78
REMARK SMILES IDX 73 79 74 80 80 81 82 82 75 83 76 84 77 85 78 86 79 87 55 88
REMARK SMILES IDX 56 89 65 90 57 91 58 92 64 93 66 94 59 95 60 96 61 97 62 98
REMARK SMILES IDX 63 99
REMARK H PARENT 21 6 9 18 12 21 25 30 87 49 53 60
REMARK Flexibility Score: inf
ROOT
ATOM      1  C   UNL A   1      40.376  22.427  27.494  1.00  0.00     0.042 C 
ENDROOT
BRANCH   1   2
ATOM      2  C   UNL A   1      39.890  21.703  26.247  1.00  0.00     0.118 C 
BRANCH   2   3
ATOM      3  N   UNL A   1      38.684  22.319  25.735  1.00  0.00    -0.352 N 
ATOM      4  O   UNL A   1      37.854  20.378  24.846  1.00  0.00    -0.270 OA
ATOM      5  C   UNL A   1      37.798  21.592  24.997  1.00  0.00     0.244 C 
ATOM      6  H   UNL A   1      38.502  23.268  25.922  1.00  0.00     0.163 HD
BRANCH   5   7
ATOM      7  C   UNL A   1      36.637  22.329  24.460  1.00  0.00     0.072 C 
ATOM      8  C   UNL A   1      35.344  22.289  24.827  1.00  0.00     0.014 C 
BRANCH   8   9
ATOM      9  C   UNL A   1      34.285  22.916  24.003  1.00  0.00    -0.022 A 
ATOM     10  C   UNL A   1      32.994  22.375  23.968  1.00  0.00     0.010 A 
ATOM     11  C   UNL A   1      34.478  24.151  23.374  1.00  0.00     0.049 A 
ATOM     12  C   UNL A   1      31.905  23.119  23.539  1.00  0.00     0.030 A 
ATOM     13  C   UNL A   1      33.361  24.903  22.981  1.00  0.00     0.147 A 
ATOM     14  C   UNL A   1      32.061  24.439  23.213  1.00  0.00     0.078 A 
ATOM     15  F   UNL A   1      33.551  26.107  22.419  1.00  0.00    -0.205 F 
BRANCH  14  16
ATOM     16  N   UNL A   1      30.952  25.276  23.070  1.00  0.00    -0.305 N 
ATOM     17  C   UNL A   1      30.123  25.851  23.955  1.00  0.00     0.319 C 
ATOM     18  H   UNL A   1      30.734  25.486  22.132  1.00  0.00     0.171 HD
ATOM     19  O   UNL A   1      28.978  26.110  23.559  1.00  0.00    -0.248 OA
ATOM     20  N   UNL A   1      30.370  26.175  25.236  1.00  0.00    -0.335 N 
ATOM     21  H   UNL A   1      29.586  25.951  25.784  1.00  0.00     0.165 HD
BRANCH  20  22
ATOM     22  C   UNL A   1      31.423  26.757  26.102  1.00  0.00     0.083 C 
ATOM     23  C   UNL A   1      32.747  26.041  26.396  1.00  0.00     0.025 C 
ATOM     24  C   UNL A   1      31.746  28.240  25.931  1.00  0.00     0.025 C 
ATOM     25  C   UNL A   1      33.846  26.995  25.950  1.00  0.00     0.002 C 
ATOM     26  C   UNL A   1      33.258  28.385  26.110  1.00  0.00     0.002 C 
ENDBRANCH  20  22
ENDBRANCH  14  16
ENDBRANCH   8   9
ENDBRANCH   5   7
ENDBRANCH   2   3
ENDBRANCH   1   2
BRANCH   1  27
ATOM     27  C   UNL A   1      41.720  23.114  27.295  1.00  0.00     0.118 C 
BRANCH  27  28
ATOM     28  N   UNL A   1      41.749  23.968  26.115  1.00  0.00    -0.352 N 
ATOM     29  C   UNL A   1      41.600  25.335  26.038  1.00  0.00     0.251 C 
ATOM     30  H   UNL A   1      41.895  23.507  25.258  1.00  0.00     0.163 HD
ATOM     31  O   UNL A   1      41.507  25.886  24.956  1.00  0.00    -0.269 OA
BRANCH  29  32
ATOM     32  C   UNL A   1      41.523  26.113  27.294  1.00  0.00     0.039 A 
ATOM     33  C   UNL A   1      42.574  26.972  27.621  1.00  0.00     0.014 A 
ATOM     34  C   UNL A   1      40.389  26.035  28.107  1.00  0.00     0.014 A 
ATOM     35  C   UNL A   1      42.452  27.814  28.729  1.00  0.00     0.010 A 
ATOM     36  C   UNL A   1      40.238  26.926  29.162  1.00  0.00     0.010 A 
ATOM     37  C   UNL A   1      41.264  27.832  29.478  1.00  0.00    -0.014 A 
BRANCH  37  38
ATOM     38  C   UNL A   1      41.052  28.797  30.587  1.00  0.00     0.031 A 
ATOM     39  C   UNL A   1      41.865  28.682  31.846  1.00  0.00     0.074 A 
ATOM     40  C   UNL A   1      40.070  29.717  30.496  1.00  0.00     0.049 A 
ATOM     41  N   UNL A   1      41.734  29.329  32.974  1.00  0.00    -0.248 NA
ATOM     42  C   UNL A   1      42.954  27.691  31.844  1.00  0.00     0.031 C 
ATOM     43  C   UNL A   1      39.196  29.911  29.336  1.00  0.00     0.029 A 
ATOM     44  N   UNL A   1      39.627  30.650  31.401  1.00  0.00    -0.354 N 
ATOM     45  C   UNL A   1      42.712  28.817  33.819  1.00  0.00     0.074 A 
ATOM     46  C   UNL A   1      43.395  27.770  33.092  1.00  0.00     0.031 C 
ATOM     47  C   UNL A   1      38.339  30.912  29.592  1.00  0.00     0.029 A 
ATOM     48  C   UNL A   1      38.561  31.395  30.951  1.00  0.00     0.049 A 
ATOM     49  H   UNL A   1      40.034  30.774  32.288  1.00  0.00     0.167 HD
ATOM     50  C   UNL A   1      43.024  29.203  35.077  1.00  0.00     0.037 A 
ATOM     51  C   UNL A   1      37.830  32.346  31.569  1.00  0.00     0.037 A 
ATOM     52  C   UNL A   1      42.354  30.262  35.783  1.00  0.00     0.049 A 
ATOM     53  C   UNL A   1      38.167  32.727  32.985  1.00  0.00     0.074 A 
ATOM     54  C   UNL A   1      42.630  30.758  37.046  1.00  0.00     0.029 A 
ATOM     55  N   UNL A   1      41.279  30.990  35.294  1.00  0.00    -0.354 N 
ATOM     56  N   UNL A   1      39.121  32.260  33.756  1.00  0.00    -0.248 NA
ATOM     57  C   UNL A   1      37.332  33.755  33.620  1.00  0.00     0.031 C 
ATOM     58  C   UNL A   1      41.690  31.747  37.341  1.00  0.00     0.029 A 
ATOM     59  C   UNL A   1      40.864  31.912  36.240  1.00  0.00     0.049 A 
ATOM     60  H   UNL A   1      40.872  30.870  34.406  1.00  0.00     0.167 HD
ATOM     61  C   UNL A   1      39.015  32.955  34.955  1.00  0.00     0.074 A 
ATOM     62  C   UNL A   1      37.911  33.879  34.808  1.00  0.00     0.031 C 
ATOM     63  C   UNL A   1      39.769  32.837  36.076  1.00  0.00     0.037 A 
BRANCH  50  64
ATOM     64  C   UNL A   1      44.147  28.488  35.776  1.00  0.00     0.058 A 
ATOM     65  C   UNL A   1      45.479  28.892  35.587  1.00  0.00     0.135 A 
ATOM     66  C   UNL A   1      43.914  27.356  36.573  1.00  0.00     0.135 A 
ATOM     67  F   UNL A   1      45.760  29.971  34.839  1.00  0.00    -0.206 F 
ATOM     68  C   UNL A   1      46.539  28.190  36.149  1.00  0.00     0.059 A 
ATOM     69  C   UNL A   1      44.958  26.655  37.169  1.00  0.00     0.059 A 
ATOM     70  F   UNL A   1      42.659  26.939  36.802  1.00  0.00    -0.206 F 
ATOM     71  C   UNL A   1      46.269  27.072  36.939  1.00  0.00     0.060 A 
BRANCH  71  72
ATOM     72  S   UNL A   1      47.655  26.187  37.684  1.00  0.00     0.124 S 
ATOM     73  O   UNL A   1      46.995  25.429  38.740  1.00  0.00    -0.237 OA
ATOM     74  O   UNL A   1      48.158  25.408  36.558  1.00  0.00    -0.237 OA
ATOM     75  O   UNL A   1      48.537  27.260  38.136  1.00  0.00    -0.744 OA
ENDBRANCH  71  72
ENDBRANCH  50  64
BRANCH  51  76
ATOM     76  C   UNL A   1      36.718  33.012  30.837  1.00  0.00     0.058 A 
ATOM     77  C   UNL A   1      36.962  34.011  29.882  1.00  0.00     0.135 A 
ATOM     78  C   UNL A   1      35.382  32.686  31.114  1.00  0.00     0.135 A 
ATOM     79  F   UNL A   1      38.222  34.368  29.587  1.00  0.00    -0.206 F 
ATOM     80  C   UNL A   1      35.922  34.684  29.250  1.00  0.00     0.059 A 
ATOM     81  C   UNL A   1      34.324  33.327  30.473  1.00  0.00     0.059 A 
ATOM     82  F   UNL A   1      35.098  31.727  32.008  1.00  0.00    -0.206 F 
ATOM     83  C   UNL A   1      34.606  34.337  29.556  1.00  0.00     0.060 A 
BRANCH  83  84
ATOM     84  S   UNL A   1      33.271  35.239  28.739  1.00  0.00     0.124 S 
ATOM     85  O   UNL A   1      32.463  35.658  29.880  1.00  0.00    -0.237 OA
ATOM     86  O   UNL A   1      33.998  36.300  28.051  1.00  0.00    -0.237 OA
ATOM     87  O   UNL A   1      32.663  34.233  27.874  1.00  0.00    -0.744 OA
ENDBRANCH  83  84
ENDBRANCH  51  76
BRANCH  63  88
ATOM     88  C   UNL A   1      39.460  33.737  37.241  1.00  0.00     0.058 A 
ATOM     89  C   UNL A   1      40.065  35.002  37.339  1.00  0.00     0.135 A 
ATOM     90  C   UNL A   1      38.681  33.297  38.320  1.00  0.00     0.135 A 
ATOM     91  F   UNL A   1      40.824  35.469  36.334  1.00  0.00    -0.206 F 
ATOM     92  C   UNL A   1      39.942  35.779  38.484  1.00  0.00     0.059 A 
ATOM     93  C   UNL A   1      38.521  34.071  39.467  1.00  0.00     0.059 A 
ATOM     94  F   UNL A   1      38.071  32.102  38.270  1.00  0.00    -0.206 F 
ATOM     95  C   UNL A   1      39.178  35.299  39.548  1.00  0.00     0.060 A 
BRANCH  95  96
ATOM     96  S   UNL A   1      39.070  36.302  41.046  1.00  0.00     0.124 S 
ATOM     97  O   UNL A   1      37.949  35.680  41.743  1.00  0.00    -0.237 OA
ATOM     98  O   UNL A   1      40.384  36.099  41.646  1.00  0.00    -0.237 OA
ATOM     99  O   UNL A   1      38.822  37.648  40.536  1.00  0.00    -0.744 OA
ENDBRANCH  95  96
ENDBRANCH  63  88
ENDBRANCH  37  38
ENDBRANCH  29  32
ENDBRANCH  27  28
ENDBRANCH   1  27
TORSDOF 16
ENDMDL
