MODEL 1
REMARK VINA RESULT:     -11.3      0.000      0.000
REMARK SMILES CC[C@]1(C(=O)NCCCNC(=O)c2ccc(-c3c4nc(c(-c5c(F)cc(S(=O)(=O)[O-])cc5F)c5ccc([nH]5)c(-c5c(F)cc(S(=O)(=O)[O-])cc5F)c5nc(c(-c6c(F)cc(S(=O)(=O)[O-])cc6F)c6ccc3[nH]6)C=C5)C=C4)cc2)CCCN(S(=O)(=O)CCOC(C)C)C1
REMARK SMILES IDX 7 1 6 2 4 3 5 4 3 6 79 7 92 8 80 9 82 10 81 11 2 12 1 13
REMARK SMILES IDX 83 14 84 15 85 16 86 17 87 18 88 19 89 20 90 21 91 22 8 23
REMARK SMILES IDX 9 24 10 25 11 26 12 28 13 29 14 30 78 31 15 32 77 33 16 34
REMARK SMILES IDX 17 35 18 36 71 37 19 38 76 39 70 40 72 41 20 42 75 43 69 44
REMARK SMILES IDX 68 45 21 47 55 48 34 49 54 50 35 51 38 52 53 53 73 54 36 55
REMARK SMILES IDX 37 56 52 58 74 59 39 60 22 61 23 62 32 63 24 64 25 65 31 66
REMARK SMILES IDX 33 67 26 68 27 69 28 70 29 71 30 72 56 73 57 74 66 75 58 76
REMARK SMILES IDX 59 77 65 78 67 79 60 80 61 81 62 82 63 83 64 84 40 85 41 86
REMARK SMILES IDX 50 87 42 88 43 89 49 90 51 91 44 92 45 93 46 94 47 95 48 96
REMARK H PARENT 6 5 10 27 72 46 38 57
REMARK Flexibility Score: inf
ROOT
ATOM      1  C   UNL A   1      36.330  23.573  25.743  1.00  0.00     0.117 C 
ENDROOT
BRANCH   1   2
ATOM      2  N   UNL A   1      35.642  22.678  26.659  1.00  0.00    -0.356 N 
ATOM      3  C   UNL A   1      34.341  22.305  26.782  1.00  0.00     0.227 C 
ATOM      4  O   UNL A   1      34.131  21.467  27.664  1.00  0.00    -0.274 OA
ATOM      5  H   UNL A   1      36.237  22.259  27.322  1.00  0.00     0.163 HD
BRANCH   3   6
ATOM      6  C   UNL A   1      33.219  22.830  25.838  1.00  0.00     0.063 C 
ATOM      7  C   UNL A   1      31.854  22.209  26.224  1.00  0.00     0.019 C 
ATOM      8  C   UNL A   1      33.280  24.382  26.013  1.00  0.00     0.119 C 
ATOM      9  C   UNL A   1      30.636  23.077  25.917  1.00  0.00     0.018 C 
ATOM     10  N   UNL A   1      31.992  25.099  25.751  1.00  0.00    -0.201 NA
ATOM     11  C   UNL A   1      30.812  24.497  26.415  1.00  0.00     0.102 C 
BRANCH   6  12
ATOM     12  C   UNL A   1      33.639  22.410  24.367  1.00  0.00     0.015 C 
ATOM     13  C   UNL A   1      33.025  21.166  23.731  1.00  0.00     0.005 C 
ENDBRANCH   6  12
BRANCH  10  14
ATOM     14  S   UNL A   1      32.101  26.809  25.921  1.00  0.00     0.216 S 
ATOM     15  O   UNL A   1      31.084  27.201  26.882  1.00  0.00    -0.212 OA
ATOM     16  O   UNL A   1      33.484  27.151  26.150  1.00  0.00    -0.212 OA
BRANCH  14  17
ATOM     17  C   UNL A   1      31.603  27.386  24.290  1.00  0.00     0.182 C 
BRANCH  17  18
ATOM     18  C   UNL A   1      31.661  28.903  24.137  1.00  0.00     0.178 C 
BRANCH  18  19
ATOM     19  O   UNL A   1      30.420  29.565  24.409  1.00  0.00    -0.378 OA
BRANCH  19  20
ATOM     20  C   UNL A   1      29.688  30.123  23.316  1.00  0.00     0.112 C 
ATOM     21  C   UNL A   1      28.791  29.133  22.571  1.00  0.00     0.038 C 
ATOM     22  C   UNL A   1      28.897  31.339  23.721  1.00  0.00     0.038 C 
ENDBRANCH  19  20
ENDBRANCH  18  19
ENDBRANCH  17  18
ENDBRANCH  14  17
ENDBRANCH  10  14
ENDBRANCH   3   6
ENDBRANCH   1   2
BRANCH   1  23
ATOM     23  C   UNL A   1      37.803  23.231  25.617  1.00  0.00     0.042 C 
BRANCH  23  24
ATOM     24  C   UNL A   1      38.669  24.015  26.584  1.00  0.00     0.118 C 
BRANCH  24  25
ATOM     25  N   UNL A   1      40.076  23.963  26.216  1.00  0.00    -0.352 N 
ATOM     26  C   UNL A   1      41.082  24.851  26.501  1.00  0.00     0.251 C 
ATOM     27  H   UNL A   1      40.344  23.177  25.688  1.00  0.00     0.163 HD
ATOM     28  O   UNL A   1      42.143  24.790  25.886  1.00  0.00    -0.269 OA
BRANCH  26  29
ATOM     29  C   UNL A   1      40.871  25.883  27.535  1.00  0.00     0.039 A 
ATOM     30  C   UNL A   1      39.869  25.702  28.490  1.00  0.00     0.014 A 
ATOM     31  C   UNL A   1      41.668  27.029  27.562  1.00  0.00     0.014 A 
ATOM     32  C   UNL A   1      39.713  26.644  29.508  1.00  0.00     0.010 A 
ATOM     33  C   UNL A   1      41.589  27.902  28.638  1.00  0.00     0.010 A 
ATOM     34  C   UNL A   1      40.596  27.731  29.611  1.00  0.00    -0.014 A 
BRANCH  34  35
ATOM     35  C   UNL A   1      40.482  28.725  30.707  1.00  0.00     0.031 A 
ATOM     36  C   UNL A   1      41.355  28.592  31.927  1.00  0.00     0.074 A 
ATOM     37  C   UNL A   1      39.553  29.698  30.634  1.00  0.00     0.049 A 
ATOM     38  N   UNL A   1      41.351  29.302  33.025  1.00  0.00    -0.248 NA
ATOM     39  C   UNL A   1      42.339  27.496  31.928  1.00  0.00     0.031 C 
ATOM     40  C   UNL A   1      38.612  29.892  29.526  1.00  0.00     0.029 A 
ATOM     41  N   UNL A   1      39.238  30.702  31.513  1.00  0.00    -0.354 N 
ATOM     42  C   UNL A   1      42.313  28.728  33.849  1.00  0.00     0.074 A 
ATOM     43  C   UNL A   1      42.835  27.574  33.153  1.00  0.00     0.031 C 
ATOM     44  C   UNL A   1      37.847  30.965  29.781  1.00  0.00     0.029 A 
ATOM     45  C   UNL A   1      38.212  31.511  31.084  1.00  0.00     0.049 A 
ATOM     46  H   UNL A   1      39.703  30.833  32.371  1.00  0.00     0.167 HD
ATOM     47  C   UNL A   1      42.744  29.144  35.063  1.00  0.00     0.037 A 
ATOM     48  C   UNL A   1      37.627  32.569  31.680  1.00  0.00     0.037 A 
ATOM     49  C   UNL A   1      42.245  30.315  35.731  1.00  0.00     0.049 A 
ATOM     50  C   UNL A   1      38.127  33.015  33.027  1.00  0.00     0.074 A 
ATOM     51  C   UNL A   1      42.658  30.861  36.933  1.00  0.00     0.029 A 
ATOM     52  N   UNL A   1      41.224  31.124  35.252  1.00  0.00    -0.354 N 
ATOM     53  N   UNL A   1      39.084  32.498  33.763  1.00  0.00    -0.248 NA
ATOM     54  C   UNL A   1      37.476  34.189  33.622  1.00  0.00     0.031 C 
ATOM     55  C   UNL A   1      41.855  31.974  37.204  1.00  0.00     0.029 A 
ATOM     56  C   UNL A   1      40.978  32.153  36.146  1.00  0.00     0.049 A 
ATOM     57  H   UNL A   1      40.745  30.986  34.404  1.00  0.00     0.167 HD
ATOM     58  C   UNL A   1      39.167  33.302  34.895  1.00  0.00     0.074 A 
ATOM     59  C   UNL A   1      38.174  34.345  34.739  1.00  0.00     0.031 C 
ATOM     60  C   UNL A   1      39.990  33.187  35.966  1.00  0.00     0.037 A 
BRANCH  47  61
ATOM     61  C   UNL A   1      43.818  28.334  35.738  1.00  0.00     0.058 A 
ATOM     62  C   UNL A   1      45.182  28.572  35.502  1.00  0.00     0.135 A 
ATOM     63  C   UNL A   1      43.481  27.329  36.660  1.00  0.00     0.135 A 
ATOM     64  F   UNL A   1      45.561  29.508  34.616  1.00  0.00    -0.206 F 
ATOM     65  C   UNL A   1      46.172  27.827  36.132  1.00  0.00     0.059 A 
ATOM     66  C   UNL A   1      44.456  26.592  37.326  1.00  0.00     0.059 A 
ATOM     67  F   UNL A   1      42.194  27.056  36.923  1.00  0.00    -0.206 F 
ATOM     68  C   UNL A   1      45.799  26.840  37.045  1.00  0.00     0.060 A 
BRANCH  68  69
ATOM     69  S   UNL A   1      47.099  25.892  37.865  1.00  0.00     0.124 S 
ATOM     70  O   UNL A   1      47.677  26.898  38.751  1.00  0.00    -0.237 OA
ATOM     71  O   UNL A   1      46.343  24.831  38.521  1.00  0.00    -0.237 OA
ATOM     72  O   UNL A   1      47.953  25.462  36.763  1.00  0.00    -0.744 OA
ENDBRANCH  68  69
ENDBRANCH  47  61
BRANCH  48  73
ATOM     73  C   UNL A   1      36.518  33.288  30.998  1.00  0.00     0.058 A 
ATOM     74  C   UNL A   1      35.196  33.180  31.457  1.00  0.00     0.135 A 
ATOM     75  C   UNL A   1      36.755  34.104  29.881  1.00  0.00     0.135 A 
ATOM     76  F   UNL A   1      34.918  32.410  32.521  1.00  0.00    -0.206 F 
ATOM     77  C   UNL A   1      34.146  33.836  30.822  1.00  0.00     0.059 A 
ATOM     78  C   UNL A   1      35.726  34.792  29.245  1.00  0.00     0.059 A 
ATOM     79  F   UNL A   1      38.003  34.258  29.411  1.00  0.00    -0.206 F 
ATOM     80  C   UNL A   1      34.422  34.641  29.716  1.00  0.00     0.060 A 
BRANCH  80  81
ATOM     81  S   UNL A   1      33.058  35.520  28.923  1.00  0.00     0.124 S 
ATOM     82  O   UNL A   1      33.772  36.507  28.122  1.00  0.00    -0.237 OA
ATOM     83  O   UNL A   1      32.395  34.451  28.182  1.00  0.00    -0.237 OA
ATOM     84  O   UNL A   1      32.300  36.051  30.053  1.00  0.00    -0.744 OA
ENDBRANCH  80  81
ENDBRANCH  48  73
BRANCH  60  85
ATOM     85  C   UNL A   1      39.877  34.233  37.041  1.00  0.00     0.058 A 
ATOM     86  C   UNL A   1      40.472  35.497  36.905  1.00  0.00     0.135 A 
ATOM     87  C   UNL A   1      39.117  33.985  38.194  1.00  0.00     0.135 A 
ATOM     88  F   UNL A   1      41.215  35.782  35.825  1.00  0.00    -0.206 F 
ATOM     89  C   UNL A   1      40.336  36.470  37.889  1.00  0.00     0.059 A 
ATOM     90  C   UNL A   1      38.943  34.954  39.176  1.00  0.00     0.059 A 
ATOM     91  F   UNL A   1      38.518  32.795  38.367  1.00  0.00    -0.206 F 
ATOM     92  C   UNL A   1      39.567  36.190  39.020  1.00  0.00     0.060 A 
BRANCH  92  93
ATOM     93  S   UNL A   1      39.369  37.476  40.271  1.00  0.00     0.124 S 
ATOM     94  O   UNL A   1      38.560  38.459  39.558  1.00  0.00    -0.237 OA
ATOM     95  O   UNL A   1      38.693  36.760  41.349  1.00  0.00    -0.237 OA
ATOM     96  O   UNL A   1      40.741  37.883  40.561  1.00  0.00    -0.744 OA
ENDBRANCH  92  93
ENDBRANCH  60  85
ENDBRANCH  34  35
ENDBRANCH  26  29
ENDBRANCH  24  25
ENDBRANCH  23  24
ENDBRANCH   1  23
TORSDOF 19
ENDMDL
MODEL 2
REMARK VINA RESULT:     -11.1      6.340     10.987
REMARK SMILES CC[C@]1(C(=O)NCCCNC(=O)c2ccc(-c3c4nc(c(-c5c(F)cc(S(=O)(=O)[O-])cc5F)c5ccc([nH]5)c(-c5c(F)cc(S(=O)(=O)[O-])cc5F)c5nc(c(-c6c(F)cc(S(=O)(=O)[O-])cc6F)c6ccc3[nH]6)C=C5)C=C4)cc2)CCCN(S(=O)(=O)CCOC(C)C)C1
REMARK SMILES IDX 7 1 6 2 4 3 5 4 3 6 79 7 92 8 80 9 82 10 81 11 2 12 1 13
REMARK SMILES IDX 83 14 84 15 85 16 86 17 87 18 88 19 89 20 90 21 91 22 8 23
REMARK SMILES IDX 9 24 10 25 11 26 12 28 13 29 14 30 78 31 15 32 77 33 16 34
REMARK SMILES IDX 17 35 18 36 71 37 19 38 76 39 70 40 72 41 20 42 75 43 69 44
REMARK SMILES IDX 68 45 21 47 55 48 34 49 54 50 35 51 38 52 53 53 73 54 36 55
REMARK SMILES IDX 37 56 52 58 74 59 39 60 22 61 23 62 32 63 24 64 25 65 31 66
REMARK SMILES IDX 33 67 26 68 27 69 28 70 29 71 30 72 56 73 57 74 66 75 58 76
REMARK SMILES IDX 59 77 65 78 67 79 60 80 61 81 62 82 63 83 64 84 40 85 41 86
REMARK SMILES IDX 50 87 42 88 43 89 49 90 51 91 44 92 45 93 46 94 47 95 48 96
REMARK H PARENT 6 5 10 27 72 46 38 57
REMARK Flexibility Score: inf
ROOT
ATOM      1  C   UNL A   1      37.036  21.058  24.867  1.00  0.00     0.117 C 
ENDROOT
BRANCH   1   2
ATOM      2  N   UNL A   1      36.128  21.074  26.001  1.00  0.00    -0.356 N 
ATOM      3  C   UNL A   1      34.972  21.744  26.250  1.00  0.00     0.227 C 
ATOM      4  O   UNL A   1      34.437  21.460  27.325  1.00  0.00    -0.274 OA
ATOM      5  H   UNL A   1      36.405  20.481  26.737  1.00  0.00     0.163 HD
BRANCH   3   6
ATOM      6  C   UNL A   1      34.333  22.731  25.228  1.00  0.00     0.063 C 
ATOM      7  C   UNL A   1      33.726  21.953  24.034  1.00  0.00     0.019 C 
ATOM      8  C   UNL A   1      33.277  23.513  26.075  1.00  0.00     0.119 C 
ATOM      9  C   UNL A   1      32.530  22.624  23.363  1.00  0.00     0.018 C 
ATOM     10  N   UNL A   1      32.117  24.053  25.298  1.00  0.00    -0.201 NA
ATOM     11  C   UNL A   1      31.494  23.078  24.372  1.00  0.00     0.102 C 
BRANCH   6  12
ATOM     12  C   UNL A   1      35.497  23.694  24.746  1.00  0.00     0.015 C 
ATOM     13  C   UNL A   1      36.318  24.464  25.778  1.00  0.00     0.005 C 
ENDBRANCH   6  12
BRANCH  10  14
ATOM     14  S   UNL A   1      30.989  24.936  26.254  1.00  0.00     0.216 S 
ATOM     15  O   UNL A   1      30.251  23.961  27.040  1.00  0.00    -0.212 OA
ATOM     16  O   UNL A   1      31.699  26.008  26.909  1.00  0.00    -0.212 OA
BRANCH  14  17
ATOM     17  C   UNL A   1      29.887  25.621  25.007  1.00  0.00     0.182 C 
BRANCH  17  18
ATOM     18  C   UNL A   1      30.355  26.962  24.451  1.00  0.00     0.178 C 
BRANCH  18  19
ATOM     19  O   UNL A   1      31.294  26.852  23.375  1.00  0.00    -0.378 OA
BRANCH  19  20
ATOM     20  C   UNL A   1      32.483  27.644  23.421  1.00  0.00     0.112 C 
ATOM     21  C   UNL A   1      32.335  28.985  24.144  1.00  0.00     0.038 C 
ATOM     22  C   UNL A   1      33.656  26.880  23.978  1.00  0.00     0.038 C 
ENDBRANCH  19  20
ENDBRANCH  18  19
ENDBRANCH  17  18
ENDBRANCH  14  17
ENDBRANCH  10  14
ENDBRANCH   3   6
ENDBRANCH   1   2
BRANCH   1  23
ATOM     23  C   UNL A   1      38.093  19.978  25.002  1.00  0.00     0.042 C 
BRANCH  23  24
ATOM     24  C   UNL A   1      39.323  20.455  25.752  1.00  0.00     0.118 C 
BRANCH  24  25
ATOM     25  N   UNL A   1      40.264  19.372  25.991  1.00  0.00    -0.352 N 
ATOM     26  C   UNL A   1      41.628  19.423  26.140  1.00  0.00     0.251 C 
ATOM     27  H   UNL A   1      39.866  18.474  26.057  1.00  0.00     0.163 HD
ATOM     28  O   UNL A   1      42.289  18.392  26.063  1.00  0.00    -0.269 OA
BRANCH  26  29
ATOM     29  C   UNL A   1      42.286  20.723  26.373  1.00  0.00     0.039 A 
ATOM     30  C   UNL A   1      42.730  21.472  25.282  1.00  0.00     0.014 A 
ATOM     31  C   UNL A   1      42.460  21.203  27.673  1.00  0.00     0.014 A 
ATOM     32  C   UNL A   1      43.291  22.732  25.498  1.00  0.00     0.010 A 
ATOM     33  C   UNL A   1      42.909  22.500  27.878  1.00  0.00     0.010 A 
ATOM     34  C   UNL A   1      43.351  23.271  26.795  1.00  0.00    -0.014 A 
BRANCH  34  35
ATOM     35  C   UNL A   1      43.901  24.625  27.050  1.00  0.00     0.031 A 
ATOM     36  C   UNL A   1      42.981  25.734  27.484  1.00  0.00     0.074 A 
ATOM     37  C   UNL A   1      45.208  24.869  26.826  1.00  0.00     0.049 A 
ATOM     38  N   UNL A   1      43.247  27.000  27.676  1.00  0.00    -0.248 NA
ATOM     39  C   UNL A   1      41.566  25.383  27.699  1.00  0.00     0.031 C 
ATOM     40  C   UNL A   1      46.185  23.885  26.349  1.00  0.00     0.029 A 
ATOM     41  N   UNL A   1      45.938  26.022  26.960  1.00  0.00    -0.354 N 
ATOM     42  C   UNL A   1      42.036  27.594  28.012  1.00  0.00     0.074 A 
ATOM     43  C   UNL A   1      41.022  26.566  27.936  1.00  0.00     0.031 C 
ATOM     44  C   UNL A   1      47.390  24.471  26.259  1.00  0.00     0.029 A 
ATOM     45  C   UNL A   1      47.265  25.877  26.629  1.00  0.00     0.049 A 
ATOM     46  H   UNL A   1      45.550  26.873  27.264  1.00  0.00     0.167 HD
ATOM     47  C   UNL A   1      41.795  28.874  28.382  1.00  0.00     0.037 A 
ATOM     48  C   UNL A   1      48.266  26.779  26.619  1.00  0.00     0.037 A 
ATOM     49  C   UNL A   1      42.816  29.881  28.491  1.00  0.00     0.049 A 
ATOM     50  C   UNL A   1      47.974  28.195  27.039  1.00  0.00     0.074 A 
ATOM     51  C   UNL A   1      42.691  31.190  28.918  1.00  0.00     0.029 A 
ATOM     52  N   UNL A   1      44.153  29.688  28.174  1.00  0.00    -0.354 N 
ATOM     53  N   UNL A   1      46.834  28.723  27.417  1.00  0.00    -0.248 NA
ATOM     54  C   UNL A   1      49.103  29.133  27.038  1.00  0.00     0.031 C 
ATOM     55  C   UNL A   1      43.943  31.803  28.815  1.00  0.00     0.029 A 
ATOM     56  C   UNL A   1      44.860  30.862  28.375  1.00  0.00     0.049 A 
ATOM     57  H   UNL A   1      44.542  28.843  27.853  1.00  0.00     0.167 HD
ATOM     58  C   UNL A   1      47.115  30.049  27.725  1.00  0.00     0.074 A 
ATOM     59  C   UNL A   1      48.534  30.238  27.502  1.00  0.00     0.031 C 
ATOM     60  C   UNL A   1      46.276  31.025  28.155  1.00  0.00     0.037 A 
BRANCH  47  61
ATOM     61  C   UNL A   1      40.376  29.252  28.709  1.00  0.00     0.058 A 
ATOM     62  C   UNL A   1      39.416  29.458  27.704  1.00  0.00     0.135 A 
ATOM     63  C   UNL A   1      39.959  29.375  30.045  1.00  0.00     0.135 A 
ATOM     64  F   UNL A   1      39.763  29.372  26.410  1.00  0.00    -0.206 F 
ATOM     65  C   UNL A   1      38.103  29.800  28.009  1.00  0.00     0.059 A 
ATOM     66  C   UNL A   1      38.643  29.685  30.374  1.00  0.00     0.059 A 
ATOM     67  F   UNL A   1      40.833  29.191  31.046  1.00  0.00    -0.206 F 
ATOM     68  C   UNL A   1      37.725  29.909  29.348  1.00  0.00     0.060 A 
BRANCH  68  69
ATOM     69  S   UNL A   1      36.013  30.340  29.726  1.00  0.00     0.124 S 
ATOM     70  O   UNL A   1      35.310  29.765  28.582  1.00  0.00    -0.237 OA
ATOM     71  O   UNL A   1      35.798  29.669  31.003  1.00  0.00    -0.237 OA
ATOM     72  O   UNL A   1      36.033  31.798  29.781  1.00  0.00    -0.744 OA
ENDBRANCH  68  69
ENDBRANCH  47  61
BRANCH  48  73
ATOM     73  C   UNL A   1      49.637  26.366  26.216  1.00  0.00     0.058 A 
ATOM     74  C   UNL A   1      50.459  25.641  27.093  1.00  0.00     0.135 A 
ATOM     75  C   UNL A   1      50.151  26.679  24.948  1.00  0.00     0.135 A 
ATOM     76  F   UNL A   1      50.014  25.321  28.317  1.00  0.00    -0.206 F 
ATOM     77  C   UNL A   1      51.749  25.260  26.736  1.00  0.00     0.059 A 
ATOM     78  C   UNL A   1      51.427  26.285  24.559  1.00  0.00     0.059 A 
ATOM     79  F   UNL A   1      49.399  27.354  24.064  1.00  0.00    -0.206 F 
ATOM     80  C   UNL A   1      52.224  25.586  25.465  1.00  0.00     0.060 A 
BRANCH  80  81
ATOM     81  S   UNL A   1      53.884  25.052  24.998  1.00  0.00     0.124 S 
ATOM     82  O   UNL A   1      53.724  23.604  24.951  1.00  0.00    -0.237 OA
ATOM     83  O   UNL A   1      54.070  25.718  23.713  1.00  0.00    -0.237 OA
ATOM     84  O   UNL A   1      54.718  25.560  26.084  1.00  0.00    -0.744 OA
ENDBRANCH  80  81
ENDBRANCH  48  73
BRANCH  60  85
ATOM     85  C   UNL A   1      46.872  32.374  28.443  1.00  0.00     0.058 A 
ATOM     86  C   UNL A   1      46.925  33.381  27.467  1.00  0.00     0.135 A 
ATOM     87  C   UNL A   1      47.346  32.679  29.729  1.00  0.00     0.135 A 
ATOM     88  F   UNL A   1      46.492  33.138  26.220  1.00  0.00    -0.206 F 
ATOM     89  C   UNL A   1      47.449  34.638  27.751  1.00  0.00     0.059 A 
ATOM     90  C   UNL A   1      47.845  33.939  30.042  1.00  0.00     0.059 A 
ATOM     91  F   UNL A   1      47.308  31.755  30.702  1.00  0.00    -0.206 F 
ATOM     92  C   UNL A   1      47.904  34.908  29.042  1.00  0.00     0.060 A 
BRANCH  92  93
ATOM     93  S   UNL A   1      48.548  36.555  29.405  1.00  0.00     0.124 S 
ATOM     94  O   UNL A   1      48.283  36.665  30.836  1.00  0.00    -0.237 OA
ATOM     95  O   UNL A   1      49.952  36.430  29.028  1.00  0.00    -0.237 OA
ATOM     96  O   UNL A   1      47.750  37.428  28.549  1.00  0.00    -0.744 OA
ENDBRANCH  92  93
ENDBRANCH  60  85
ENDBRANCH  34  35
ENDBRANCH  26  29
ENDBRANCH  24  25
ENDBRANCH  23  24
ENDBRANCH   1  23
TORSDOF 19
ENDMDL
MODEL 3
REMARK VINA RESULT:     -11.1      1.338      2.037
REMARK SMILES CC[C@]1(C(=O)NCCCNC(=O)c2ccc(-c3c4nc(c(-c5c(F)cc(S(=O)(=O)[O-])cc5F)c5ccc([nH]5)c(-c5c(F)cc(S(=O)(=O)[O-])cc5F)c5nc(c(-c6c(F)cc(S(=O)(=O)[O-])cc6F)c6ccc3[nH]6)C=C5)C=C4)cc2)CCCN(S(=O)(=O)CCOC(C)C)C1
REMARK SMILES IDX 7 1 6 2 4 3 5 4 3 6 79 7 92 8 80 9 82 10 81 11 2 12 1 13
REMARK SMILES IDX 83 14 84 15 85 16 86 17 87 18 88 19 89 20 90 21 91 22 8 23
REMARK SMILES IDX 9 24 10 25 11 26 12 28 13 29 14 30 78 31 15 32 77 33 16 34
REMARK SMILES IDX 17 35 18 36 71 37 19 38 76 39 70 40 72 41 20 42 75 43 69 44
REMARK SMILES IDX 68 45 21 47 55 48 34 49 54 50 35 51 38 52 53 53 73 54 36 55
REMARK SMILES IDX 37 56 52 58 74 59 39 60 22 61 23 62 32 63 24 64 25 65 31 66
REMARK SMILES IDX 33 67 26 68 27 69 28 70 29 71 30 72 56 73 57 74 66 75 58 76
REMARK SMILES IDX 59 77 65 78 67 79 60 80 61 81 62 82 63 83 64 84 40 85 41 86
REMARK SMILES IDX 50 87 42 88 43 89 49 90 51 91 44 92 45 93 46 94 47 95 48 96
REMARK H PARENT 6 5 10 27 72 46 38 57
REMARK Flexibility Score: inf
ROOT
ATOM      1  C   UNL A   1      37.255  22.578  25.862  1.00  0.00     0.117 C 
ENDROOT
BRANCH   1   2
ATOM      2  N   UNL A   1      37.142  22.657  24.416  1.00  0.00    -0.356 N 
ATOM      3  C   UNL A   1      36.137  23.046  23.588  1.00  0.00     0.227 C 
ATOM      4  O   UNL A   1      36.426  23.028  22.388  1.00  0.00    -0.274 OA
ATOM      5  H   UNL A   1      37.955  22.371  23.940  1.00  0.00     0.163 HD
BRANCH   3   6
ATOM      6  C   UNL A   1      34.758  23.549  24.112  1.00  0.00     0.063 C 
ATOM      7  C   UNL A   1      34.922  24.228  25.494  1.00  0.00     0.019 C 
ATOM      8  C   UNL A   1      34.261  24.513  22.988  1.00  0.00     0.119 C 
ATOM      9  C   UNL A   1      33.906  25.326  25.801  1.00  0.00     0.018 C 
ATOM     10  N   UNL A   1      33.327  25.590  23.446  1.00  0.00    -0.201 NA
ATOM     11  C   UNL A   1      33.775  26.313  24.659  1.00  0.00     0.102 C 
BRANCH   6  12
ATOM     12  C   UNL A   1      33.825  22.270  24.214  1.00  0.00     0.015 C 
ATOM     13  C   UNL A   1      32.520  22.221  23.423  1.00  0.00     0.005 C 
ENDBRANCH   6  12
BRANCH  10  14
ATOM     14  S   UNL A   1      32.773  26.616  22.178  1.00  0.00     0.216 S 
ATOM     15  O   UNL A   1      33.954  27.116  21.496  1.00  0.00    -0.212 OA
ATOM     16  O   UNL A   1      31.754  25.909  21.441  1.00  0.00    -0.212 OA
BRANCH  14  17
ATOM     17  C   UNL A   1      32.020  27.974  23.090  1.00  0.00     0.182 C 
BRANCH  17  18
ATOM     18  C   UNL A   1      30.647  28.375  22.561  1.00  0.00     0.178 C 
BRANCH  18  19
ATOM     19  O   UNL A   1      29.990  29.378  23.345  1.00  0.00    -0.378 OA
BRANCH  19  20
ATOM     20  C   UNL A   1      29.235  30.387  22.671  1.00  0.00     0.112 C 
ATOM     21  C   UNL A   1      28.037  29.869  21.872  1.00  0.00     0.038 C 
ATOM     22  C   UNL A   1      28.803  31.492  23.599  1.00  0.00     0.038 C 
ENDBRANCH  19  20
ENDBRANCH  18  19
ENDBRANCH  17  18
ENDBRANCH  14  17
ENDBRANCH  10  14
ENDBRANCH   3   6
ENDBRANCH   1   2
BRANCH   1  23
ATOM     23  C   UNL A   1      38.702  22.541  26.316  1.00  0.00     0.042 C 
BRANCH  23  24
ATOM     24  C   UNL A   1      39.268  23.924  26.578  1.00  0.00     0.118 C 
BRANCH  24  25
ATOM     25  N   UNL A   1      40.642  24.043  26.115  1.00  0.00    -0.352 N 
ATOM     26  C   UNL A   1      41.549  25.050  26.334  1.00  0.00     0.251 C 
ATOM     27  H   UNL A   1      40.968  23.294  25.566  1.00  0.00     0.163 HD
ATOM     28  O   UNL A   1      42.564  25.117  25.648  1.00  0.00    -0.269 OA
BRANCH  26  29
ATOM     29  C   UNL A   1      41.282  26.053  27.385  1.00  0.00     0.039 A 
ATOM     30  C   UNL A   1      40.364  25.760  28.394  1.00  0.00     0.014 A 
ATOM     31  C   UNL A   1      41.946  27.281  27.371  1.00  0.00     0.014 A 
ATOM     32  C   UNL A   1      40.162  26.680  29.424  1.00  0.00     0.010 A 
ATOM     33  C   UNL A   1      41.831  28.141  28.454  1.00  0.00     0.010 A 
ATOM     34  C   UNL A   1      40.922  27.861  29.482  1.00  0.00    -0.014 A 
BRANCH  34  35
ATOM     35  C   UNL A   1      40.761  28.836  30.588  1.00  0.00     0.031 A 
ATOM     36  C   UNL A   1      41.627  28.723  31.815  1.00  0.00     0.074 A 
ATOM     37  C   UNL A   1      39.795  29.774  30.518  1.00  0.00     0.049 A 
ATOM     38  N   UNL A   1      41.587  29.419  32.921  1.00  0.00    -0.248 NA
ATOM     39  C   UNL A   1      42.653  27.665  31.812  1.00  0.00     0.031 C 
ATOM     40  C   UNL A   1      38.857  29.944  29.404  1.00  0.00     0.029 A 
ATOM     41  N   UNL A   1      39.435  30.755  31.406  1.00  0.00    -0.354 N 
ATOM     42  C   UNL A   1      42.562  28.873  33.747  1.00  0.00     0.074 A 
ATOM     43  C   UNL A   1      43.134  27.747  33.043  1.00  0.00     0.031 C 
ATOM     44  C   UNL A   1      38.050  30.985  29.664  1.00  0.00     0.029 A 
ATOM     45  C   UNL A   1      38.382  31.528  30.977  1.00  0.00     0.049 A 
ATOM     46  H   UNL A   1      39.886  30.893  32.269  1.00  0.00     0.167 HD
ATOM     47  C   UNL A   1      42.967  29.290  34.970  1.00  0.00     0.037 A 
ATOM     48  C   UNL A   1      37.751  32.556  31.578  1.00  0.00     0.037 A 
ATOM     49  C   UNL A   1      42.417  30.434  35.646  1.00  0.00     0.049 A 
ATOM     50  C   UNL A   1      38.223  33.006  32.935  1.00  0.00     0.074 A 
ATOM     51  C   UNL A   1      42.798  30.981  36.858  1.00  0.00     0.029 A 
ATOM     52  N   UNL A   1      41.371  31.209  35.167  1.00  0.00    -0.354 N 
ATOM     53  N   UNL A   1      39.192  32.517  33.674  1.00  0.00    -0.248 NA
ATOM     54  C   UNL A   1      37.522  34.147  33.537  1.00  0.00     0.031 C 
ATOM     55  C   UNL A   1      41.952  32.060  37.134  1.00  0.00     0.029 A 
ATOM     56  C   UNL A   1      41.078  32.217  36.070  1.00  0.00     0.049 A 
ATOM     57  H   UNL A   1      40.905  31.063  34.313  1.00  0.00     0.167 HD
ATOM     58  C   UNL A   1      39.234  33.310  34.815  1.00  0.00     0.074 A 
ATOM     59  C   UNL A   1      38.204  34.317  34.663  1.00  0.00     0.031 C 
ATOM     60  C   UNL A   1      40.052  33.215  35.893  1.00  0.00     0.037 A 
BRANCH  47  61
ATOM     61  C   UNL A   1      44.065  28.515  35.645  1.00  0.00     0.058 A 
ATOM     62  C   UNL A   1      45.421  28.803  35.418  1.00  0.00     0.135 A 
ATOM     63  C   UNL A   1      43.759  27.491  36.558  1.00  0.00     0.135 A 
ATOM     64  F   UNL A   1      45.772  29.759  34.542  1.00  0.00    -0.206 F 
ATOM     65  C   UNL A   1      46.433  28.089  36.049  1.00  0.00     0.059 A 
ATOM     66  C   UNL A   1      44.756  26.785  37.224  1.00  0.00     0.059 A 
ATOM     67  F   UNL A   1      42.481  27.171  36.811  1.00  0.00    -0.206 F 
ATOM     68  C   UNL A   1      46.091  27.082  36.953  1.00  0.00     0.060 A 
BRANCH  68  69
ATOM     69  S   UNL A   1      47.419  26.176  37.774  1.00  0.00     0.124 S 
ATOM     70  O   UNL A   1      48.212  25.726  36.634  1.00  0.00    -0.237 OA
ATOM     71  O   UNL A   1      48.032  27.206  38.605  1.00  0.00    -0.237 OA
ATOM     72  O   UNL A   1      46.714  25.124  38.501  1.00  0.00    -0.744 OA
ENDBRANCH  68  69
ENDBRANCH  47  61
BRANCH  48  73
ATOM     73  C   UNL A   1      36.622  33.241  30.894  1.00  0.00     0.058 A 
ATOM     74  C   UNL A   1      36.856  34.166  29.865  1.00  0.00     0.135 A 
ATOM     75  C   UNL A   1      35.289  32.982  31.247  1.00  0.00     0.135 A 
ATOM     76  F   UNL A   1      38.114  34.451  29.493  1.00  0.00    -0.206 F 
ATOM     77  C   UNL A   1      35.812  34.826  29.224  1.00  0.00     0.059 A 
ATOM     78  C   UNL A   1      34.226  33.608  30.603  1.00  0.00     0.059 A 
ATOM     79  F   UNL A   1      35.008  32.091  32.212  1.00  0.00    -0.206 F 
ATOM     80  C   UNL A   1      34.499  34.539  29.601  1.00  0.00     0.060 A 
BRANCH  80  81
ATOM     81  S   UNL A   1      33.148  35.370  28.736  1.00  0.00     0.124 S 
ATOM     82  O   UNL A   1      33.875  36.314  27.896  1.00  0.00    -0.237 OA
ATOM     83  O   UNL A   1      32.501  34.261  28.042  1.00  0.00    -0.237 OA
ATOM     84  O   UNL A   1      32.369  35.959  29.821  1.00  0.00    -0.744 OA
ENDBRANCH  80  81
ENDBRANCH  48  73
BRANCH  60  85
ATOM     85  C   UNL A   1      39.890  34.243  36.978  1.00  0.00     0.058 A 
ATOM     86  C   UNL A   1      39.107  33.997  38.116  1.00  0.00     0.135 A 
ATOM     87  C   UNL A   1      40.573  35.467  36.902  1.00  0.00     0.135 A 
ATOM     88  F   UNL A   1      38.428  32.845  38.234  1.00  0.00    -0.206 F 
ATOM     89  C   UNL A   1      38.988  34.941  39.131  1.00  0.00     0.059 A 
ATOM     90  C   UNL A   1      40.492  36.412  37.919  1.00  0.00     0.059 A 
ATOM     91  F   UNL A   1      41.344  35.747  35.839  1.00  0.00    -0.206 F 
ATOM     92  C   UNL A   1      39.687  36.145  39.025  1.00  0.00     0.060 A 
BRANCH  92  93
ATOM     93  S   UNL A   1      39.552  37.344  40.366  1.00  0.00     0.124 S 
ATOM     94  O   UNL A   1      38.263  37.964  40.077  1.00  0.00    -0.237 OA
ATOM     95  O   UNL A   1      39.594  36.492  41.551  1.00  0.00    -0.237 OA
ATOM     96  O   UNL A   1      40.719  38.201  40.176  1.00  0.00    -0.744 OA
ENDBRANCH  92  93
ENDBRANCH  60  85
ENDBRANCH  34  35
ENDBRANCH  26  29
ENDBRANCH  24  25
ENDBRANCH  23  24
ENDBRANCH   1  23
TORSDOF 19
ENDMDL
