MODEL 1
REMARK VINA RESULT:     -14.0      0.000      0.000
REMARK SMILES Cc1cccc(NC(=O)C[C@H]([NH2+]C(C)C)C(=O)NCCCNC(=O)c2ccc(-c3c4nc(c(-c5c(F)cc(S(=O)(=O)[O-])cc5F)c5ccc([nH]5)c(-c5c(F)cc(S(=O)(=O)[O-])cc5F)c5nc(c(-c6c(F)cc(S(=O)(=O)[O-])cc6F)c6ccc3[nH]6)C=C5)C=C4)cc2)c1
REMARK SMILES IDX 20 1 19 2 18 3 16 4 17 5 11 7 10 8 8 9 7 10 9 12 6 13 1 14
REMARK SMILES IDX 2 15 3 16 91 17 4 18 5 19 12 20 13 23 14 24 15 25 21 26
REMARK SMILES IDX 22 27 23 28 24 30 25 31 26 32 90 33 27 34 89 35 28 36 29 37
REMARK SMILES IDX 30 38 83 39 31 40 88 41 82 42 84 43 32 44 87 45 81 46 80 47
REMARK SMILES IDX 33 49 67 50 46 51 66 52 47 53 50 54 65 55 85 56 48 57 49 58
REMARK SMILES IDX 64 60 86 61 51 62 34 63 35 64 44 65 36 66 37 67 43 68 45 69
REMARK SMILES IDX 38 70 39 71 40 72 41 73 42 74 68 75 69 76 78 77 70 78 71 79
REMARK SMILES IDX 77 80 79 81 72 82 73 83 74 84 75 85 76 86 52 87 53 88 62 89
REMARK SMILES IDX 54 90 55 91 61 92 63 93 56 94 57 95 58 96 59 97 60 98
REMARK H PARENT 18 6 7 11 12 21 12 22 22 29 84 48 50 59
REMARK Flexibility Score: inf
ROOT
ATOM      1  C   UNL A   1      32.201  30.129  26.986  1.00  0.00     0.042 C 
ENDROOT
BRANCH   1   2
ATOM      2  C   UNL A   1      31.425  30.482  25.458  1.00  0.00     0.118 C 
BRANCH   2   3
ATOM      3  N   UNL A   1      30.944  29.309  23.803  1.00  0.00    -0.351 N 
ATOM      4  C   UNL A   1      30.676  28.152  23.079  1.00  0.00     0.278 C 
ATOM      5  O   UNL A   1      30.182  28.391  21.956  1.00  0.00    -0.268 OA
ATOM      6  H   UNL A   1      30.846  29.996  23.105  1.00  0.00     0.163 HD
BRANCH   4   7
ATOM      7  C   UNL A   1      30.920  26.674  23.406  1.00  0.00     0.282 C 
BRANCH   7   8
ATOM      8  C   UNL A   1      31.460  25.801  22.245  1.00  0.00     0.175 C 
BRANCH   8   9
ATOM      9  C   UNL A   1      32.972  25.529  22.181  1.00  0.00     0.230 C 
ATOM     10  N   UNL A   1      33.592  24.577  22.948  1.00  0.00    -0.326 N 
ATOM     11  H   UNL A   1      34.575  24.599  22.988  1.00  0.00     0.169 HD
ATOM     12  O   UNL A   1      33.677  26.203  21.419  1.00  0.00    -0.274 OA
BRANCH  10  13
ATOM     13  C   UNL A   1      32.938  23.576  23.681  1.00  0.00     0.041 A 
ATOM     14  C   UNL A   1      34.067  21.724  27.579  1.00  0.00     0.044 C 
ATOM     15  C   UNL A   1      33.496  21.820  26.224  1.00  0.00    -0.049 A 
ATOM     16  C   UNL A   1      33.031  20.341  25.290  1.00  0.00     0.003 A 
ATOM     17  C   UNL A   1      33.472  23.445  25.403  1.00  0.00     0.029 A 
ATOM     18  C   UNL A   1      32.421  20.496  23.590  1.00  0.00     0.002 A 
ATOM     19  C   UNL A   1      32.322  22.112  22.803  1.00  0.00     0.026 A 
ENDBRANCH  10  13
ENDBRANCH   8   9
ENDBRANCH   7   8
BRANCH   7  20
ATOM     20  N   UNL A   1      29.828  26.068  24.259  1.00  0.00    -0.334 N 
ATOM     21  H   UNL A   1      29.604  25.148  23.879  1.00  0.00     0.347 HD
ATOM     22  H   UNL A   1      29.048  26.724  24.228  1.00  0.00     0.347 HD
BRANCH  20  23
ATOM     23  C   UNL A   1      30.165  25.900  25.699  1.00  0.00     0.176 C 
ATOM     24  C   UNL A   1      30.202  24.404  26.051  1.00  0.00     0.075 C 
ATOM     25  C   UNL A   1      31.420  26.599  26.211  1.00  0.00     0.075 C 
ENDBRANCH  20  23
ENDBRANCH   7  20
ENDBRANCH   4   7
ENDBRANCH   2   3
ENDBRANCH   1   2
BRANCH   1  26
ATOM     26  C   UNL A   1      33.656  29.674  26.936  1.00  0.00     0.118 C 
BRANCH  26  27
ATOM     27  N   UNL A   1      34.679  30.700  26.983  1.00  0.00    -0.352 N 
ATOM     28  C   UNL A   1      35.319  30.927  28.205  1.00  0.00     0.251 C 
ATOM     29  H   UNL A   1      34.915  31.219  26.182  1.00  0.00     0.163 HD
ATOM     30  O   UNL A   1      34.954  31.714  29.067  1.00  0.00    -0.269 OA
BRANCH  28  31
ATOM     31  C   UNL A   1      36.393  29.948  28.477  1.00  0.00     0.039 A 
ATOM     32  C   UNL A   1      36.582  29.395  29.742  1.00  0.00     0.014 A 
ATOM     33  C   UNL A   1      37.364  29.835  27.488  1.00  0.00     0.014 A 
ATOM     34  C   UNL A   1      37.847  28.920  30.081  1.00  0.00     0.010 A 
ATOM     35  C   UNL A   1      38.640  29.550  27.874  1.00  0.00     0.010 A 
ATOM     36  C   UNL A   1      38.886  29.124  29.182  1.00  0.00    -0.014 A 
BRANCH  36  37
ATOM     37  C   UNL A   1      40.267  28.751  29.387  1.00  0.00     0.031 A 
ATOM     38  C   UNL A   1      40.595  27.393  28.910  1.00  0.00     0.074 A 
ATOM     39  C   UNL A   1      41.178  29.658  29.811  1.00  0.00     0.049 A 
ATOM     40  N   UNL A   1      41.677  26.786  29.204  1.00  0.00    -0.248 NA
ATOM     41  C   UNL A   1      39.698  26.565  28.095  1.00  0.00     0.031 C 
ATOM     42  C   UNL A   1      42.635  29.595  29.750  1.00  0.00     0.029 A 
ATOM     43  N   UNL A   1      40.937  30.795  30.577  1.00  0.00    -0.354 N 
ATOM     44  C   UNL A   1      41.753  25.640  28.442  1.00  0.00     0.074 A 
ATOM     45  C   UNL A   1      40.470  25.512  27.813  1.00  0.00     0.031 C 
ATOM     46  C   UNL A   1      43.155  30.448  30.654  1.00  0.00     0.029 A 
ATOM     47  C   UNL A   1      42.047  31.011  31.406  1.00  0.00     0.049 A 
ATOM     48  H   UNL A   1      40.126  31.352  30.543  1.00  0.00     0.167 HD
ATOM     49  C   UNL A   1      42.964  25.028  28.386  1.00  0.00     0.037 A 
ATOM     50  C   UNL A   1      41.879  30.934  32.760  1.00  0.00     0.037 A 
ATOM     51  C   UNL A   1      43.859  25.695  29.328  1.00  0.00     0.049 A 
ATOM     52  C   UNL A   1      42.571  29.711  33.314  1.00  0.00     0.074 A 
ATOM     53  C   UNL A   1      44.772  26.726  29.188  1.00  0.00     0.029 A 
ATOM     54  N   UNL A   1      43.550  25.619  30.679  1.00  0.00    -0.354 N 
ATOM     55  N   UNL A   1      42.864  28.649  32.608  1.00  0.00    -0.248 NA
ATOM     56  C   UNL A   1      43.093  29.634  34.673  1.00  0.00     0.031 C 
ATOM     57  C   UNL A   1      45.001  27.278  30.478  1.00  0.00     0.029 A 
ATOM     58  C   UNL A   1      44.237  26.575  31.397  1.00  0.00     0.049 A 
ATOM     59  H   UNL A   1      42.924  24.970  31.072  1.00  0.00     0.167 HD
ATOM     60  C   UNL A   1      43.628  27.786  33.356  1.00  0.00     0.074 A 
ATOM     61  C   UNL A   1      43.746  28.459  34.637  1.00  0.00     0.031 C 
ATOM     62  C   UNL A   1      44.120  26.612  32.849  1.00  0.00     0.037 A 
BRANCH  49  63
ATOM     63  C   UNL A   1      43.431  23.992  27.394  1.00  0.00     0.058 A 
ATOM     64  C   UNL A   1      42.795  22.729  27.383  1.00  0.00     0.135 A 
ATOM     65  C   UNL A   1      44.487  24.125  26.470  1.00  0.00     0.135 A 
ATOM     66  F   UNL A   1      41.766  22.450  28.196  1.00  0.00    -0.206 F 
ATOM     67  C   UNL A   1      43.186  21.683  26.554  1.00  0.00     0.059 A 
ATOM     68  C   UNL A   1      44.911  23.080  25.639  1.00  0.00     0.059 A 
ATOM     69  F   UNL A   1      45.145  25.277  26.306  1.00  0.00    -0.206 F 
ATOM     70  C   UNL A   1      44.252  21.861  25.688  1.00  0.00     0.060 A 
BRANCH  70  71
ATOM     71  S   UNL A   1      44.730  20.482  24.637  1.00  0.00     0.124 S 
ATOM     72  O   UNL A   1      44.718  21.093  23.311  1.00  0.00    -0.237 OA
ATOM     73  O   UNL A   1      46.046  20.137  25.165  1.00  0.00    -0.237 OA
ATOM     74  O   UNL A   1      43.683  19.492  24.874  1.00  0.00    -0.744 OA
ENDBRANCH  70  71
ENDBRANCH  49  63
BRANCH  50  75
ATOM     75  C   UNL A   1      40.561  31.532  33.167  1.00  0.00     0.058 A 
ATOM     76  C   UNL A   1      39.549  30.604  33.510  1.00  0.00     0.135 A 
ATOM     77  C   UNL A   1      40.506  32.787  33.790  1.00  0.00     0.135 A 
ATOM     78  F   UNL A   1      39.512  29.404  32.908  1.00  0.00    -0.206 F 
ATOM     79  C   UNL A   1      38.708  30.804  34.605  1.00  0.00     0.059 A 
ATOM     80  C   UNL A   1      39.642  33.019  34.868  1.00  0.00     0.059 A 
ATOM     81  F   UNL A   1      41.418  33.727  33.500  1.00  0.00    -0.206 F 
ATOM     82  C   UNL A   1      38.829  31.983  35.333  1.00  0.00     0.060 A 
BRANCH  82  83
ATOM     83  S   UNL A   1      38.038  32.082  36.960  1.00  0.00     0.124 S 
ATOM     84  O   UNL A   1      36.847  32.874  36.679  1.00  0.00    -0.237 OA
ATOM     85  O   UNL A   1      37.803  30.672  37.278  1.00  0.00    -0.237 OA
ATOM     86  O   UNL A   1      39.046  32.733  37.787  1.00  0.00    -0.744 OA
ENDBRANCH  82  83
ENDBRANCH  50  75
BRANCH  62  87
ATOM     87  C   UNL A   1      44.617  25.398  33.631  1.00  0.00     0.058 A 
ATOM     88  C   UNL A   1      45.926  24.895  33.583  1.00  0.00     0.135 A 
ATOM     89  C   UNL A   1      43.784  24.758  34.597  1.00  0.00     0.135 A 
ATOM     90  F   UNL A   1      46.881  25.456  32.835  1.00  0.00    -0.206 F 
ATOM     91  C   UNL A   1      46.346  23.807  34.351  1.00  0.00     0.059 A 
ATOM     92  C   UNL A   1      44.212  23.739  35.441  1.00  0.00     0.059 A 
ATOM     93  F   UNL A   1      42.504  25.099  34.790  1.00  0.00    -0.206 F 
ATOM     94  C   UNL A   1      45.486  23.240  35.281  1.00  0.00     0.060 A 
BRANCH  94  95
ATOM     95  S   UNL A   1      46.060  21.868  36.282  1.00  0.00     0.124 S 
ATOM     96  O   UNL A   1      47.492  21.886  36.000  1.00  0.00    -0.237 OA
ATOM     97  O   UNL A   1      45.676  22.286  37.628  1.00  0.00    -0.237 OA
ATOM     98  O   UNL A   1      45.326  20.723  35.753  1.00  0.00    -0.744 OA
ENDBRANCH  94  95
ENDBRANCH  62  87
ENDBRANCH  36  37
ENDBRANCH  28  31
ENDBRANCH  26  27
ENDBRANCH   1  26
TORSDOF 18
ENDMDL
MODEL 2
REMARK VINA RESULT:     -13.9      1.617      2.619
REMARK SMILES Cc1cccc(NC(=O)C[C@H]([NH2+]C(C)C)C(=O)NCCCNC(=O)c2ccc(-c3c4nc(c(-c5c(F)cc(S(=O)(=O)[O-])cc5F)c5ccc([nH]5)c(-c5c(F)cc(S(=O)(=O)[O-])cc5F)c5nc(c(-c6c(F)cc(S(=O)(=O)[O-])cc6F)c6ccc3[nH]6)C=C5)C=C4)cc2)c1
REMARK SMILES IDX 20 1 19 2 18 3 16 4 17 5 11 7 10 8 8 9 7 10 9 12 6 13 1 14
REMARK SMILES IDX 2 15 3 16 91 17 4 18 5 19 12 20 13 23 14 24 15 25 21 26
REMARK SMILES IDX 22 27 23 28 24 30 25 31 26 32 90 33 27 34 89 35 28 36 29 37
REMARK SMILES IDX 30 38 83 39 31 40 88 41 82 42 84 43 32 44 87 45 81 46 80 47
REMARK SMILES IDX 33 49 67 50 46 51 66 52 47 53 50 54 65 55 85 56 48 57 49 58
REMARK SMILES IDX 64 60 86 61 51 62 34 63 35 64 44 65 36 66 37 67 43 68 45 69
REMARK SMILES IDX 38 70 39 71 40 72 41 73 42 74 68 75 69 76 78 77 70 78 71 79
REMARK SMILES IDX 77 80 79 81 72 82 73 83 74 84 75 85 76 86 52 87 53 88 62 89
REMARK SMILES IDX 54 90 55 91 61 92 63 93 56 94 57 95 58 96 59 97 60 98
REMARK H PARENT 18 6 7 11 12 21 12 22 22 29 84 48 50 59
REMARK Flexibility Score: inf
ROOT
ATOM      1  C   UNL A   1      33.395  28.492  26.739  1.00  0.00     0.042 C 
ENDROOT
BRANCH   1   2
ATOM      2  C   UNL A   1      31.954  27.548  26.431  1.00  0.00     0.118 C 
BRANCH   2   3
ATOM      3  N   UNL A   1      31.496  25.529  26.683  1.00  0.00    -0.351 N 
ATOM      4  C   UNL A   1      31.691  24.152  26.661  1.00  0.00     0.278 C 
ATOM      5  O   UNL A   1      30.809  23.532  27.293  1.00  0.00    -0.268 OA
ATOM      6  H   UNL A   1      30.578  25.585  27.033  1.00  0.00     0.163 HD
BRANCH   4   7
ATOM      7  C   UNL A   1      32.757  23.292  25.973  1.00  0.00     0.282 C 
BRANCH   7   8
ATOM      8  C   UNL A   1      34.230  23.710  26.216  1.00  0.00     0.175 C 
BRANCH   8   9
ATOM      9  C   UNL A   1      35.099  24.060  24.996  1.00  0.00     0.230 C 
ATOM     10  N   UNL A   1      36.323  23.489  24.765  1.00  0.00    -0.326 N 
ATOM     11  H   UNL A   1      36.892  23.903  24.076  1.00  0.00     0.169 HD
ATOM     12  O   UNL A   1      34.695  24.905  24.187  1.00  0.00    -0.274 OA
BRANCH  10  13
ATOM     13  C   UNL A   1      36.830  22.363  25.429  1.00  0.00     0.041 A 
ATOM     14  C   UNL A   1      41.025  21.433  26.630  1.00  0.00     0.044 C 
ATOM     15  C   UNL A   1      39.640  21.185  26.190  1.00  0.00    -0.049 A 
ATOM     16  C   UNL A   1      39.139  19.584  25.514  1.00  0.00     0.003 A 
ATOM     17  C   UNL A   1      38.484  22.590  26.122  1.00  0.00     0.029 A 
ATOM     18  C   UNL A   1      37.452  19.348  24.895  1.00  0.00     0.002 A 
ATOM     19  C   UNL A   1      36.281  20.715  24.901  1.00  0.00     0.026 A 
ENDBRANCH  10  13
ENDBRANCH   8   9
ENDBRANCH   7   8
BRANCH   7  20
ATOM     20  N   UNL A   1      32.387  22.910  24.557  1.00  0.00    -0.334 N 
ATOM     21  H   UNL A   1      32.873  23.542  23.922  1.00  0.00     0.347 HD
ATOM     22  H   UNL A   1      31.371  22.977  24.503  1.00  0.00     0.347 HD
BRANCH  20  23
ATOM     23  C   UNL A   1      32.727  21.515  24.166  1.00  0.00     0.176 C 
ATOM     24  C   UNL A   1      32.451  20.565  25.344  1.00  0.00     0.075 C 
ATOM     25  C   UNL A   1      32.100  20.972  22.886  1.00  0.00     0.075 C 
ENDBRANCH  20  23
ENDBRANCH   7  20
ENDBRANCH   4   7
ENDBRANCH   2   3
ENDBRANCH   1   2
BRANCH   1  26
ATOM     26  C   UNL A   1      33.210  29.826  27.455  1.00  0.00     0.118 C 
BRANCH  26  27
ATOM     27  N   UNL A   1      34.237  30.831  27.272  1.00  0.00    -0.352 N 
ATOM     28  C   UNL A   1      35.014  31.178  28.381  1.00  0.00     0.251 C 
ATOM     29  H   UNL A   1      34.383  31.254  26.397  1.00  0.00     0.163 HD
ATOM     30  O   UNL A   1      34.755  32.061  29.186  1.00  0.00    -0.269 OA
BRANCH  28  31
ATOM     31  C   UNL A   1      36.106  30.215  28.637  1.00  0.00     0.039 A 
ATOM     32  C   UNL A   1      36.326  29.669  29.900  1.00  0.00     0.014 A 
ATOM     33  C   UNL A   1      37.062  30.113  27.631  1.00  0.00     0.014 A 
ATOM     34  C   UNL A   1      37.602  29.212  30.218  1.00  0.00     0.010 A 
ATOM     35  C   UNL A   1      38.348  29.846  27.995  1.00  0.00     0.010 A 
ATOM     36  C   UNL A   1      38.623  29.427  29.300  1.00  0.00    -0.014 A 
BRANCH  36  37
ATOM     37  C   UNL A   1      40.012  29.074  29.481  1.00  0.00     0.031 A 
ATOM     38  C   UNL A   1      40.370  27.755  28.921  1.00  0.00     0.074 A 
ATOM     39  C   UNL A   1      40.903  29.974  29.960  1.00  0.00     0.049 A 
ATOM     40  N   UNL A   1      41.466  27.156  29.176  1.00  0.00    -0.248 NA
ATOM     41  C   UNL A   1      39.491  26.959  28.057  1.00  0.00     0.031 C 
ATOM     42  C   UNL A   1      42.361  29.947  29.895  1.00  0.00     0.029 A 
ATOM     43  N   UNL A   1      40.638  31.055  30.794  1.00  0.00    -0.354 N 
ATOM     44  C   UNL A   1      41.567  26.061  28.346  1.00  0.00     0.074 A 
ATOM     45  C   UNL A   1      40.286  25.944  27.711  1.00  0.00     0.031 C 
ATOM     46  C   UNL A   1      42.863  30.754  30.849  1.00  0.00     0.029 A 
ATOM     47  C   UNL A   1      41.744  31.245  31.635  1.00  0.00     0.049 A 
ATOM     48  H   UNL A   1      39.815  31.595  30.795  1.00  0.00     0.167 HD
ATOM     49  C   UNL A   1      42.791  25.481  28.252  1.00  0.00     0.037 A 
ATOM     50  C   UNL A   1      41.580  31.081  32.982  1.00  0.00     0.037 A 
ATOM     51  C   UNL A   1      43.673  26.109  29.233  1.00  0.00     0.049 A 
ATOM     52  C   UNL A   1      42.301  29.841  33.460  1.00  0.00     0.074 A 
ATOM     53  C   UNL A   1      44.562  27.167  29.156  1.00  0.00     0.029 A 
ATOM     54  N   UNL A   1      43.368  25.944  30.577  1.00  0.00    -0.354 N 
ATOM     55  N   UNL A   1      42.616  28.832  32.689  1.00  0.00    -0.248 NA
ATOM     56  C   UNL A   1      42.826  29.693  34.811  1.00  0.00     0.031 C 
ATOM     57  C   UNL A   1      44.780  27.645  30.479  1.00  0.00     0.029 A 
ATOM     58  C   UNL A   1      44.034  26.869  31.352  1.00  0.00     0.049 A 
ATOM     59  H   UNL A   1      42.757  25.258  30.929  1.00  0.00     0.167 HD
ATOM     60  C   UNL A   1      43.401  27.943  33.382  1.00  0.00     0.074 A 
ATOM     61  C   UNL A   1      43.505  28.537  34.702  1.00  0.00     0.031 C 
ATOM     62  C   UNL A   1      43.919  26.813  32.804  1.00  0.00     0.037 A 
BRANCH  49  63
ATOM     63  C   UNL A   1      43.280  24.520  27.198  1.00  0.00     0.058 A 
ATOM     64  C   UNL A   1      43.929  23.334  27.612  1.00  0.00     0.135 A 
ATOM     65  C   UNL A   1      43.196  24.686  25.800  1.00  0.00     0.135 A 
ATOM     66  F   UNL A   1      44.079  23.027  28.908  1.00  0.00    -0.206 F 
ATOM     67  C   UNL A   1      44.473  22.410  26.725  1.00  0.00     0.059 A 
ATOM     68  C   UNL A   1      43.752  23.779  24.889  1.00  0.00     0.059 A 
ATOM     69  F   UNL A   1      42.552  25.718  25.246  1.00  0.00    -0.206 F 
ATOM     70  C   UNL A   1      44.389  22.642  25.362  1.00  0.00     0.060 A 
BRANCH  70  71
ATOM     71  S   UNL A   1      45.108  21.425  24.249  1.00  0.00     0.124 S 
ATOM     72  O   UNL A   1      46.534  21.715  24.365  1.00  0.00    -0.237 OA
ATOM     73  O   UNL A   1      44.665  20.168  24.844  1.00  0.00    -0.237 OA
ATOM     74  O   UNL A   1      44.512  21.749  22.957  1.00  0.00    -0.744 OA
ENDBRANCH  70  71
ENDBRANCH  49  63
BRANCH  50  75
ATOM     75  C   UNL A   1      40.249  31.622  33.425  1.00  0.00     0.058 A 
ATOM     76  C   UNL A   1      39.295  30.654  33.818  1.00  0.00     0.135 A 
ATOM     77  C   UNL A   1      40.155  32.884  34.030  1.00  0.00     0.135 A 
ATOM     78  F   UNL A   1      39.295  29.443  33.235  1.00  0.00    -0.206 F 
ATOM     79  C   UNL A   1      38.482  30.831  34.937  1.00  0.00     0.059 A 
ATOM     80  C   UNL A   1      39.318  33.093  35.134  1.00  0.00     0.059 A 
ATOM     81  F   UNL A   1      41.011  33.861  33.694  1.00  0.00    -0.206 F 
ATOM     82  C   UNL A   1      38.572  32.027  35.643  1.00  0.00     0.060 A 
BRANCH  82  83
ATOM     83  S   UNL A   1      37.833  32.116  37.295  1.00  0.00     0.124 S 
ATOM     84  O   UNL A   1      38.942  32.599  38.107  1.00  0.00    -0.237 OA
ATOM     85  O   UNL A   1      36.734  33.062  37.092  1.00  0.00    -0.237 OA
ATOM     86  O   UNL A   1      37.415  30.744  37.552  1.00  0.00    -0.744 OA
ENDBRANCH  82  83
ENDBRANCH  50  75
BRANCH  62  87
ATOM     87  C   UNL A   1      44.444  25.565  33.510  1.00  0.00     0.058 A 
ATOM     88  C   UNL A   1      45.750  25.067  33.390  1.00  0.00     0.135 A 
ATOM     89  C   UNL A   1      43.648  24.880  34.475  1.00  0.00     0.135 A 
ATOM     90  F   UNL A   1      46.677  25.664  32.633  1.00  0.00    -0.206 F 
ATOM     91  C   UNL A   1      46.199  23.945  34.089  1.00  0.00     0.059 A 
ATOM     92  C   UNL A   1      44.106  23.823  35.254  1.00  0.00     0.059 A 
ATOM     93  F   UNL A   1      42.375  25.209  34.731  1.00  0.00    -0.206 F 
ATOM     94  C   UNL A   1      45.373  23.334  35.024  1.00  0.00     0.060 A 
BRANCH  94  95
ATOM     95  S   UNL A   1      45.985  21.918  35.938  1.00  0.00     0.124 S 
ATOM     96  O   UNL A   1      45.651  22.294  37.308  1.00  0.00    -0.237 OA
ATOM     97  O   UNL A   1      45.198  20.824  35.373  1.00  0.00    -0.237 OA
ATOM     98  O   UNL A   1      47.408  21.889  35.620  1.00  0.00    -0.744 OA
ENDBRANCH  94  95
ENDBRANCH  62  87
ENDBRANCH  36  37
ENDBRANCH  28  31
ENDBRANCH  26  27
ENDBRANCH   1  26
TORSDOF 18
ENDMDL
MODEL 3
REMARK VINA RESULT:     -13.8      4.449     10.690
REMARK SMILES Cc1cccc(NC(=O)C[C@H]([NH2+]C(C)C)C(=O)NCCCNC(=O)c2ccc(-c3c4nc(c(-c5c(F)cc(S(=O)(=O)[O-])cc5F)c5ccc([nH]5)c(-c5c(F)cc(S(=O)(=O)[O-])cc5F)c5nc(c(-c6c(F)cc(S(=O)(=O)[O-])cc6F)c6ccc3[nH]6)C=C5)C=C4)cc2)c1
REMARK SMILES IDX 20 1 19 2 18 3 16 4 17 5 11 7 10 8 8 9 7 10 9 12 6 13 1 14
REMARK SMILES IDX 2 15 3 16 91 17 4 18 5 19 12 20 13 23 14 24 15 25 21 26
REMARK SMILES IDX 22 27 23 28 24 30 25 31 26 32 90 33 27 34 89 35 28 36 29 37
REMARK SMILES IDX 30 38 83 39 31 40 88 41 82 42 84 43 32 44 87 45 81 46 80 47
REMARK SMILES IDX 33 49 67 50 46 51 66 52 47 53 50 54 65 55 85 56 48 57 49 58
REMARK SMILES IDX 64 60 86 61 51 62 34 63 35 64 44 65 36 66 37 67 43 68 45 69
REMARK SMILES IDX 38 70 39 71 40 72 41 73 42 74 68 75 69 76 78 77 70 78 71 79
REMARK SMILES IDX 77 80 79 81 72 82 73 83 74 84 75 85 76 86 52 87 53 88 62 89
REMARK SMILES IDX 54 90 55 91 61 92 63 93 56 94 57 95 58 96 59 97 60 98
REMARK H PARENT 18 6 7 11 12 21 12 22 22 29 84 48 50 59
REMARK Flexibility Score: inf
ROOT
ATOM      1  C   UNL A   1      36.501  23.676  25.801  1.00  0.00     0.042 C 
ENDROOT
BRANCH   1   2
ATOM      2  C   UNL A   1      35.488  24.010  24.413  1.00  0.00     0.118 C 
BRANCH   2   3
ATOM      3  N   UNL A   1      33.575  23.386  23.866  1.00  0.00    -0.351 N 
ATOM      4  C   UNL A   1      32.278  22.911  24.034  1.00  0.00     0.278 C 
ATOM      5  O   UNL A   1      31.583  23.035  23.003  1.00  0.00    -0.268 OA
ATOM      6  H   UNL A   1      33.611  23.496  22.889  1.00  0.00     0.163 HD
BRANCH   4   7
ATOM      7  C   UNL A   1      31.594  22.239  25.230  1.00  0.00     0.282 C 
BRANCH   7   8
ATOM      8  C   UNL A   1      31.499  23.087  26.524  1.00  0.00     0.175 C 
BRANCH   8   9
ATOM      9  C   UNL A   1      30.133  23.682  26.906  1.00  0.00     0.230 C 
ATOM     10  N   UNL A   1      29.753  24.954  26.565  1.00  0.00    -0.326 N 
ATOM     11  H   UNL A   1      28.953  25.321  27.007  1.00  0.00     0.169 HD
ATOM     12  O   UNL A   1      29.337  23.001  27.565  1.00  0.00    -0.274 OA
BRANCH  10  13
ATOM     13  C   UNL A   1      30.410  25.774  25.637  1.00  0.00     0.041 A 
ATOM     14  C   UNL A   1      32.227  29.809  26.210  1.00  0.00     0.044 C 
ATOM     15  C   UNL A   1      31.545  28.700  25.518  1.00  0.00    -0.049 A 
ATOM     16  C   UNL A   1      30.681  28.958  23.949  1.00  0.00     0.003 A 
ATOM     17  C   UNL A   1      31.385  27.104  26.378  1.00  0.00     0.029 A 
ATOM     18  C   UNL A   1      29.774  27.593  23.177  1.00  0.00     0.002 A 
ATOM     19  C   UNL A   1      29.682  25.988  23.988  1.00  0.00     0.026 A 
ENDBRANCH  10  13
ENDBRANCH   8   9
ENDBRANCH   7   8
BRANCH   7  20
ATOM     20  N   UNL A   1      31.985  20.788  25.399  1.00  0.00    -0.334 N 
ATOM     21  H   UNL A   1      31.134  20.227  25.373  1.00  0.00     0.347 HD
ATOM     22  H   UNL A   1      32.485  20.732  26.286  1.00  0.00     0.347 HD
BRANCH  20  23
ATOM     23  C   UNL A   1      32.917  20.257  24.368  1.00  0.00     0.176 C 
ATOM     24  C   UNL A   1      34.322  20.100  24.972  1.00  0.00     0.075 C 
ATOM     25  C   UNL A   1      32.505  18.983  23.639  1.00  0.00     0.075 C 
ENDBRANCH  20  23
ENDBRANCH   7  20
ENDBRANCH   4   7
ENDBRANCH   2   3
ENDBRANCH   1   2
BRANCH   1  26
ATOM     26  C   UNL A   1      37.743  22.825  25.564  1.00  0.00     0.118 C 
BRANCH  26  27
ATOM     27  N   UNL A   1      38.656  22.651  26.675  1.00  0.00    -0.352 N 
ATOM     28  C   UNL A   1      39.914  23.255  26.587  1.00  0.00     0.251 C 
ATOM     29  H   UNL A   1      38.400  22.125  27.465  1.00  0.00     0.163 HD
ATOM     30  O   UNL A   1      40.918  22.747  26.109  1.00  0.00    -0.269 OA
BRANCH  28  31
ATOM     31  C   UNL A   1      39.883  24.691  26.934  1.00  0.00     0.039 A 
ATOM     32  C   UNL A   1      40.564  25.647  26.183  1.00  0.00     0.014 A 
ATOM     33  C   UNL A   1      39.382  24.991  28.197  1.00  0.00     0.014 A 
ATOM     34  C   UNL A   1      40.937  26.839  26.798  1.00  0.00     0.010 A 
ATOM     35  C   UNL A   1      39.904  26.064  28.855  1.00  0.00     0.010 A 
ATOM     36  C   UNL A   1      40.710  26.972  28.162  1.00  0.00    -0.014 A 
BRANCH  36  37
ATOM     37  C   UNL A   1      41.080  28.109  28.974  1.00  0.00     0.031 A 
ATOM     38  C   UNL A   1      40.018  29.129  29.089  1.00  0.00     0.074 A 
ATOM     39  C   UNL A   1      42.229  28.110  29.690  1.00  0.00     0.049 A 
ATOM     40  N   UNL A   1      40.215  30.300  29.554  1.00  0.00    -0.248 NA
ATOM     41  C   UNL A   1      38.636  28.937  28.635  1.00  0.00     0.031 C 
ATOM     42  C   UNL A   1      42.614  28.966  30.808  1.00  0.00     0.029 A 
ATOM     43  N   UNL A   1      43.395  27.407  29.406  1.00  0.00    -0.354 N 
ATOM     44  C   UNL A   1      38.993  30.918  29.707  1.00  0.00     0.074 A 
ATOM     45  C   UNL A   1      38.044  30.054  29.064  1.00  0.00     0.031 C 
ATOM     46  C   UNL A   1      43.955  28.957  30.933  1.00  0.00     0.029 A 
ATOM     47  C   UNL A   1      44.488  28.178  29.828  1.00  0.00     0.049 A 
ATOM     48  H   UNL A   1      43.446  26.521  28.981  1.00  0.00     0.167 HD
ATOM     49  C   UNL A   1      38.972  32.041  30.470  1.00  0.00     0.037 A 
ATOM     50  C   UNL A   1      45.377  28.624  28.891  1.00  0.00     0.037 A 
ATOM     51  C   UNL A   1      40.350  32.396  30.801  1.00  0.00     0.049 A 
ATOM     52  C   UNL A   1      45.267  30.122  28.723  1.00  0.00     0.074 A 
ATOM     53  C   UNL A   1      41.161  32.105  31.884  1.00  0.00     0.029 A 
ATOM     54  N   UNL A   1      41.192  32.759  29.760  1.00  0.00    -0.354 N 
ATOM     55  N   UNL A   1      44.206  30.820  29.034  1.00  0.00    -0.248 NA
ATOM     56  C   UNL A   1      46.382  30.963  28.304  1.00  0.00     0.031 C 
ATOM     57  C   UNL A   1      42.511  32.289  31.473  1.00  0.00     0.029 A 
ATOM     58  C   UNL A   1      42.513  32.702  30.150  1.00  0.00     0.049 A 
ATOM     59  H   UNL A   1      40.887  33.022  28.862  1.00  0.00     0.167 HD
ATOM     60  C   UNL A   1      44.478  32.162  28.916  1.00  0.00     0.074 A 
ATOM     61  C   UNL A   1      45.857  32.191  28.464  1.00  0.00     0.031 C 
ATOM     62  C   UNL A   1      43.559  33.129  29.229  1.00  0.00     0.037 A 
BRANCH  49  63
ATOM     63  C   UNL A   1      37.774  32.717  31.087  1.00  0.00     0.058 A 
ATOM     64  C   UNL A   1      36.868  33.397  30.240  1.00  0.00     0.135 A 
ATOM     65  C   UNL A   1      37.456  32.786  32.459  1.00  0.00     0.135 A 
ATOM     66  F   UNL A   1      37.026  33.416  28.909  1.00  0.00    -0.206 F 
ATOM     67  C   UNL A   1      35.767  34.106  30.708  1.00  0.00     0.059 A 
ATOM     68  C   UNL A   1      36.364  33.508  32.956  1.00  0.00     0.059 A 
ATOM     69  F   UNL A   1      38.171  32.138  33.385  1.00  0.00    -0.206 F 
ATOM     70  C   UNL A   1      35.523  34.165  32.070  1.00  0.00     0.060 A 
BRANCH  70  71
ATOM     71  S   UNL A   1      34.091  35.095  32.635  1.00  0.00     0.124 S 
ATOM     72  O   UNL A   1      33.161  34.030  32.996  1.00  0.00    -0.237 OA
ATOM     73  O   UNL A   1      34.644  35.859  33.749  1.00  0.00    -0.237 OA
ATOM     74  O   UNL A   1      33.711  35.882  31.466  1.00  0.00    -0.744 OA
ENDBRANCH  70  71
ENDBRANCH  49  63
BRANCH  50  75
ATOM     75  C   UNL A   1      45.610  27.576  27.839  1.00  0.00     0.058 A 
ATOM     76  C   UNL A   1      45.025  27.835  26.577  1.00  0.00     0.135 A 
ATOM     77  C   UNL A   1      46.780  26.802  27.846  1.00  0.00     0.135 A 
ATOM     78  F   UNL A   1      43.873  28.522  26.505  1.00  0.00    -0.206 F 
ATOM     79  C   UNL A   1      45.705  27.587  25.384  1.00  0.00     0.059 A 
ATOM     80  C   UNL A   1      47.460  26.511  26.656  1.00  0.00     0.059 A 
ATOM     81  F   UNL A   1      47.382  26.496  29.006  1.00  0.00    -0.206 F 
ATOM     82  C   UNL A   1      46.968  27.005  25.445  1.00  0.00     0.060 A 
BRANCH  82  83
ATOM     83  S   UNL A   1      48.011  27.041  23.964  1.00  0.00     0.124 S 
ATOM     84  O   UNL A   1      49.290  27.497  24.496  1.00  0.00    -0.237 OA
ATOM     85  O   UNL A   1      47.968  25.647  23.520  1.00  0.00    -0.237 OA
ATOM     86  O   UNL A   1      47.323  27.981  23.089  1.00  0.00    -0.744 OA
ENDBRANCH  82  83
ENDBRANCH  50  75
BRANCH  62  87
ATOM     87  C   UNL A   1      43.559  34.590  28.783  1.00  0.00     0.058 A 
ATOM     88  C   UNL A   1      43.677  35.690  29.645  1.00  0.00     0.135 A 
ATOM     89  C   UNL A   1      43.574  34.933  27.398  1.00  0.00     0.135 A 
ATOM     90  F   UNL A   1      43.813  35.551  30.968  1.00  0.00    -0.206 F 
ATOM     91  C   UNL A   1      43.716  37.008  29.188  1.00  0.00     0.059 A 
ATOM     92  C   UNL A   1      43.711  36.230  26.920  1.00  0.00     0.059 A 
ATOM     93  F   UNL A   1      43.471  34.020  26.424  1.00  0.00    -0.206 F 
ATOM     94  C   UNL A   1      43.740  37.269  27.824  1.00  0.00     0.060 A 
BRANCH  94  95
ATOM     95  S   UNL A   1      43.828  38.969  27.260  1.00  0.00     0.124 S 
ATOM     96  O   UNL A   1      45.046  38.942  26.457  1.00  0.00    -0.237 OA
ATOM     97  O   UNL A   1      42.581  39.110  26.513  1.00  0.00    -0.237 OA
ATOM     98  O   UNL A   1      43.903  39.740  28.496  1.00  0.00    -0.744 OA
ENDBRANCH  94  95
ENDBRANCH  62  87
ENDBRANCH  36  37
ENDBRANCH  28  31
ENDBRANCH  26  27
ENDBRANCH   1  26
TORSDOF 18
ENDMDL
