MODEL 1
REMARK VINA RESULT:     -13.2      0.000      0.000
REMARK SMILES O=C(NCCCNC(=O)c1nc(NC[C@H]2c3ccccc3CSc3ccccc32)c2ccccc2n1)c1ccc(-c2c3nc(c(-c4c(F)cc(S(=O)(=O)[O-])cc4F)c4ccc([nH]4)c(-c4c(F)cc(S(=O)(=O)[O-])cc4F)c4nc(c(-c5c(F)cc(S(=O)(=O)[O-])cc5F)c5ccc2[nH]5)C=C4)C=C3)cc1
REMARK SMILES IDX 5 1 4 2 3 3 1 4 2 5 37 7 38 8 102 9 39 10 101 11 40 12 41 13
REMARK SMILES IDX 42 14 95 15 43 16 100 17 94 18 96 19 44 20 99 21 93 22 92 23
REMARK SMILES IDX 45 25 79 26 58 27 78 28 59 29 62 30 77 31 97 32 60 33 61 34
REMARK SMILES IDX 76 36 98 37 63 38 46 39 47 40 56 41 48 42 49 43 55 44 57 45
REMARK SMILES IDX 50 46 51 47 52 48 53 49 54 50 80 51 81 52 90 53 82 54 83 55
REMARK SMILES IDX 89 56 91 57 84 58 85 59 86 60 87 61 88 62 64 63 65 64 74 65
REMARK SMILES IDX 66 66 67 67 73 68 75 69 68 70 69 71 70 72 71 73 72 74 6 75
REMARK SMILES IDX 7 76 8 77 9 79 10 80 11 81 36 82 12 83 35 84 30 85 34 86
REMARK SMILES IDX 31 87 33 88 32 89 13 90 14 92 15 93 16 94 29 95 17 96 21 97
REMARK SMILES IDX 24 98 28 99 18 100 20 101 22 102 23 103 25 104 27 105 19 106
REMARK SMILES IDX 26 107
REMARK H PARENT 3 6 96 24 62 35 7 78 13 91
REMARK Flexibility Score: inf
ROOT
ATOM      1  C   UNL A   1      34.855  29.461  27.563  1.00  0.00     0.042 C 
ENDROOT
BRANCH   1   2
ATOM      2  C   UNL A   1      35.466  30.639  28.306  1.00  0.00     0.118 C 
BRANCH   2   3
ATOM      3  N   UNL A   1      35.485  30.459  29.749  1.00  0.00    -0.352 N 
ATOM      4  O   UNL A   1      36.194  29.765  31.761  1.00  0.00    -0.269 OA
ATOM      5  C   UNL A   1      36.462  29.958  30.573  1.00  0.00     0.251 C 
ATOM      6  H   UNL A   1      34.662  30.741  30.211  1.00  0.00     0.163 HD
BRANCH   5   7
ATOM      7  C   UNL A   1      37.814  29.625  30.063  1.00  0.00     0.039 A 
ATOM      8  C   UNL A   1      38.750  29.082  30.950  1.00  0.00     0.014 A 
ATOM      9  C   UNL A   1      38.192  29.877  28.741  1.00  0.00     0.014 A 
ATOM     10  C   UNL A   1      40.036  28.761  30.503  1.00  0.00     0.010 A 
ATOM     11  C   UNL A   1      39.437  29.459  28.272  1.00  0.00     0.010 A 
ATOM     12  C   UNL A   1      40.386  28.922  29.151  1.00  0.00    -0.014 A 
BRANCH  12  13
ATOM     13  C   UNL A   1      41.756  28.590  28.669  1.00  0.00     0.031 A 
ATOM     14  C   UNL A   1      42.829  29.651  28.655  1.00  0.00     0.074 A 
ATOM     15  C   UNL A   1      42.036  27.343  28.238  1.00  0.00     0.049 A 
ATOM     16  N   UNL A   1      44.076  29.556  28.269  1.00  0.00    -0.248 NA
ATOM     17  C   UNL A   1      42.451  31.002  29.108  1.00  0.00     0.031 C 
ATOM     18  C   UNL A   1      41.077  26.239  28.159  1.00  0.00     0.029 A 
ATOM     19  N   UNL A   1      43.211  26.786  27.794  1.00  0.00    -0.354 N 
ATOM     20  C   UNL A   1      44.622  30.825  28.430  1.00  0.00     0.074 A 
ATOM     21  C   UNL A   1      43.559  31.692  28.880  1.00  0.00     0.031 C 
ATOM     22  C   UNL A   1      41.710  25.131  27.742  1.00  0.00     0.029 A 
ATOM     23  C   UNL A   1      43.112  25.448  27.484  1.00  0.00     0.049 A 
ATOM     24  H   UNL A   1      44.049  27.297  27.705  1.00  0.00     0.167 HD
ATOM     25  C   UNL A   1      45.904  31.224  28.260  1.00  0.00     0.037 A 
ATOM     26  C   UNL A   1      44.041  24.575  27.047  1.00  0.00     0.037 A 
ATOM     27  C   UNL A   1      46.971  30.349  27.860  1.00  0.00     0.049 A 
ATOM     28  C   UNL A   1      45.459  25.048  26.852  1.00  0.00     0.074 A 
ATOM     29  C   UNL A   1      48.314  30.650  27.712  1.00  0.00     0.029 A 
ATOM     30  N   UNL A   1      46.824  29.004  27.557  1.00  0.00    -0.354 N 
ATOM     31  N   UNL A   1      45.965  26.239  27.069  1.00  0.00    -0.248 NA
ATOM     32  C   UNL A   1      46.434  24.065  26.356  1.00  0.00     0.031 C 
ATOM     33  C   UNL A   1      48.971  29.500  27.271  1.00  0.00     0.029 A 
ATOM     34  C   UNL A   1      48.048  28.467  27.201  1.00  0.00     0.049 A 
ATOM     35  H   UNL A   1      45.975  28.507  27.588  1.00  0.00     0.167 HD
ATOM     36  C   UNL A   1      47.319  26.139  26.769  1.00  0.00     0.074 A 
ATOM     37  C   UNL A   1      47.558  24.772  26.360  1.00  0.00     0.031 C 
ATOM     38  C   UNL A   1      48.276  27.095  26.827  1.00  0.00     0.037 A 
BRANCH  25  39
ATOM     39  C   UNL A   1      46.247  32.662  28.543  1.00  0.00     0.058 A 
ATOM     40  C   UNL A   1      46.678  33.073  29.814  1.00  0.00     0.135 A 
ATOM     41  C   UNL A   1      46.250  33.614  27.509  1.00  0.00     0.135 A 
ATOM     42  F   UNL A   1      46.678  32.208  30.840  1.00  0.00    -0.206 F 
ATOM     43  C   UNL A   1      47.095  34.377  30.052  1.00  0.00     0.059 A 
ATOM     44  C   UNL A   1      46.691  34.918  27.719  1.00  0.00     0.059 A 
ATOM     45  F   UNL A   1      45.845  33.274  26.276  1.00  0.00    -0.206 F 
ATOM     46  C   UNL A   1      47.110  35.289  28.995  1.00  0.00     0.060 A 
BRANCH  46  47
ATOM     47  S   UNL A   1      47.714  36.959  29.316  1.00  0.00     0.124 S 
ATOM     48  O   UNL A   1      48.619  37.165  28.188  1.00  0.00    -0.237 OA
ATOM     49  O   UNL A   1      46.485  37.743  29.292  1.00  0.00    -0.237 OA
ATOM     50  O   UNL A   1      48.358  36.846  30.621  1.00  0.00    -0.744 OA
ENDBRANCH  46  47
ENDBRANCH  25  39
BRANCH  26  51
ATOM     51  C   UNL A   1      43.672  23.154  26.792  1.00  0.00     0.058 A 
ATOM     52  C   UNL A   1      43.356  22.288  27.850  1.00  0.00     0.135 A 
ATOM     53  C   UNL A   1      43.628  22.632  25.489  1.00  0.00     0.135 A 
ATOM     54  F   UNL A   1      43.391  22.733  29.114  1.00  0.00    -0.206 F 
ATOM     55  C   UNL A   1      43.030  20.953  27.629  1.00  0.00     0.059 A 
ATOM     56  C   UNL A   1      43.275  21.309  25.240  1.00  0.00     0.059 A 
ATOM     57  F   UNL A   1      43.905  23.421  24.439  1.00  0.00    -0.206 F 
ATOM     58  C   UNL A   1      42.990  20.474  26.318  1.00  0.00     0.060 A 
BRANCH  58  59
ATOM     59  S   UNL A   1      42.537  18.747  26.043  1.00  0.00     0.124 S 
ATOM     60  O   UNL A   1      43.450  18.370  24.970  1.00  0.00    -0.237 OA
ATOM     61  O   UNL A   1      42.803  18.150  27.348  1.00  0.00    -0.237 OA
ATOM     62  O   UNL A   1      41.126  18.824  25.673  1.00  0.00    -0.744 OA
ENDBRANCH  58  59
ENDBRANCH  26  51
BRANCH  38  63
ATOM     63  C   UNL A   1      49.689  26.717  26.482  1.00  0.00     0.058 A 
ATOM     64  C   UNL A   1      50.568  26.209  27.449  1.00  0.00     0.135 A 
ATOM     65  C   UNL A   1      50.112  26.719  25.141  1.00  0.00     0.135 A 
ATOM     66  F   UNL A   1      50.213  26.192  28.743  1.00  0.00    -0.206 F 
ATOM     67  C   UNL A   1      51.814  25.700  27.097  1.00  0.00     0.059 A 
ATOM     68  C   UNL A   1      51.342  26.192  24.765  1.00  0.00     0.059 A 
ATOM     69  F   UNL A   1      49.302  27.187  24.178  1.00  0.00    -0.206 F 
ATOM     70  C   UNL A   1      52.184  25.678  25.751  1.00  0.00     0.060 A 
BRANCH  70  71
ATOM     71  S   UNL A   1      53.758  24.915  25.304  1.00  0.00     0.124 S 
ATOM     72  O   UNL A   1      54.121  25.667  24.106  1.00  0.00    -0.237 OA
ATOM     73  O   UNL A   1      54.573  25.174  26.486  1.00  0.00    -0.237 OA
ATOM     74  O   UNL A   1      53.409  23.515  25.082  1.00  0.00    -0.744 OA
ENDBRANCH  70  71
ENDBRANCH  38  63
ENDBRANCH  12  13
ENDBRANCH   5   7
ENDBRANCH   2   3
ENDBRANCH   1   2
BRANCH   1  75
ATOM     75  C   UNL A   1      33.438  29.679  27.045  1.00  0.00     0.118 C 
BRANCH  75  76
ATOM     76  N   UNL A   1      33.381  29.850  25.600  1.00  0.00    -0.349 N 
ATOM     77  C   UNL A   1      33.129  28.920  24.604  1.00  0.00     0.289 C 
ATOM     78  H   UNL A   1      33.547  30.768  25.282  1.00  0.00     0.163 HD
ATOM     79  O   UNL A   1      33.223  29.287  23.432  1.00  0.00    -0.266 OA
BRANCH  77  80
ATOM     80  C   UNL A   1      32.793  27.490  24.937  1.00  0.00     0.220 A 
ATOM     81  N   UNL A   1      33.838  26.679  25.167  1.00  0.00    -0.206 NA
ATOM     82  N   UNL A   1      31.504  27.173  25.113  1.00  0.00    -0.224 NA
ATOM     83  C   UNL A   1      33.590  25.481  25.718  1.00  0.00     0.138 A 
ATOM     84  C   UNL A   1      31.259  25.972  25.628  1.00  0.00     0.077 A 
ATOM     85  C   UNL A   1      32.270  25.056  25.971  1.00  0.00     0.043 A 
ATOM     86  C   UNL A   1      29.934  25.649  25.883  1.00  0.00     0.029 A 
ATOM     87  C   UNL A   1      31.897  23.820  26.556  1.00  0.00     0.014 A 
ATOM     88  C   UNL A   1      29.574  24.433  26.463  1.00  0.00     0.002 A 
ATOM     89  C   UNL A   1      30.558  23.513  26.795  1.00  0.00     0.001 A 
BRANCH  83  90
ATOM     90  N   UNL A   1      34.682  24.758  26.201  1.00  0.00    -0.368 N 
ATOM     91  H   UNL A   1      34.895  24.783  27.163  1.00  0.00     0.162 HD
BRANCH  90  92
ATOM     92  C   UNL A   1      35.518  23.958  25.292  1.00  0.00     0.127 C 
BRANCH  92  93
ATOM     93  C   UNL A   1      35.006  22.480  25.058  1.00  0.00     0.070 C 
ATOM     94  C   UNL A   1      33.996  22.448  23.891  1.00  0.00    -0.035 A 
ATOM     95  C   UNL A   1      36.066  21.355  24.982  1.00  0.00    -0.025 A 
ATOM     96  C   UNL A   1      33.998  23.410  22.860  1.00  0.00     0.005 A 
ATOM     97  C   UNL A   1      33.012  21.436  23.840  1.00  0.00    -0.034 A 
ATOM     98  C   UNL A   1      35.786  19.970  24.878  1.00  0.00     0.011 A 
ATOM     99  C   UNL A   1      37.430  21.699  25.106  1.00  0.00     0.005 A 
ATOM    100  C   UNL A   1      33.052  23.383  21.831  1.00  0.00     0.000 A 
ATOM    101  C   UNL A   1      32.092  21.396  22.775  1.00  0.00     0.005 A 
ATOM    102  C   UNL A   1      32.961  20.361  24.886  1.00  0.00     0.110 C 
ATOM    103  S   UNL A   1      34.227  19.112  24.631  1.00  0.00    -0.121 SA
ATOM    104  C   UNL A   1      36.854  19.035  24.949  1.00  0.00     0.015 A 
ATOM    105  C   UNL A   1      38.461  20.766  25.226  1.00  0.00     0.000 A 
ATOM    106  C   UNL A   1      32.103  22.370  21.783  1.00  0.00     0.000 A 
ATOM    107  C   UNL A   1      38.173  19.422  25.148  1.00  0.00     0.001 A 
ENDBRANCH  92  93
ENDBRANCH  90  92
ENDBRANCH  83  90
ENDBRANCH  77  80
ENDBRANCH  75  76
ENDBRANCH   1  75
TORSDOF 16
ENDMDL
MODEL 2
REMARK VINA RESULT:     -12.9      4.204     11.128
REMARK SMILES O=C(NCCCNC(=O)c1nc(NC[C@H]2c3ccccc3CSc3ccccc32)c2ccccc2n1)c1ccc(-c2c3nc(c(-c4c(F)cc(S(=O)(=O)[O-])cc4F)c4ccc([nH]4)c(-c4c(F)cc(S(=O)(=O)[O-])cc4F)c4nc(c(-c5c(F)cc(S(=O)(=O)[O-])cc5F)c5ccc2[nH]5)C=C4)C=C3)cc1
REMARK SMILES IDX 5 1 4 2 3 3 1 4 2 5 37 7 38 8 102 9 39 10 101 11 40 12 41 13
REMARK SMILES IDX 42 14 95 15 43 16 100 17 94 18 96 19 44 20 99 21 93 22 92 23
REMARK SMILES IDX 45 25 79 26 58 27 78 28 59 29 62 30 77 31 97 32 60 33 61 34
REMARK SMILES IDX 76 36 98 37 63 38 46 39 47 40 56 41 48 42 49 43 55 44 57 45
REMARK SMILES IDX 50 46 51 47 52 48 53 49 54 50 80 51 81 52 90 53 82 54 83 55
REMARK SMILES IDX 89 56 91 57 84 58 85 59 86 60 87 61 88 62 64 63 65 64 74 65
REMARK SMILES IDX 66 66 67 67 73 68 75 69 68 70 69 71 70 72 71 73 72 74 6 75
REMARK SMILES IDX 7 76 8 77 9 79 10 80 11 81 36 82 12 83 35 84 30 85 34 86
REMARK SMILES IDX 31 87 33 88 32 89 13 90 14 92 15 93 16 94 29 95 17 96 21 97
REMARK SMILES IDX 24 98 28 99 18 100 20 101 22 102 23 103 25 104 27 105 19 106
REMARK SMILES IDX 26 107
REMARK H PARENT 3 6 96 24 62 35 7 78 13 91
REMARK Flexibility Score: inf
ROOT
ATOM      1  C   UNL A   1      34.429  31.423  28.078  1.00  0.00     0.042 C 
ENDROOT
BRANCH   1   2
ATOM      2  C   UNL A   1      35.675  30.759  28.646  1.00  0.00     0.118 C 
BRANCH   2   3
ATOM      3  N   UNL A   1      35.680  30.695  30.099  1.00  0.00    -0.352 N 
ATOM      4  O   UNL A   1      36.368  30.163  32.166  1.00  0.00    -0.269 OA
ATOM      5  C   UNL A   1      36.648  30.260  30.969  1.00  0.00     0.251 C 
ATOM      6  H   UNL A   1      34.853  31.014  30.528  1.00  0.00     0.163 HD
BRANCH   5   7
ATOM      7  C   UNL A   1      38.005  29.886  30.500  1.00  0.00     0.039 A 
ATOM      8  C   UNL A   1      38.465  30.416  29.290  1.00  0.00     0.014 A 
ATOM      9  C   UNL A   1      38.813  28.992  31.205  1.00  0.00     0.014 A 
ATOM     10  C   UNL A   1      39.736  30.081  28.816  1.00  0.00     0.010 A 
ATOM     11  C   UNL A   1      40.120  28.742  30.786  1.00  0.00     0.010 A 
ATOM     12  C   UNL A   1      40.590  29.260  29.572  1.00  0.00    -0.014 A 
BRANCH  12  13
ATOM     13  C   UNL A   1      41.944  28.892  29.070  1.00  0.00     0.031 A 
ATOM     14  C   UNL A   1      42.210  27.490  28.576  1.00  0.00     0.074 A 
ATOM     15  C   UNL A   1      42.934  29.807  29.064  1.00  0.00     0.049 A 
ATOM     16  N   UNL A   1      43.320  26.980  28.106  1.00  0.00    -0.248 NA
ATOM     17  C   UNL A   1      41.096  26.528  28.638  1.00  0.00     0.031 C 
ATOM     18  C   UNL A   1      42.818  31.182  29.556  1.00  0.00     0.029 A 
ATOM     19  N   UNL A   1      44.232  29.728  28.620  1.00  0.00    -0.354 N 
ATOM     20  C   UNL A   1      43.037  25.648  27.824  1.00  0.00     0.074 A 
ATOM     21  C   UNL A   1      41.675  25.405  28.239  1.00  0.00     0.031 C 
ATOM     22  C   UNL A   1      43.977  31.827  29.344  1.00  0.00     0.029 A 
ATOM     23  C   UNL A   1      44.934  30.907  28.737  1.00  0.00     0.049 A 
ATOM     24  H   UNL A   1      44.625  28.903  28.251  1.00  0.00     0.167 HD
ATOM     25  C   UNL A   1      43.825  24.720  27.233  1.00  0.00     0.037 A 
ATOM     26  C   UNL A   1      46.201  31.214  28.393  1.00  0.00     0.037 A 
ATOM     27  C   UNL A   1      45.163  24.977  26.776  1.00  0.00     0.049 A 
ATOM     28  C   UNL A   1      47.063  30.159  27.749  1.00  0.00     0.074 A 
ATOM     29  C   UNL A   1      46.022  24.115  26.118  1.00  0.00     0.029 A 
ATOM     30  N   UNL A   1      45.832  26.183  26.916  1.00  0.00    -0.354 N 
ATOM     31  N   UNL A   1      46.753  28.922  27.437  1.00  0.00    -0.248 NA
ATOM     32  C   UNL A   1      48.444  30.534  27.408  1.00  0.00     0.031 C 
ATOM     33  C   UNL A   1      47.229  24.783  25.903  1.00  0.00     0.029 A 
ATOM     34  C   UNL A   1      47.101  26.080  26.376  1.00  0.00     0.049 A 
ATOM     35  H   UNL A   1      45.460  26.990  27.339  1.00  0.00     0.167 HD
ATOM     36  C   UNL A   1      47.886  28.386  26.834  1.00  0.00     0.074 A 
ATOM     37  C   UNL A   1      48.888  29.430  26.820  1.00  0.00     0.031 C 
ATOM     38  C   UNL A   1      48.076  27.140  26.340  1.00  0.00     0.037 A 
BRANCH  25  39
ATOM     39  C   UNL A   1      43.259  23.345  27.003  1.00  0.00     0.058 A 
ATOM     40  C   UNL A   1      42.926  22.899  25.714  1.00  0.00     0.135 A 
ATOM     41  C   UNL A   1      43.151  22.428  28.062  1.00  0.00     0.135 A 
ATOM     42  F   UNL A   1      42.995  23.739  24.669  1.00  0.00    -0.206 F 
ATOM     43  C   UNL A   1      42.503  21.596  25.484  1.00  0.00     0.059 A 
ATOM     44  C   UNL A   1      42.756  21.111  27.850  1.00  0.00     0.059 A 
ATOM     45  F   UNL A   1      43.455  22.804  29.314  1.00  0.00    -0.206 F 
ATOM     46  C   UNL A   1      42.433  20.705  26.556  1.00  0.00     0.060 A 
BRANCH  46  47
ATOM     47  S   UNL A   1      41.939  19.001  26.222  1.00  0.00     0.124 S 
ATOM     48  O   UNL A   1      42.174  18.369  27.517  1.00  0.00    -0.237 OA
ATOM     49  O   UNL A   1      40.540  19.155  25.838  1.00  0.00    -0.237 OA
ATOM     50  O   UNL A   1      42.840  18.588  25.151  1.00  0.00    -0.744 OA
ENDBRANCH  46  47
ENDBRANCH  25  39
BRANCH  26  51
ATOM     51  C   UNL A   1      46.726  32.590  28.620  1.00  0.00     0.058 A 
ATOM     52  C   UNL A   1      47.311  32.947  29.844  1.00  0.00     0.135 A 
ATOM     53  C   UNL A   1      46.653  33.574  27.621  1.00  0.00     0.135 A 
ATOM     54  F   UNL A   1      47.399  32.047  30.834  1.00  0.00    -0.206 F 
ATOM     55  C   UNL A   1      47.788  34.234  30.078  1.00  0.00     0.059 A 
ATOM     56  C   UNL A   1      47.149  34.859  27.821  1.00  0.00     0.059 A 
ATOM     57  F   UNL A   1      46.117  33.282  26.426  1.00  0.00    -0.206 F 
ATOM     58  C   UNL A   1      47.703  35.183  29.058  1.00  0.00     0.060 A 
BRANCH  58  59
ATOM     59  S   UNL A   1      48.352  36.841  29.364  1.00  0.00     0.124 S 
ATOM     60  O   UNL A   1      49.680  36.752  28.768  1.00  0.00    -0.237 OA
ATOM     61  O   UNL A   1      47.389  37.681  28.659  1.00  0.00    -0.237 OA
ATOM     62  O   UNL A   1      48.321  36.951  30.820  1.00  0.00    -0.744 OA
ENDBRANCH  58  59
ENDBRANCH  26  51
BRANCH  38  63
ATOM     63  C   UNL A   1      49.397  26.817  25.699  1.00  0.00     0.058 A 
ATOM     64  C   UNL A   1      49.636  27.081  24.342  1.00  0.00     0.135 A 
ATOM     65  C   UNL A   1      50.478  26.387  26.488  1.00  0.00     0.135 A 
ATOM     66  F   UNL A   1      48.635  27.488  23.546  1.00  0.00    -0.206 F 
ATOM     67  C   UNL A   1      50.906  26.945  23.792  1.00  0.00     0.059 A 
ATOM     68  C   UNL A   1      51.761  26.268  25.964  1.00  0.00     0.059 A 
ATOM     69  F   UNL A   1      50.301  26.130  27.794  1.00  0.00    -0.206 F 
ATOM     70  C   UNL A   1      51.966  26.555  24.615  1.00  0.00     0.060 A 
BRANCH  70  71
ATOM     71  S   UNL A   1      53.625  26.489  23.907  1.00  0.00     0.124 S 
ATOM     72  O   UNL A   1      54.245  25.437  24.707  1.00  0.00    -0.237 OA
ATOM     73  O   UNL A   1      53.353  26.149  22.514  1.00  0.00    -0.237 OA
ATOM     74  O   UNL A   1      54.146  27.833  24.129  1.00  0.00    -0.744 OA
ENDBRANCH  70  71
ENDBRANCH  38  63
ENDBRANCH  12  13
ENDBRANCH   5   7
ENDBRANCH   2   3
ENDBRANCH   1   2
BRANCH   1  75
ATOM     75  C   UNL A   1      34.604  32.872  27.638  1.00  0.00     0.118 C 
BRANCH  75  76
ATOM     76  N   UNL A   1      33.628  33.769  28.238  1.00  0.00    -0.349 N 
ATOM     77  C   UNL A   1      33.589  34.319  29.510  1.00  0.00     0.289 C 
ATOM     78  H   UNL A   1      32.880  34.026  27.650  1.00  0.00     0.163 HD
ATOM     79  O   UNL A   1      32.604  34.989  29.822  1.00  0.00    -0.266 OA
BRANCH  77  80
ATOM     80  C   UNL A   1      34.697  34.073  30.501  1.00  0.00     0.220 A 
ATOM     81  N   UNL A   1      35.947  34.203  30.029  1.00  0.00    -0.206 NA
ATOM     82  N   UNL A   1      34.361  33.886  31.784  1.00  0.00    -0.224 NA
ATOM     83  C   UNL A   1      36.949  34.255  30.919  1.00  0.00     0.138 A 
ATOM     84  C   UNL A   1      35.360  33.904  32.661  1.00  0.00     0.077 A 
ATOM     85  C   UNL A   1      36.706  34.095  32.298  1.00  0.00     0.043 A 
ATOM     86  C   UNL A   1      35.029  33.780  34.003  1.00  0.00     0.029 A 
ATOM     87  C   UNL A   1      37.685  34.141  33.323  1.00  0.00     0.014 A 
ATOM     88  C   UNL A   1      35.996  33.831  35.006  1.00  0.00     0.002 A 
ATOM     89  C   UNL A   1      37.330  34.006  34.664  1.00  0.00     0.001 A 
BRANCH  83  90
ATOM     90  N   UNL A   1      38.202  34.656  30.453  1.00  0.00    -0.368 N 
ATOM     91  H   UNL A   1      38.320  35.566  30.096  1.00  0.00     0.162 HD
BRANCH  90  92
ATOM     92  C   UNL A   1      39.350  33.736  30.490  1.00  0.00     0.127 C 
BRANCH  92  93
ATOM     93  C   UNL A   1      40.614  34.292  31.263  1.00  0.00     0.070 C 
ATOM     94  C   UNL A   1      41.007  33.327  32.401  1.00  0.00    -0.035 A 
ATOM     95  C   UNL A   1      41.820  34.769  30.419  1.00  0.00    -0.025 A 
ATOM     96  C   UNL A   1      40.697  31.951  32.369  1.00  0.00     0.005 A 
ATOM     97  C   UNL A   1      41.689  33.818  33.535  1.00  0.00    -0.034 A 
ATOM     98  C   UNL A   1      42.988  35.386  30.933  1.00  0.00     0.011 A 
ATOM     99  C   UNL A   1      41.746  34.669  29.012  1.00  0.00     0.005 A 
ATOM    100  C   UNL A   1      41.032  31.101  33.427  1.00  0.00     0.000 A 
ATOM    101  C   UNL A   1      42.058  32.941  34.575  1.00  0.00     0.005 A 
ATOM    102  C   UNL A   1      42.077  35.265  33.632  1.00  0.00     0.110 C 
ATOM    103  S   UNL A   1      43.519  35.644  32.630  1.00  0.00    -0.121 SA
ATOM    104  C   UNL A   1      43.963  35.893  30.032  1.00  0.00     0.015 A 
ATOM    105  C   UNL A   1      42.688  35.219  28.141  1.00  0.00     0.000 A 
ATOM    106  C   UNL A   1      41.721  31.593  34.527  1.00  0.00     0.000 A 
ATOM    107  C   UNL A   1      43.806  35.837  28.653  1.00  0.00     0.001 A 
ENDBRANCH  92  93
ENDBRANCH  90  92
ENDBRANCH  83  90
ENDBRANCH  77  80
ENDBRANCH  75  76
ENDBRANCH   1  75
TORSDOF 16
ENDMDL
MODEL 3
REMARK VINA RESULT:     -12.9      0.518      7.927
REMARK SMILES O=C(NCCCNC(=O)c1nc(NC[C@H]2c3ccccc3CSc3ccccc32)c2ccccc2n1)c1ccc(-c2c3nc(c(-c4c(F)cc(S(=O)(=O)[O-])cc4F)c4ccc([nH]4)c(-c4c(F)cc(S(=O)(=O)[O-])cc4F)c4nc(c(-c5c(F)cc(S(=O)(=O)[O-])cc5F)c5ccc2[nH]5)C=C4)C=C3)cc1
REMARK SMILES IDX 5 1 4 2 3 3 1 4 2 5 37 7 38 8 102 9 39 10 101 11 40 12 41 13
REMARK SMILES IDX 42 14 95 15 43 16 100 17 94 18 96 19 44 20 99 21 93 22 92 23
REMARK SMILES IDX 45 25 79 26 58 27 78 28 59 29 62 30 77 31 97 32 60 33 61 34
REMARK SMILES IDX 76 36 98 37 63 38 46 39 47 40 56 41 48 42 49 43 55 44 57 45
REMARK SMILES IDX 50 46 51 47 52 48 53 49 54 50 80 51 81 52 90 53 82 54 83 55
REMARK SMILES IDX 89 56 91 57 84 58 85 59 86 60 87 61 88 62 64 63 65 64 74 65
REMARK SMILES IDX 66 66 67 67 73 68 75 69 68 70 69 71 70 72 71 73 72 74 6 75
REMARK SMILES IDX 7 76 8 77 9 79 10 80 11 81 36 82 12 83 35 84 30 85 34 86
REMARK SMILES IDX 31 87 33 88 32 89 13 90 14 92 15 93 16 94 29 95 17 96 21 97
REMARK SMILES IDX 24 98 28 99 18 100 20 101 22 102 23 103 25 104 27 105 19 106
REMARK SMILES IDX 26 107
REMARK H PARENT 3 6 96 24 62 35 7 78 13 91
REMARK Flexibility Score: inf
ROOT
ATOM      1  C   UNL A   1      34.757  29.384  26.971  1.00  0.00     0.042 C 
ENDROOT
BRANCH   1   2
ATOM      2  C   UNL A   1      35.537  30.434  27.749  1.00  0.00     0.118 C 
BRANCH   2   3
ATOM      3  N   UNL A   1      35.400  30.300  29.190  1.00  0.00    -0.352 N 
ATOM      4  O   UNL A   1      35.898  29.688  31.290  1.00  0.00    -0.269 OA
ATOM      5  C   UNL A   1      36.292  29.852  30.133  1.00  0.00     0.251 C 
ATOM      6  H   UNL A   1      34.524  30.572  29.549  1.00  0.00     0.163 HD
BRANCH   5   7
ATOM      7  C   UNL A   1      37.700  29.542  29.786  1.00  0.00     0.039 A 
ATOM      8  C   UNL A   1      38.138  29.787  28.480  1.00  0.00     0.014 A 
ATOM      9  C   UNL A   1      38.584  28.976  30.708  1.00  0.00     0.014 A 
ATOM     10  C   UNL A   1      39.458  29.502  28.118  1.00  0.00     0.010 A 
ATOM     11  C   UNL A   1      39.926  28.792  30.376  1.00  0.00     0.010 A 
ATOM     12  C   UNL A   1      40.375  29.025  29.070  1.00  0.00    -0.014 A 
BRANCH  12  13
ATOM     13  C   UNL A   1      41.781  28.712  28.690  1.00  0.00     0.031 A 
ATOM     14  C   UNL A   1      42.152  27.315  28.256  1.00  0.00     0.074 A 
ATOM     15  C   UNL A   1      42.725  29.674  28.740  1.00  0.00     0.049 A 
ATOM     16  N   UNL A   1      43.320  26.848  27.891  1.00  0.00    -0.248 NA
ATOM     17  C   UNL A   1      41.083  26.301  28.252  1.00  0.00     0.031 C 
ATOM     18  C   UNL A   1      42.505  31.052  29.185  1.00  0.00     0.029 A 
ATOM     19  N   UNL A   1      44.058  29.648  28.406  1.00  0.00    -0.354 N 
ATOM     20  C   UNL A   1      43.123  25.498  27.622  1.00  0.00     0.074 A 
ATOM     21  C   UNL A   1      41.744  25.198  27.931  1.00  0.00     0.031 C 
ATOM     22  C   UNL A   1      43.646  31.748  29.051  1.00  0.00     0.029 A 
ATOM     23  C   UNL A   1      44.692  30.862  28.549  1.00  0.00     0.049 A 
ATOM     24  H   UNL A   1      44.518  28.835  28.092  1.00  0.00     0.167 HD
ATOM     25  C   UNL A   1      44.000  24.596  27.122  1.00  0.00     0.037 A 
ATOM     26  C   UNL A   1      45.968  31.222  28.302  1.00  0.00     0.037 A 
ATOM     27  C   UNL A   1      45.358  24.908  26.769  1.00  0.00     0.049 A 
ATOM     28  C   UNL A   1      46.928  30.196  27.758  1.00  0.00     0.074 A 
ATOM     29  C   UNL A   1      46.307  24.074  26.206  1.00  0.00     0.029 A 
ATOM     30  N   UNL A   1      45.956  26.147  26.932  1.00  0.00    -0.354 N 
ATOM     31  N   UNL A   1      46.703  28.939  27.454  1.00  0.00    -0.248 NA
ATOM     32  C   UNL A   1      48.314  30.630  27.521  1.00  0.00     0.031 C 
ATOM     33  C   UNL A   1      47.496  24.795  26.073  1.00  0.00     0.029 A 
ATOM     34  C   UNL A   1      47.269  26.095  26.500  1.00  0.00     0.049 A 
ATOM     35  H   UNL A   1      45.514  26.945  27.301  1.00  0.00     0.167 HD
ATOM     36  C   UNL A   1      47.905  28.445  26.960  1.00  0.00     0.074 A 
ATOM     37  C   UNL A   1      48.855  29.535  27.000  1.00  0.00     0.031 C 
ATOM     38  C   UNL A   1      48.194  27.199  26.515  1.00  0.00     0.037 A 
BRANCH  25  39
ATOM     39  C   UNL A   1      43.520  23.191  26.882  1.00  0.00     0.058 A 
ATOM     40  C   UNL A   1      43.365  22.684  25.582  1.00  0.00     0.135 A 
ATOM     41  C   UNL A   1      43.317  22.310  27.958  1.00  0.00     0.135 A 
ATOM     42  F   UNL A   1      43.531  23.487  24.519  1.00  0.00    -0.206 F 
ATOM     43  C   UNL A   1      43.023  21.356  25.357  1.00  0.00     0.059 A 
ATOM     44  C   UNL A   1      43.001  20.970  27.755  1.00  0.00     0.059 A 
ATOM     45  F   UNL A   1      43.448  22.745  29.221  1.00  0.00    -0.206 F 
ATOM     46  C   UNL A   1      42.856  20.503  26.449  1.00  0.00     0.060 A 
BRANCH  46  47
ATOM     47  S   UNL A   1      42.472  18.769  26.129  1.00  0.00     0.124 S 
ATOM     48  O   UNL A   1      42.697  18.172  27.443  1.00  0.00    -0.237 OA
ATOM     49  O   UNL A   1      41.081  18.835  25.694  1.00  0.00    -0.237 OA
ATOM     50  O   UNL A   1      43.433  18.390  25.098  1.00  0.00    -0.744 OA
ENDBRANCH  46  47
ENDBRANCH  25  39
BRANCH  26  51
ATOM     51  C   UNL A   1      46.407  32.626  28.535  1.00  0.00     0.058 A 
ATOM     52  C   UNL A   1      46.272  33.602  27.535  1.00  0.00     0.135 A 
ATOM     53  C   UNL A   1      46.971  33.023  29.758  1.00  0.00     0.135 A 
ATOM     54  F   UNL A   1      45.746  33.274  26.345  1.00  0.00    -0.206 F 
ATOM     55  C   UNL A   1      46.696  34.913  27.730  1.00  0.00     0.059 A 
ATOM     56  C   UNL A   1      47.376  34.334  29.987  1.00  0.00     0.059 A 
ATOM     57  F   UNL A   1      47.110  32.135  30.754  1.00  0.00    -0.206 F 
ATOM     58  C   UNL A   1      47.246  35.269  28.963  1.00  0.00     0.060 A 
BRANCH  58  59
ATOM     59  S   UNL A   1      47.767  36.981  29.213  1.00  0.00     0.124 S 
ATOM     60  O   UNL A   1      46.804  37.704  28.390  1.00  0.00    -0.237 OA
ATOM     61  O   UNL A   1      47.618  37.137  30.656  1.00  0.00    -0.237 OA
ATOM     62  O   UNL A   1      49.144  36.989  28.728  1.00  0.00    -0.744 OA
ENDBRANCH  58  59
ENDBRANCH  26  51
BRANCH  38  63
ATOM     63  C   UNL A   1      49.577  26.927  25.993  1.00  0.00     0.058 A 
ATOM     64  C   UNL A   1      49.902  27.131  24.644  1.00  0.00     0.135 A 
ATOM     65  C   UNL A   1      50.617  26.609  26.883  1.00  0.00     0.135 A 
ATOM     66  F   UNL A   1      48.943  27.430  23.755  1.00  0.00    -0.206 F 
ATOM     67  C   UNL A   1      51.217  27.046  24.198  1.00  0.00     0.059 A 
ATOM     68  C   UNL A   1      51.941  26.543  26.462  1.00  0.00     0.059 A 
ATOM     69  F   UNL A   1      50.356  26.413  28.185  1.00  0.00    -0.206 F 
ATOM     70  C   UNL A   1      52.232  26.769  25.117  1.00  0.00     0.060 A 
BRANCH  70  71
ATOM     71  S   UNL A   1      53.941  26.770  24.538  1.00  0.00     0.124 S 
ATOM     72  O   UNL A   1      54.636  27.378  25.669  1.00  0.00    -0.237 OA
ATOM     73  O   UNL A   1      54.196  25.349  24.327  1.00  0.00    -0.237 OA
ATOM     74  O   UNL A   1      53.891  27.580  23.325  1.00  0.00    -0.744 OA
ENDBRANCH  70  71
ENDBRANCH  38  63
ENDBRANCH  12  13
ENDBRANCH   5   7
ENDBRANCH   2   3
ENDBRANCH   1   2
BRANCH   1  75
ATOM     75  C   UNL A   1      33.360  29.803  26.528  1.00  0.00     0.118 C 
BRANCH  75  76
ATOM     76  N   UNL A   1      33.221  29.878  25.081  1.00  0.00    -0.349 N 
ATOM     77  C   UNL A   1      32.946  28.877  24.162  1.00  0.00     0.289 C 
ATOM     78  H   UNL A   1      33.341  30.776  24.696  1.00  0.00     0.163 HD
ATOM     79  O   UNL A   1      32.965  29.169  22.965  1.00  0.00    -0.266 OA
BRANCH  77  80
ATOM     80  C   UNL A   1      32.672  27.463  24.604  1.00  0.00     0.220 A 
ATOM     81  N   UNL A   1      33.752  26.704  24.846  1.00  0.00    -0.206 NA
ATOM     82  N   UNL A   1      31.402  27.118  24.852  1.00  0.00    -0.224 NA
ATOM     83  C   UNL A   1      33.568  25.540  25.486  1.00  0.00     0.138 A 
ATOM     84  C   UNL A   1      31.219  25.948  25.456  1.00  0.00     0.077 A 
ATOM     85  C   UNL A   1      32.274  25.091  25.819  1.00  0.00     0.043 A 
ATOM     86  C   UNL A   1      29.917  25.600  25.785  1.00  0.00     0.029 A 
ATOM     87  C   UNL A   1      31.966  23.886  26.502  1.00  0.00     0.014 A 
ATOM     88  C   UNL A   1      29.621  24.417  26.460  1.00  0.00     0.002 A 
ATOM     89  C   UNL A   1      30.648  23.554  26.813  1.00  0.00     0.001 A 
BRANCH  83  90
ATOM     90  N   UNL A   1      34.701  24.887  25.973  1.00  0.00    -0.368 N 
ATOM     91  H   UNL A   1      34.953  24.990  26.920  1.00  0.00     0.162 HD
BRANCH  90  92
ATOM     92  C   UNL A   1      35.525  24.047  25.090  1.00  0.00     0.127 C 
BRANCH  92  93
ATOM     93  C   UNL A   1      35.021  22.555  24.944  1.00  0.00     0.070 C 
ATOM     94  C   UNL A   1      33.989  22.453  23.800  1.00  0.00    -0.035 A 
ATOM     95  C   UNL A   1      36.088  21.435  24.908  1.00  0.00    -0.025 A 
ATOM     96  C   UNL A   1      33.965  23.359  22.719  1.00  0.00     0.005 A 
ATOM     97  C   UNL A   1      33.013  21.434  23.821  1.00  0.00    -0.034 A 
ATOM     98  C   UNL A   1      35.817  20.044  24.883  1.00  0.00     0.011 A 
ATOM     99  C   UNL A   1      37.451  21.794  24.988  1.00  0.00     0.005 A 
ATOM    100  C   UNL A   1      33.000  23.271  21.711  1.00  0.00     0.000 A 
ATOM    101  C   UNL A   1      32.073  21.330  22.776  1.00  0.00     0.005 A 
ATOM    102  C   UNL A   1      32.989  20.415  24.924  1.00  0.00     0.110 C 
ATOM    103  S   UNL A   1      34.260  19.163  24.711  1.00  0.00    -0.121 SA
ATOM    104  C   UNL A   1      36.893  19.122  24.983  1.00  0.00     0.015 A 
ATOM    105  C   UNL A   1      38.491  20.876  25.138  1.00  0.00     0.000 A 
ATOM    106  C   UNL A   1      32.059  22.250  21.734  1.00  0.00     0.000 A 
ATOM    107  C   UNL A   1      38.213  19.528  25.137  1.00  0.00     0.001 A 
ENDBRANCH  92  93
ENDBRANCH  90  92
ENDBRANCH  83  90
ENDBRANCH  77  80
ENDBRANCH  75  76
ENDBRANCH   1  75
TORSDOF 16
ENDMDL
