MODEL 1
REMARK VINA RESULT:     -12.3      0.000      0.000
REMARK SMILES O=C(NCCCNC(=O)[C@H](Cc1cccc(Cl)c1)Cc1ccccn1)c1ccc(-c2c3nc(c(-c4c(F)cc(S(=O)(=O)[O-])cc4F)c4ccc([nH]4)c(-c4c(F)cc(S(=O)(=O)[O-])cc4F)c4nc(c(-c5c(F)cc(S(=O)(=O)[O-])cc5F)c5ccc2[nH]5)C=C4)C=C3)cc1
REMARK SMILES IDX 4 1 3 2 1 3 2 4 26 6 27 7 91 8 28 9 90 10 29 11 30 12 31 13
REMARK SMILES IDX 84 14 32 15 89 16 83 17 85 18 33 19 88 20 82 21 81 22 34 24
REMARK SMILES IDX 68 25 47 26 67 27 48 28 51 29 66 30 86 31 49 32 50 33 65 35
REMARK SMILES IDX 87 36 52 37 35 38 36 39 45 40 37 41 38 42 44 43 46 44 39 45
REMARK SMILES IDX 40 46 41 47 42 48 43 49 69 50 70 51 79 52 71 53 72 54 78 55
REMARK SMILES IDX 80 56 73 57 74 58 75 59 76 60 77 61 53 62 54 63 63 64 55 65
REMARK SMILES IDX 56 66 62 67 64 68 57 69 58 70 59 71 60 72 61 73 5 74 6 75
REMARK SMILES IDX 7 76 8 77 9 79 10 80 19 81 20 82 21 83 25 84 22 85 24 86
REMARK SMILES IDX 23 87 11 88 12 89 13 90 18 91 14 92 16 93 15 94 17 95
REMARK H PARENT 3 5 85 23 51 34 7 78
REMARK Flexibility Score: inf
ROOT
ATOM      1  C   UNL A   1      35.333  30.784  28.075  1.00  0.00     0.118 C 
ENDROOT
BRANCH   1   2
ATOM      2  N   UNL A   1      35.394  30.685  29.530  1.00  0.00    -0.352 N 
ATOM      3  O   UNL A   1      36.088  29.999  31.552  1.00  0.00    -0.269 OA
ATOM      4  C   UNL A   1      36.350  30.148  30.360  1.00  0.00     0.251 C 
ATOM      5  H   UNL A   1      34.617  31.067  29.996  1.00  0.00     0.163 HD
BRANCH   4   6
ATOM      6  C   UNL A   1      37.668  29.724  29.835  1.00  0.00     0.039 A 
ATOM      7  C   UNL A   1      38.626  29.155  30.672  1.00  0.00     0.014 A 
ATOM      8  C   UNL A   1      37.946  29.869  28.472  1.00  0.00     0.014 A 
ATOM      9  C   UNL A   1      39.913  28.931  30.203  1.00  0.00     0.010 A 
ATOM     10  C   UNL A   1      39.207  29.518  27.972  1.00  0.00     0.010 A 
ATOM     11  C   UNL A   1      40.220  29.091  28.842  1.00  0.00    -0.014 A 
BRANCH  11  12
ATOM     12  C   UNL A   1      41.593  28.761  28.373  1.00  0.00     0.031 A 
ATOM     13  C   UNL A   1      42.697  29.786  28.402  1.00  0.00     0.074 A 
ATOM     14  C   UNL A   1      41.854  27.500  27.972  1.00  0.00     0.049 A 
ATOM     15  N   UNL A   1      43.960  29.641  28.091  1.00  0.00    -0.248 NA
ATOM     16  C   UNL A   1      42.342  31.149  28.823  1.00  0.00     0.031 C 
ATOM     17  C   UNL A   1      40.862  26.424  27.881  1.00  0.00     0.029 A 
ATOM     18  N   UNL A   1      43.029  26.896  27.604  1.00  0.00    -0.354 N 
ATOM     19  C   UNL A   1      44.542  30.895  28.245  1.00  0.00     0.074 A 
ATOM     20  C   UNL A   1      43.488  31.795  28.660  1.00  0.00     0.031 C 
ATOM     21  C   UNL A   1      41.481  25.279  27.560  1.00  0.00     0.029 A 
ATOM     22  C   UNL A   1      42.898  25.550  27.352  1.00  0.00     0.049 A 
ATOM     23  H   UNL A   1      43.882  27.378  27.526  1.00  0.00     0.167 HD
ATOM     24  C   UNL A   1      45.836  31.258  28.064  1.00  0.00     0.037 A 
ATOM     25  C   UNL A   1      43.813  24.632  26.989  1.00  0.00     0.037 A 
ATOM     26  C   UNL A   1      46.887  30.347  27.685  1.00  0.00     0.049 A 
ATOM     27  C   UNL A   1      45.240  25.059  26.809  1.00  0.00     0.074 A 
ATOM     28  C   UNL A   1      48.236  30.610  27.522  1.00  0.00     0.029 A 
ATOM     29  N   UNL A   1      46.708  28.999  27.411  1.00  0.00    -0.354 N 
ATOM     30  N   UNL A   1      45.773  26.244  26.988  1.00  0.00    -0.248 NA
ATOM     31  C   UNL A   1      46.190  24.027  26.374  1.00  0.00     0.031 C 
ATOM     32  C   UNL A   1      48.866  29.430  27.112  1.00  0.00     0.029 A 
ATOM     33  C   UNL A   1      47.919  28.422  27.062  1.00  0.00     0.049 A 
ATOM     34  H   UNL A   1      45.849  28.522  27.458  1.00  0.00     0.167 HD
ATOM     35  C   UNL A   1      47.124  26.098  26.702  1.00  0.00     0.074 A 
ATOM     36  C   UNL A   1      47.329  24.705  26.357  1.00  0.00     0.031 C 
ATOM     37  C   UNL A   1      48.106  27.033  26.723  1.00  0.00     0.037 A 
BRANCH  24  38
ATOM     38  C   UNL A   1      46.188  32.710  28.251  1.00  0.00     0.058 A 
ATOM     39  C   UNL A   1      46.100  33.638  27.202  1.00  0.00     0.135 A 
ATOM     40  C   UNL A   1      46.584  33.186  29.512  1.00  0.00     0.135 A 
ATOM     41  F   UNL A   1      45.740  33.238  25.972  1.00  0.00    -0.206 F 
ATOM     42  C   UNL A   1      46.420  34.980  27.389  1.00  0.00     0.059 A 
ATOM     43  C   UNL A   1      46.885  34.527  29.728  1.00  0.00     0.059 A 
ATOM     44  F   UNL A   1      46.683  32.342  30.552  1.00  0.00    -0.206 F 
ATOM     45  C   UNL A   1      46.816  35.414  28.655  1.00  0.00     0.060 A 
BRANCH  45  46
ATOM     46  S   UNL A   1      47.231  37.157  28.884  1.00  0.00     0.124 S 
ATOM     47  O   UNL A   1      46.940  37.340  30.303  1.00  0.00    -0.237 OA
ATOM     48  O   UNL A   1      48.643  37.195  28.518  1.00  0.00    -0.237 OA
ATOM     49  O   UNL A   1      46.330  37.845  27.966  1.00  0.00    -0.744 OA
ENDBRANCH  45  46
ENDBRANCH  24  38
BRANCH  25  50
ATOM     50  C   UNL A   1      43.400  23.219  26.782  1.00  0.00     0.058 A 
ATOM     51  C   UNL A   1      43.342  22.664  25.496  1.00  0.00     0.135 A 
ATOM     52  C   UNL A   1      43.087  22.388  27.869  1.00  0.00     0.135 A 
ATOM     53  F   UNL A   1      43.630  23.420  24.426  1.00  0.00    -0.206 F 
ATOM     54  C   UNL A   1      42.979  21.337  25.292  1.00  0.00     0.059 A 
ATOM     55  C   UNL A   1      42.747  21.051  27.693  1.00  0.00     0.059 A 
ATOM     56  F   UNL A   1      43.146  22.867  29.121  1.00  0.00    -0.206 F 
ATOM     57  C   UNL A   1      42.686  20.537  26.399  1.00  0.00     0.060 A 
BRANCH  57  58
ATOM     58  S   UNL A   1      42.271  18.801  26.130  1.00  0.00     0.124 S 
ATOM     59  O   UNL A   1      43.245  18.422  25.113  1.00  0.00    -0.237 OA
ATOM     60  O   UNL A   1      42.474  18.225  27.455  1.00  0.00    -0.237 OA
ATOM     61  O   UNL A   1      40.881  18.854  25.685  1.00  0.00    -0.744 OA
ENDBRANCH  57  58
ENDBRANCH  25  50
BRANCH  37  62
ATOM     62  C   UNL A   1      49.497  26.568  26.393  1.00  0.00     0.058 A 
ATOM     63  C   UNL A   1      50.043  26.729  25.111  1.00  0.00     0.135 A 
ATOM     64  C   UNL A   1      50.297  25.970  27.379  1.00  0.00     0.135 A 
ATOM     65  F   UNL A   1      49.315  27.287  24.131  1.00  0.00    -0.206 F 
ATOM     66  C   UNL A   1      51.326  26.285  24.808  1.00  0.00     0.059 A 
ATOM     67  C   UNL A   1      51.592  25.542  27.106  1.00  0.00     0.059 A 
ATOM     68  F   UNL A   1      49.824  25.801  28.624  1.00  0.00    -0.206 F 
ATOM     69  C   UNL A   1      52.091  25.688  25.812  1.00  0.00     0.060 A 
BRANCH  69  70
ATOM     70  S   UNL A   1      53.760  25.125  25.413  1.00  0.00     0.124 S 
ATOM     71  O   UNL A   1      53.954  25.701  24.087  1.00  0.00    -0.237 OA
ATOM     72  O   UNL A   1      54.556  25.716  26.484  1.00  0.00    -0.237 OA
ATOM     73  O   UNL A   1      53.645  23.671  25.456  1.00  0.00    -0.744 OA
ENDBRANCH  69  70
ENDBRANCH  37  62
ENDBRANCH  11  12
ENDBRANCH   4   6
ENDBRANCH   1   2
BRANCH   1  74
ATOM     74  C   UNL A   1      33.946  31.136  27.569  1.00  0.00     0.042 C 
BRANCH  74  75
ATOM     75  C   UNL A   1      33.227  29.965  26.914  1.00  0.00     0.117 C 
BRANCH  75  76
ATOM     76  N   UNL A   1      33.642  29.746  25.533  1.00  0.00    -0.356 N 
ATOM     77  C   UNL A   1      32.981  29.262  24.444  1.00  0.00     0.223 C 
ATOM     78  H   UNL A   1      34.578  29.997  25.353  1.00  0.00     0.163 HD
ATOM     79  O   UNL A   1      33.606  29.198  23.381  1.00  0.00    -0.275 OA
BRANCH  77  80
ATOM     80  C   UNL A   1      31.526  28.809  24.506  1.00  0.00     0.089 C 
BRANCH  80  81
ATOM     81  C   UNL A   1      30.964  28.845  23.078  1.00  0.00     0.070 C 
BRANCH  81  82
ATOM     82  C   UNL A   1      29.845  29.810  22.821  1.00  0.00     0.041 A 
ATOM     83  C   UNL A   1      29.416  30.697  23.803  1.00  0.00     0.024 A 
ATOM     84  N   UNL A   1      29.329  29.801  21.569  1.00  0.00    -0.261 NA
ATOM     85  C   UNL A   1      28.410  31.607  23.486  1.00  0.00     0.003 A 
ATOM     86  C   UNL A   1      28.349  30.688  21.292  1.00  0.00     0.111 A 
ATOM     87  C   UNL A   1      27.860  31.601  22.210  1.00  0.00     0.020 A 
ENDBRANCH  81  82
ENDBRANCH  80  81
BRANCH  80  88
ATOM     88  C   UNL A   1      31.452  27.500  25.315  1.00  0.00     0.049 C 
BRANCH  88  89
ATOM     89  C   UNL A   1      31.519  26.206  24.545  1.00  0.00    -0.046 A 
ATOM     90  C   UNL A   1      30.358  25.527  24.159  1.00  0.00     0.004 A 
ATOM     91  C   UNL A   1      32.769  25.633  24.264  1.00  0.00     0.024 A 
ATOM     92  C   UNL A   1      30.449  24.302  23.493  1.00  0.00     0.002 A 
ATOM     93  C   UNL A   1      32.855  24.423  23.584  1.00  0.00     0.041 A 
ATOM     94  C   UNL A   1      31.698  23.751  23.201  1.00  0.00     0.020 A 
ATOM     95  Cl  UNL A   1      34.398  23.754  23.221  1.00  0.00    -0.084 Cl
ENDBRANCH  88  89
ENDBRANCH  80  88
ENDBRANCH  77  80
ENDBRANCH  75  76
ENDBRANCH  74  75
ENDBRANCH   1  74
TORSDOF 17
ENDMDL
MODEL 2
REMARK VINA RESULT:     -12.1      6.780     12.244
REMARK SMILES O=C(NCCCNC(=O)[C@H](Cc1cccc(Cl)c1)Cc1ccccn1)c1ccc(-c2c3nc(c(-c4c(F)cc(S(=O)(=O)[O-])cc4F)c4ccc([nH]4)c(-c4c(F)cc(S(=O)(=O)[O-])cc4F)c4nc(c(-c5c(F)cc(S(=O)(=O)[O-])cc5F)c5ccc2[nH]5)C=C4)C=C3)cc1
REMARK SMILES IDX 4 1 3 2 1 3 2 4 26 6 27 7 91 8 28 9 90 10 29 11 30 12 31 13
REMARK SMILES IDX 84 14 32 15 89 16 83 17 85 18 33 19 88 20 82 21 81 22 34 24
REMARK SMILES IDX 68 25 47 26 67 27 48 28 51 29 66 30 86 31 49 32 50 33 65 35
REMARK SMILES IDX 87 36 52 37 35 38 36 39 45 40 37 41 38 42 44 43 46 44 39 45
REMARK SMILES IDX 40 46 41 47 42 48 43 49 69 50 70 51 79 52 71 53 72 54 78 55
REMARK SMILES IDX 80 56 73 57 74 58 75 59 76 60 77 61 53 62 54 63 63 64 55 65
REMARK SMILES IDX 56 66 62 67 64 68 57 69 58 70 59 71 60 72 61 73 5 74 6 75
REMARK SMILES IDX 7 76 8 77 9 79 10 80 19 81 20 82 21 83 25 84 22 85 24 86
REMARK SMILES IDX 23 87 11 88 12 89 13 90 18 91 14 92 16 93 15 94 17 95
REMARK H PARENT 3 5 85 23 51 34 7 78
REMARK Flexibility Score: inf
ROOT
ATOM      1  C   UNL A   1      39.839  23.274  26.924  1.00  0.00     0.118 C 
ENDROOT
BRANCH   1   2
ATOM      2  N   UNL A   1      40.825  23.931  26.073  1.00  0.00    -0.352 N 
ATOM      3  O   UNL A   1      42.010  25.599  25.148  1.00  0.00    -0.269 OA
ATOM      4  C   UNL A   1      41.331  25.210  26.096  1.00  0.00     0.251 C 
ATOM      5  H   UNL A   1      41.191  23.361  25.359  1.00  0.00     0.163 HD
BRANCH   4   6
ATOM      6  C   UNL A   1      41.046  26.124  27.225  1.00  0.00     0.039 A 
ATOM      7  C   UNL A   1      41.735  27.327  27.368  1.00  0.00     0.014 A 
ATOM      8  C   UNL A   1      40.048  25.791  28.147  1.00  0.00     0.014 A 
ATOM      9  C   UNL A   1      41.584  28.082  28.523  1.00  0.00     0.010 A 
ATOM     10  C   UNL A   1      39.804  26.623  29.248  1.00  0.00     0.010 A 
ATOM     11  C   UNL A   1      40.603  27.753  29.473  1.00  0.00    -0.014 A 
BRANCH  11  12
ATOM     12  C   UNL A   1      40.424  28.638  30.656  1.00  0.00     0.031 A 
ATOM     13  C   UNL A   1      41.342  28.548  31.847  1.00  0.00     0.074 A 
ATOM     14  C   UNL A   1      39.455  29.575  30.622  1.00  0.00     0.049 A 
ATOM     15  N   UNL A   1      41.362  29.288  32.926  1.00  0.00    -0.248 NA
ATOM     16  C   UNL A   1      42.361  27.487  31.835  1.00  0.00     0.031 C 
ATOM     17  C   UNL A   1      38.490  29.748  29.531  1.00  0.00     0.029 A 
ATOM     18  N   UNL A   1      39.140  30.579  31.500  1.00  0.00    -0.354 N 
ATOM     19  C   UNL A   1      42.367  28.766  33.734  1.00  0.00     0.074 A 
ATOM     20  C   UNL A   1      42.923  27.632  33.027  1.00  0.00     0.031 C 
ATOM     21  C   UNL A   1      37.746  30.838  29.767  1.00  0.00     0.029 A 
ATOM     22  C   UNL A   1      38.129  31.400  31.057  1.00  0.00     0.049 A 
ATOM     23  H   UNL A   1      39.593  30.701  32.365  1.00  0.00     0.167 HD
ATOM     24  C   UNL A   1      42.791  29.197  34.947  1.00  0.00     0.037 A 
ATOM     25  C   UNL A   1      37.565  32.483  31.623  1.00  0.00     0.037 A 
ATOM     26  C   UNL A   1      42.257  30.350  35.628  1.00  0.00     0.049 A 
ATOM     27  C   UNL A   1      38.064  32.947  32.961  1.00  0.00     0.074 A 
ATOM     28  C   UNL A   1      42.651  30.894  36.839  1.00  0.00     0.029 A 
ATOM     29  N   UNL A   1      41.214  31.136  35.159  1.00  0.00    -0.354 N 
ATOM     30  N   UNL A   1      39.034  32.455  33.692  1.00  0.00    -0.248 NA
ATOM     31  C   UNL A   1      37.387  34.109  33.551  1.00  0.00     0.031 C 
ATOM     32  C   UNL A   1      41.821  31.985  37.120  1.00  0.00     0.029 A 
ATOM     33  C   UNL A   1      40.940  32.149  36.064  1.00  0.00     0.049 A 
ATOM     34  H   UNL A   1      40.740  30.996  34.309  1.00  0.00     0.167 HD
ATOM     35  C   UNL A   1      39.097  33.257  34.825  1.00  0.00     0.074 A 
ATOM     36  C   UNL A   1      38.078  34.277  34.671  1.00  0.00     0.031 C 
ATOM     37  C   UNL A   1      39.923  33.157  35.896  1.00  0.00     0.037 A 
BRANCH  24  38
ATOM     38  C   UNL A   1      43.874  28.407  35.632  1.00  0.00     0.058 A 
ATOM     39  C   UNL A   1      43.583  27.376  36.538  1.00  0.00     0.135 A 
ATOM     40  C   UNL A   1      45.226  28.664  35.347  1.00  0.00     0.135 A 
ATOM     41  F   UNL A   1      42.310  27.095  36.859  1.00  0.00    -0.206 F 
ATOM     42  C   UNL A   1      44.593  26.646  37.159  1.00  0.00     0.059 A 
ATOM     43  C   UNL A   1      46.251  27.930  35.937  1.00  0.00     0.059 A 
ATOM     44  F   UNL A   1      45.562  29.637  34.486  1.00  0.00    -0.206 F 
ATOM     45  C   UNL A   1      45.925  26.933  36.855  1.00  0.00     0.060 A 
BRANCH  45  46
ATOM     46  S   UNL A   1      47.225  25.982  37.670  1.00  0.00     0.124 S 
ATOM     47  O   UNL A   1      46.777  24.613  37.428  1.00  0.00    -0.237 OA
ATOM     48  O   UNL A   1      48.420  26.392  36.940  1.00  0.00    -0.237 OA
ATOM     49  O   UNL A   1      47.157  26.429  39.057  1.00  0.00    -0.744 OA
ENDBRANCH  45  46
ENDBRANCH  24  38
BRANCH  25  50
ATOM     50  C   UNL A   1      36.474  33.202  30.916  1.00  0.00     0.058 A 
ATOM     51  C   UNL A   1      35.146  33.116  31.359  1.00  0.00     0.135 A 
ATOM     52  C   UNL A   1      36.741  34.016  29.804  1.00  0.00     0.135 A 
ATOM     53  F   UNL A   1      34.841  32.348  32.416  1.00  0.00    -0.206 F 
ATOM     54  C   UNL A   1      34.119  33.802  30.719  1.00  0.00     0.059 A 
ATOM     55  C   UNL A   1      35.736  34.733  29.164  1.00  0.00     0.059 A 
ATOM     56  F   UNL A   1      37.998  34.147  29.354  1.00  0.00    -0.206 F 
ATOM     57  C   UNL A   1      34.426  34.611  29.623  1.00  0.00     0.060 A 
BRANCH  57  58
ATOM     58  S   UNL A   1      33.097  35.544  28.834  1.00  0.00     0.124 S 
ATOM     59  O   UNL A   1      33.846  36.544  28.083  1.00  0.00    -0.237 OA
ATOM     60  O   UNL A   1      32.428  34.518  28.040  1.00  0.00    -0.237 OA
ATOM     61  O   UNL A   1      32.325  36.050  29.966  1.00  0.00    -0.744 OA
ENDBRANCH  57  58
ENDBRANCH  25  50
BRANCH  37  62
ATOM     62  C   UNL A   1      39.777  34.200  36.968  1.00  0.00     0.058 A 
ATOM     63  C   UNL A   1      39.016  33.968  38.123  1.00  0.00     0.135 A 
ATOM     64  C   UNL A   1      40.424  35.440  36.844  1.00  0.00     0.135 A 
ATOM     65  F   UNL A   1      38.371  32.802  38.285  1.00  0.00    -0.206 F 
ATOM     66  C   UNL A   1      38.874  34.941  39.106  1.00  0.00     0.059 A 
ATOM     67  C   UNL A   1      40.317  36.418  37.827  1.00  0.00     0.059 A 
ATOM     68  F   UNL A   1      41.172  35.707  35.763  1.00  0.00    -0.206 F 
ATOM     69  C   UNL A   1      39.525  36.165  38.946  1.00  0.00     0.060 A 
BRANCH  69  70
ATOM     70  S   UNL A   1      39.346  37.420  40.233  1.00  0.00     0.124 S 
ATOM     71  O   UNL A   1      40.719  37.890  40.377  1.00  0.00    -0.237 OA
ATOM     72  O   UNL A   1      38.413  38.363  39.625  1.00  0.00    -0.237 OA
ATOM     73  O   UNL A   1      38.816  36.668  41.367  1.00  0.00    -0.744 OA
ENDBRANCH  69  70
ENDBRANCH  37  62
ENDBRANCH  11  12
ENDBRANCH   4   6
ENDBRANCH   1   2
BRANCH   1  74
ATOM     74  C   UNL A   1      39.041  22.213  26.186  1.00  0.00     0.042 C 
BRANCH  74  75
ATOM     75  C   UNL A   1      37.665  22.690  25.746  1.00  0.00     0.117 C 
BRANCH  75  76
ATOM     76  N   UNL A   1      36.757  21.591  25.435  1.00  0.00    -0.356 N 
ATOM     77  C   UNL A   1      35.461  21.565  25.018  1.00  0.00     0.223 C 
ATOM     78  H   UNL A   1      37.158  20.699  25.548  1.00  0.00     0.163 HD
ATOM     79  O   UNL A   1      34.947  20.460  24.826  1.00  0.00    -0.275 OA
BRANCH  77  80
ATOM     80  C   UNL A   1      34.650  22.837  24.789  1.00  0.00     0.089 C 
BRANCH  80  81
ATOM     81  C   UNL A   1      33.790  22.624  23.534  1.00  0.00     0.070 C 
BRANCH  81  82
ATOM     82  C   UNL A   1      33.089  23.833  22.989  1.00  0.00     0.041 A 
ATOM     83  C   UNL A   1      31.714  23.992  23.121  1.00  0.00     0.024 A 
ATOM     84  N   UNL A   1      33.882  24.772  22.420  1.00  0.00    -0.261 NA
ATOM     85  C   UNL A   1      31.128  25.162  22.642  1.00  0.00     0.003 A 
ATOM     86  C   UNL A   1      33.286  25.892  21.956  1.00  0.00     0.111 A 
ATOM     87  C   UNL A   1      31.926  26.129  22.043  1.00  0.00     0.020 A 
ENDBRANCH  81  82
ENDBRANCH  80  81
BRANCH  80  88
ATOM     88  C   UNL A   1      33.969  23.233  26.113  1.00  0.00     0.049 C 
BRANCH  88  89
ATOM     89  C   UNL A   1      33.227  24.544  26.146  1.00  0.00    -0.046 A 
ATOM     90  C   UNL A   1      31.876  24.608  26.501  1.00  0.00     0.004 A 
ATOM     91  C   UNL A   1      33.884  25.719  25.748  1.00  0.00     0.024 A 
ATOM     92  C   UNL A   1      31.199  25.829  26.471  1.00  0.00     0.002 A 
ATOM     93  C   UNL A   1      33.210  26.935  25.738  1.00  0.00     0.041 A 
ATOM     94  C   UNL A   1      31.867  26.995  26.093  1.00  0.00     0.020 A 
ATOM     95  Cl  UNL A   1      34.043  28.369  25.279  1.00  0.00    -0.084 Cl
ENDBRANCH  88  89
ENDBRANCH  80  88
ENDBRANCH  77  80
ENDBRANCH  75  76
ENDBRANCH  74  75
ENDBRANCH   1  74
TORSDOF 17
ENDMDL
MODEL 3
REMARK VINA RESULT:     -12.1      3.320      9.496
REMARK SMILES O=C(NCCCNC(=O)[C@H](Cc1cccc(Cl)c1)Cc1ccccn1)c1ccc(-c2c3nc(c(-c4c(F)cc(S(=O)(=O)[O-])cc4F)c4ccc([nH]4)c(-c4c(F)cc(S(=O)(=O)[O-])cc4F)c4nc(c(-c5c(F)cc(S(=O)(=O)[O-])cc5F)c5ccc2[nH]5)C=C4)C=C3)cc1
REMARK SMILES IDX 4 1 3 2 1 3 2 4 26 6 27 7 91 8 28 9 90 10 29 11 30 12 31 13
REMARK SMILES IDX 84 14 32 15 89 16 83 17 85 18 33 19 88 20 82 21 81 22 34 24
REMARK SMILES IDX 68 25 47 26 67 27 48 28 51 29 66 30 86 31 49 32 50 33 65 35
REMARK SMILES IDX 87 36 52 37 35 38 36 39 45 40 37 41 38 42 44 43 46 44 39 45
REMARK SMILES IDX 40 46 41 47 42 48 43 49 69 50 70 51 79 52 71 53 72 54 78 55
REMARK SMILES IDX 80 56 73 57 74 58 75 59 76 60 77 61 53 62 54 63 63 64 55 65
REMARK SMILES IDX 56 66 62 67 64 68 57 69 58 70 59 71 60 72 61 73 5 74 6 75
REMARK SMILES IDX 7 76 8 77 9 79 10 80 19 81 20 82 21 83 25 84 22 85 24 86
REMARK SMILES IDX 23 87 11 88 12 89 13 90 18 91 14 92 16 93 15 94 17 95
REMARK H PARENT 3 5 85 23 51 34 7 78
REMARK Flexibility Score: inf
ROOT
ATOM      1  C   UNL A   1      34.026  27.684  26.497  1.00  0.00     0.118 C 
ENDROOT
BRANCH   1   2
ATOM      2  N   UNL A   1      33.655  29.037  26.895  1.00  0.00    -0.352 N 
ATOM      3  O   UNL A   1      33.737  30.988  28.004  1.00  0.00    -0.269 OA
ATOM      4  C   UNL A   1      34.337  29.984  27.623  1.00  0.00     0.251 C 
ATOM      5  H   UNL A   1      32.764  29.321  26.590  1.00  0.00     0.163 HD
BRANCH   4   6
ATOM      6  C   UNL A   1      35.763  29.798  27.975  1.00  0.00     0.039 A 
ATOM      7  C   UNL A   1      36.773  30.076  27.055  1.00  0.00     0.014 A 
ATOM      8  C   UNL A   1      36.105  29.366  29.260  1.00  0.00     0.014 A 
ATOM      9  C   UNL A   1      38.086  29.727  27.339  1.00  0.00     0.010 A 
ATOM     10  C   UNL A   1      37.447  29.137  29.590  1.00  0.00     0.010 A 
ATOM     11  C   UNL A   1      38.448  29.269  28.616  1.00  0.00    -0.014 A 
BRANCH  11  12
ATOM     12  C   UNL A   1      39.881  28.984  28.897  1.00  0.00     0.031 A 
ATOM     13  C   UNL A   1      40.509  27.671  28.509  1.00  0.00     0.074 A 
ATOM     14  C   UNL A   1      40.636  29.952  29.455  1.00  0.00     0.049 A 
ATOM     15  N   UNL A   1      41.756  27.291  28.622  1.00  0.00    -0.248 NA
ATOM     16  C   UNL A   1      39.626  26.647  27.928  1.00  0.00     0.031 C 
ATOM     17  C   UNL A   1      40.138  31.260  29.893  1.00  0.00     0.029 A 
ATOM     18  N   UNL A   1      41.981  30.009  29.717  1.00  0.00    -0.354 N 
ATOM     19  C   UNL A   1      41.803  25.979  28.162  1.00  0.00     0.074 A 
ATOM     20  C   UNL A   1      40.454  25.621  27.784  1.00  0.00     0.031 C 
ATOM     21  C   UNL A   1      41.170  32.015  30.295  1.00  0.00     0.029 A 
ATOM     22  C   UNL A   1      42.393  31.225  30.212  1.00  0.00     0.049 A 
ATOM     23  H   UNL A   1      42.592  29.253  29.567  1.00  0.00     0.167 HD
ATOM     24  C   UNL A   1      42.874  25.154  28.059  1.00  0.00     0.037 A 
ATOM     25  C   UNL A   1      43.616  31.660  30.567  1.00  0.00     0.037 A 
ATOM     26  C   UNL A   1      44.222  25.531  28.403  1.00  0.00     0.049 A 
ATOM     27  C   UNL A   1      44.786  30.730  30.428  1.00  0.00     0.074 A 
ATOM     28  C   UNL A   1      45.381  24.782  28.290  1.00  0.00     0.029 A 
ATOM     29  N   UNL A   1      44.593  26.761  28.928  1.00  0.00    -0.354 N 
ATOM     30  N   UNL A   1      44.812  29.504  29.964  1.00  0.00    -0.248 NA
ATOM     31  C   UNL A   1      46.092  31.240  30.866  1.00  0.00     0.031 C 
ATOM     32  C   UNL A   1      46.446  25.545  28.782  1.00  0.00     0.029 A 
ATOM     33  C   UNL A   1      45.959  26.785  29.161  1.00  0.00     0.049 A 
ATOM     34  H   UNL A   1      43.977  27.507  29.108  1.00  0.00     0.167 HD
ATOM     35  C   UNL A   1      46.140  29.099  30.039  1.00  0.00     0.074 A 
ATOM     36  C   UNL A   1      46.887  30.219  30.575  1.00  0.00     0.031 C 
ATOM     37  C   UNL A   1      46.688  27.908  29.694  1.00  0.00     0.037 A 
BRANCH  24  38
ATOM     38  C   UNL A   1      42.632  23.750  27.571  1.00  0.00     0.058 A 
ATOM     39  C   UNL A   1      42.597  23.433  26.205  1.00  0.00     0.135 A 
ATOM     40  C   UNL A   1      42.469  22.700  28.490  1.00  0.00     0.135 A 
ATOM     41  F   UNL A   1      42.734  24.398  25.282  1.00  0.00    -0.206 F 
ATOM     42  C   UNL A   1      42.381  22.129  25.766  1.00  0.00     0.059 A 
ATOM     43  C   UNL A   1      42.276  21.386  28.074  1.00  0.00     0.059 A 
ATOM     44  F   UNL A   1      42.496  22.947  29.809  1.00  0.00    -0.206 F 
ATOM     45  C   UNL A   1      42.218  21.113  26.708  1.00  0.00     0.060 A 
BRANCH  45  46
ATOM     46  S   UNL A   1      41.935  19.428  26.126  1.00  0.00     0.124 S 
ATOM     47  O   UNL A   1      40.516  19.474  25.782  1.00  0.00    -0.237 OA
ATOM     48  O   UNL A   1      42.855  19.326  24.998  1.00  0.00    -0.237 OA
ATOM     49  O   UNL A   1      42.273  18.606  27.283  1.00  0.00    -0.744 OA
ENDBRANCH  45  46
ENDBRANCH  24  38
BRANCH  25  50
ATOM     50  C   UNL A   1      43.790  33.045  31.076  1.00  0.00     0.058 A 
ATOM     51  C   UNL A   1      43.956  34.123  30.195  1.00  0.00     0.135 A 
ATOM     52  C   UNL A   1      43.760  33.322  32.451  1.00  0.00     0.135 A 
ATOM     53  F   UNL A   1      43.994  33.907  28.871  1.00  0.00    -0.206 F 
ATOM     54  C   UNL A   1      44.097  35.426  30.658  1.00  0.00     0.059 A 
ATOM     55  C   UNL A   1      43.872  34.620  32.938  1.00  0.00     0.059 A 
ATOM     56  F   UNL A   1      43.584  32.327  33.334  1.00  0.00    -0.206 F 
ATOM     57  C   UNL A   1      44.051  35.665  32.033  1.00  0.00     0.060 A 
BRANCH  57  58
ATOM     58  S   UNL A   1      44.177  37.366  32.624  1.00  0.00     0.124 S 
ATOM     59  O   UNL A   1      45.494  37.362  33.249  1.00  0.00    -0.237 OA
ATOM     60  O   UNL A   1      44.058  38.133  31.388  1.00  0.00    -0.237 OA
ATOM     61  O   UNL A   1      43.043  37.487  33.537  1.00  0.00    -0.744 OA
ENDBRANCH  57  58
ENDBRANCH  25  50
BRANCH  37  62
ATOM     62  C   UNL A   1      48.176  27.771  29.859  1.00  0.00     0.058 A 
ATOM     63  C   UNL A   1      48.744  27.280  31.044  1.00  0.00     0.135 A 
ATOM     64  C   UNL A   1      49.041  28.119  28.810  1.00  0.00     0.135 A 
ATOM     65  F   UNL A   1      47.960  26.942  32.080  1.00  0.00    -0.206 F 
ATOM     66  C   UNL A   1      50.122  27.167  31.196  1.00  0.00     0.059 A 
ATOM     67  C   UNL A   1      50.420  27.990  28.930  1.00  0.00     0.059 A 
ATOM     68  F   UNL A   1      48.547  28.584  27.652  1.00  0.00    -0.206 F 
ATOM     69  C   UNL A   1      50.952  27.529  30.134  1.00  0.00     0.060 A 
BRANCH  69  70
ATOM     70  S   UNL A   1      52.739  27.369  30.335  1.00  0.00     0.124 S 
ATOM     71  O   UNL A   1      53.092  28.677  30.875  1.00  0.00    -0.237 OA
ATOM     72  O   UNL A   1      52.853  26.249  31.262  1.00  0.00    -0.237 OA
ATOM     73  O   UNL A   1      53.209  27.101  28.979  1.00  0.00    -0.744 OA
ENDBRANCH  69  70
ENDBRANCH  37  62
ENDBRANCH  11  12
ENDBRANCH   4   6
ENDBRANCH   1   2
BRANCH   1  74
ATOM     74  C   UNL A   1      33.505  27.314  25.119  1.00  0.00     0.042 C 
BRANCH  74  75
ATOM     75  C   UNL A   1      33.240  25.825  24.954  1.00  0.00     0.117 C 
BRANCH  75  76
ATOM     76  N   UNL A   1      32.309  25.301  25.948  1.00  0.00    -0.356 N 
ATOM     77  C   UNL A   1      32.039  24.035  26.371  1.00  0.00     0.223 C 
ATOM     78  H   UNL A   1      31.774  25.995  26.398  1.00  0.00     0.163 HD
ATOM     79  O   UNL A   1      31.184  23.900  27.252  1.00  0.00    -0.275 OA
BRANCH  77  80
ATOM     80  C   UNL A   1      32.750  22.813  25.799  1.00  0.00     0.089 C 
BRANCH  80  81
ATOM     81  C   UNL A   1      33.917  22.468  26.736  1.00  0.00     0.070 C 
BRANCH  81  82
ATOM     82  C   UNL A   1      35.276  22.376  26.110  1.00  0.00     0.041 A 
ATOM     83  C   UNL A   1      36.117  23.481  26.039  1.00  0.00     0.024 A 
ATOM     84  N   UNL A   1      35.647  21.147  25.677  1.00  0.00    -0.261 NA
ATOM     85  C   UNL A   1      37.389  23.319  25.496  1.00  0.00     0.003 A 
ATOM     86  C   UNL A   1      36.883  21.021  25.146  1.00  0.00     0.111 A 
ATOM     87  C   UNL A   1      37.780  22.068  25.034  1.00  0.00     0.020 A 
ENDBRANCH  81  82
ENDBRANCH  80  81
BRANCH  80  88
ATOM     88  C   UNL A   1      31.696  21.736  25.477  1.00  0.00     0.049 C 
BRANCH  88  89
ATOM     89  C   UNL A   1      32.153  20.532  24.694  1.00  0.00    -0.046 A 
ATOM     90  C   UNL A   1      32.151  20.528  23.295  1.00  0.00     0.004 A 
ATOM     91  C   UNL A   1      32.528  19.366  25.378  1.00  0.00     0.024 A 
ATOM     92  C   UNL A   1      32.529  19.380  22.595  1.00  0.00     0.002 A 
ATOM     93  C   UNL A   1      32.921  18.231  24.677  1.00  0.00     0.041 A 
ATOM     94  C   UNL A   1      32.918  18.232  23.286  1.00  0.00     0.020 A 
ATOM     95  Cl  UNL A   1      33.408  16.822  25.536  1.00  0.00    -0.084 Cl
ENDBRANCH  88  89
ENDBRANCH  80  88
ENDBRANCH  77  80
ENDBRANCH  75  76
ENDBRANCH  74  75
ENDBRANCH   1  74
TORSDOF 17
ENDMDL
