MODEL 1
REMARK VINA RESULT:     -11.1      0.000      0.000
REMARK SMILES CC(C)C[N@@H+](Cc1ccc(C(=O)NCCCNC(=O)c2ccc(-c3c4nc(c(-c5c(F)cc(S(=O)(=O)[O-])cc5F)c5ccc([nH]5)c(-c5c(F)cc(S(=O)(=O)[O-])cc5F)c5nc(c(-c6c(F)cc(S(=O)(=O)[O-])cc6F)c6ccc3[nH]6)C=C5)C=C4)cc2)cn1)C1CC1
REMARK SMILES IDX 14 1 13 2 11 3 12 4 10 6 7 7 8 8 87 9 9 10 86 11 6 12 5 13
REMARK SMILES IDX 4 15 2 16 1 17 3 18 88 19 89 20 90 21 15 22 16 23 17 24
REMARK SMILES IDX 18 25 19 27 20 28 21 29 85 30 22 31 84 32 23 33 24 34 25 35
REMARK SMILES IDX 78 36 26 37 83 38 77 39 79 40 27 41 82 42 76 43 75 44 28 46
REMARK SMILES IDX 62 47 41 48 61 49 42 50 45 51 60 52 80 53 43 54 44 55 59 57
REMARK SMILES IDX 81 58 46 59 29 60 30 61 39 62 31 63 32 64 38 65 40 66 33 67
REMARK SMILES IDX 34 68 35 69 36 70 37 71 63 72 64 73 73 74 65 75 66 76 72 77
REMARK SMILES IDX 74 78 67 79 68 80 69 81 70 82 71 83 47 84 48 85 57 86 49 87
REMARK SMILES IDX 50 88 56 89 58 90 51 91 52 92 53 93 54 94 55 95
REMARK H PARENT 13 5 5 14 17 26 79 45 45 56
REMARK Flexibility Score: inf
ROOT
ATOM      1  C   UNL A   1      37.770  22.330  25.836  1.00  0.00     0.118 C 
ENDROOT
BRANCH   1   2
ATOM      2  N   UNL A   1      37.532  22.430  24.401  1.00  0.00    -0.352 N 
ATOM      3  C   UNL A   1      36.429  22.866  23.711  1.00  0.00     0.252 C 
ATOM      4  O   UNL A   1      36.486  23.010  22.491  1.00  0.00    -0.269 OA
ATOM      5  H   UNL A   1      38.284  22.139  23.837  1.00  0.00     0.163 HD
BRANCH   3   6
ATOM      6  C   UNL A   1      35.205  23.258  24.424  1.00  0.00     0.058 A 
ATOM      7  C   UNL A   1      32.759  24.156  25.266  1.00  0.00     0.095 A 
ATOM      8  C   UNL A   1      33.911  24.711  25.827  1.00  0.00     0.030 A 
ATOM      9  N   UNL A   1      32.804  23.058  24.465  1.00  0.00    -0.255 NA
ATOM     10  C   UNL A   1      35.155  24.262  25.386  1.00  0.00     0.017 A 
ATOM     11  C   UNL A   1      34.024  22.630  24.067  1.00  0.00     0.125 A 
BRANCH   7  12
ATOM     12  C   UNL A   1      31.426  24.881  25.383  1.00  0.00     0.319 C 
BRANCH  12  13
ATOM     13  N   UNL A   1      31.340  26.175  24.662  1.00  0.00    -0.327 N 
ATOM     14  H   UNL A   1      32.308  26.472  24.532  1.00  0.00     0.348 HD
BRANCH  13  15
ATOM     15  C   UNL A   1      30.796  27.267  25.479  1.00  0.00     0.265 C 
BRANCH  15  16
ATOM     16  C   UNL A   1      31.735  28.473  25.754  1.00  0.00     0.038 C 
ATOM     17  C   UNL A   1      33.211  28.261  25.427  1.00  0.00     0.013 C 
ATOM     18  C   UNL A   1      31.232  29.679  24.947  1.00  0.00     0.013 C 
ENDBRANCH  15  16
ENDBRANCH  13  15
BRANCH  13  19
ATOM     19  C   UNL A   1      30.987  26.116  23.230  1.00  0.00     0.184 C 
ATOM     20  C   UNL A   1      31.038  27.279  22.270  1.00  0.00     0.071 C 
ATOM     21  C   UNL A   1      32.019  26.173  22.125  1.00  0.00     0.071 C 
ENDBRANCH  13  19
ENDBRANCH  12  13
ENDBRANCH   7  12
ENDBRANCH   3   6
ENDBRANCH   1   2
BRANCH   1  22
ATOM     22  C   UNL A   1      38.513  23.548  26.376  1.00  0.00     0.042 C 
BRANCH  22  23
ATOM     23  C   UNL A   1      39.877  23.222  26.978  1.00  0.00     0.118 C 
BRANCH  23  24
ATOM     24  N   UNL A   1      40.980  23.689  26.152  1.00  0.00    -0.352 N 
ATOM     25  C   UNL A   1      41.690  24.864  26.211  1.00  0.00     0.251 C 
ATOM     26  H   UNL A   1      41.260  23.069  25.440  1.00  0.00     0.163 HD
ATOM     27  O   UNL A   1      42.467  25.137  25.299  1.00  0.00    -0.269 OA
BRANCH  25  28
ATOM     28  C   UNL A   1      41.518  25.805  27.344  1.00  0.00     0.039 A 
ATOM     29  C   UNL A   1      42.377  26.905  27.440  1.00  0.00     0.014 A 
ATOM     30  C   UNL A   1      40.552  25.594  28.330  1.00  0.00     0.014 A 
ATOM     31  C   UNL A   1      42.234  27.813  28.493  1.00  0.00     0.010 A 
ATOM     32  C   UNL A   1      40.358  26.541  29.335  1.00  0.00     0.010 A 
ATOM     33  C   UNL A   1      41.205  27.656  29.436  1.00  0.00    -0.014 A 
BRANCH  33  34
ATOM     34  C   UNL A   1      41.015  28.630  30.545  1.00  0.00     0.031 A 
ATOM     35  C   UNL A   1      41.863  28.533  31.788  1.00  0.00     0.074 A 
ATOM     36  C   UNL A   1      40.045  29.564  30.460  1.00  0.00     0.049 A 
ATOM     37  N   UNL A   1      41.795  29.234  32.891  1.00  0.00    -0.248 NA
ATOM     38  C   UNL A   1      42.906  27.494  31.806  1.00  0.00     0.031 C 
ATOM     39  C   UNL A   1      39.130  29.735  29.330  1.00  0.00     0.029 A 
ATOM     40  N   UNL A   1      39.657  30.539  31.347  1.00  0.00    -0.354 N 
ATOM     41  C   UNL A   1      42.766  28.708  33.736  1.00  0.00     0.074 A 
ATOM     42  C   UNL A   1      43.381  27.602  33.038  1.00  0.00     0.031 C 
ATOM     43  C   UNL A   1      38.301  30.761  29.583  1.00  0.00     0.029 A 
ATOM     44  C   UNL A   1      38.596  31.297  30.908  1.00  0.00     0.049 A 
ATOM     45  H   UNL A   1      40.097  30.682  32.215  1.00  0.00     0.167 HD
ATOM     46  C   UNL A   1      43.127  29.124  34.975  1.00  0.00     0.037 A 
ATOM     47  C   UNL A   1      37.929  32.302  31.509  1.00  0.00     0.037 A 
ATOM     48  C   UNL A   1      42.542  30.255  35.647  1.00  0.00     0.049 A 
ATOM     49  C   UNL A   1      38.360  32.750  32.882  1.00  0.00     0.074 A 
ATOM     50  C   UNL A   1      42.888  30.797  36.873  1.00  0.00     0.029 A 
ATOM     51  N   UNL A   1      41.495  31.018  35.153  1.00  0.00    -0.354 N 
ATOM     52  N   UNL A   1      39.325  32.282  33.637  1.00  0.00    -0.248 NA
ATOM     53  C   UNL A   1      37.617  33.869  33.481  1.00  0.00     0.031 C 
ATOM     54  C   UNL A   1      42.019  31.859  37.142  1.00  0.00     0.029 A 
ATOM     55  C   UNL A   1      41.170  32.015  36.058  1.00  0.00     0.049 A 
ATOM     56  H   UNL A   1      41.049  30.873  34.288  1.00  0.00     0.167 HD
ATOM     57  C   UNL A   1      39.333  33.078  34.779  1.00  0.00     0.074 A 
ATOM     58  C   UNL A   1      38.282  34.058  34.613  1.00  0.00     0.031 C 
ATOM     59  C   UNL A   1      40.139  33.002  35.867  1.00  0.00     0.037 A 
BRANCH  46  60
ATOM     60  C   UNL A   1      44.213  28.368  35.691  1.00  0.00     0.058 A 
ATOM     61  C   UNL A   1      43.924  27.294  36.548  1.00  0.00     0.135 A 
ATOM     62  C   UNL A   1      45.563  28.669  35.451  1.00  0.00     0.135 A 
ATOM     63  F   UNL A   1      42.650  26.974  36.825  1.00  0.00    -0.206 F 
ATOM     64  C   UNL A   1      44.935  26.550  37.148  1.00  0.00     0.059 A 
ATOM     65  C   UNL A   1      46.591  27.921  36.020  1.00  0.00     0.059 A 
ATOM     66  F   UNL A   1      45.897  29.687  34.644  1.00  0.00    -0.206 F 
ATOM     67  C   UNL A   1      46.266  26.866  36.871  1.00  0.00     0.060 A 
BRANCH  67  68
ATOM     68  S   UNL A   1      47.563  25.860  37.621  1.00  0.00     0.124 S 
ATOM     69  O   UNL A   1      48.729  26.723  37.465  1.00  0.00    -0.237 OA
ATOM     70  O   UNL A   1      47.077  25.693  38.988  1.00  0.00    -0.237 OA
ATOM     71  O   UNL A   1      47.567  24.647  36.809  1.00  0.00    -0.744 OA
ENDBRANCH  67  68
ENDBRANCH  46  60
BRANCH  47  72
ATOM     72  C   UNL A   1      36.785  32.967  30.824  1.00  0.00     0.058 A 
ATOM     73  C   UNL A   1      37.001  33.907  29.803  1.00  0.00     0.135 A 
ATOM     74  C   UNL A   1      35.458  32.705  31.197  1.00  0.00     0.135 A 
ATOM     75  F   UNL A   1      38.251  34.196  29.411  1.00  0.00    -0.206 F 
ATOM     76  C   UNL A   1      35.948  34.592  29.207  1.00  0.00     0.059 A 
ATOM     77  C   UNL A   1      34.386  33.354  30.594  1.00  0.00     0.059 A 
ATOM     78  F   UNL A   1      35.193  31.800  32.153  1.00  0.00    -0.206 F 
ATOM     79  C   UNL A   1      34.642  34.311  29.614  1.00  0.00     0.060 A 
BRANCH  79  80
ATOM     80  S   UNL A   1      33.279  35.203  28.832  1.00  0.00     0.124 S 
ATOM     81  O   UNL A   1      33.992  36.236  28.090  1.00  0.00    -0.237 OA
ATOM     82  O   UNL A   1      32.650  34.159  28.029  1.00  0.00    -0.237 OA
ATOM     83  O   UNL A   1      32.490  35.670  29.969  1.00  0.00    -0.744 OA
ENDBRANCH  79  80
ENDBRANCH  47  72
BRANCH  59  84
ATOM     84  C   UNL A   1      39.965  34.047  36.935  1.00  0.00     0.058 A 
ATOM     85  C   UNL A   1      40.611  35.291  36.872  1.00  0.00     0.135 A 
ATOM     86  C   UNL A   1      39.096  33.813  38.014  1.00  0.00     0.135 A 
ATOM     87  F   UNL A   1      41.456  35.564  35.865  1.00  0.00    -0.206 F 
ATOM     88  C   UNL A   1      40.423  36.256  37.856  1.00  0.00     0.059 A 
ATOM     89  C   UNL A   1      38.869  34.775  38.992  1.00  0.00     0.059 A 
ATOM     90  F   UNL A   1      38.443  32.645  38.116  1.00  0.00    -0.206 F 
ATOM     91  C   UNL A   1      39.550  35.989  38.912  1.00  0.00     0.060 A 
BRANCH  91  92
ATOM     92  S   UNL A   1      39.294  37.262  40.167  1.00  0.00     0.124 S 
ATOM     93  O   UNL A   1      38.471  38.226  39.445  1.00  0.00    -0.237 OA
ATOM     94  O   UNL A   1      38.621  36.522  41.230  1.00  0.00    -0.237 OA
ATOM     95  O   UNL A   1      40.649  37.705  40.482  1.00  0.00    -0.744 OA
ENDBRANCH  91  92
ENDBRANCH  59  84
ENDBRANCH  33  34
ENDBRANCH  25  28
ENDBRANCH  23  24
ENDBRANCH  22  23
ENDBRANCH   1  22
TORSDOF 18
ENDMDL
MODEL 2
REMARK VINA RESULT:     -10.9      6.482     12.017
REMARK SMILES CC(C)C[N@@H+](Cc1ccc(C(=O)NCCCNC(=O)c2ccc(-c3c4nc(c(-c5c(F)cc(S(=O)(=O)[O-])cc5F)c5ccc([nH]5)c(-c5c(F)cc(S(=O)(=O)[O-])cc5F)c5nc(c(-c6c(F)cc(S(=O)(=O)[O-])cc6F)c6ccc3[nH]6)C=C5)C=C4)cc2)cn1)C1CC1
REMARK SMILES IDX 14 1 13 2 11 3 12 4 10 6 7 7 8 8 87 9 9 10 86 11 6 12 5 13
REMARK SMILES IDX 4 15 2 16 1 17 3 18 88 19 89 20 90 21 15 22 16 23 17 24
REMARK SMILES IDX 18 25 19 27 20 28 21 29 85 30 22 31 84 32 23 33 24 34 25 35
REMARK SMILES IDX 78 36 26 37 83 38 77 39 79 40 27 41 82 42 76 43 75 44 28 46
REMARK SMILES IDX 62 47 41 48 61 49 42 50 45 51 60 52 80 53 43 54 44 55 59 57
REMARK SMILES IDX 81 58 46 59 29 60 30 61 39 62 31 63 32 64 38 65 40 66 33 67
REMARK SMILES IDX 34 68 35 69 36 70 37 71 63 72 64 73 73 74 65 75 66 76 72 77
REMARK SMILES IDX 74 78 67 79 68 80 69 81 70 82 71 83 47 84 48 85 57 86 49 87
REMARK SMILES IDX 50 88 56 89 58 90 51 91 52 92 53 93 54 94 55 95
REMARK H PARENT 13 5 5 14 17 26 79 45 45 56
REMARK Flexibility Score: inf
ROOT
ATOM      1  C   UNL A   1      34.454  29.072  26.378  1.00  0.00     0.118 C 
ENDROOT
BRANCH   1   2
ATOM      2  N   UNL A   1      33.367  29.933  25.929  1.00  0.00    -0.352 N 
ATOM      3  C   UNL A   1      32.071  29.628  25.593  1.00  0.00     0.252 C 
ATOM      4  O   UNL A   1      31.265  30.530  25.377  1.00  0.00    -0.269 OA
ATOM      5  H   UNL A   1      33.599  30.886  25.855  1.00  0.00     0.163 HD
BRANCH   3   6
ATOM      6  C   UNL A   1      31.608  28.233  25.584  1.00  0.00     0.058 A 
ATOM      7  C   UNL A   1      31.198  25.539  25.849  1.00  0.00     0.095 A 
ATOM      8  C   UNL A   1      31.285  26.085  24.567  1.00  0.00     0.030 A 
ATOM      9  N   UNL A   1      31.114  26.318  26.961  1.00  0.00    -0.255 NA
ATOM     10  C   UNL A   1      31.508  27.455  24.436  1.00  0.00     0.017 A 
ATOM     11  C   UNL A   1      31.316  27.646  26.804  1.00  0.00     0.125 A 
BRANCH   7  12
ATOM     12  C   UNL A   1      31.385  24.042  26.057  1.00  0.00     0.319 C 
BRANCH  12  13
ATOM     13  N   UNL A   1      32.618  23.467  25.465  1.00  0.00    -0.327 N 
ATOM     14  H   UNL A   1      32.763  23.984  24.598  1.00  0.00     0.348 HD
BRANCH  13  15
ATOM     15  C   UNL A   1      32.447  22.093  24.974  1.00  0.00     0.265 C 
BRANCH  15  16
ATOM     16  C   UNL A   1      32.871  21.815  23.507  1.00  0.00     0.038 C 
ATOM     17  C   UNL A   1      32.180  20.640  22.820  1.00  0.00     0.013 C 
ATOM     18  C   UNL A   1      32.611  23.079  22.674  1.00  0.00     0.013 C 
ENDBRANCH  15  16
ENDBRANCH  13  15
BRANCH  13  19
ATOM     19  C   UNL A   1      33.896  23.839  26.102  1.00  0.00     0.184 C 
ATOM     20  C   UNL A   1      35.256  23.334  25.687  1.00  0.00     0.071 C 
ATOM     21  C   UNL A   1      34.905  24.757  25.445  1.00  0.00     0.071 C 
ENDBRANCH  13  19
ENDBRANCH  12  13
ENDBRANCH   7  12
ENDBRANCH   3   6
ENDBRANCH   1   2
BRANCH   1  22
ATOM     22  C   UNL A   1      34.771  29.281  27.857  1.00  0.00     0.042 C 
BRANCH  22  23
ATOM     23  C   UNL A   1      35.335  30.662  28.178  1.00  0.00     0.118 C 
BRANCH  23  24
ATOM     24  N   UNL A   1      35.357  30.940  29.606  1.00  0.00    -0.352 N 
ATOM     25  C   UNL A   1      36.338  30.693  30.537  1.00  0.00     0.251 C 
ATOM     26  H   UNL A   1      34.545  31.369  29.961  1.00  0.00     0.163 HD
ATOM     27  O   UNL A   1      36.079  30.843  31.729  1.00  0.00    -0.269 OA
BRANCH  25  28
ATOM     28  C   UNL A   1      37.686  30.236  30.124  1.00  0.00     0.039 A 
ATOM     29  C   UNL A   1      38.053  30.353  28.779  1.00  0.00     0.014 A 
ATOM     30  C   UNL A   1      38.573  29.656  31.035  1.00  0.00     0.014 A 
ATOM     31  C   UNL A   1      39.321  29.936  28.362  1.00  0.00     0.010 A 
ATOM     32  C   UNL A   1      39.864  29.314  30.633  1.00  0.00     0.010 A 
ATOM     33  C   UNL A   1      40.250  29.439  29.290  1.00  0.00    -0.014 A 
BRANCH  33  34
ATOM     34  C   UNL A   1      41.615  29.021  28.871  1.00  0.00     0.031 A 
ATOM     35  C   UNL A   1      42.730  30.034  28.813  1.00  0.00     0.074 A 
ATOM     36  C   UNL A   1      41.840  27.747  28.488  1.00  0.00     0.049 A 
ATOM     37  N   UNL A   1      43.963  29.884  28.399  1.00  0.00    -0.248 NA
ATOM     38  C   UNL A   1      42.413  31.403  29.253  1.00  0.00     0.031 C 
ATOM     39  C   UNL A   1      40.834  26.682  28.458  1.00  0.00     0.029 A 
ATOM     40  N   UNL A   1      42.983  27.133  28.038  1.00  0.00    -0.354 N 
ATOM     41  C   UNL A   1      44.556  31.136  28.507  1.00  0.00     0.074 A 
ATOM     42  C   UNL A   1      43.540  32.047  28.984  1.00  0.00     0.031 C 
ATOM     43  C   UNL A   1      41.408  25.545  28.031  1.00  0.00     0.029 A 
ATOM     44  C   UNL A   1      42.810  25.805  27.719  1.00  0.00     0.049 A 
ATOM     45  H   UNL A   1      43.845  27.598  27.953  1.00  0.00     0.167 HD
ATOM     46  C   UNL A   1      45.839  31.491  28.251  1.00  0.00     0.037 A 
ATOM     47  C   UNL A   1      43.678  24.903  27.220  1.00  0.00     0.037 A 
ATOM     48  C   UNL A   1      46.859  30.571  27.820  1.00  0.00     0.049 A 
ATOM     49  C   UNL A   1      45.101  25.324  26.956  1.00  0.00     0.074 A 
ATOM     50  C   UNL A   1      48.203  30.820  27.602  1.00  0.00     0.029 A 
ATOM     51  N   UNL A   1      46.651  29.228  27.542  1.00  0.00    -0.354 N 
ATOM     52  N   UNL A   1      45.659  26.498  27.129  1.00  0.00    -0.248 NA
ATOM     53  C   UNL A   1      46.015  24.295  26.439  1.00  0.00     0.031 C 
ATOM     54  C   UNL A   1      48.799  29.639  27.148  1.00  0.00     0.029 A 
ATOM     55  C   UNL A   1      47.839  28.641  27.138  1.00  0.00     0.049 A 
ATOM     56  H   UNL A   1      45.788  28.761  27.621  1.00  0.00     0.167 HD
ATOM     57  C   UNL A   1      46.997  26.337  26.783  1.00  0.00     0.074 A 
ATOM     58  C   UNL A   1      47.165  24.952  26.398  1.00  0.00     0.031 C 
ATOM     59  C   UNL A   1      47.997  27.253  26.785  1.00  0.00     0.037 A 
BRANCH  46  60
ATOM     60  C   UNL A   1      46.230  32.932  28.440  1.00  0.00     0.058 A 
ATOM     61  C   UNL A   1      46.737  33.406  29.659  1.00  0.00     0.135 A 
ATOM     62  C   UNL A   1      46.173  33.829  27.361  1.00  0.00     0.135 A 
ATOM     63  F   UNL A   1      46.796  32.595  30.728  1.00  0.00    -0.206 F 
ATOM     64  C   UNL A   1      47.168  34.721  29.806  1.00  0.00     0.059 A 
ATOM     65  C   UNL A   1      46.624  35.142  27.477  1.00  0.00     0.059 A 
ATOM     66  F   UNL A   1      45.694  33.431  26.172  1.00  0.00    -0.206 F 
ATOM     67  C   UNL A   1      47.115  35.579  28.706  1.00  0.00     0.060 A 
BRANCH  67  68
ATOM     68  S   UNL A   1      47.723  37.267  28.903  1.00  0.00     0.124 S 
ATOM     69  O   UNL A   1      49.167  37.056  28.927  1.00  0.00    -0.237 OA
ATOM     70  O   UNL A   1      47.200  37.927  27.711  1.00  0.00    -0.237 OA
ATOM     71  O   UNL A   1      47.131  37.698  30.165  1.00  0.00    -0.744 OA
ENDBRANCH  67  68
ENDBRANCH  46  60
BRANCH  47  72
ATOM     72  C   UNL A   1      43.241  23.507  26.940  1.00  0.00     0.058 A 
ATOM     73  C   UNL A   1      43.106  22.569  27.976  1.00  0.00     0.135 A 
ATOM     74  C   UNL A   1      42.984  23.071  25.631  1.00  0.00     0.135 A 
ATOM     75  F   UNL A   1      43.343  22.934  29.245  1.00  0.00    -0.206 F 
ATOM     76  C   UNL A   1      42.773  21.243  27.722  1.00  0.00     0.059 A 
ATOM     77  C   UNL A   1      42.618  21.758  25.354  1.00  0.00     0.059 A 
ATOM     78  F   UNL A   1      43.077  23.931  24.604  1.00  0.00    -0.206 F 
ATOM     79  C   UNL A   1      42.536  20.846  26.404  1.00  0.00     0.060 A 
BRANCH  79  80
ATOM     80  S   UNL A   1      42.100  19.122  26.083  1.00  0.00     0.124 S 
ATOM     81  O   UNL A   1      42.932  18.821  24.925  1.00  0.00    -0.237 OA
ATOM     82  O   UNL A   1      42.481  18.471  27.332  1.00  0.00    -0.237 OA
ATOM     83  O   UNL A   1      40.662  19.184  25.830  1.00  0.00    -0.744 OA
ENDBRANCH  79  80
ENDBRANCH  47  72
BRANCH  59  84
ATOM     84  C   UNL A   1      49.378  26.778  26.424  1.00  0.00     0.058 A 
ATOM     85  C   UNL A   1      50.181  26.066  27.329  1.00  0.00     0.135 A 
ATOM     86  C   UNL A   1      49.883  26.997  25.132  1.00  0.00     0.135 A 
ATOM     87  F   UNL A   1      49.747  25.834  28.578  1.00  0.00    -0.206 F 
ATOM     88  C   UNL A   1      51.447  25.613  26.974  1.00  0.00     0.059 A 
ATOM     89  C   UNL A   1      51.133  26.526  24.746  1.00  0.00     0.059 A 
ATOM     90  F   UNL A   1      49.152  27.661  24.223  1.00  0.00    -0.206 F 
ATOM     91  C   UNL A   1      51.914  25.847  25.680  1.00  0.00     0.060 A 
BRANCH  91  92
ATOM     92  S   UNL A   1      53.548  25.229  25.224  1.00  0.00     0.124 S 
ATOM     93  O   UNL A   1      53.559  25.459  23.784  1.00  0.00    -0.237 OA
ATOM     94  O   UNL A   1      54.435  26.080  26.011  1.00  0.00    -0.237 OA
ATOM     95  O   UNL A   1      53.507  23.828  25.635  1.00  0.00    -0.744 OA
ENDBRANCH  91  92
ENDBRANCH  59  84
ENDBRANCH  33  34
ENDBRANCH  25  28
ENDBRANCH  23  24
ENDBRANCH  22  23
ENDBRANCH   1  22
TORSDOF 18
ENDMDL
MODEL 3
REMARK VINA RESULT:     -10.8      3.062      3.935
REMARK SMILES CC(C)C[N@@H+](Cc1ccc(C(=O)NCCCNC(=O)c2ccc(-c3c4nc(c(-c5c(F)cc(S(=O)(=O)[O-])cc5F)c5ccc([nH]5)c(-c5c(F)cc(S(=O)(=O)[O-])cc5F)c5nc(c(-c6c(F)cc(S(=O)(=O)[O-])cc6F)c6ccc3[nH]6)C=C5)C=C4)cc2)cn1)C1CC1
REMARK SMILES IDX 14 1 13 2 11 3 12 4 10 6 7 7 8 8 87 9 9 10 86 11 6 12 5 13
REMARK SMILES IDX 4 15 2 16 1 17 3 18 88 19 89 20 90 21 15 22 16 23 17 24
REMARK SMILES IDX 18 25 19 27 20 28 21 29 85 30 22 31 84 32 23 33 24 34 25 35
REMARK SMILES IDX 78 36 26 37 83 38 77 39 79 40 27 41 82 42 76 43 75 44 28 46
REMARK SMILES IDX 62 47 41 48 61 49 42 50 45 51 60 52 80 53 43 54 44 55 59 57
REMARK SMILES IDX 81 58 46 59 29 60 30 61 39 62 31 63 32 64 38 65 40 66 33 67
REMARK SMILES IDX 34 68 35 69 36 70 37 71 63 72 64 73 73 74 65 75 66 76 72 77
REMARK SMILES IDX 74 78 67 79 68 80 69 81 70 82 71 83 47 84 48 85 57 86 49 87
REMARK SMILES IDX 50 88 56 89 58 90 51 91 52 92 53 93 54 94 55 95
REMARK H PARENT 13 5 5 14 17 26 79 45 45 56
REMARK Flexibility Score: inf
ROOT
ATOM      1  C   UNL A   1      34.589  22.649  24.363  1.00  0.00     0.118 C 
ENDROOT
BRANCH   1   2
ATOM      2  N   UNL A   1      33.727  21.559  24.802  1.00  0.00    -0.352 N 
ATOM      3  C   UNL A   1      32.383  21.544  25.080  1.00  0.00     0.252 C 
ATOM      4  O   UNL A   1      31.813  20.476  25.298  1.00  0.00    -0.269 OA
ATOM      5  H   UNL A   1      34.182  20.694  24.918  1.00  0.00     0.163 HD
BRANCH   3   6
ATOM      6  C   UNL A   1      31.592  22.781  25.023  1.00  0.00     0.058 A 
ATOM      7  C   UNL A   1      30.517  25.263  24.594  1.00  0.00     0.095 A 
ATOM      8  C   UNL A   1      30.812  24.873  25.901  1.00  0.00     0.030 A 
ATOM      9  N   UNL A   1      30.561  24.389  23.552  1.00  0.00    -0.255 NA
ATOM     10  C   UNL A   1      31.372  23.614  26.115  1.00  0.00     0.017 A 
ATOM     11  C   UNL A   1      31.092  23.168  23.790  1.00  0.00     0.125 A 
BRANCH   7  12
ATOM     12  C   UNL A   1      30.317  26.735  24.262  1.00  0.00     0.319 C 
BRANCH  12  13
ATOM     13  N   UNL A   1      31.525  27.586  24.391  1.00  0.00    -0.327 N 
ATOM     14  H   UNL A   1      32.101  27.125  25.096  1.00  0.00     0.348 HD
BRANCH  13  15
ATOM     15  C   UNL A   1      31.262  28.887  25.019  1.00  0.00     0.265 C 
BRANCH  15  16
ATOM     16  C   UNL A   1      32.068  29.221  26.304  1.00  0.00     0.038 C 
ATOM     17  C   UNL A   1      31.941  30.652  26.822  1.00  0.00     0.013 C 
ATOM     18  C   UNL A   1      31.627  28.264  27.422  1.00  0.00     0.013 C 
ENDBRANCH  15  16
ENDBRANCH  13  15
BRANCH  13  19
ATOM     19  C   UNL A   1      32.509  27.515  23.293  1.00  0.00     0.184 C 
ATOM     20  C   UNL A   1      33.914  28.063  23.344  1.00  0.00     0.071 C 
ATOM     21  C   UNL A   1      33.708  26.592  23.322  1.00  0.00     0.071 C 
ENDBRANCH  13  19
ENDBRANCH  12  13
ENDBRANCH   7  12
ENDBRANCH   3   6
ENDBRANCH   1   2
BRANCH   1  22
ATOM     22  C   UNL A   1      35.199  23.403  25.541  1.00  0.00     0.042 C 
BRANCH  22  23
ATOM     23  C   UNL A   1      36.618  23.904  25.284  1.00  0.00     0.118 C 
BRANCH  23  24
ATOM     24  N   UNL A   1      37.625  22.881  25.522  1.00  0.00    -0.352 N 
ATOM     25  C   UNL A   1      38.861  22.982  26.116  1.00  0.00     0.251 C 
ATOM     26  H   UNL A   1      37.386  21.979  25.209  1.00  0.00     0.163 HD
ATOM     27  O   UNL A   1      39.631  22.027  26.053  1.00  0.00    -0.269 OA
BRANCH  25  28
ATOM     28  C   UNL A   1      39.277  24.224  26.810  1.00  0.00     0.039 A 
ATOM     29  C   UNL A   1      38.885  24.414  28.139  1.00  0.00     0.014 A 
ATOM     30  C   UNL A   1      40.007  25.218  26.155  1.00  0.00     0.014 A 
ATOM     31  C   UNL A   1      39.269  25.573  28.821  1.00  0.00     0.010 A 
ATOM     32  C   UNL A   1      40.456  26.335  26.859  1.00  0.00     0.010 A 
ATOM     33  C   UNL A   1      40.082  26.533  28.197  1.00  0.00    -0.014 A 
BRANCH  33  34
ATOM     34  C   UNL A   1      40.528  27.757  28.916  1.00  0.00     0.031 A 
ATOM     35  C   UNL A   1      41.894  27.803  29.553  1.00  0.00     0.074 A 
ATOM     36  C   UNL A   1      39.686  28.803  29.047  1.00  0.00     0.049 A 
ATOM     37  N   UNL A   1      42.432  28.743  30.287  1.00  0.00    -0.248 NA
ATOM     38  C   UNL A   1      42.760  26.628  29.362  1.00  0.00     0.031 C 
ATOM     39  C   UNL A   1      38.323  28.865  28.515  1.00  0.00     0.029 A 
ATOM     40  N   UNL A   1      39.847  30.011  29.680  1.00  0.00    -0.354 N 
ATOM     41  C   UNL A   1      43.682  28.265  30.662  1.00  0.00     0.074 A 
ATOM     42  C   UNL A   1      43.809  26.934  30.111  1.00  0.00     0.031 C 
ATOM     43  C   UNL A   1      37.780  30.053  28.828  1.00  0.00     0.029 A 
ATOM     44  C   UNL A   1      38.737  30.823  29.616  1.00  0.00     0.049 A 
ATOM     45  H   UNL A   1      40.678  30.272  30.137  1.00  0.00     0.167 HD
ATOM     46  C   UNL A   1      44.647  28.887  31.382  1.00  0.00     0.037 A 
ATOM     47  C   UNL A   1      38.512  32.043  30.142  1.00  0.00     0.037 A 
ATOM     48  C   UNL A   1      44.534  30.231  31.889  1.00  0.00     0.049 A 
ATOM     49  C   UNL A   1      39.608  32.716  30.928  1.00  0.00     0.074 A 
ATOM     50  C   UNL A   1      45.483  30.974  32.569  1.00  0.00     0.029 A 
ATOM     51  N   UNL A   1      43.408  31.031  31.771  1.00  0.00    -0.354 N 
ATOM     52  N   UNL A   1      40.809  32.273  31.214  1.00  0.00    -0.248 NA
ATOM     53  C   UNL A   1      39.321  34.058  31.456  1.00  0.00     0.031 C 
ATOM     54  C   UNL A   1      44.915  32.207  32.904  1.00  0.00     0.029 A 
ATOM     55  C   UNL A   1      43.633  32.254  32.382  1.00  0.00     0.049 A 
ATOM     56  H   UNL A   1      42.573  30.770  31.320  1.00  0.00     0.167 HD
ATOM     57  C   UNL A   1      41.434  33.298  31.916  1.00  0.00     0.074 A 
ATOM     58  C   UNL A   1      40.482  34.384  32.006  1.00  0.00     0.031 C 
ATOM     59  C   UNL A   1      42.685  33.337  32.439  1.00  0.00     0.037 A 
BRANCH  46  60
ATOM     60  C   UNL A   1      45.921  28.138  31.662  1.00  0.00     0.058 A 
ATOM     61  C   UNL A   1      47.026  28.212  30.799  1.00  0.00     0.135 A 
ATOM     62  C   UNL A   1      46.067  27.404  32.850  1.00  0.00     0.135 A 
ATOM     63  F   UNL A   1      46.936  28.886  29.642  1.00  0.00    -0.206 F 
ATOM     64  C   UNL A   1      48.228  27.579  31.100  1.00  0.00     0.059 A 
ATOM     65  C   UNL A   1      47.268  26.785  33.185  1.00  0.00     0.059 A 
ATOM     66  F   UNL A   1      45.041  27.296  33.709  1.00  0.00    -0.206 F 
ATOM     67  C   UNL A   1      48.342  26.875  32.300  1.00  0.00     0.060 A 
BRANCH  67  68
ATOM     68  S   UNL A   1      49.924  26.100  32.696  1.00  0.00     0.124 S 
ATOM     69  O   UNL A   1      50.867  27.113  32.236  1.00  0.00    -0.237 OA
ATOM     70  O   UNL A   1      49.833  25.929  34.143  1.00  0.00    -0.237 OA
ATOM     71  O   UNL A   1      49.902  24.865  31.920  1.00  0.00    -0.744 OA
ENDBRANCH  67  68
ENDBRANCH  46  60
BRANCH  47  72
ATOM     72  C   UNL A   1      37.202  32.723  29.942  1.00  0.00     0.058 A 
ATOM     73  C   UNL A   1      37.009  33.627  28.886  1.00  0.00     0.135 A 
ATOM     74  C   UNL A   1      36.128  32.511  30.820  1.00  0.00     0.135 A 
ATOM     75  F   UNL A   1      38.005  33.868  28.019  1.00  0.00    -0.206 F 
ATOM     76  C   UNL A   1      35.817  34.327  28.731  1.00  0.00     0.059 A 
ATOM     77  C   UNL A   1      34.915  33.175  30.668  1.00  0.00     0.059 A 
ATOM     78  F   UNL A   1      36.250  31.641  31.836  1.00  0.00    -0.206 F 
ATOM     79  C   UNL A   1      34.776  34.096  29.632  1.00  0.00     0.060 A 
BRANCH  79  80
ATOM     80  S   UNL A   1      33.229  35.006  29.423  1.00  0.00     0.124 S 
ATOM     81  O   UNL A   1      33.714  36.312  28.992  1.00  0.00    -0.237 OA
ATOM     82  O   UNL A   1      32.542  34.212  28.409  1.00  0.00    -0.237 OA
ATOM     83  O   UNL A   1      32.633  34.961  30.755  1.00  0.00    -0.744 OA
ENDBRANCH  79  80
ENDBRANCH  47  72
BRANCH  59  84
ATOM     84  C   UNL A   1      43.125  34.616  33.097  1.00  0.00     0.058 A 
ATOM     85  C   UNL A   1      43.806  35.620  32.391  1.00  0.00     0.135 A 
ATOM     86  C   UNL A   1      42.814  34.859  34.445  1.00  0.00     0.135 A 
ATOM     87  F   UNL A   1      44.132  35.437  31.101  1.00  0.00    -0.206 F 
ATOM     88  C   UNL A   1      44.187  36.808  33.006  1.00  0.00     0.059 A 
ATOM     89  C   UNL A   1      43.157  36.052  35.072  1.00  0.00     0.059 A 
ATOM     90  F   UNL A   1      42.153  33.937  35.163  1.00  0.00    -0.206 F 
ATOM     91  C   UNL A   1      43.858  37.015  34.347  1.00  0.00     0.060 A 
BRANCH  91  92
ATOM     92  S   UNL A   1      44.334  38.572  35.125  1.00  0.00     0.124 S 
ATOM     93  O   UNL A   1      43.427  39.515  34.479  1.00  0.00    -0.237 OA
ATOM     94  O   UNL A   1      44.076  38.309  36.537  1.00  0.00    -0.237 OA
ATOM     95  O   UNL A   1      45.743  38.713  34.768  1.00  0.00    -0.744 OA
ENDBRANCH  91  92
ENDBRANCH  59  84
ENDBRANCH  33  34
ENDBRANCH  25  28
ENDBRANCH  23  24
ENDBRANCH  22  23
ENDBRANCH   1  22
TORSDOF 18
ENDMDL
